MODEL 1
REMARK VINA RESULT:     -11.0      0.000      0.000
REMARK SMILES CC(C)CCOc1ccccc1-c1cc(C(=O)NCCCCCCNC(=O)c2ccc(-c3c4nc(c(-c5ccccc5)c5ccc([nH]5)c(-c5ccccc5)c5nc(c(-c6ccccc6)c6ccc3[nH]6)C=C5)C=C4)cc2)no1
REMARK SMILES IDX 20 1 19 2 18 3 16 4 17 5 15 7 13 8 14 9 77 10 76 11 12 12
REMARK SMILES IDX 7 13 8 14 9 15 11 16 10 17 6 18 5 19 4 20 2 21 1 22 3 23
REMARK SMILES IDX 21 24 22 25 23 26 24 27 25 28 26 29 27 31 28 32 29 33 75 34
REMARK SMILES IDX 30 35 74 36 31 37 32 38 33 39 68 40 34 41 73 42 67 43 69 44
REMARK SMILES IDX 35 45 72 46 66 47 65 48 36 50 58 51 43 52 57 53 44 54 47 55
REMARK SMILES IDX 56 56 70 57 45 58 46 59 55 61 71 62 48 63 37 64 38 65 42 66
REMARK SMILES IDX 39 67 41 68 40 69 59 70 60 71 64 72 61 73 63 74 62 75 49 76
REMARK SMILES IDX 50 77 54 78 51 79 53 80 52 81
REMARK H PARENT 18 6 25 30 69 49 47 60
REMARK Flexibility Score: inf
ROOT
ATOM      1  C   UNL A   1      33.990  28.392  25.781  1.00  0.00     0.021 C 
ENDROOT
BRANCH   1   2
ATOM      2  C   UNL A   1      33.517  27.101  25.113  1.00  0.00     0.116 C 
BRANCH   2   3
ATOM      3  N   UNL A   1      33.827  27.064  23.697  1.00  0.00    -0.351 N 
ATOM      4  C   UNL A   1      33.452  26.220  22.672  1.00  0.00     0.273 C 
ATOM      5  O   UNL A   1      33.779  26.561  21.536  1.00  0.00    -0.267 OA
ATOM      6  H   UNL A   1      34.426  27.790  23.407  1.00  0.00     0.163 HD
BRANCH   4   7
ATOM      7  C   UNL A   1      32.721  24.967  22.930  1.00  0.00     0.171 A 
ATOM      8  C   UNL A   1      32.158  22.126  22.885  1.00  0.00     0.171 A 
ATOM      9  C   UNL A   1      33.268  23.250  22.504  1.00  0.00     0.088 A 
ATOM     10  O   UNL A   1      30.634  23.036  23.519  1.00  0.00    -0.355 OA
ATOM     11  N   UNL A   1      31.140  24.982  23.528  1.00  0.00    -0.074 NA
BRANCH   8  12
ATOM     12  C   UNL A   1      32.362  20.757  23.334  1.00  0.00     0.062 A 
ATOM     13  C   UNL A   1      32.587  20.547  24.717  1.00  0.00     0.130 A 
ATOM     14  C   UNL A   1      32.699  19.258  25.222  1.00  0.00     0.047 A 
ATOM     15  C   UNL A   1      32.595  18.175  24.350  1.00  0.00     0.004 A 
ATOM     16  C   UNL A   1      32.266  19.674  22.467  1.00  0.00     0.016 A 
ATOM     17  C   UNL A   1      32.397  18.382  22.979  1.00  0.00     0.001 A 
BRANCH  13  18
ATOM     18  O   UNL A   1      32.815  21.593  25.589  1.00  0.00    -0.493 OA
BRANCH  18  19
ATOM     19  C   UNL A   1      34.090  21.547  26.258  1.00  0.00     0.230 C 
BRANCH  19  20
ATOM     20  C   UNL A   1      35.137  22.460  25.574  1.00  0.00     0.044 C 
BRANCH  20  21
ATOM     21  C   UNL A   1      36.165  21.571  24.572  1.00  0.00    -0.014 C 
ATOM     22  C   UNL A   1      36.671  22.862  23.474  1.00  0.00     0.007 C 
ATOM     23  C   UNL A   1      37.438  19.725  24.869  1.00  0.00     0.007 C 
ENDBRANCH  20  21
ENDBRANCH  19  20
ENDBRANCH  18  19
ENDBRANCH  13  18
ENDBRANCH   8  12
ENDBRANCH   4   7
ENDBRANCH   2   3
ENDBRANCH   1   2
BRANCH   1  24
ATOM     24  C   UNL A   1      32.894  29.061  26.618  1.00  0.00     0.002 C 
BRANCH  24  25
ATOM     25  C   UNL A   1      32.074  30.119  25.864  1.00  0.00     0.002 C 
BRANCH  25  26
ATOM     26  C   UNL A   1      31.693  31.345  26.695  1.00  0.00     0.021 C 
BRANCH  26  27
ATOM     27  C   UNL A   1      32.887  32.040  27.341  1.00  0.00     0.116 C 
BRANCH  27  28
ATOM     28  N   UNL A   1      32.615  33.452  27.578  1.00  0.00    -0.352 N 
ATOM     29  C   UNL A   1      33.208  34.314  28.465  1.00  0.00     0.251 C 
ATOM     30  H   UNL A   1      31.903  33.843  27.021  1.00  0.00     0.163 HD
ATOM     31  O   UNL A   1      32.688  35.391  28.731  1.00  0.00    -0.269 OA
BRANCH  29  32
ATOM     32  C   UNL A   1      34.476  33.922  29.107  1.00  0.00     0.039 A 
ATOM     33  C   UNL A   1      34.443  33.183  30.290  1.00  0.00     0.014 A 
ATOM     34  C   UNL A   1      35.695  34.269  28.518  1.00  0.00     0.014 A 
ATOM     35  C   UNL A   1      35.638  32.720  30.841  1.00  0.00     0.010 A 
ATOM     36  C   UNL A   1      36.875  33.737  29.020  1.00  0.00     0.010 A 
ATOM     37  C   UNL A   1      36.857  32.952  30.183  1.00  0.00    -0.014 A 
BRANCH  37  38
ATOM     38  C   UNL A   1      38.125  32.359  30.672  1.00  0.00     0.031 A 
ATOM     39  C   UNL A   1      38.633  31.071  30.089  1.00  0.00     0.074 A 
ATOM     40  C   UNL A   1      38.777  32.943  31.697  1.00  0.00     0.049 A 
ATOM     41  N   UNL A   1      39.676  30.363  30.439  1.00  0.00    -0.248 NA
ATOM     42  C   UNL A   1      37.854  30.494  28.982  1.00  0.00     0.031 C 
ATOM     43  C   UNL A   1      38.374  34.184  32.362  1.00  0.00     0.029 A 
ATOM     44  N   UNL A   1      39.916  32.565  32.361  1.00  0.00    -0.354 N 
ATOM     45  C   UNL A   1      39.674  29.255  29.603  1.00  0.00     0.074 A 
ATOM     46  C   UNL A   1      38.494  29.353  28.772  1.00  0.00     0.031 C 
ATOM     47  C   UNL A   1      39.272  34.484  33.313  1.00  0.00     0.029 A 
ATOM     48  C   UNL A   1      40.277  33.429  33.367  1.00  0.00     0.049 A 
ATOM     49  H   UNL A   1      40.426  31.754  32.139  1.00  0.00     0.167 HD
ATOM     50  C   UNL A   1      40.583  28.254  29.519  1.00  0.00     0.031 A 
ATOM     51  C   UNL A   1      41.297  33.370  34.244  1.00  0.00     0.031 A 
ATOM     52  C   UNL A   1      41.745  28.148  30.363  1.00  0.00     0.049 A 
ATOM     53  C   UNL A   1      42.246  32.205  34.186  1.00  0.00     0.074 A 
ATOM     54  C   UNL A   1      42.743  27.190  30.339  1.00  0.00     0.029 A 
ATOM     55  N   UNL A   1      42.055  29.024  31.393  1.00  0.00    -0.354 N 
ATOM     56  N   UNL A   1      42.269  31.197  33.348  1.00  0.00    -0.248 NA
ATOM     57  C   UNL A   1      43.312  32.171  35.197  1.00  0.00     0.031 C 
ATOM     58  C   UNL A   1      43.615  27.443  31.402  1.00  0.00     0.029 A 
ATOM     59  C   UNL A   1      43.207  28.604  32.037  1.00  0.00     0.049 A 
ATOM     60  H   UNL A   1      41.533  29.824  31.631  1.00  0.00     0.167 HD
ATOM     61  C   UNL A   1      43.369  30.430  33.707  1.00  0.00     0.074 A 
ATOM     62  C   UNL A   1      43.997  31.097  34.829  1.00  0.00     0.031 C 
ATOM     63  C   UNL A   1      43.821  29.277  33.155  1.00  0.00     0.031 A 
BRANCH  50  64
ATOM     64  C   UNL A   1      40.336  27.181  28.492  1.00  0.00    -0.014 A 
ATOM     65  C   UNL A   1      39.570  26.043  28.794  1.00  0.00     0.009 A 
ATOM     66  C   UNL A   1      40.864  27.317  27.198  1.00  0.00     0.009 A 
ATOM     67  C   UNL A   1      39.383  25.040  27.839  1.00  0.00     0.001 A 
ATOM     68  C   UNL A   1      40.642  26.332  26.234  1.00  0.00     0.001 A 
ATOM     69  C   UNL A   1      39.915  25.187  26.559  1.00  0.00     0.000 A 
ENDBRANCH  50  64
BRANCH  51  70
ATOM     70  C   UNL A   1      41.481  34.450  35.250  1.00  0.00    -0.014 A 
ATOM     71  C   UNL A   1      40.815  34.390  36.484  1.00  0.00     0.009 A 
ATOM     72  C   UNL A   1      42.311  35.550  34.983  1.00  0.00     0.009 A 
ATOM     73  C   UNL A   1      40.950  35.423  37.415  1.00  0.00     0.001 A 
ATOM     74  C   UNL A   1      42.472  36.564  35.929  1.00  0.00     0.001 A 
ATOM     75  C   UNL A   1      41.783  36.506  37.139  1.00  0.00     0.000 A 
ENDBRANCH  51  70
BRANCH  63  76
ATOM     76  C   UNL A   1      45.076  28.678  33.729  1.00  0.00    -0.014 A 
ATOM     77  C   UNL A   1      46.349  29.094  33.305  1.00  0.00     0.009 A 
ATOM     78  C   UNL A   1      44.982  27.723  34.754  1.00  0.00     0.009 A 
ATOM     79  C   UNL A   1      47.498  28.543  33.875  1.00  0.00     0.001 A 
ATOM     80  C   UNL A   1      46.132  27.200  35.347  1.00  0.00     0.001 A 
ATOM     81  C   UNL A   1      47.389  27.604  34.900  1.00  0.00     0.000 A 
ENDBRANCH  63  76
ENDBRANCH  37  38
ENDBRANCH  29  32
ENDBRANCH  27  28
ENDBRANCH  26  27
ENDBRANCH  25  26
ENDBRANCH  24  25
ENDBRANCH   1  24
TORSDOF 18
ENDMDL
MODEL 2
REMARK VINA RESULT:     -11.0      1.188      2.372
REMARK SMILES CC(C)CCOc1ccccc1-c1cc(C(=O)NCCCCCCNC(=O)c2ccc(-c3c4nc(c(-c5ccccc5)c5ccc([nH]5)c(-c5ccccc5)c5nc(c(-c6ccccc6)c6ccc3[nH]6)C=C5)C=C4)cc2)no1
REMARK SMILES IDX 20 1 19 2 18 3 16 4 17 5 15 7 13 8 14 9 77 10 76 11 12 12
REMARK SMILES IDX 7 13 8 14 9 15 11 16 10 17 6 18 5 19 4 20 2 21 1 22 3 23
REMARK SMILES IDX 21 24 22 25 23 26 24 27 25 28 26 29 27 31 28 32 29 33 75 34
REMARK SMILES IDX 30 35 74 36 31 37 32 38 33 39 68 40 34 41 73 42 67 43 69 44
REMARK SMILES IDX 35 45 72 46 66 47 65 48 36 50 58 51 43 52 57 53 44 54 47 55
REMARK SMILES IDX 56 56 70 57 45 58 46 59 55 61 71 62 48 63 37 64 38 65 42 66
REMARK SMILES IDX 39 67 41 68 40 69 59 70 60 71 64 72 61 73 63 74 62 75 49 76
REMARK SMILES IDX 50 77 54 78 51 79 53 80 52 81
REMARK H PARENT 18 6 25 30 69 49 47 60
REMARK Flexibility Score: inf
ROOT
ATOM      1  C   UNL A   1      30.346  28.308  24.081  1.00  0.00     0.021 C 
ENDROOT
BRANCH   1   2
ATOM      2  C   UNL A   1      30.784  27.504  22.858  1.00  0.00     0.116 C 
BRANCH   2   3
ATOM      3  N   UNL A   1      32.026  27.992  22.289  1.00  0.00    -0.351 N 
ATOM      4  C   UNL A   1      33.342  27.600  22.422  1.00  0.00     0.273 C 
ATOM      5  O   UNL A   1      34.152  28.143  21.672  1.00  0.00    -0.267 OA
ATOM      6  H   UNL A   1      31.905  28.760  21.684  1.00  0.00     0.163 HD
BRANCH   4   7
ATOM      7  C   UNL A   1      33.754  26.602  23.424  1.00  0.00     0.171 A 
ATOM      8  C   UNL A   1      34.469  24.009  24.497  1.00  0.00     0.171 A 
ATOM      9  C   UNL A   1      34.108  24.808  23.130  1.00  0.00     0.088 A 
ATOM     10  O   UNL A   1      34.259  25.219  25.926  1.00  0.00    -0.355 OA
ATOM     11  N   UNL A   1      33.788  26.977  25.072  1.00  0.00    -0.074 NA
BRANCH   8  12
ATOM     12  C   UNL A   1      35.382  22.892  24.688  1.00  0.00     0.062 A 
ATOM     13  C   UNL A   1      34.821  21.638  25.039  1.00  0.00     0.130 A 
ATOM     14  C   UNL A   1      35.629  20.513  25.147  1.00  0.00     0.047 A 
ATOM     15  C   UNL A   1      36.998  20.635  24.914  1.00  0.00     0.004 A 
ATOM     16  C   UNL A   1      36.749  23.009  24.463  1.00  0.00     0.016 A 
ATOM     17  C   UNL A   1      37.558  21.878  24.590  1.00  0.00     0.001 A 
BRANCH  13  18
ATOM     18  O   UNL A   1      33.494  21.504  25.394  1.00  0.00    -0.493 OA
BRANCH  18  19
ATOM     19  C   UNL A   1      32.992  20.155  25.336  1.00  0.00     0.230 C 
BRANCH  19  20
ATOM     20  C   UNL A   1      32.453  19.797  23.929  1.00  0.00     0.044 C 
BRANCH  20  21
ATOM     21  C   UNL A   1      32.817  18.199  23.520  1.00  0.00    -0.014 C 
ATOM     22  C   UNL A   1      32.226  18.195  21.854  1.00  0.00     0.007 C 
ATOM     23  C   UNL A   1      34.384  16.720  24.207  1.00  0.00     0.007 C 
ENDBRANCH  20  21
ENDBRANCH  19  20
ENDBRANCH  18  19
ENDBRANCH  13  18
ENDBRANCH   8  12
ENDBRANCH   4   7
ENDBRANCH   2   3
ENDBRANCH   1   2
BRANCH   1  24
ATOM     24  C   UNL A   1      31.131  29.614  24.244  1.00  0.00     0.002 C 
BRANCH  24  25
ATOM     25  C   UNL A   1      31.997  29.681  25.510  1.00  0.00     0.002 C 
BRANCH  25  26
ATOM     26  C   UNL A   1      31.610  30.790  26.491  1.00  0.00     0.021 C 
BRANCH  26  27
ATOM     27  C   UNL A   1      32.804  31.550  27.056  1.00  0.00     0.116 C 
BRANCH  27  28
ATOM     28  N   UNL A   1      32.466  32.941  27.331  1.00  0.00    -0.352 N 
ATOM     29  C   UNL A   1      33.063  33.826  28.192  1.00  0.00     0.251 C 
ATOM     30  H   UNL A   1      31.699  33.296  26.826  1.00  0.00     0.163 HD
ATOM     31  O   UNL A   1      32.499  34.868  28.507  1.00  0.00    -0.269 OA
BRANCH  29  32
ATOM     32  C   UNL A   1      34.390  33.503  28.747  1.00  0.00     0.039 A 
ATOM     33  C   UNL A   1      34.476  32.884  29.995  1.00  0.00     0.014 A 
ATOM     34  C   UNL A   1      35.545  33.792  28.015  1.00  0.00     0.014 A 
ATOM     35  C   UNL A   1      35.723  32.480  30.474  1.00  0.00     0.010 A 
ATOM     36  C   UNL A   1      36.773  33.316  28.454  1.00  0.00     0.010 A 
ATOM     37  C   UNL A   1      36.873  32.649  29.684  1.00  0.00    -0.014 A 
BRANCH  37  38
ATOM     38  C   UNL A   1      38.187  32.111  30.108  1.00  0.00     0.031 A 
ATOM     39  C   UNL A   1      38.659  30.778  29.599  1.00  0.00     0.074 A 
ATOM     40  C   UNL A   1      38.920  32.788  31.013  1.00  0.00     0.049 A 
ATOM     41  N   UNL A   1      39.739  30.110  29.915  1.00  0.00    -0.248 NA
ATOM     42  C   UNL A   1      37.793  30.099  28.623  1.00  0.00     0.031 C 
ATOM     43  C   UNL A   1      38.561  34.082  31.598  1.00  0.00     0.029 A 
ATOM     44  N   UNL A   1      40.119  32.479  31.602  1.00  0.00    -0.354 N 
ATOM     45  C   UNL A   1      39.678  28.932  29.184  1.00  0.00     0.074 A 
ATOM     46  C   UNL A   1      38.427  28.948  28.459  1.00  0.00     0.031 C 
ATOM     47  C   UNL A   1      39.536  34.472  32.433  1.00  0.00     0.029 A 
ATOM     48  C   UNL A   1      40.557  33.431  32.490  1.00  0.00     0.049 A 
ATOM     49  H   UNL A   1      40.618  31.654  31.408  1.00  0.00     0.167 HD
ATOM     50  C   UNL A   1      40.590  27.933  29.108  1.00  0.00     0.031 A 
ATOM     51  C   UNL A   1      41.652  33.458  33.273  1.00  0.00     0.031 A 
ATOM     52  C   UNL A   1      41.824  27.911  29.850  1.00  0.00     0.049 A 
ATOM     53  C   UNL A   1      42.608  32.298  33.234  1.00  0.00     0.074 A 
ATOM     54  C   UNL A   1      42.829  26.960  29.821  1.00  0.00     0.029 A 
ATOM     55  N   UNL A   1      42.213  28.877  30.766  1.00  0.00    -0.354 N 
ATOM     56  N   UNL A   1      42.570  31.220  32.490  1.00  0.00    -0.248 NA
ATOM     57  C   UNL A   1      43.761  32.363  34.143  1.00  0.00     0.031 C 
ATOM     58  C   UNL A   1      43.790  27.313  30.774  1.00  0.00     0.029 A 
ATOM     59  C   UNL A   1      43.424  28.524  31.338  1.00  0.00     0.049 A 
ATOM     60  H   UNL A   1      41.703  29.693  30.977  1.00  0.00     0.167 HD
ATOM     61  C   UNL A   1      43.709  30.494  32.816  1.00  0.00     0.074 A 
ATOM     62  C   UNL A   1      44.425  31.264  33.812  1.00  0.00     0.031 C 
ATOM     63  C   UNL A   1      44.125  29.299  32.330  1.00  0.00     0.031 A 
BRANCH  50  64
ATOM     64  C   UNL A   1      40.267  26.770  28.208  1.00  0.00    -0.014 A 
ATOM     65  C   UNL A   1      39.415  25.736  28.628  1.00  0.00     0.009 A 
ATOM     66  C   UNL A   1      40.810  26.715  26.915  1.00  0.00     0.009 A 
ATOM     67  C   UNL A   1      39.156  24.646  27.792  1.00  0.00     0.001 A 
ATOM     68  C   UNL A   1      40.518  25.645  26.067  1.00  0.00     0.001 A 
ATOM     69  C   UNL A   1      39.705  24.604  26.511  1.00  0.00     0.000 A 
ENDBRANCH  50  64
BRANCH  51  70
ATOM     70  C   UNL A   1      41.910  34.626  34.158  1.00  0.00    -0.014 A 
ATOM     71  C   UNL A   1      42.655  35.719  33.690  1.00  0.00     0.009 A 
ATOM     72  C   UNL A   1      41.426  34.652  35.475  1.00  0.00     0.009 A 
ATOM     73  C   UNL A   1      42.937  36.798  34.532  1.00  0.00     0.001 A 
ATOM     74  C   UNL A   1      41.679  35.747  36.304  1.00  0.00     0.001 A 
ATOM     75  C   UNL A   1      42.443  36.814  35.835  1.00  0.00     0.000 A 
ENDBRANCH  51  70
BRANCH  63  76
ATOM     76  C   UNL A   1      45.436  28.762  32.840  1.00  0.00    -0.014 A 
ATOM     77  C   UNL A   1      45.497  27.904  33.949  1.00  0.00     0.009 A 
ATOM     78  C   UNL A   1      46.624  29.076  32.160  1.00  0.00     0.009 A 
ATOM     79  C   UNL A   1      46.723  27.397  34.383  1.00  0.00     0.001 A 
ATOM     80  C   UNL A   1      47.843  28.539  32.574  1.00  0.00     0.001 A 
ATOM     81  C   UNL A   1      47.893  27.707  33.691  1.00  0.00     0.000 A 
ENDBRANCH  63  76
ENDBRANCH  37  38
ENDBRANCH  29  32
ENDBRANCH  27  28
ENDBRANCH  26  27
ENDBRANCH  25  26
ENDBRANCH  24  25
ENDBRANCH   1  24
TORSDOF 18
ENDMDL
MODEL 3
REMARK VINA RESULT:     -10.9      2.764      6.949
REMARK SMILES CC(C)CCOc1ccccc1-c1cc(C(=O)NCCCCCCNC(=O)c2ccc(-c3c4nc(c(-c5ccccc5)c5ccc([nH]5)c(-c5ccccc5)c5nc(c(-c6ccccc6)c6ccc3[nH]6)C=C5)C=C4)cc2)no1
REMARK SMILES IDX 20 1 19 2 18 3 16 4 17 5 15 7 13 8 14 9 77 10 76 11 12 12
REMARK SMILES IDX 7 13 8 14 9 15 11 16 10 17 6 18 5 19 4 20 2 21 1 22 3 23
REMARK SMILES IDX 21 24 22 25 23 26 24 27 25 28 26 29 27 31 28 32 29 33 75 34
REMARK SMILES IDX 30 35 74 36 31 37 32 38 33 39 68 40 34 41 73 42 67 43 69 44
REMARK SMILES IDX 35 45 72 46 66 47 65 48 36 50 58 51 43 52 57 53 44 54 47 55
REMARK SMILES IDX 56 56 70 57 45 58 46 59 55 61 71 62 48 63 37 64 38 65 42 66
REMARK SMILES IDX 39 67 41 68 40 69 59 70 60 71 64 72 61 73 63 74 62 75 49 76
REMARK SMILES IDX 50 77 54 78 51 79 53 80 52 81
REMARK H PARENT 18 6 25 30 69 49 47 60
REMARK Flexibility Score: inf
ROOT
ATOM      1  C   UNL A   1      30.319  27.698  23.786  1.00  0.00     0.021 C 
ENDROOT
BRANCH   1   2
ATOM      2  C   UNL A   1      30.605  27.158  22.385  1.00  0.00     0.116 C 
BRANCH   2   3
ATOM      3  N   UNL A   1      32.025  27.013  22.126  1.00  0.00    -0.351 N 
ATOM      4  C   UNL A   1      32.897  25.949  22.223  1.00  0.00     0.273 C 
ATOM      5  O   UNL A   1      34.030  26.128  21.778  1.00  0.00    -0.267 OA
ATOM      6  H   UNL A   1      32.454  27.844  21.818  1.00  0.00     0.163 HD
BRANCH   4   7
ATOM      7  C   UNL A   1      32.497  24.675  22.847  1.00  0.00     0.171 A 
ATOM      8  C   UNL A   1      32.176  21.812  23.143  1.00  0.00     0.171 A 
ATOM      9  C   UNL A   1      32.837  22.969  22.214  1.00  0.00     0.088 A 
ATOM     10  O   UNL A   1      31.173  22.676  24.485  1.00  0.00    -0.355 OA
ATOM     11  N   UNL A   1      31.483  24.643  24.199  1.00  0.00    -0.074 NA
BRANCH   8  12
ATOM     12  C   UNL A   1      32.673  20.475  23.429  1.00  0.00     0.062 A 
ATOM     13  C   UNL A   1      33.656  20.342  24.441  1.00  0.00     0.130 A 
ATOM     14  C   UNL A   1      34.106  19.085  24.823  1.00  0.00     0.047 A 
ATOM     15  C   UNL A   1      33.584  17.957  24.192  1.00  0.00     0.004 A 
ATOM     16  C   UNL A   1      32.161  19.347  22.798  1.00  0.00     0.016 A 
ATOM     17  C   UNL A   1      32.630  18.087  23.174  1.00  0.00     0.001 A 
BRANCH  13  18
ATOM     18  O   UNL A   1      34.282  21.438  25.002  1.00  0.00    -0.493 OA
BRANCH  18  19
ATOM     19  C   UNL A   1      35.397  21.119  25.856  1.00  0.00     0.230 C 
BRANCH  19  20
ATOM     20  C   UNL A   1      36.665  21.923  25.479  1.00  0.00     0.044 C 
BRANCH  20  21
ATOM     21  C   UNL A   1      36.265  23.421  24.808  1.00  0.00    -0.014 C 
ATOM     22  C   UNL A   1      36.624  23.071  23.112  1.00  0.00     0.007 C 
ATOM     23  C   UNL A   1      34.822  25.064  25.382  1.00  0.00     0.007 C 
ENDBRANCH  20  21
ENDBRANCH  19  20
ENDBRANCH  18  19
ENDBRANCH  13  18
ENDBRANCH   8  12
ENDBRANCH   4   7
ENDBRANCH   2   3
ENDBRANCH   1   2
BRANCH   1  24
ATOM     24  C   UNL A   1      31.499  28.482  24.371  1.00  0.00     0.002 C 
BRANCH  24  25
ATOM     25  C   UNL A   1      32.113  27.858  25.633  1.00  0.00     0.002 C 
BRANCH  25  26
ATOM     26  C   UNL A   1      32.122  28.773  26.859  1.00  0.00     0.021 C 
BRANCH  26  27
ATOM     27  C   UNL A   1      33.519  29.059  27.397  1.00  0.00     0.116 C 
BRANCH  27  28
ATOM     28  N   UNL A   1      33.649  30.447  27.826  1.00  0.00    -0.352 N 
ATOM     29  C   UNL A   1      34.668  31.051  28.517  1.00  0.00     0.251 C 
ATOM     30  H   UNL A   1      32.897  31.034  27.583  1.00  0.00     0.163 HD
ATOM     31  O   UNL A   1      34.507  32.151  29.032  1.00  0.00    -0.269 OA
BRANCH  29  32
ATOM     32  C   UNL A   1      35.960  30.352  28.645  1.00  0.00     0.039 A 
ATOM     33  C   UNL A   1      36.849  30.359  27.569  1.00  0.00     0.014 A 
ATOM     34  C   UNL A   1      36.297  29.714  29.842  1.00  0.00     0.014 A 
ATOM     35  C   UNL A   1      38.114  29.791  27.722  1.00  0.00     0.010 A 
ATOM     36  C   UNL A   1      37.584  29.226  30.020  1.00  0.00     0.010 A 
ATOM     37  C   UNL A   1      38.507  29.266  28.965  1.00  0.00    -0.014 A 
BRANCH  37  38
ATOM     38  C   UNL A   1      39.888  28.779  29.196  1.00  0.00     0.031 A 
ATOM     39  C   UNL A   1      40.921  29.690  29.797  1.00  0.00     0.074 A 
ATOM     40  C   UNL A   1      40.230  27.540  28.792  1.00  0.00     0.049 A 
ATOM     41  N   UNL A   1      42.194  29.470  30.003  1.00  0.00    -0.248 NA
ATOM     42  C   UNL A   1      40.467  31.030  30.199  1.00  0.00     0.031 C 
ATOM     43  C   UNL A   1      39.324  26.568  28.177  1.00  0.00     0.029 A 
ATOM     44  N   UNL A   1      41.437  26.889  28.835  1.00  0.00    -0.354 N 
ATOM     45  C   UNL A   1      42.694  30.644  30.550  1.00  0.00     0.074 A 
ATOM     46  C   UNL A   1      41.602  31.592  30.585  1.00  0.00     0.031 C 
ATOM     47  C   UNL A   1      39.997  25.432  27.935  1.00  0.00     0.029 A 
ATOM     48  C   UNL A   1      41.392  25.616  28.319  1.00  0.00     0.049 A 
ATOM     49  H   UNL A   1      42.255  27.293  29.200  1.00  0.00     0.167 HD
ATOM     50  C   UNL A   1      43.945  30.905  31.000  1.00  0.00     0.031 A 
ATOM     51  C   UNL A   1      42.369  24.703  28.161  1.00  0.00     0.031 A 
ATOM     52  C   UNL A   1      45.034  29.965  30.942  1.00  0.00     0.049 A 
ATOM     53  C   UNL A   1      43.768  25.047  28.592  1.00  0.00     0.074 A 
ATOM     54  C   UNL A   1      46.330  30.120  31.399  1.00  0.00     0.029 A 
ATOM     55  N   UNL A   1      44.956  28.700  30.379  1.00  0.00    -0.354 N 
ATOM     56  N   UNL A   1      44.213  26.137  29.167  1.00  0.00    -0.248 NA
ATOM     57  C   UNL A   1      44.800  24.028  28.353  1.00  0.00     0.031 C 
ATOM     58  C   UNL A   1      47.057  28.980  31.045  1.00  0.00     0.029 A 
ATOM     59  C   UNL A   1      46.194  28.080  30.441  1.00  0.00     0.049 A 
ATOM     60  H   UNL A   1      44.143  28.302  29.993  1.00  0.00     0.167 HD
ATOM     61  C   UNL A   1      45.567  25.924  29.389  1.00  0.00     0.074 A 
ATOM     62  C   UNL A   1      45.867  24.593  28.903  1.00  0.00     0.031 C 
ATOM     63  C   UNL A   1      46.479  26.755  29.950  1.00  0.00     0.031 A 
BRANCH  50  64
ATOM     64  C   UNL A   1      44.201  32.274  31.571  1.00  0.00    -0.014 A 
ATOM     65  C   UNL A   1      44.632  33.336  30.758  1.00  0.00     0.009 A 
ATOM     66  C   UNL A   1      43.994  32.512  32.939  1.00  0.00     0.009 A 
ATOM     67  C   UNL A   1      44.901  34.590  31.312  1.00  0.00     0.001 A 
ATOM     68  C   UNL A   1      44.226  33.777  33.483  1.00  0.00     0.001 A 
ATOM     69  C   UNL A   1      44.693  34.810  32.673  1.00  0.00     0.000 A 
ENDBRANCH  50  64
BRANCH  51  70
ATOM     70  C   UNL A   1      42.061  23.372  27.573  1.00  0.00    -0.014 A 
ATOM     71  C   UNL A   1      41.649  22.312  28.395  1.00  0.00     0.009 A 
ATOM     72  C   UNL A   1      42.185  23.148  26.193  1.00  0.00     0.009 A 
ATOM     73  C   UNL A   1      41.400  21.049  27.853  1.00  0.00     0.001 A 
ATOM     74  C   UNL A   1      41.902  21.894  25.648  1.00  0.00     0.001 A 
ATOM     75  C   UNL A   1      41.521  20.843  26.479  1.00  0.00     0.000 A 
ENDBRANCH  51  70
BRANCH  63  76
ATOM     76  C   UNL A   1      47.885  26.239  30.105  1.00  0.00    -0.014 A 
ATOM     77  C   UNL A   1      48.810  26.302  29.050  1.00  0.00     0.009 A 
ATOM     78  C   UNL A   1      48.305  25.735  31.346  1.00  0.00     0.009 A 
ATOM     79  C   UNL A   1      50.116  25.842  29.229  1.00  0.00     0.001 A 
ATOM     80  C   UNL A   1      49.621  25.311  31.533  1.00  0.00     0.001 A 
ATOM     81  C   UNL A   1      50.522  25.356  30.472  1.00  0.00     0.000 A 
ENDBRANCH  63  76
ENDBRANCH  37  38
ENDBRANCH  29  32
ENDBRANCH  27  28
ENDBRANCH  26  27
ENDBRANCH  25  26
ENDBRANCH  24  25
ENDBRANCH   1  24
TORSDOF 18
ENDMDL
