MODEL 1
REMARK VINA RESULT:     -10.3      0.000      0.000
REMARK SMILES CO[C@@H]1C[C@H](C(=O)NCCCCCCNC(=O)c2ccc(-c3c4nc(c(-c5ccccc5)c5ccc([nH]5)c(-c5ccccc5)c5nc(c(-c6ccccc6)c6ccc3[nH]6)C=C5)C=C4)cc2)N(C(=O)c2ccc([N+](=O)[O-])s2)C1
REMARK SMILES IDX 11 1 10 2 9 3 8 4 6 5 7 6 5 8 3 9 4 10 77 11 66 12 2 13 1 14
REMARK SMILES IDX 67 15 68 16 69 17 70 18 76 19 71 20 72 21 73 22 74 23 75 24
REMARK SMILES IDX 12 25 13 26 14 27 15 28 16 29 17 31 18 32 19 33 65 34 20 35
REMARK SMILES IDX 64 36 21 37 22 38 23 39 58 40 24 41 63 42 57 43 59 44 25 45
REMARK SMILES IDX 62 46 56 47 55 48 26 50 48 51 33 52 47 53 34 54 37 55 46 56
REMARK SMILES IDX 60 57 35 58 36 59 45 61 61 62 38 63 27 64 28 65 32 66 29 67
REMARK SMILES IDX 31 68 30 69 49 70 50 71 54 72 51 73 53 74 52 75 39 76 40 77
REMARK SMILES IDX 44 78 41 79 43 80 42 81
REMARK H PARENT 8 7 15 30 59 49 37 60
REMARK Flexibility Score: inf
ROOT
ATOM      1  C   UNL A   1      36.168  21.779  25.257  1.00  0.00     0.002 C 
ENDROOT
BRANCH   1   2
ATOM      2  C   UNL A   1      35.413  22.781  24.379  1.00  0.00     0.021 C 
BRANCH   2   3
ATOM      3  C   UNL A   1      35.407  24.220  24.896  1.00  0.00     0.116 C 
BRANCH   3   4
ATOM      4  N   UNL A   1      34.548  25.072  24.096  1.00  0.00    -0.354 N 
ATOM      5  C   UNL A   1      33.609  25.986  24.456  1.00  0.00     0.242 C 
ATOM      6  O   UNL A   1      32.917  26.460  23.546  1.00  0.00    -0.273 OA
ATOM      7  H   UNL A   1      34.667  24.969  23.125  1.00  0.00     0.163 HD
BRANCH   5   8
ATOM      8  C   UNL A   1      33.292  26.373  25.919  1.00  0.00     0.177 C 
ATOM      9  C   UNL A   1      32.619  28.583  26.781  1.00  0.00     0.139 C 
ATOM     10  C   UNL A   1      33.815  27.763  26.290  1.00  0.00     0.069 C 
ATOM     11  C   UNL A   1      31.458  27.597  26.904  1.00  0.00     0.152 C 
ATOM     12  N   UNL A   1      31.889  26.348  26.311  1.00  0.00    -0.323 N 
BRANCH   9  13
ATOM     13  O   UNL A   1      32.356  29.619  25.834  1.00  0.00    -0.380 OA
ATOM     14  C   UNL A   1      31.925  30.833  26.443  1.00  0.00     0.195 C 
ENDBRANCH   9  13
BRANCH  12  15
ATOM     15  C   UNL A   1      31.042  25.248  26.358  1.00  0.00     0.264 C 
ATOM     16  O   UNL A   1      29.836  25.407  26.548  1.00  0.00    -0.268 OA
BRANCH  15  17
ATOM     17  C   UNL A   1      31.624  23.924  26.217  1.00  0.00     0.099 A 
ATOM     18  C   UNL A   1      32.365  23.194  27.129  1.00  0.00     0.033 A 
ATOM     19  S   UNL A   1      31.306  23.016  24.798  1.00  0.00    -0.058 S 
ATOM     20  C   UNL A   1      32.697  21.894  26.644  1.00  0.00     0.099 A 
ATOM     21  C   UNL A   1      32.172  21.678  25.389  1.00  0.00     0.324 A 
BRANCH  21  22
ATOM     22  N   UNL A   1      32.281  20.469  24.614  1.00  0.00     0.074 N 
ATOM     23  O   UNL A   1      32.095  19.408  25.227  1.00  0.00    -0.258 OA
ATOM     24  O   UNL A   1      32.544  20.563  23.410  1.00  0.00    -0.258 OA
ENDBRANCH  21  22
ENDBRANCH  15  17
ENDBRANCH  12  15
ENDBRANCH   5   8
ENDBRANCH   3   4
ENDBRANCH   2   3
ENDBRANCH   1   2
BRANCH   1  25
ATOM     25  C   UNL A   1      36.103  20.316  24.799  1.00  0.00     0.002 C 
BRANCH  25  26
ATOM     26  C   UNL A   1      37.415  19.523  24.850  1.00  0.00     0.021 C 
BRANCH  26  27
ATOM     27  C   UNL A   1      38.555  20.148  25.658  1.00  0.00     0.116 C 
BRANCH  27  28
ATOM     28  N   UNL A   1      39.743  19.316  25.682  1.00  0.00    -0.352 N 
ATOM     29  C   UNL A   1      41.028  19.628  26.048  1.00  0.00     0.251 C 
ATOM     30  H   UNL A   1      39.607  18.386  25.391  1.00  0.00     0.163 HD
ATOM     31  O   UNL A   1      41.923  18.805  25.875  1.00  0.00    -0.269 OA
BRANCH  29  32
ATOM     32  C   UNL A   1      41.365  20.948  26.633  1.00  0.00     0.039 A 
ATOM     33  C   UNL A   1      41.835  21.949  25.774  1.00  0.00     0.014 A 
ATOM     34  C   UNL A   1      41.313  21.182  28.011  1.00  0.00     0.014 A 
ATOM     35  C   UNL A   1      42.217  23.193  26.285  1.00  0.00     0.010 A 
ATOM     36  C   UNL A   1      41.681  22.433  28.521  1.00  0.00     0.010 A 
ATOM     37  C   UNL A   1      42.137  23.444  27.662  1.00  0.00    -0.014 A 
BRANCH  37  38
ATOM     38  C   UNL A   1      42.551  24.759  28.210  1.00  0.00     0.031 A 
ATOM     39  C   UNL A   1      41.536  25.840  28.444  1.00  0.00     0.074 A 
ATOM     40  C   UNL A   1      43.845  24.991  28.491  1.00  0.00     0.049 A 
ATOM     41  N   UNL A   1      41.722  27.071  28.847  1.00  0.00    -0.248 NA
ATOM     42  C   UNL A   1      40.129  25.494  28.183  1.00  0.00     0.031 C 
ATOM     43  C   UNL A   1      44.939  24.035  28.315  1.00  0.00     0.029 A 
ATOM     44  N   UNL A   1      44.458  26.115  28.988  1.00  0.00    -0.354 N 
ATOM     45  C   UNL A   1      40.464  27.657  28.863  1.00  0.00     0.074 A 
ATOM     46  C   UNL A   1      39.520  26.643  28.440  1.00  0.00     0.031 C 
ATOM     47  C   UNL A   1      46.088  24.608  28.709  1.00  0.00     0.029 A 
ATOM     48  C   UNL A   1      45.813  25.973  29.151  1.00  0.00     0.049 A 
ATOM     49  H   UNL A   1      43.972  26.942  29.207  1.00  0.00     0.167 HD
ATOM     50  C   UNL A   1      40.123  28.926  29.192  1.00  0.00     0.031 A 
ATOM     51  C   UNL A   1      46.732  26.845  29.602  1.00  0.00     0.031 A 
ATOM     52  C   UNL A   1      41.039  29.938  29.642  1.00  0.00     0.049 A 
ATOM     53  C   UNL A   1      46.322  28.228  30.012  1.00  0.00     0.074 A 
ATOM     54  C   UNL A   1      40.775  31.253  29.984  1.00  0.00     0.029 A 
ATOM     55  N   UNL A   1      42.396  29.740  29.828  1.00  0.00    -0.354 N 
ATOM     56  N   UNL A   1      45.133  28.775  29.984  1.00  0.00    -0.248 NA
ATOM     57  C   UNL A   1      47.385  29.113  30.510  1.00  0.00     0.031 C 
ATOM     58  C   UNL A   1      41.977  31.852  30.385  1.00  0.00     0.029 A 
ATOM     59  C   UNL A   1      42.983  30.905  30.291  1.00  0.00     0.049 A 
ATOM     60  H   UNL A   1      42.874  28.897  29.657  1.00  0.00     0.167 HD
ATOM     61  C   UNL A   1      45.304  30.069  30.456  1.00  0.00     0.074 A 
ATOM     62  C   UNL A   1      46.710  30.224  30.771  1.00  0.00     0.031 C 
ATOM     63  C   UNL A   1      44.377  31.044  30.604  1.00  0.00     0.031 A 
BRANCH  50  64
ATOM     64  C   UNL A   1      38.678  29.293  29.058  1.00  0.00    -0.014 A 
ATOM     65  C   UNL A   1      38.160  29.712  27.825  1.00  0.00     0.009 A 
ATOM     66  C   UNL A   1      37.826  29.198  30.168  1.00  0.00     0.009 A 
ATOM     67  C   UNL A   1      36.809  30.046  27.710  1.00  0.00     0.001 A 
ATOM     68  C   UNL A   1      36.476  29.529  30.049  1.00  0.00     0.001 A 
ATOM     69  C   UNL A   1      35.969  29.954  28.821  1.00  0.00     0.000 A 
ENDBRANCH  50  64
BRANCH  51  70
ATOM     70  C   UNL A   1      48.151  26.434  29.689  1.00  0.00    -0.014 A 
ATOM     71  C   UNL A   1      48.631  25.788  30.836  1.00  0.00     0.009 A 
ATOM     72  C   UNL A   1      49.027  26.690  28.624  1.00  0.00     0.009 A 
ATOM     73  C   UNL A   1      49.972  25.411  30.921  1.00  0.00     0.001 A 
ATOM     74  C   UNL A   1      50.367  26.309  28.712  1.00  0.00     0.001 A 
ATOM     75  C   UNL A   1      50.838  25.672  29.860  1.00  0.00     0.000 A 
ENDBRANCH  51  70
BRANCH  63  76
ATOM     76  C   UNL A   1      44.859  32.360  31.131  1.00  0.00    -0.014 A 
ATOM     77  C   UNL A   1      44.874  32.606  32.511  1.00  0.00     0.009 A 
ATOM     78  C   UNL A   1      45.316  33.350  30.249  1.00  0.00     0.009 A 
ATOM     79  C   UNL A   1      45.327  33.832  33.001  1.00  0.00     0.001 A 
ATOM     80  C   UNL A   1      45.770  34.575  30.743  1.00  0.00     0.001 A 
ATOM     81  C   UNL A   1      45.772  34.815  32.118  1.00  0.00     0.000 A 
ENDBRANCH  63  76
ENDBRANCH  37  38
ENDBRANCH  29  32
ENDBRANCH  27  28
ENDBRANCH  26  27
ENDBRANCH  25  26
ENDBRANCH   1  25
TORSDOF 17
ENDMDL
MODEL 2
REMARK VINA RESULT:     -10.2      3.075      8.845
REMARK SMILES CO[C@@H]1C[C@H](C(=O)NCCCCCCNC(=O)c2ccc(-c3c4nc(c(-c5ccccc5)c5ccc([nH]5)c(-c5ccccc5)c5nc(c(-c6ccccc6)c6ccc3[nH]6)C=C5)C=C4)cc2)N(C(=O)c2ccc([N+](=O)[O-])s2)C1
REMARK SMILES IDX 11 1 10 2 9 3 8 4 6 5 7 6 5 8 3 9 4 10 77 11 66 12 2 13 1 14
REMARK SMILES IDX 67 15 68 16 69 17 70 18 76 19 71 20 72 21 73 22 74 23 75 24
REMARK SMILES IDX 12 25 13 26 14 27 15 28 16 29 17 31 18 32 19 33 65 34 20 35
REMARK SMILES IDX 64 36 21 37 22 38 23 39 58 40 24 41 63 42 57 43 59 44 25 45
REMARK SMILES IDX 62 46 56 47 55 48 26 50 48 51 33 52 47 53 34 54 37 55 46 56
REMARK SMILES IDX 60 57 35 58 36 59 45 61 61 62 38 63 27 64 28 65 32 66 29 67
REMARK SMILES IDX 31 68 30 69 49 70 50 71 54 72 51 73 53 74 52 75 39 76 40 77
REMARK SMILES IDX 44 78 41 79 43 80 42 81
REMARK H PARENT 8 7 15 30 59 49 37 60
REMARK Flexibility Score: inf
ROOT
ATOM      1  C   UNL A   1      32.332  29.988  26.665  1.00  0.00     0.002 C 
ENDROOT
BRANCH   1   2
ATOM      2  C   UNL A   1      31.785  28.564  26.796  1.00  0.00     0.021 C 
BRANCH   2   3
ATOM      3  C   UNL A   1      32.810  27.453  26.565  1.00  0.00     0.116 C 
BRANCH   3   4
ATOM      4  N   UNL A   1      32.166  26.178  26.310  1.00  0.00    -0.354 N 
ATOM      5  C   UNL A   1      32.579  25.094  25.602  1.00  0.00     0.242 C 
ATOM      6  O   UNL A   1      31.748  24.193  25.428  1.00  0.00    -0.273 OA
ATOM      7  H   UNL A   1      31.277  26.083  26.720  1.00  0.00     0.163 HD
BRANCH   5   8
ATOM      8  C   UNL A   1      33.965  24.976  24.926  1.00  0.00     0.177 C 
ATOM      9  C   UNL A   1      35.367  22.960  24.704  1.00  0.00     0.139 C 
ATOM     10  C   UNL A   1      34.917  24.047  25.684  1.00  0.00     0.069 C 
ATOM     11  C   UNL A   1      34.854  23.394  23.332  1.00  0.00     0.152 C 
ATOM     12  N   UNL A   1      33.978  24.529  23.539  1.00  0.00    -0.323 N 
BRANCH   9  13
ATOM     13  O   UNL A   1      34.816  21.711  25.122  1.00  0.00    -0.380 OA
ATOM     14  C   UNL A   1      33.717  21.291  24.320  1.00  0.00     0.195 C 
ENDBRANCH   9  13
BRANCH  12  15
ATOM     15  C   UNL A   1      33.429  25.172  22.436  1.00  0.00     0.264 C 
ATOM     16  O   UNL A   1      33.432  24.618  21.336  1.00  0.00    -0.268 OA
BRANCH  15  17
ATOM     17  C   UNL A   1      32.898  26.512  22.615  1.00  0.00     0.099 A 
ATOM     18  C   UNL A   1      33.573  27.693  22.866  1.00  0.00     0.033 A 
ATOM     19  S   UNL A   1      31.220  26.784  22.389  1.00  0.00    -0.058 S 
ATOM     20  C   UNL A   1      32.700  28.821  22.902  1.00  0.00     0.099 A 
ATOM     21  C   UNL A   1      31.396  28.455  22.651  1.00  0.00     0.324 A 
BRANCH  21  22
ATOM     22  N   UNL A   1      30.260  29.337  22.576  1.00  0.00     0.074 N 
ATOM     23  O   UNL A   1      30.004  29.806  21.458  1.00  0.00    -0.258 OA
ATOM     24  O   UNL A   1      29.621  29.563  23.611  1.00  0.00    -0.258 OA
ENDBRANCH  21  22
ENDBRANCH  15  17
ENDBRANCH  12  15
ENDBRANCH   5   8
ENDBRANCH   3   4
ENDBRANCH   2   3
ENDBRANCH   1   2
BRANCH   1  25
ATOM     25  C   UNL A   1      31.377  31.009  26.032  1.00  0.00     0.002 C 
BRANCH  25  26
ATOM     26  C   UNL A   1      31.353  32.408  26.662  1.00  0.00     0.021 C 
BRANCH  26  27
ATOM     27  C   UNL A   1      32.682  32.924  27.219  1.00  0.00     0.116 C 
BRANCH  27  28
ATOM     28  N   UNL A   1      32.549  34.208  27.879  1.00  0.00    -0.352 N 
ATOM     29  C   UNL A   1      33.322  34.778  28.858  1.00  0.00     0.251 C 
ATOM     30  H   UNL A   1      31.788  34.755  27.578  1.00  0.00     0.163 HD
ATOM     31  O   UNL A   1      32.963  35.833  29.376  1.00  0.00    -0.269 OA
BRANCH  29  32
ATOM     32  C   UNL A   1      34.577  34.139  29.320  1.00  0.00     0.039 A 
ATOM     33  C   UNL A   1      35.743  34.362  28.576  1.00  0.00     0.014 A 
ATOM     34  C   UNL A   1      34.605  33.260  30.407  1.00  0.00     0.014 A 
ATOM     35  C   UNL A   1      36.940  33.739  28.940  1.00  0.00     0.010 A 
ATOM     36  C   UNL A   1      35.807  32.648  30.781  1.00  0.00     0.010 A 
ATOM     37  C   UNL A   1      36.981  32.882  30.048  1.00  0.00    -0.014 A 
BRANCH  37  38
ATOM     38  C   UNL A   1      38.247  32.210  30.432  1.00  0.00     0.031 A 
ATOM     39  C   UNL A   1      39.164  32.835  31.443  1.00  0.00     0.074 A 
ATOM     40  C   UNL A   1      38.583  31.038  29.864  1.00  0.00     0.049 A 
ATOM     41  N   UNL A   1      40.341  32.430  31.847  1.00  0.00    -0.248 NA
ATOM     42  C   UNL A   1      38.700  34.080  32.076  1.00  0.00     0.031 C 
ATOM     43  C   UNL A   1      37.789  30.316  28.869  1.00  0.00     0.029 A 
ATOM     44  N   UNL A   1      39.690  30.247  30.050  1.00  0.00    -0.354 N 
ATOM     45  C   UNL A   1      40.774  33.382  32.760  1.00  0.00     0.074 A 
ATOM     46  C   UNL A   1      39.728  34.378  32.860  1.00  0.00     0.031 C 
ATOM     47  C   UNL A   1      38.429  29.182  28.540  1.00  0.00     0.029 A 
ATOM     48  C   UNL A   1      39.681  29.106  29.288  1.00  0.00     0.049 A 
ATOM     49  H   UNL A   1      40.419  30.477  30.669  1.00  0.00     0.167 HD
ATOM     50  C   UNL A   1      41.939  33.429  33.449  1.00  0.00     0.031 A 
ATOM     51  C   UNL A   1      40.581  28.111  29.201  1.00  0.00     0.031 A 
ATOM     52  C   UNL A   1      42.977  32.436  33.386  1.00  0.00     0.049 A 
ATOM     53  C   UNL A   1      41.840  28.158  30.014  1.00  0.00     0.074 A 
ATOM     54  C   UNL A   1      44.195  32.417  34.044  1.00  0.00     0.029 A 
ATOM     55  N   UNL A   1      42.910  31.278  32.632  1.00  0.00    -0.354 N 
ATOM     56  N   UNL A   1      42.248  29.085  30.844  1.00  0.00    -0.248 NA
ATOM     57  C   UNL A   1      42.762  27.022  29.872  1.00  0.00     0.031 C 
ATOM     58  C   UNL A   1      44.864  31.237  33.691  1.00  0.00     0.029 A 
ATOM     59  C   UNL A   1      44.059  30.529  32.815  1.00  0.00     0.049 A 
ATOM     60  H   UNL A   1      42.157  31.025  32.051  1.00  0.00     0.167 HD
ATOM     61  C   UNL A   1      43.476  28.649  31.319  1.00  0.00     0.074 A 
ATOM     62  C   UNL A   1      43.744  27.370  30.694  1.00  0.00     0.031 C 
ATOM     63  C   UNL A   1      44.311  29.261  32.192  1.00  0.00     0.031 A 
BRANCH  50  64
ATOM     64  C   UNL A   1      42.156  34.620  34.329  1.00  0.00    -0.014 A 
ATOM     65  C   UNL A   1      41.806  34.579  35.686  1.00  0.00     0.009 A 
ATOM     66  C   UNL A   1      42.734  35.784  33.801  1.00  0.00     0.009 A 
ATOM     67  C   UNL A   1      42.019  35.693  36.498  1.00  0.00     0.001 A 
ATOM     68  C   UNL A   1      42.949  36.895  34.617  1.00  0.00     0.001 A 
ATOM     69  C   UNL A   1      42.590  36.850  35.964  1.00  0.00     0.000 A 
ENDBRANCH  50  64
BRANCH  51  70
ATOM     70  C   UNL A   1      40.325  26.970  28.294  1.00  0.00    -0.014 A 
ATOM     71  C   UNL A   1      40.818  26.984  26.982  1.00  0.00     0.009 A 
ATOM     72  C   UNL A   1      39.583  25.867  28.739  1.00  0.00     0.009 A 
ATOM     73  C   UNL A   1      40.565  25.913  26.124  1.00  0.00     0.001 A 
ATOM     74  C   UNL A   1      39.334  24.796  27.878  1.00  0.00     0.001 A 
ATOM     75  C   UNL A   1      39.824  24.821  26.572  1.00  0.00     0.000 A 
ENDBRANCH  51  70
BRANCH  63  76
ATOM     76  C   UNL A   1      45.588  28.550  32.516  1.00  0.00    -0.014 A 
ATOM     77  C   UNL A   1      45.642  27.646  33.586  1.00  0.00     0.009 A 
ATOM     78  C   UNL A   1      46.736  28.771  31.741  1.00  0.00     0.009 A 
ATOM     79  C   UNL A   1      46.832  26.982  33.885  1.00  0.00     0.001 A 
ATOM     80  C   UNL A   1      47.925  28.104  32.044  1.00  0.00     0.001 A 
ATOM     81  C   UNL A   1      47.973  27.213  33.116  1.00  0.00     0.000 A 
ENDBRANCH  63  76
ENDBRANCH  37  38
ENDBRANCH  29  32
ENDBRANCH  27  28
ENDBRANCH  26  27
ENDBRANCH  25  26
ENDBRANCH   1  25
TORSDOF 17
ENDMDL
MODEL 3
REMARK VINA RESULT:     -10.1      4.802      9.607
REMARK SMILES CO[C@@H]1C[C@H](C(=O)NCCCCCCNC(=O)c2ccc(-c3c4nc(c(-c5ccccc5)c5ccc([nH]5)c(-c5ccccc5)c5nc(c(-c6ccccc6)c6ccc3[nH]6)C=C5)C=C4)cc2)N(C(=O)c2ccc([N+](=O)[O-])s2)C1
REMARK SMILES IDX 11 1 10 2 9 3 8 4 6 5 7 6 5 8 3 9 4 10 77 11 66 12 2 13 1 14
REMARK SMILES IDX 67 15 68 16 69 17 70 18 76 19 71 20 72 21 73 22 74 23 75 24
REMARK SMILES IDX 12 25 13 26 14 27 15 28 16 29 17 31 18 32 19 33 65 34 20 35
REMARK SMILES IDX 64 36 21 37 22 38 23 39 58 40 24 41 63 42 57 43 59 44 25 45
REMARK SMILES IDX 62 46 56 47 55 48 26 50 48 51 33 52 47 53 34 54 37 55 46 56
REMARK SMILES IDX 60 57 35 58 36 59 45 61 61 62 38 63 27 64 28 65 32 66 29 67
REMARK SMILES IDX 31 68 30 69 49 70 50 71 54 72 51 73 53 74 52 75 39 76 40 77
REMARK SMILES IDX 44 78 41 79 43 80 42 81
REMARK H PARENT 8 7 15 30 59 49 37 60
REMARK Flexibility Score: inf
ROOT
ATOM      1  C   UNL A   1      34.599  32.011  28.391  1.00  0.00     0.002 C 
ENDROOT
BRANCH   1   2
ATOM      2  C   UNL A   1      33.375  31.553  27.593  1.00  0.00     0.021 C 
BRANCH   2   3
ATOM      3  C   UNL A   1      33.374  30.076  27.198  1.00  0.00     0.116 C 
BRANCH   3   4
ATOM      4  N   UNL A   1      33.659  29.902  25.787  1.00  0.00    -0.354 N 
ATOM      5  C   UNL A   1      32.892  29.425  24.771  1.00  0.00     0.242 C 
ATOM      6  O   UNL A   1      33.455  29.248  23.684  1.00  0.00    -0.273 OA
ATOM      7  H   UNL A   1      34.566  30.176  25.519  1.00  0.00     0.163 HD
BRANCH   5   8
ATOM      8  C   UNL A   1      31.413  28.999  24.929  1.00  0.00     0.177 C 
ATOM      9  C   UNL A   1      29.931  28.038  23.210  1.00  0.00     0.139 C 
ATOM     10  C   UNL A   1      30.565  29.342  23.702  1.00  0.00     0.069 C 
ATOM     11  C   UNL A   1      30.234  26.993  24.282  1.00  0.00     0.152 C 
ATOM     12  N   UNL A   1      31.168  27.591  25.214  1.00  0.00    -0.323 N 
BRANCH   9  13
ATOM     13  O   UNL A   1      30.502  27.701  21.944  1.00  0.00    -0.380 OA
ATOM     14  C   UNL A   1      31.373  26.577  22.007  1.00  0.00     0.195 C 
ENDBRANCH   9  13
BRANCH  12  15
ATOM     15  C   UNL A   1      31.555  26.874  26.339  1.00  0.00     0.264 C 
ATOM     16  O   UNL A   1      31.162  27.219  27.454  1.00  0.00    -0.268 OA
BRANCH  15  17
ATOM     17  C   UNL A   1      32.457  25.749  26.162  1.00  0.00     0.099 A 
ATOM     18  C   UNL A   1      33.780  25.745  25.758  1.00  0.00     0.033 A 
ATOM     19  S   UNL A   1      31.930  24.177  26.599  1.00  0.00    -0.058 S 
ATOM     20  C   UNL A   1      34.351  24.438  25.779  1.00  0.00     0.099 A 
ATOM     21  C   UNL A   1      33.444  23.502  26.225  1.00  0.00     0.324 A 
BRANCH  21  22
ATOM     22  N   UNL A   1      33.689  22.093  26.405  1.00  0.00     0.074 N 
ATOM     23  O   UNL A   1      33.950  21.448  25.379  1.00  0.00    -0.258 OA
ATOM     24  O   UNL A   1      33.627  21.626  27.548  1.00  0.00    -0.258 OA
ENDBRANCH  21  22
ENDBRANCH  15  17
ENDBRANCH  12  15
ENDBRANCH   5   8
ENDBRANCH   3   4
ENDBRANCH   2   3
ENDBRANCH   1   2
BRANCH   1  25
ATOM     25  C   UNL A   1      34.665  33.513  28.700  1.00  0.00     0.002 C 
BRANCH  25  26
ATOM     26  C   UNL A   1      33.331  34.272  28.701  1.00  0.00     0.021 C 
BRANCH  26  27
ATOM     27  C   UNL A   1      33.357  35.688  29.281  1.00  0.00     0.116 C 
BRANCH  27  28
ATOM     28  N   UNL A   1      32.576  35.807  30.497  1.00  0.00    -0.352 N 
ATOM     29  C   UNL A   1      32.831  35.330  31.757  1.00  0.00     0.251 C 
ATOM     30  H   UNL A   1      31.733  36.307  30.404  1.00  0.00     0.163 HD
ATOM     31  O   UNL A   1      31.972  35.433  32.630  1.00  0.00    -0.269 OA
BRANCH  29  32
ATOM     32  C   UNL A   1      34.119  34.673  32.087  1.00  0.00     0.039 A 
ATOM     33  C   UNL A   1      34.094  33.322  32.456  1.00  0.00     0.014 A 
ATOM     34  C   UNL A   1      35.323  35.383  32.129  1.00  0.00     0.014 A 
ATOM     35  C   UNL A   1      35.275  32.672  32.828  1.00  0.00     0.010 A 
ATOM     36  C   UNL A   1      36.508  34.728  32.487  1.00  0.00     0.010 A 
ATOM     37  C   UNL A   1      36.490  33.371  32.841  1.00  0.00    -0.014 A 
BRANCH  37  38
ATOM     38  C   UNL A   1      37.744  32.688  33.245  1.00  0.00     0.031 A 
ATOM     39  C   UNL A   1      38.391  31.685  32.335  1.00  0.00     0.074 A 
ATOM     40  C   UNL A   1      38.301  32.961  34.438  1.00  0.00     0.049 A 
ATOM     41  N   UNL A   1      39.446  30.939  32.550  1.00  0.00    -0.248 NA
ATOM     42  C   UNL A   1      37.768  31.488  31.017  1.00  0.00     0.031 C 
ATOM     43  C   UNL A   1      37.783  33.912  35.422  1.00  0.00     0.029 A 
ATOM     44  N   UNL A   1      39.436  32.456  35.024  1.00  0.00    -0.354 N 
ATOM     45  C   UNL A   1      39.599  30.165  31.409  1.00  0.00     0.074 A 
ATOM     46  C   UNL A   1      38.536  30.540  30.498  1.00  0.00     0.031 C 
ATOM     47  C   UNL A   1      38.604  33.931  36.485  1.00  0.00     0.029 A 
ATOM     48  C   UNL A   1      39.694  32.985  36.263  1.00  0.00     0.049 A 
ATOM     49  H   UNL A   1      40.008  31.780  34.596  1.00  0.00     0.167 HD
ATOM     50  C   UNL A   1      40.533  29.222  31.141  1.00  0.00     0.031 A 
ATOM     51  C   UNL A   1      40.695  32.735  37.125  1.00  0.00     0.031 A 
ATOM     52  C   UNL A   1      41.612  28.856  32.018  1.00  0.00     0.049 A 
ATOM     53  C   UNL A   1      41.749  31.725  36.784  1.00  0.00     0.074 A 
ATOM     54  C   UNL A   1      42.596  27.901  31.826  1.00  0.00     0.029 A 
ATOM     55  N   UNL A   1      41.859  29.444  33.246  1.00  0.00    -0.354 N 
ATOM     56  N   UNL A   1      41.856  30.976  35.716  1.00  0.00    -0.248 NA
ATOM     57  C   UNL A   1      42.818  31.524  37.775  1.00  0.00     0.031 C 
ATOM     58  C   UNL A   1      43.444  27.916  32.941  1.00  0.00     0.029 A 
ATOM     59  C   UNL A   1      42.985  28.881  33.821  1.00  0.00     0.049 A 
ATOM     60  H   UNL A   1      41.314  30.157  33.651  1.00  0.00     0.167 HD
ATOM     61  C   UNL A   1      42.998  30.211  35.905  1.00  0.00     0.074 A 
ATOM     62  C   UNL A   1      43.556  30.592  37.187  1.00  0.00     0.031 C 
ATOM     63  C   UNL A   1      43.530  29.271  35.090  1.00  0.00     0.031 A 
BRANCH  50  64
ATOM     64  C   UNL A   1      40.412  28.502  29.835  1.00  0.00    -0.014 A 
ATOM     65  C   UNL A   1      41.049  28.994  28.687  1.00  0.00     0.009 A 
ATOM     66  C   UNL A   1      39.674  27.312  29.757  1.00  0.00     0.009 A 
ATOM     67  C   UNL A   1      40.935  28.311  27.475  1.00  0.00     0.001 A 
ATOM     68  C   UNL A   1      39.566  26.630  28.546  1.00  0.00     0.001 A 
ATOM     69  C   UNL A   1      40.194  27.130  27.405  1.00  0.00     0.000 A 
ENDBRANCH  50  64
BRANCH  51  70
ATOM     70  C   UNL A   1      40.749  33.459  38.415  1.00  0.00    -0.014 A 
ATOM     71  C   UNL A   1      41.441  34.674  38.515  1.00  0.00     0.009 A 
ATOM     72  C   UNL A   1      40.110  32.935  39.547  1.00  0.00     0.009 A 
ATOM     73  C   UNL A   1      41.500  35.350  39.734  1.00  0.00     0.001 A 
ATOM     74  C   UNL A   1      40.170  33.615  40.764  1.00  0.00     0.001 A 
ATOM     75  C   UNL A   1      40.865  34.821  40.857  1.00  0.00     0.000 A 
ENDBRANCH  51  70
BRANCH  63  76
ATOM     76  C   UNL A   1      44.778  28.593  35.566  1.00  0.00    -0.014 A 
ATOM     77  C   UNL A   1      46.034  29.151  35.290  1.00  0.00     0.009 A 
ATOM     78  C   UNL A   1      44.698  27.404  36.305  1.00  0.00     0.009 A 
ATOM     79  C   UNL A   1      47.196  28.519  35.737  1.00  0.00     0.001 A 
ATOM     80  C   UNL A   1      45.863  26.776  36.751  1.00  0.00     0.001 A 
ATOM     81  C   UNL A   1      47.110  27.333  36.465  1.00  0.00     0.000 A 
ENDBRANCH  63  76
ENDBRANCH  37  38
ENDBRANCH  29  32
ENDBRANCH  27  28
ENDBRANCH  26  27
ENDBRANCH  25  26
ENDBRANCH   1  25
TORSDOF 17
ENDMDL
