MODEL 1
REMARK VINA RESULT:     -10.1      0.000      0.000
REMARK SMILES C=C(C)CN(CC)c1ccc(F)cc1C(=O)NCCCCCCNC(=O)c1ccc(-c2c3nc(c(-c4ccccc4)c4ccc([nH]4)c(-c4ccccc4)c4nc(c(-c5ccccc5)c5ccc2[nH]5)C=C4)C=C3)cc1
REMARK SMILES IDX 20 1 19 2 18 3 17 4 15 5 16 6 14 8 8 9 9 10 10 11 13 12
REMARK SMILES IDX 11 13 12 14 5 15 4 16 2 17 1 18 3 19 6 20 7 21 21 22 22 23
REMARK SMILES IDX 23 24 24 25 25 26 26 28 27 29 28 30 74 31 29 32 73 33 30 34
REMARK SMILES IDX 31 35 32 36 67 37 33 38 72 39 66 40 68 41 34 42 71 43 65 44
REMARK SMILES IDX 64 45 35 47 57 48 42 49 56 50 43 51 46 52 55 53 69 54 44 55
REMARK SMILES IDX 45 56 54 58 70 59 47 60 36 61 37 62 41 63 38 64 40 65 39 66
REMARK SMILES IDX 58 67 59 68 63 69 60 70 62 71 61 72 48 73 49 74 53 75 50 76
REMARK SMILES IDX 52 77 51 78
REMARK H PARENT 17 7 24 27 68 46 46 57
REMARK Flexibility Score: inf
ROOT
ATOM      1  C   UNL A   1      36.095  22.627  25.474  1.00  0.00     0.002 C 
ENDROOT
BRANCH   1   2
ATOM      2  C   UNL A   1      35.201  23.305  26.516  1.00  0.00     0.021 C 
BRANCH   2   3
ATOM      3  C   UNL A   1      34.364  22.382  27.390  1.00  0.00     0.116 C 
BRANCH   3   4
ATOM      4  N   UNL A   1      33.026  22.794  27.689  1.00  0.00    -0.352 N 
ATOM      5  C   UNL A   1      31.930  22.799  26.855  1.00  0.00     0.253 C 
ATOM      6  O   UNL A   1      30.851  23.113  27.369  1.00  0.00    -0.269 OA
ATOM      7  H   UNL A   1      32.869  23.115  28.606  1.00  0.00     0.163 HD
BRANCH   5   8
ATOM      8  C   UNL A   1      31.957  22.534  25.373  1.00  0.00     0.066 A 
ATOM      9  C   UNL A   1      31.959  23.459  24.293  1.00  0.00     0.050 A 
ATOM     10  C   UNL A   1      32.115  22.936  22.985  1.00  0.00     0.030 A 
ATOM     11  C   UNL A   1      32.228  21.573  22.724  1.00  0.00     0.041 A 
ATOM     12  C   UNL A   1      32.103  21.154  25.087  1.00  0.00     0.055 A 
ATOM     13  C   UNL A   1      32.225  20.691  23.783  1.00  0.00     0.124 A 
ATOM     14  F   UNL A   1      32.359  19.379  23.550  1.00  0.00    -0.207 F 
BRANCH   9  15
ATOM     15  N   UNL A   1      31.873  24.845  24.413  1.00  0.00    -0.367 N 
BRANCH  15  16
ATOM     16  C   UNL A   1      33.108  25.624  24.630  1.00  0.00     0.146 C 
BRANCH  16  17
ATOM     17  C   UNL A   1      33.444  26.641  23.571  1.00  0.00    -0.061 C 
ATOM     18  C   UNL A   1      33.498  26.356  22.259  1.00  0.00     0.009 C 
ATOM     19  C   UNL A   1      33.823  28.002  24.095  1.00  0.00     0.041 C 
ENDBRANCH  16  17
ENDBRANCH  15  16
BRANCH  15  20
ATOM     20  C   UNL A   1      30.582  25.457  24.758  1.00  0.00     0.113 C 
ATOM     21  C   UNL A   1      30.623  26.345  25.995  1.00  0.00     0.027 C 
ENDBRANCH  15  20
ENDBRANCH   9  15
ENDBRANCH   5   8
ENDBRANCH   3   4
ENDBRANCH   2   3
ENDBRANCH   1   2
BRANCH   1  22
ATOM     22  C   UNL A   1      35.870  21.138  25.179  1.00  0.00     0.002 C 
BRANCH  22  23
ATOM     23  C   UNL A   1      37.095  20.260  24.921  1.00  0.00     0.021 C 
BRANCH  23  24
ATOM     24  C   UNL A   1      38.421  20.728  25.515  1.00  0.00     0.116 C 
BRANCH  24  25
ATOM     25  N   UNL A   1      39.437  19.691  25.563  1.00  0.00    -0.352 N 
ATOM     26  C   UNL A   1      40.739  19.737  26.003  1.00  0.00     0.251 C 
ATOM     27  H   UNL A   1      39.147  18.814  25.225  1.00  0.00     0.163 HD
ATOM     28  O   UNL A   1      41.454  18.749  25.885  1.00  0.00    -0.269 OA
BRANCH  26  29
ATOM     29  C   UNL A   1      41.304  20.979  26.579  1.00  0.00     0.039 A 
ATOM     30  C   UNL A   1      41.927  21.887  25.715  1.00  0.00     0.014 A 
ATOM     31  C   UNL A   1      41.234  21.260  27.946  1.00  0.00     0.014 A 
ATOM     32  C   UNL A   1      42.395  23.109  26.203  1.00  0.00     0.010 A 
ATOM     33  C   UNL A   1      41.641  22.507  28.421  1.00  0.00     0.010 A 
ATOM     34  C   UNL A   1      42.208  23.451  27.551  1.00  0.00    -0.014 A 
BRANCH  34  35
ATOM     35  C   UNL A   1      42.539  24.810  28.053  1.00  0.00     0.031 A 
ATOM     36  C   UNL A   1      43.935  25.149  28.493  1.00  0.00     0.074 A 
ATOM     37  C   UNL A   1      41.555  25.721  28.184  1.00  0.00     0.049 A 
ATOM     38  N   UNL A   1      44.385  26.259  29.025  1.00  0.00    -0.248 NA
ATOM     39  C   UNL A   1      44.953  24.100  28.333  1.00  0.00     0.031 C 
ATOM     40  C   UNL A   1      40.152  25.510  27.817  1.00  0.00     0.029 A 
ATOM     41  N   UNL A   1      41.580  27.004  28.670  1.00  0.00    -0.354 N 
ATOM     42  C   UNL A   1      45.734  26.038  29.273  1.00  0.00     0.074 A 
ATOM     43  C   UNL A   1      46.016  24.674  28.877  1.00  0.00     0.031 C 
ATOM     44  C   UNL A   1      39.459  26.631  28.066  1.00  0.00     0.029 A 
ATOM     45  C   UNL A   1      40.352  27.622  28.658  1.00  0.00     0.049 A 
ATOM     46  H   UNL A   1      42.400  27.441  28.996  1.00  0.00     0.167 HD
ATOM     47  C   UNL A   1      46.657  26.897  29.771  1.00  0.00     0.031 A 
ATOM     48  C   UNL A   1      39.979  28.842  29.089  1.00  0.00     0.031 A 
ATOM     49  C   UNL A   1      46.371  28.249  30.175  1.00  0.00     0.049 A 
ATOM     50  C   UNL A   1      41.008  29.752  29.698  1.00  0.00     0.074 A 
ATOM     51  C   UNL A   1      47.249  29.213  30.641  1.00  0.00     0.029 A 
ATOM     52  N   UNL A   1      45.110  28.825  30.176  1.00  0.00    -0.354 N 
ATOM     53  N   UNL A   1      42.293  29.554  29.859  1.00  0.00    -0.248 NA
ATOM     54  C   UNL A   1      40.532  31.055  30.185  1.00  0.00     0.031 C 
ATOM     55  C   UNL A   1      46.508  30.347  30.990  1.00  0.00     0.029 A 
ATOM     56  C   UNL A   1      45.178  30.113  30.680  1.00  0.00     0.049 A 
ATOM     57  H   UNL A   1      44.288  28.382  29.864  1.00  0.00     0.167 HD
ATOM     58  C   UNL A   1      42.784  30.710  30.451  1.00  0.00     0.074 A 
ATOM     59  C   UNL A   1      41.661  31.613  30.599  1.00  0.00     0.031 C 
ATOM     60  C   UNL A   1      44.050  30.996  30.840  1.00  0.00     0.031 A 
BRANCH  47  61
ATOM     61  C   UNL A   1      48.064  26.384  29.929  1.00  0.00    -0.014 A 
ATOM     62  C   UNL A   1      48.997  26.474  28.883  1.00  0.00     0.009 A 
ATOM     63  C   UNL A   1      48.470  25.822  31.150  1.00  0.00     0.009 A 
ATOM     64  C   UNL A   1      50.290  25.972  29.043  1.00  0.00     0.001 A 
ATOM     65  C   UNL A   1      49.773  25.352  31.318  1.00  0.00     0.001 A 
ATOM     66  C   UNL A   1      50.678  25.415  30.260  1.00  0.00     0.000 A 
ENDBRANCH  47  61
BRANCH  48  67
ATOM     67  C   UNL A   1      38.561  29.271  28.964  1.00  0.00    -0.014 A 
ATOM     68  C   UNL A   1      38.085  29.806  27.757  1.00  0.00     0.009 A 
ATOM     69  C   UNL A   1      37.674  29.138  30.044  1.00  0.00     0.009 A 
ATOM     70  C   UNL A   1      36.755  30.216  27.641  1.00  0.00     0.001 A 
ATOM     71  C   UNL A   1      36.338  29.521  29.915  1.00  0.00     0.001 A 
ATOM     72  C   UNL A   1      35.882  30.067  28.716  1.00  0.00     0.000 A 
ENDBRANCH  48  67
BRANCH  60  73
ATOM     73  C   UNL A   1      44.290  32.343  31.463  1.00  0.00    -0.014 A 
ATOM     74  C   UNL A   1      44.217  32.524  32.853  1.00  0.00     0.009 A 
ATOM     75  C   UNL A   1      44.638  33.436  30.653  1.00  0.00     0.009 A 
ATOM     76  C   UNL A   1      44.459  33.778  33.417  1.00  0.00     0.001 A 
ATOM     77  C   UNL A   1      44.911  34.681  31.223  1.00  0.00     0.001 A 
ATOM     78  C   UNL A   1      44.813  34.853  32.603  1.00  0.00     0.000 A 
ENDBRANCH  60  73
ENDBRANCH  34  35
ENDBRANCH  26  29
ENDBRANCH  24  25
ENDBRANCH  23  24
ENDBRANCH  22  23
ENDBRANCH   1  22
TORSDOF 17
ENDMDL
MODEL 2
REMARK VINA RESULT:     -10.1      0.685      6.005
REMARK SMILES C=C(C)CN(CC)c1ccc(F)cc1C(=O)NCCCCCCNC(=O)c1ccc(-c2c3nc(c(-c4ccccc4)c4ccc([nH]4)c(-c4ccccc4)c4nc(c(-c5ccccc5)c5ccc2[nH]5)C=C4)C=C3)cc1
REMARK SMILES IDX 20 1 19 2 18 3 17 4 15 5 16 6 14 8 8 9 9 10 10 11 13 12
REMARK SMILES IDX 11 13 12 14 5 15 4 16 2 17 1 18 3 19 6 20 7 21 21 22 22 23
REMARK SMILES IDX 23 24 24 25 25 26 26 28 27 29 28 30 74 31 29 32 73 33 30 34
REMARK SMILES IDX 31 35 32 36 67 37 33 38 72 39 66 40 68 41 34 42 71 43 65 44
REMARK SMILES IDX 64 45 35 47 57 48 42 49 56 50 43 51 46 52 55 53 69 54 44 55
REMARK SMILES IDX 45 56 54 58 70 59 47 60 36 61 37 62 41 63 38 64 40 65 39 66
REMARK SMILES IDX 58 67 59 68 63 69 60 70 62 71 61 72 48 73 49 74 53 75 50 76
REMARK SMILES IDX 52 77 51 78
REMARK H PARENT 17 7 24 27 68 46 46 57
REMARK Flexibility Score: inf
ROOT
ATOM      1  C   UNL A   1      35.912  22.738  25.846  1.00  0.00     0.002 C 
ENDROOT
BRANCH   1   2
ATOM      2  C   UNL A   1      35.029  23.127  27.035  1.00  0.00     0.021 C 
BRANCH   2   3
ATOM      3  C   UNL A   1      34.069  22.061  27.540  1.00  0.00     0.116 C 
BRANCH   3   4
ATOM      4  N   UNL A   1      32.725  22.467  27.823  1.00  0.00    -0.352 N 
ATOM      5  C   UNL A   1      31.730  22.799  26.930  1.00  0.00     0.253 C 
ATOM      6  O   UNL A   1      30.616  23.028  27.412  1.00  0.00    -0.269 OA
ATOM      7  H   UNL A   1      32.482  22.516  28.775  1.00  0.00     0.163 HD
BRANCH   5   8
ATOM      8  C   UNL A   1      31.910  22.978  25.446  1.00  0.00     0.066 A 
ATOM      9  C   UNL A   1      32.117  24.173  24.703  1.00  0.00     0.050 A 
ATOM     10  C   UNL A   1      32.382  24.041  23.316  1.00  0.00     0.030 A 
ATOM     11  C   UNL A   1      32.411  22.811  22.665  1.00  0.00     0.041 A 
ATOM     12  C   UNL A   1      31.973  21.735  24.768  1.00  0.00     0.055 A 
ATOM     13  C   UNL A   1      32.209  21.665  23.401  1.00  0.00     0.124 A 
ATOM     14  F   UNL A   1      32.260  20.472  22.794  1.00  0.00    -0.207 F 
BRANCH   9  15
ATOM     15  N   UNL A   1      32.133  25.463  25.230  1.00  0.00    -0.367 N 
BRANCH  15  16
ATOM     16  C   UNL A   1      33.400  26.006  25.758  1.00  0.00     0.146 C 
BRANCH  16  17
ATOM     17  C   UNL A   1      33.488  27.507  25.854  1.00  0.00    -0.061 C 
ATOM     18  C   UNL A   1      33.337  28.188  27.002  1.00  0.00     0.009 C 
ATOM     19  C   UNL A   1      33.658  28.218  24.535  1.00  0.00     0.041 C 
ENDBRANCH  16  17
ENDBRANCH  15  16
BRANCH  15  20
ATOM     20  C   UNL A   1      30.869  26.082  25.653  1.00  0.00     0.113 C 
ATOM     21  C   UNL A   1      29.935  26.442  24.505  1.00  0.00     0.027 C 
ENDBRANCH  15  20
ENDBRANCH   9  15
ENDBRANCH   5   8
ENDBRANCH   3   4
ENDBRANCH   2   3
ENDBRANCH   1   2
BRANCH   1  22
ATOM     22  C   UNL A   1      35.694  21.367  25.194  1.00  0.00     0.002 C 
BRANCH  22  23
ATOM     23  C   UNL A   1      36.925  20.540  24.821  1.00  0.00     0.021 C 
BRANCH  23  24
ATOM     24  C   UNL A   1      38.239  20.904  25.506  1.00  0.00     0.116 C 
BRANCH  24  25
ATOM     25  N   UNL A   1      39.210  19.825  25.515  1.00  0.00    -0.352 N 
ATOM     26  C   UNL A   1      40.514  19.800  25.954  1.00  0.00     0.251 C 
ATOM     27  H   UNL A   1      38.884  18.973  25.145  1.00  0.00     0.163 HD
ATOM     28  O   UNL A   1      41.187  18.789  25.799  1.00  0.00    -0.269 OA
BRANCH  26  29
ATOM     29  C   UNL A   1      41.129  20.997  26.574  1.00  0.00     0.039 A 
ATOM     30  C   UNL A   1      41.772  21.919  25.740  1.00  0.00     0.014 A 
ATOM     31  C   UNL A   1      41.088  21.220  27.953  1.00  0.00     0.014 A 
ATOM     32  C   UNL A   1      42.289  23.101  26.273  1.00  0.00     0.010 A 
ATOM     33  C   UNL A   1      41.545  22.430  28.475  1.00  0.00     0.010 A 
ATOM     34  C   UNL A   1      42.133  23.391  27.638  1.00  0.00    -0.014 A 
BRANCH  34  35
ATOM     35  C   UNL A   1      42.518  24.715  28.192  1.00  0.00     0.031 A 
ATOM     36  C   UNL A   1      41.496  25.801  28.370  1.00  0.00     0.074 A 
ATOM     37  C   UNL A   1      43.815  24.962  28.464  1.00  0.00     0.049 A 
ATOM     38  N   UNL A   1      41.668  27.038  28.769  1.00  0.00    -0.248 NA
ATOM     39  C   UNL A   1      40.104  25.462  28.040  1.00  0.00     0.031 C 
ATOM     40  C   UNL A   1      44.910  24.002  28.309  1.00  0.00     0.029 A 
ATOM     41  N   UNL A   1      44.434  26.100  28.918  1.00  0.00    -0.354 N 
ATOM     42  C   UNL A   1      40.410  27.626  28.728  1.00  0.00     0.074 A 
ATOM     43  C   UNL A   1      39.495  26.625  28.220  1.00  0.00     0.031 C 
ATOM     44  C   UNL A   1      46.059  24.581  28.688  1.00  0.00     0.029 A 
ATOM     45  C   UNL A   1      45.794  25.967  29.060  1.00  0.00     0.049 A 
ATOM     46  H   UNL A   1      43.949  26.932  29.123  1.00  0.00     0.167 HD
ATOM     47  C   UNL A   1      40.048  28.880  29.093  1.00  0.00     0.031 A 
ATOM     48  C   UNL A   1      46.730  26.862  29.431  1.00  0.00     0.031 A 
ATOM     49  C   UNL A   1      40.961  29.877  29.586  1.00  0.00     0.049 A 
ATOM     50  C   UNL A   1      46.311  28.265  29.767  1.00  0.00     0.074 A 
ATOM     51  C   UNL A   1      40.681  31.158  30.032  1.00  0.00     0.029 A 
ATOM     52  N   UNL A   1      42.335  29.712  29.685  1.00  0.00    -0.354 N 
ATOM     53  N   UNL A   1      45.108  28.784  29.792  1.00  0.00    -0.248 NA
ATOM     54  C   UNL A   1      47.382  29.205  30.128  1.00  0.00     0.031 C 
ATOM     55  C   UNL A   1      41.892  31.790  30.333  1.00  0.00     0.029 A 
ATOM     56  C   UNL A   1      42.921  30.883  30.138  1.00  0.00     0.049 A 
ATOM     57  H   UNL A   1      42.820  28.884  29.465  1.00  0.00     0.167 HD
ATOM     58  C   UNL A   1      45.274  30.106  30.184  1.00  0.00     0.074 A 
ATOM     59  C   UNL A   1      46.691  30.301  30.409  1.00  0.00     0.031 C 
ATOM     60  C   UNL A   1      44.336  31.071  30.339  1.00  0.00     0.031 A 
BRANCH  47  61
ATOM     61  C   UNL A   1      38.595  29.249  28.945  1.00  0.00    -0.014 A 
ATOM     62  C   UNL A   1      38.082  29.725  27.727  1.00  0.00     0.009 A 
ATOM     63  C   UNL A   1      37.721  29.096  30.034  1.00  0.00     0.009 A 
ATOM     64  C   UNL A   1      36.736  30.083  27.618  1.00  0.00     0.001 A 
ATOM     65  C   UNL A   1      36.370  29.424  29.911  1.00  0.00     0.001 A 
ATOM     66  C   UNL A   1      35.881  29.929  28.708  1.00  0.00     0.000 A 
ENDBRANCH  47  61
BRANCH  48  67
ATOM     67  C   UNL A   1      48.158  26.456  29.498  1.00  0.00    -0.014 A 
ATOM     68  C   UNL A   1      48.688  25.917  30.681  1.00  0.00     0.009 A 
ATOM     69  C   UNL A   1      48.996  26.594  28.380  1.00  0.00     0.009 A 
ATOM     70  C   UNL A   1      50.033  25.543  30.747  1.00  0.00     0.001 A 
ATOM     71  C   UNL A   1      50.332  26.191  28.441  1.00  0.00     0.001 A 
ATOM     72  C   UNL A   1      50.850  25.673  29.626  1.00  0.00     0.000 A 
ENDBRANCH  48  67
BRANCH  60  73
ATOM     73  C   UNL A   1      44.812  32.428  30.777  1.00  0.00    -0.014 A 
ATOM     74  C   UNL A   1      44.932  32.751  32.138  1.00  0.00     0.009 A 
ATOM     75  C   UNL A   1      45.190  33.381  29.817  1.00  0.00     0.009 A 
ATOM     76  C   UNL A   1      45.393  34.009  32.529  1.00  0.00     0.001 A 
ATOM     77  C   UNL A   1      45.681  34.627  30.212  1.00  0.00     0.001 A 
ATOM     78  C   UNL A   1      45.774  34.943  31.566  1.00  0.00     0.000 A 
ENDBRANCH  60  73
ENDBRANCH  34  35
ENDBRANCH  26  29
ENDBRANCH  24  25
ENDBRANCH  23  24
ENDBRANCH  22  23
ENDBRANCH   1  22
TORSDOF 17
ENDMDL
MODEL 3
REMARK VINA RESULT:      -9.8      0.999      1.704
REMARK SMILES C=C(C)CN(CC)c1ccc(F)cc1C(=O)NCCCCCCNC(=O)c1ccc(-c2c3nc(c(-c4ccccc4)c4ccc([nH]4)c(-c4ccccc4)c4nc(c(-c5ccccc5)c5ccc2[nH]5)C=C4)C=C3)cc1
REMARK SMILES IDX 20 1 19 2 18 3 17 4 15 5 16 6 14 8 8 9 9 10 10 11 13 12
REMARK SMILES IDX 11 13 12 14 5 15 4 16 2 17 1 18 3 19 6 20 7 21 21 22 22 23
REMARK SMILES IDX 23 24 24 25 25 26 26 28 27 29 28 30 74 31 29 32 73 33 30 34
REMARK SMILES IDX 31 35 32 36 67 37 33 38 72 39 66 40 68 41 34 42 71 43 65 44
REMARK SMILES IDX 64 45 35 47 57 48 42 49 56 50 43 51 46 52 55 53 69 54 44 55
REMARK SMILES IDX 45 56 54 58 70 59 47 60 36 61 37 62 41 63 38 64 40 65 39 66
REMARK SMILES IDX 58 67 59 68 63 69 60 70 62 71 61 72 48 73 49 74 53 75 50 76
REMARK SMILES IDX 52 77 51 78
REMARK H PARENT 17 7 24 27 68 46 46 57
REMARK Flexibility Score: inf
ROOT
ATOM      1  C   UNL A   1      36.567  22.082  25.783  1.00  0.00     0.002 C 
ENDROOT
BRANCH   1   2
ATOM      2  C   UNL A   1      35.260  22.770  26.189  1.00  0.00     0.021 C 
BRANCH   2   3
ATOM      3  C   UNL A   1      34.475  22.116  27.316  1.00  0.00     0.116 C 
BRANCH   3   4
ATOM      4  N   UNL A   1      33.150  22.601  27.561  1.00  0.00    -0.352 N 
ATOM      5  C   UNL A   1      32.052  22.533  26.732  1.00  0.00     0.253 C 
ATOM      6  O   UNL A   1      30.984  22.938  27.202  1.00  0.00    -0.269 OA
ATOM      7  H   UNL A   1      33.005  23.037  28.431  1.00  0.00     0.163 HD
BRANCH   5   8
ATOM      8  C   UNL A   1      32.067  22.085  25.295  1.00  0.00     0.066 A 
ATOM      9  C   UNL A   1      32.049  22.868  24.108  1.00  0.00     0.050 A 
ATOM     10  C   UNL A   1      32.197  22.187  22.873  1.00  0.00     0.030 A 
ATOM     11  C   UNL A   1      32.321  20.803  22.783  1.00  0.00     0.041 A 
ATOM     12  C   UNL A   1      32.223  20.681  25.181  1.00  0.00     0.055 A 
ATOM     13  C   UNL A   1      32.336  20.061  23.944  1.00  0.00     0.124 A 
ATOM     14  F   UNL A   1      32.481  18.731  23.875  1.00  0.00    -0.207 F 
BRANCH   9  15
ATOM     15  N   UNL A   1      31.951  24.257  24.055  1.00  0.00    -0.367 N 
BRANCH  15  16
ATOM     16  C   UNL A   1      30.687  24.871  23.601  1.00  0.00     0.146 C 
BRANCH  16  17
ATOM     17  C   UNL A   1      30.142  25.978  24.464  1.00  0.00    -0.061 C 
ATOM     18  C   UNL A   1      29.847  25.829  25.766  1.00  0.00     0.009 C 
ATOM     19  C   UNL A   1      29.846  27.264  23.734  1.00  0.00     0.041 C 
ENDBRANCH  16  17
ENDBRANCH  15  16
BRANCH  15  20
ATOM     20  C   UNL A   1      33.180  25.063  24.019  1.00  0.00     0.113 C 
ATOM     21  C   UNL A   1      33.419  25.777  22.695  1.00  0.00     0.027 C 
ENDBRANCH  15  20
ENDBRANCH   9  15
ENDBRANCH   5   8
ENDBRANCH   3   4
ENDBRANCH   2   3
ENDBRANCH   1   2
BRANCH   1  22
ATOM     22  C   UNL A   1      36.486  20.819  24.917  1.00  0.00     0.002 C 
BRANCH  22  23
ATOM     23  C   UNL A   1      37.698  19.886  24.884  1.00  0.00     0.021 C 
BRANCH  23  24
ATOM     24  C   UNL A   1      38.935  20.330  25.661  1.00  0.00     0.116 C 
BRANCH  24  25
ATOM     25  N   UNL A   1      39.974  19.318  25.729  1.00  0.00    -0.352 N 
ATOM     26  C   UNL A   1      41.301  19.423  26.077  1.00  0.00     0.251 C 
ATOM     27  H   UNL A   1      39.682  18.411  25.487  1.00  0.00     0.163 HD
ATOM     28  O   UNL A   1      42.029  18.441  25.996  1.00  0.00    -0.269 OA
BRANCH  26  29
ATOM     29  C   UNL A   1      41.874  20.720  26.507  1.00  0.00     0.039 A 
ATOM     30  C   UNL A   1      42.393  21.573  25.526  1.00  0.00     0.014 A 
ATOM     31  C   UNL A   1      41.912  21.104  27.850  1.00  0.00     0.014 A 
ATOM     32  C   UNL A   1      42.862  22.840  25.879  1.00  0.00     0.010 A 
ATOM     33  C   UNL A   1      42.319  22.393  28.193  1.00  0.00     0.010 A 
ATOM     34  C   UNL A   1      42.781  23.281  27.209  1.00  0.00    -0.014 A 
BRANCH  34  35
ATOM     35  C   UNL A   1      43.111  24.682  27.576  1.00  0.00     0.031 A 
ATOM     36  C   UNL A   1      44.539  25.119  27.738  1.00  0.00     0.074 A 
ATOM     37  C   UNL A   1      42.111  25.546  27.841  1.00  0.00     0.049 A 
ATOM     38  N   UNL A   1      45.008  26.280  28.126  1.00  0.00    -0.248 NA
ATOM     39  C   UNL A   1      45.575  24.117  27.446  1.00  0.00     0.031 C 
ATOM     40  C   UNL A   1      40.682  25.240  27.747  1.00  0.00     0.029 A 
ATOM     41  N   UNL A   1      42.143  26.855  28.253  1.00  0.00    -0.354 N 
ATOM     42  C   UNL A   1      46.390  26.145  28.134  1.00  0.00     0.074 A 
ATOM     43  C   UNL A   1      46.681  24.776  27.758  1.00  0.00     0.031 C 
ATOM     44  C   UNL A   1      39.976  26.337  28.064  1.00  0.00     0.029 A 
ATOM     45  C   UNL A   1      40.897  27.405  28.435  1.00  0.00     0.049 A 
ATOM     46  H   UNL A   1      42.980  27.353  28.402  1.00  0.00     0.167 HD
ATOM     47  C   UNL A   1      47.332  27.079  28.414  1.00  0.00     0.031 A 
ATOM     48  C   UNL A   1      40.533  28.627  28.869  1.00  0.00     0.031 A 
ATOM     49  C   UNL A   1      47.040  28.435  28.799  1.00  0.00     0.049 A 
ATOM     50  C   UNL A   1      41.595  29.624  29.236  1.00  0.00     0.074 A 
ATOM     51  C   UNL A   1      47.926  29.469  29.050  1.00  0.00     0.029 A 
ATOM     52  N   UNL A   1      45.766  28.943  29.002  1.00  0.00    -0.354 N 
ATOM     53  N   UNL A   1      42.898  29.503  29.169  1.00  0.00    -0.248 NA
ATOM     54  C   UNL A   1      41.134  30.926  29.739  1.00  0.00     0.031 C 
ATOM     55  C   UNL A   1      47.190  30.581  29.474  1.00  0.00     0.029 A 
ATOM     56  C   UNL A   1      45.843  30.260  29.423  1.00  0.00     0.049 A 
ATOM     57  H   UNL A   1      44.930  28.440  28.866  1.00  0.00     0.167 HD
ATOM     58  C   UNL A   1      43.414  30.716  29.606  1.00  0.00     0.074 A 
ATOM     59  C   UNL A   1      42.282  31.566  29.913  1.00  0.00     0.031 C 
ATOM     60  C   UNL A   1      44.709  31.090  29.744  1.00  0.00     0.031 A 
BRANCH  47  61
ATOM     61  C   UNL A   1      48.774  26.650  28.337  1.00  0.00    -0.014 A 
ATOM     62  C   UNL A   1      49.490  26.705  27.130  1.00  0.00     0.009 A 
ATOM     63  C   UNL A   1      49.434  26.207  29.495  1.00  0.00     0.009 A 
ATOM     64  C   UNL A   1      50.819  26.281  27.076  1.00  0.00     0.001 A 
ATOM     65  C   UNL A   1      50.772  25.817  29.444  1.00  0.00     0.001 A 
ATOM     66  C   UNL A   1      51.460  25.842  28.233  1.00  0.00     0.000 A 
ENDBRANCH  47  61
BRANCH  48  67
ATOM     67  C   UNL A   1      39.091  28.973  28.983  1.00  0.00    -0.014 A 
ATOM     68  C   UNL A   1      38.399  28.747  30.183  1.00  0.00     0.009 A 
ATOM     69  C   UNL A   1      38.402  29.540  27.899  1.00  0.00     0.009 A 
ATOM     70  C   UNL A   1      37.043  29.064  30.288  1.00  0.00     0.001 A 
ATOM     71  C   UNL A   1      37.054  29.884  28.018  1.00  0.00     0.001 A 
ATOM     72  C   UNL A   1      36.374  29.639  29.209  1.00  0.00     0.000 A 
ENDBRANCH  48  67
BRANCH  60  73
ATOM     73  C   UNL A   1      44.972  32.482  30.248  1.00  0.00    -0.014 A 
ATOM     74  C   UNL A   1      45.060  33.569  29.363  1.00  0.00     0.009 A 
ATOM     75  C   UNL A   1      45.087  32.718  31.627  1.00  0.00     0.009 A 
ATOM     76  C   UNL A   1      45.288  34.858  29.848  1.00  0.00     0.001 A 
ATOM     77  C   UNL A   1      45.283  34.013  32.110  1.00  0.00     0.001 A 
ATOM     78  C   UNL A   1      45.392  35.080  31.220  1.00  0.00     0.000 A 
ENDBRANCH  60  73
ENDBRANCH  34  35
ENDBRANCH  26  29
ENDBRANCH  24  25
ENDBRANCH  23  24
ENDBRANCH  22  23
ENDBRANCH   1  22
TORSDOF 17
ENDMDL
