MODEL 1
REMARK VINA RESULT:     -10.8      0.000      0.000
REMARK SMILES C/C=C(\C)[C@H]1C(C)=C[C@H]2CC[C@@H](OS(=O)(=O)[O-])[C@@H](C)[C@H]2[C@H]1/C=C/C=C/C(=O)NCCCCCCNC(=O)c1ccc(-c2c3nc(c(-c4ccccc4)c4ccc([nH]4)c(-c4ccccc4)c4nc(c(-c5ccccc5)c5ccc2[nH]5)C=C4)C=C3)cc1
REMARK SMILES IDX 30 1 29 2 28 3 26 4 27 5 25 7 24 8 23 9 22 10 21 11 5 12
REMARK SMILES IDX 6 13 7 14 8 15 20 16 9 17 18 18 10 19 12 20 19 21 11 22 3 23
REMARK SMILES IDX 1 24 2 25 4 26 13 27 14 28 15 29 16 30 17 31 31 32 32 33
REMARK SMILES IDX 33 34 34 35 35 36 36 37 37 39 38 40 39 41 85 42 40 43 84 44
REMARK SMILES IDX 41 45 42 46 43 47 78 48 44 49 83 50 77 51 79 52 45 53 82 54
REMARK SMILES IDX 76 55 75 56 46 58 68 59 53 60 67 61 54 62 57 63 66 64 80 65
REMARK SMILES IDX 55 66 56 67 65 69 81 70 58 71 47 72 48 73 52 74 49 75 51 76
REMARK SMILES IDX 50 77 69 78 70 79 74 80 71 81 73 82 72 83 59 84 60 85 64 86
REMARK SMILES IDX 61 87 63 88 62 89
REMARK H PARENT 28 6 35 38 79 57 57 68
REMARK Flexibility Score: inf
ROOT
ATOM      1  C   UNL A   1      35.355  31.613  28.246  1.00  0.00     0.021 C 
ENDROOT
BRANCH   1   2
ATOM      2  C   UNL A   1      34.650  30.514  27.446  1.00  0.00     0.116 C 
BRANCH   2   3
ATOM      3  N   UNL A   1      33.393  31.010  26.907  1.00  0.00    -0.353 N 
ATOM      4  C   UNL A   1      32.188  30.425  26.672  1.00  0.00     0.243 C 
ATOM      5  O   UNL A   1      31.266  31.115  26.239  1.00  0.00    -0.270 OA
ATOM      6  H   UNL A   1      33.421  31.964  26.661  1.00  0.00     0.163 HD
BRANCH   4   7
ATOM      7  C   UNL A   1      31.921  29.008  27.014  1.00  0.00     0.071 C 
ATOM      8  C   UNL A   1      32.228  27.980  26.219  1.00  0.00     0.005 C 
BRANCH   8   9
ATOM      9  C   UNL A   1      32.085  26.582  26.549  1.00  0.00    -0.004 C 
ATOM     10  C   UNL A   1      32.732  25.696  25.775  1.00  0.00    -0.022 C 
BRANCH  10  11
ATOM     11  C   UNL A   1      32.564  24.195  25.735  1.00  0.00     0.027 C 
ATOM     12  C   UNL A   1      31.875  23.679  24.392  1.00  0.00     0.047 C 
ATOM     13  C   UNL A   1      32.413  22.343  23.872  1.00  0.00    -0.069 C 
ATOM     14  C   UNL A   1      31.940  21.840  22.532  1.00  0.00     0.040 C 
ATOM     15  C   UNL A   1      33.213  21.559  24.618  1.00  0.00    -0.024 C 
ATOM     16  C   UNL A   1      33.869  23.447  26.167  1.00  0.00     0.009 C 
ATOM     17  C   UNL A   1      33.678  21.921  26.000  1.00  0.00     0.016 C 
ATOM     18  C   UNL A   1      35.240  23.979  25.622  1.00  0.00     0.021 C 
ATOM     19  C   UNL A   1      34.922  21.125  26.425  1.00  0.00     0.011 C 
ATOM     20  C   UNL A   1      36.412  23.125  26.170  1.00  0.00     0.141 C 
ATOM     21  C   UNL A   1      35.347  24.140  24.102  1.00  0.00     0.011 C 
ATOM     22  C   UNL A   1      36.219  21.650  25.828  1.00  0.00     0.034 C 
BRANCH  12  23
ATOM     23  C   UNL A   1      31.660  24.775  23.309  1.00  0.00    -0.070 C 
ATOM     24  C   UNL A   1      32.578  26.219  21.389  1.00  0.00     0.035 C 
ATOM     25  C   UNL A   1      32.601  25.122  22.405  1.00  0.00    -0.031 C 
ATOM     26  C   UNL A   1      30.294  25.427  23.369  1.00  0.00     0.040 C 
ENDBRANCH  12  23
BRANCH  20  27
ATOM     27  O   UNL A   1      37.631  23.607  25.615  1.00  0.00    -0.276 OA
BRANCH  27  28
ATOM     28  S   UNL A   1      38.963  23.677  26.531  1.00  0.00     0.217 S 
ATOM     29  O   UNL A   1      38.620  24.198  27.835  1.00  0.00    -0.213 OA
ATOM     30  O   UNL A   1      39.706  22.449  26.379  1.00  0.00    -0.213 OA
ATOM     31  O   UNL A   1      39.841  24.806  25.793  1.00  0.00    -0.726 OA
ENDBRANCH  27  28
ENDBRANCH  20  27
ENDBRANCH  10  11
ENDBRANCH   8   9
ENDBRANCH   4   7
ENDBRANCH   2   3
ENDBRANCH   1   2
BRANCH   1  32
ATOM     32  C   UNL A   1      34.395  32.425  29.128  1.00  0.00     0.002 C 
BRANCH  32  33
ATOM     33  C   UNL A   1      34.542  33.947  29.002  1.00  0.00     0.002 C 
BRANCH  33  34
ATOM     34  C   UNL A   1      33.227  34.727  29.070  1.00  0.00     0.021 C 
BRANCH  34  35
ATOM     35  C   UNL A   1      33.361  36.117  29.681  1.00  0.00     0.116 C 
BRANCH  35  36
ATOM     36  N   UNL A   1      32.474  36.291  30.822  1.00  0.00    -0.352 N 
ATOM     37  C   UNL A   1      32.540  35.726  32.070  1.00  0.00     0.251 C 
ATOM     38  H   UNL A   1      31.716  36.902  30.676  1.00  0.00     0.163 HD
ATOM     39  O   UNL A   1      31.582  35.792  32.832  1.00  0.00    -0.269 OA
BRANCH  37  40
ATOM     40  C   UNL A   1      33.771  35.027  32.491  1.00  0.00     0.039 A 
ATOM     41  C   UNL A   1      33.687  33.697  32.908  1.00  0.00     0.014 A 
ATOM     42  C   UNL A   1      35.003  35.688  32.485  1.00  0.00     0.014 A 
ATOM     43  C   UNL A   1      34.849  33.013  33.266  1.00  0.00     0.010 A 
ATOM     44  C   UNL A   1      36.168  34.981  32.764  1.00  0.00     0.010 A 
ATOM     45  C   UNL A   1      36.102  33.639  33.165  1.00  0.00    -0.014 A 
BRANCH  45  46
ATOM     46  C   UNL A   1      37.354  32.903  33.473  1.00  0.00     0.031 A 
ATOM     47  C   UNL A   1      38.069  33.138  34.776  1.00  0.00     0.074 A 
ATOM     48  C   UNL A   1      37.878  32.070  32.554  1.00  0.00     0.049 A 
ATOM     49  N   UNL A   1      39.197  32.627  35.200  1.00  0.00    -0.248 NA
ATOM     50  C   UNL A   1      37.451  34.089  35.715  1.00  0.00     0.031 C 
ATOM     51  C   UNL A   1      37.301  31.788  31.237  1.00  0.00     0.029 A 
ATOM     52  N   UNL A   1      39.020  31.309  32.586  1.00  0.00    -0.354 N 
ATOM     53  C   UNL A   1      39.430  33.205  36.442  1.00  0.00     0.074 A 
ATOM     54  C   UNL A   1      38.356  34.143  36.680  1.00  0.00     0.031 C 
ATOM     55  C   UNL A   1      38.075  30.896  30.601  1.00  0.00     0.029 A 
ATOM     56  C   UNL A   1      39.225  30.578  31.440  1.00  0.00     0.049 A 
ATOM     57  H   UNL A   1      39.633  31.288  33.355  1.00  0.00     0.167 HD
ATOM     58  C   UNL A   1      40.438  32.963  37.314  1.00  0.00     0.031 A 
ATOM     59  C   UNL A   1      40.233  29.754  31.098  1.00  0.00     0.031 A 
ATOM     60  C   UNL A   1      41.502  32.025  37.076  1.00  0.00     0.049 A 
ATOM     61  C   UNL A   1      41.352  29.521  32.075  1.00  0.00     0.074 A 
ATOM     62  C   UNL A   1      42.538  31.665  37.922  1.00  0.00     0.029 A 
ATOM     63  N   UNL A   1      41.674  31.304  35.904  1.00  0.00    -0.354 N 
ATOM     64  N   UNL A   1      41.517  30.017  33.278  1.00  0.00    -0.248 NA
ATOM     65  C   UNL A   1      42.419  28.603  31.651  1.00  0.00     0.031 C 
ATOM     66  C   UNL A   1      43.373  30.778  37.237  1.00  0.00     0.029 A 
ATOM     67  C   UNL A   1      42.817  30.527  35.992  1.00  0.00     0.049 A 
ATOM     68  H   UNL A   1      41.073  31.340  35.126  1.00  0.00     0.167 HD
ATOM     69  C   UNL A   1      42.687  29.448  33.764  1.00  0.00     0.074 A 
ATOM     70  C   UNL A   1      43.179  28.557  32.736  1.00  0.00     0.031 C 
ATOM     71  C   UNL A   1      43.298  29.645  34.959  1.00  0.00     0.031 A 
BRANCH  58  72
ATOM     72  C   UNL A   1      40.446  33.739  38.603  1.00  0.00    -0.014 A 
ATOM     73  C   UNL A   1      40.076  33.142  39.819  1.00  0.00     0.009 A 
ATOM     74  C   UNL A   1      40.872  35.076  38.608  1.00  0.00     0.009 A 
ATOM     75  C   UNL A   1      40.098  33.879  41.005  1.00  0.00     0.001 A 
ATOM     76  C   UNL A   1      40.924  35.801  39.799  1.00  0.00     0.001 A 
ATOM     77  C   UNL A   1      40.527  35.206  40.995  1.00  0.00     0.000 A 
ENDBRANCH  58  72
BRANCH  59  78
ATOM     78  C   UNL A   1      40.232  29.084  29.771  1.00  0.00    -0.014 A 
ATOM     79  C   UNL A   1      39.553  27.869  29.581  1.00  0.00     0.009 A 
ATOM     80  C   UNL A   1      40.922  29.647  28.686  1.00  0.00     0.009 A 
ATOM     81  C   UNL A   1      39.594  27.219  28.345  1.00  0.00     0.001 A 
ATOM     82  C   UNL A   1      40.934  29.012  27.443  1.00  0.00     0.001 A 
ATOM     83  C   UNL A   1      40.280  27.793  27.276  1.00  0.00     0.000 A 
ENDBRANCH  59  78
BRANCH  71  84
ATOM     84  C   UNL A   1      44.544  28.851  35.236  1.00  0.00    -0.014 A 
ATOM     85  C   UNL A   1      44.488  27.574  35.814  1.00  0.00     0.009 A 
ATOM     86  C   UNL A   1      45.793  29.376  34.870  1.00  0.00     0.009 A 
ATOM     87  C   UNL A   1      45.661  26.856  36.055  1.00  0.00     0.001 A 
ATOM     88  C   UNL A   1      46.962  28.642  35.079  1.00  0.00     0.001 A 
ATOM     89  C   UNL A   1      46.896  27.387  35.682  1.00  0.00     0.000 A 
ENDBRANCH  71  84
ENDBRANCH  45  46
ENDBRANCH  37  40
ENDBRANCH  35  36
ENDBRANCH  34  35
ENDBRANCH  33  34
ENDBRANCH  32  33
ENDBRANCH   1  32
TORSDOF 18
ENDMDL
MODEL 2
REMARK VINA RESULT:     -10.7      6.163     13.022
REMARK SMILES C/C=C(\C)[C@H]1C(C)=C[C@H]2CC[C@@H](OS(=O)(=O)[O-])[C@@H](C)[C@H]2[C@H]1/C=C/C=C/C(=O)NCCCCCCNC(=O)c1ccc(-c2c3nc(c(-c4ccccc4)c4ccc([nH]4)c(-c4ccccc4)c4nc(c(-c5ccccc5)c5ccc2[nH]5)C=C4)C=C3)cc1
REMARK SMILES IDX 30 1 29 2 28 3 26 4 27 5 25 7 24 8 23 9 22 10 21 11 5 12
REMARK SMILES IDX 6 13 7 14 8 15 20 16 9 17 18 18 10 19 12 20 19 21 11 22 3 23
REMARK SMILES IDX 1 24 2 25 4 26 13 27 14 28 15 29 16 30 17 31 31 32 32 33
REMARK SMILES IDX 33 34 34 35 35 36 36 37 37 39 38 40 39 41 85 42 40 43 84 44
REMARK SMILES IDX 41 45 42 46 43 47 78 48 44 49 83 50 77 51 79 52 45 53 82 54
REMARK SMILES IDX 76 55 75 56 46 58 68 59 53 60 67 61 54 62 57 63 66 64 80 65
REMARK SMILES IDX 55 66 56 67 65 69 81 70 58 71 47 72 48 73 52 74 49 75 51 76
REMARK SMILES IDX 50 77 69 78 70 79 74 80 71 81 73 82 72 83 59 84 60 85 64 86
REMARK SMILES IDX 61 87 63 88 62 89
REMARK H PARENT 28 6 35 38 79 57 57 68
REMARK Flexibility Score: inf
ROOT
ATOM      1  C   UNL A   1      44.777  25.028  38.894  1.00  0.00     0.021 C 
ENDROOT
BRANCH   1   2
ATOM      2  C   UNL A   1      43.619  25.911  38.419  1.00  0.00     0.116 C 
BRANCH   2   3
ATOM      3  N   UNL A   1      42.791  25.186  37.467  1.00  0.00    -0.353 N 
ATOM      4  C   UNL A   1      41.998  25.583  36.435  1.00  0.00     0.243 C 
ATOM      5  O   UNL A   1      41.434  24.727  35.755  1.00  0.00    -0.270 OA
ATOM      6  H   UNL A   1      42.808  24.210  37.595  1.00  0.00     0.163 HD
BRANCH   4   7
ATOM      7  C   UNL A   1      41.869  27.007  36.045  1.00  0.00     0.071 C 
ATOM      8  C   UNL A   1      41.616  27.417  34.799  1.00  0.00     0.005 C 
BRANCH   8   9
ATOM      9  C   UNL A   1      41.378  28.780  34.388  1.00  0.00    -0.004 C 
ATOM     10  C   UNL A   1      40.873  28.975  33.159  1.00  0.00    -0.022 C 
BRANCH  10  11
ATOM     11  C   UNL A   1      40.762  30.271  32.391  1.00  0.00     0.027 C 
ATOM     12  C   UNL A   1      40.065  30.096  30.967  1.00  0.00     0.047 C 
ATOM     13  C   UNL A   1      39.168  31.263  30.548  1.00  0.00    -0.069 C 
ATOM     14  C   UNL A   1      38.344  31.135  29.292  1.00  0.00     0.040 C 
ATOM     15  C   UNL A   1      39.171  32.437  31.208  1.00  0.00    -0.024 C 
ATOM     16  C   UNL A   1      40.216  31.436  33.282  1.00  0.00     0.009 C 
ATOM     17  C   UNL A   1      40.016  32.705  32.421  1.00  0.00     0.016 C 
ATOM     18  C   UNL A   1      39.019  31.129  34.248  1.00  0.00     0.021 C 
ATOM     19  C   UNL A   1      39.497  33.896  33.243  1.00  0.00     0.011 C 
ATOM     20  C   UNL A   1      38.633  32.395  35.056  1.00  0.00     0.141 C 
ATOM     21  C   UNL A   1      37.781  30.491  33.609  1.00  0.00     0.011 C 
ATOM     22  C   UNL A   1      38.303  33.558  34.123  1.00  0.00     0.034 C 
BRANCH  12  23
ATOM     23  C   UNL A   1      39.479  28.679  30.700  1.00  0.00    -0.070 C 
ATOM     24  C   UNL A   1      39.501  26.476  29.374  1.00  0.00     0.035 C 
ATOM     25  C   UNL A   1      40.011  27.811  29.813  1.00  0.00    -0.031 C 
ATOM     26  C   UNL A   1      38.247  28.367  31.522  1.00  0.00     0.040 C 
ENDBRANCH  12  23
BRANCH  20  27
ATOM     27  O   UNL A   1      37.514  32.089  35.881  1.00  0.00    -0.276 OA
BRANCH  27  28
ATOM     28  S   UNL A   1      37.739  31.724  37.442  1.00  0.00     0.217 S 
ATOM     29  O   UNL A   1      37.384  30.340  37.665  1.00  0.00    -0.213 OA
ATOM     30  O   UNL A   1      39.007  32.259  37.874  1.00  0.00    -0.213 OA
ATOM     31  O   UNL A   1      36.620  32.618  38.178  1.00  0.00    -0.726 OA
ENDBRANCH  27  28
ENDBRANCH  20  27
ENDBRANCH  10  11
ENDBRANCH   8   9
ENDBRANCH   4   7
ENDBRANCH   2   3
ENDBRANCH   1   2
BRANCH   1  32
ATOM     32  C   UNL A   1      45.362  24.150  37.778  1.00  0.00     0.002 C 
BRANCH  32  33
ATOM     33  C   UNL A   1      46.874  23.908  37.880  1.00  0.00     0.002 C 
BRANCH  33  34
ATOM     34  C   UNL A   1      47.275  22.454  38.135  1.00  0.00     0.021 C 
BRANCH  34  35
ATOM     35  C   UNL A   1      46.110  21.471  38.088  1.00  0.00     0.116 C 
BRANCH  35  36
ATOM     36  N   UNL A   1      46.348  20.401  37.130  1.00  0.00    -0.352 N 
ATOM     37  C   UNL A   1      46.114  20.374  35.779  1.00  0.00     0.251 C 
ATOM     38  H   UNL A   1      46.733  19.577  37.507  1.00  0.00     0.163 HD
ATOM     39  O   UNL A   1      46.147  19.314  35.165  1.00  0.00    -0.269 OA
BRANCH  37  40
ATOM     40  C   UNL A   1      45.811  21.631  35.065  1.00  0.00     0.039 A 
ATOM     41  C   UNL A   1      44.478  22.007  34.889  1.00  0.00     0.014 A 
ATOM     42  C   UNL A   1      46.842  22.431  34.562  1.00  0.00     0.014 A 
ATOM     43  C   UNL A   1      44.180  23.213  34.255  1.00  0.00     0.010 A 
ATOM     44  C   UNL A   1      46.545  23.669  34.003  1.00  0.00     0.010 A 
ATOM     45  C   UNL A   1      45.211  24.070  33.837  1.00  0.00    -0.014 A 
BRANCH  45  46
ATOM     46  C   UNL A   1      44.912  25.390  33.226  1.00  0.00     0.031 A 
ATOM     47  C   UNL A   1      44.534  25.483  31.773  1.00  0.00     0.074 A 
ATOM     48  C   UNL A   1      45.040  26.508  33.965  1.00  0.00     0.049 A 
ATOM     49  N   UNL A   1      44.286  26.548  31.054  1.00  0.00    -0.248 NA
ATOM     50  C   UNL A   1      44.447  24.219  31.024  1.00  0.00     0.031 C 
ATOM     51  C   UNL A   1      45.439  26.552  35.375  1.00  0.00     0.029 A 
ATOM     52  N   UNL A   1      44.853  27.826  33.632  1.00  0.00    -0.354 N 
ATOM     53  C   UNL A   1      44.031  26.085  29.769  1.00  0.00     0.074 A 
ATOM     54  C   UNL A   1      44.207  24.650  29.794  1.00  0.00     0.031 C 
ATOM     55  C   UNL A   1      45.438  27.828  35.791  1.00  0.00     0.029 A 
ATOM     56  C   UNL A   1      45.085  28.695  34.671  1.00  0.00     0.049 A 
ATOM     57  H   UNL A   1      44.578  28.121  32.734  1.00  0.00     0.167 HD
ATOM     58  C   UNL A   1      43.666  26.788  28.670  1.00  0.00     0.031 A 
ATOM     59  C   UNL A   1      45.034  30.039  34.715  1.00  0.00     0.031 A 
ATOM     60  C   UNL A   1      43.488  28.215  28.649  1.00  0.00     0.049 A 
ATOM     61  C   UNL A   1      44.649  30.797  33.475  1.00  0.00     0.074 A 
ATOM     62  C   UNL A   1      43.063  29.014  27.601  1.00  0.00     0.029 A 
ATOM     63  N   UNL A   1      43.733  29.059  29.722  1.00  0.00    -0.354 N 
ATOM     64  N   UNL A   1      44.336  30.338  32.288  1.00  0.00    -0.248 NA
ATOM     65  C   UNL A   1      44.599  32.262  33.585  1.00  0.00     0.031 C 
ATOM     66  C   UNL A   1      43.116  30.347  28.020  1.00  0.00     0.029 A 
ATOM     67  C   UNL A   1      43.500  30.373  29.352  1.00  0.00     0.049 A 
ATOM     68  H   UNL A   1      44.028  28.767  30.615  1.00  0.00     0.167 HD
ATOM     69  C   UNL A   1      44.022  31.452  31.521  1.00  0.00     0.074 A 
ATOM     70  C   UNL A   1      44.164  32.607  32.382  1.00  0.00     0.031 C 
ATOM     71  C   UNL A   1      43.647  31.514  30.219  1.00  0.00     0.031 A 
BRANCH  58  72
ATOM     72  C   UNL A   1      43.451  26.024  27.393  1.00  0.00    -0.014 A 
ATOM     73  C   UNL A   1      44.490  25.841  26.465  1.00  0.00     0.009 A 
ATOM     74  C   UNL A   1      42.202  25.440  27.133  1.00  0.00     0.009 A 
ATOM     75  C   UNL A   1      44.270  25.121  25.288  1.00  0.00     0.001 A 
ATOM     76  C   UNL A   1      41.993  24.693  25.972  1.00  0.00     0.001 A 
ATOM     77  C   UNL A   1      43.024  24.543  25.046  1.00  0.00     0.000 A 
ENDBRANCH  58  72
BRANCH  59  78
ATOM     78  C   UNL A   1      45.351  30.758  35.978  1.00  0.00    -0.014 A 
ATOM     79  C   UNL A   1      44.343  31.039  36.915  1.00  0.00     0.009 A 
ATOM     80  C   UNL A   1      46.662  31.181  36.248  1.00  0.00     0.009 A 
ATOM     81  C   UNL A   1      44.637  31.756  38.077  1.00  0.00     0.001 A 
ATOM     82  C   UNL A   1      46.959  31.868  37.427  1.00  0.00     0.001 A 
ATOM     83  C   UNL A   1      45.945  32.166  38.335  1.00  0.00     0.000 A 
ENDBRANCH  59  78
BRANCH  71  84
ATOM     84  C   UNL A   1      43.323  32.870  29.657  1.00  0.00    -0.014 A 
ATOM     85  C   UNL A   1      42.073  33.472  29.867  1.00  0.00     0.009 A 
ATOM     86  C   UNL A   1      44.304  33.575  28.943  1.00  0.00     0.009 A 
ATOM     87  C   UNL A   1      41.800  34.736  29.339  1.00  0.00     0.001 A 
ATOM     88  C   UNL A   1      44.042  34.853  28.446  1.00  0.00     0.001 A 
ATOM     89  C   UNL A   1      42.786  35.427  28.635  1.00  0.00     0.000 A 
ENDBRANCH  71  84
ENDBRANCH  45  46
ENDBRANCH  37  40
ENDBRANCH  35  36
ENDBRANCH  34  35
ENDBRANCH  33  34
ENDBRANCH  32  33
ENDBRANCH   1  32
TORSDOF 18
ENDMDL
MODEL 3
REMARK VINA RESULT:     -10.7      6.110     11.766
REMARK SMILES C/C=C(\C)[C@H]1C(C)=C[C@H]2CC[C@@H](OS(=O)(=O)[O-])[C@@H](C)[C@H]2[C@H]1/C=C/C=C/C(=O)NCCCCCCNC(=O)c1ccc(-c2c3nc(c(-c4ccccc4)c4ccc([nH]4)c(-c4ccccc4)c4nc(c(-c5ccccc5)c5ccc2[nH]5)C=C4)C=C3)cc1
REMARK SMILES IDX 30 1 29 2 28 3 26 4 27 5 25 7 24 8 23 9 22 10 21 11 5 12
REMARK SMILES IDX 6 13 7 14 8 15 20 16 9 17 18 18 10 19 12 20 19 21 11 22 3 23
REMARK SMILES IDX 1 24 2 25 4 26 13 27 14 28 15 29 16 30 17 31 31 32 32 33
REMARK SMILES IDX 33 34 34 35 35 36 36 37 37 39 38 40 39 41 85 42 40 43 84 44
REMARK SMILES IDX 41 45 42 46 43 47 78 48 44 49 83 50 77 51 79 52 45 53 82 54
REMARK SMILES IDX 76 55 75 56 46 58 68 59 53 60 67 61 54 62 57 63 66 64 80 65
REMARK SMILES IDX 55 66 56 67 65 69 81 70 58 71 47 72 48 73 52 74 49 75 51 76
REMARK SMILES IDX 50 77 69 78 70 79 74 80 71 81 73 82 72 83 59 84 60 85 64 86
REMARK SMILES IDX 61 87 63 88 62 89
REMARK H PARENT 28 6 35 38 79 57 57 68
REMARK Flexibility Score: inf
ROOT
ATOM      1  C   UNL A   1      44.773  24.890  38.978  1.00  0.00     0.021 C 
ENDROOT
BRANCH   1   2
ATOM      2  C   UNL A   1      43.738  25.863  38.405  1.00  0.00     0.116 C 
BRANCH   2   3
ATOM      3  N   UNL A   1      42.802  25.155  37.546  1.00  0.00    -0.353 N 
ATOM      4  C   UNL A   1      41.949  25.562  36.567  1.00  0.00     0.243 C 
ATOM      5  O   UNL A   1      41.291  24.717  35.961  1.00  0.00    -0.270 OA
ATOM      6  H   UNL A   1      42.781  24.183  37.704  1.00  0.00     0.163 HD
BRANCH   4   7
ATOM      7  C   UNL A   1      41.859  26.979  36.141  1.00  0.00     0.071 C 
ATOM      8  C   UNL A   1      41.534  27.365  34.905  1.00  0.00     0.005 C 
BRANCH   8   9
ATOM      9  C   UNL A   1      41.332  28.726  34.468  1.00  0.00    -0.004 C 
ATOM     10  C   UNL A   1      40.847  28.912  33.230  1.00  0.00    -0.022 C 
BRANCH  10  11
ATOM     11  C   UNL A   1      40.775  30.197  32.440  1.00  0.00     0.027 C 
ATOM     12  C   UNL A   1      40.075  30.017  31.017  1.00  0.00     0.047 C 
ATOM     13  C   UNL A   1      39.213  31.202  30.575  1.00  0.00    -0.069 C 
ATOM     14  C   UNL A   1      38.388  31.075  29.320  1.00  0.00     0.040 C 
ATOM     15  C   UNL A   1      39.249  32.387  31.216  1.00  0.00    -0.024 C 
ATOM     16  C   UNL A   1      40.260  31.392  33.309  1.00  0.00     0.009 C 
ATOM     17  C   UNL A   1      40.099  32.651  32.425  1.00  0.00     0.016 C 
ATOM     18  C   UNL A   1      39.053  31.136  34.277  1.00  0.00     0.021 C 
ATOM     19  C   UNL A   1      39.612  33.870  33.226  1.00  0.00     0.011 C 
ATOM     20  C   UNL A   1      38.701  32.426  35.062  1.00  0.00     0.141 C 
ATOM     21  C   UNL A   1      37.799  30.522  33.646  1.00  0.00     0.011 C 
ATOM     22  C   UNL A   1      38.407  33.581  34.109  1.00  0.00     0.034 C 
BRANCH  12  23
ATOM     23  C   UNL A   1      39.451  28.613  30.772  1.00  0.00    -0.070 C 
ATOM     24  C   UNL A   1      39.368  26.415  29.441  1.00  0.00     0.035 C 
ATOM     25  C   UNL A   1      39.924  27.738  29.860  1.00  0.00    -0.031 C 
ATOM     26  C   UNL A   1      38.251  28.322  31.650  1.00  0.00     0.040 C 
ENDBRANCH  12  23
BRANCH  20  27
ATOM     27  O   UNL A   1      37.573  32.166  35.889  1.00  0.00    -0.276 OA
BRANCH  27  28
ATOM     28  S   UNL A   1      37.788  31.744  37.437  1.00  0.00     0.217 S 
ATOM     29  O   UNL A   1      37.444  30.349  37.604  1.00  0.00    -0.213 OA
ATOM     30  O   UNL A   1      39.047  32.274  37.902  1.00  0.00    -0.213 OA
ATOM     31  O   UNL A   1      36.654  32.597  38.197  1.00  0.00    -0.726 OA
ENDBRANCH  27  28
ENDBRANCH  20  27
ENDBRANCH  10  11
ENDBRANCH   8   9
ENDBRANCH   4   7
ENDBRANCH   2   3
ENDBRANCH   1   2
BRANCH   1  32
ATOM     32  C   UNL A   1      45.545  24.125  37.893  1.00  0.00     0.002 C 
BRANCH  32  33
ATOM     33  C   UNL A   1      46.998  23.791  38.257  1.00  0.00     0.002 C 
BRANCH  33  34
ATOM     34  C   UNL A   1      47.325  22.297  38.284  1.00  0.00     0.021 C 
BRANCH  34  35
ATOM     35  C   UNL A   1      46.123  21.393  38.033  1.00  0.00     0.116 C 
BRANCH  35  36
ATOM     36  N   UNL A   1      46.369  20.462  36.941  1.00  0.00    -0.352 N 
ATOM     37  C   UNL A   1      46.150  20.619  35.597  1.00  0.00     0.251 C 
ATOM     38  H   UNL A   1      46.748  19.593  37.208  1.00  0.00     0.163 HD
ATOM     39  O   UNL A   1      46.187  19.651  34.846  1.00  0.00    -0.269 OA
BRANCH  37  40
ATOM     40  C   UNL A   1      45.857  21.962  35.057  1.00  0.00     0.039 A 
ATOM     41  C   UNL A   1      46.916  22.773  34.645  1.00  0.00     0.014 A 
ATOM     42  C   UNL A   1      44.539  22.421  34.966  1.00  0.00     0.014 A 
ATOM     43  C   UNL A   1      46.650  24.026  34.093  1.00  0.00     0.010 A 
ATOM     44  C   UNL A   1      44.272  23.635  34.342  1.00  0.00     0.010 A 
ATOM     45  C   UNL A   1      45.325  24.453  33.906  1.00  0.00    -0.014 A 
BRANCH  45  46
ATOM     46  C   UNL A   1      45.022  25.752  33.253  1.00  0.00     0.031 A 
ATOM     47  C   UNL A   1      45.054  27.026  34.051  1.00  0.00     0.074 A 
ATOM     48  C   UNL A   1      44.659  25.775  31.956  1.00  0.00     0.049 A 
ATOM     49  N   UNL A   1      44.772  28.245  33.668  1.00  0.00    -0.248 NA
ATOM     50  C   UNL A   1      45.428  26.914  35.471  1.00  0.00     0.031 C 
ATOM     51  C   UNL A   1      44.551  24.602  31.084  1.00  0.00     0.029 A 
ATOM     52  N   UNL A   1      44.308  26.825  31.145  1.00  0.00    -0.354 N 
ATOM     53  C   UNL A   1      44.918  29.039  34.799  1.00  0.00     0.074 A 
ATOM     54  C   UNL A   1      45.260  28.158  35.894  1.00  0.00     0.031 C 
ATOM     55  C   UNL A   1      44.190  25.001  29.855  1.00  0.00     0.029 A 
ATOM     56  C   UNL A   1      43.995  26.447  29.862  1.00  0.00     0.049 A 
ATOM     57  H   UNL A   1      44.283  27.759  31.453  1.00  0.00     0.167 HD
ATOM     58  C   UNL A   1      44.795  30.384  34.913  1.00  0.00     0.031 A 
ATOM     59  C   UNL A   1      43.584  27.180  28.810  1.00  0.00     0.031 A 
ATOM     60  C   UNL A   1      44.458  31.258  33.822  1.00  0.00     0.049 A 
ATOM     61  C   UNL A   1      43.432  28.668  28.970  1.00  0.00     0.074 A 
ATOM     62  C   UNL A   1      44.367  32.640  33.822  1.00  0.00     0.029 A 
ATOM     63  N   UNL A   1      44.149  30.836  32.538  1.00  0.00    -0.354 N 
ATOM     64  N   UNL A   1      43.649  29.413  30.027  1.00  0.00    -0.248 NA
ATOM     65  C   UNL A   1      42.991  29.418  27.785  1.00  0.00     0.031 C 
ATOM     66  C   UNL A   1      43.937  33.048  32.556  1.00  0.00     0.029 A 
ATOM     67  C   UNL A   1      43.834  31.928  31.746  1.00  0.00     0.049 A 
ATOM     68  H   UNL A   1      44.153  29.900  32.233  1.00  0.00     0.167 HD
ATOM     69  C   UNL A   1      43.400  30.719  29.627  1.00  0.00     0.074 A 
ATOM     70  C   UNL A   1      43.036  30.667  28.226  1.00  0.00     0.031 C 
ATOM     71  C   UNL A   1      43.471  31.861  30.354  1.00  0.00     0.031 A 
BRANCH  58  72
ATOM     72  C   UNL A   1      45.010  30.991  36.273  1.00  0.00    -0.014 A 
ATOM     73  C   UNL A   1      43.948  31.153  37.179  1.00  0.00     0.009 A 
ATOM     74  C   UNL A   1      46.302  31.366  36.671  1.00  0.00     0.009 A 
ATOM     75  C   UNL A   1      44.172  31.712  38.439  1.00  0.00     0.001 A 
ATOM     76  C   UNL A   1      46.529  31.894  37.943  1.00  0.00     0.001 A 
ATOM     77  C   UNL A   1      45.463  32.076  38.822  1.00  0.00     0.000 A 
ENDBRANCH  58  72
BRANCH  59  78
ATOM     78  C   UNL A   1      43.288  26.522  27.510  1.00  0.00    -0.014 A 
ATOM     79  C   UNL A   1      44.310  26.287  26.576  1.00  0.00     0.009 A 
ATOM     80  C   UNL A   1      41.978  26.135  27.187  1.00  0.00     0.009 A 
ATOM     81  C   UNL A   1      44.020  25.712  25.337  1.00  0.00     0.001 A 
ATOM     82  C   UNL A   1      41.696  25.530  25.962  1.00  0.00     0.001 A 
ATOM     83  C   UNL A   1      42.714  25.329  25.033  1.00  0.00     0.000 A 
ENDBRANCH  59  78
BRANCH  71  84
ATOM     84  C   UNL A   1      43.188  33.154  29.638  1.00  0.00    -0.014 A 
ATOM     85  C   UNL A   1      44.133  33.742  28.784  1.00  0.00     0.009 A 
ATOM     86  C   UNL A   1      41.935  33.768  29.790  1.00  0.00     0.009 A 
ATOM     87  C   UNL A   1      43.841  34.940  28.127  1.00  0.00     0.001 A 
ATOM     88  C   UNL A   1      41.633  34.945  29.105  1.00  0.00     0.001 A 
ATOM     89  C   UNL A   1      42.590  35.536  28.283  1.00  0.00     0.000 A 
ENDBRANCH  71  84
ENDBRANCH  45  46
ENDBRANCH  37  40
ENDBRANCH  35  36
ENDBRANCH  34  35
ENDBRANCH  33  34
ENDBRANCH  32  33
ENDBRANCH   1  32
TORSDOF 18
ENDMDL
