MODEL 1
REMARK VINA RESULT:      -9.9      0.000      0.000
REMARK SMILES COC(=O)[C@H]1Sc2nnc(CCC(=O)NCCCCCCNC(=O)c3ccc(-c4c5nc(c(-c6ccccc6)c6ccc([nH]6)c(-c6ccccc6)c6nc(c(-c7ccccc7)c7ccc4[nH]7)C=C6)C=C5)cc3)c(=O)n2N=C1C
REMARK SMILES IDX 17 1 16 2 15 3 13 4 14 5 12 7 11 8 10 9 5 10 6 11 77 12 7 13
REMARK SMILES IDX 76 14 78 15 8 16 75 17 9 18 73 19 74 20 3 21 4 22 2 23 1 24
REMARK SMILES IDX 18 25 19 26 20 27 21 28 22 29 23 30 24 32 25 33 26 34 72 35
REMARK SMILES IDX 27 36 71 37 28 38 29 39 30 40 65 41 31 42 70 43 64 44 66 45
REMARK SMILES IDX 32 46 69 47 63 48 62 49 33 51 55 52 40 53 54 54 41 55 44 56
REMARK SMILES IDX 53 57 67 58 42 59 43 60 52 62 68 63 45 64 34 65 35 66 39 67
REMARK SMILES IDX 36 68 38 69 37 70 56 71 57 72 61 73 58 74 60 75 59 76 46 77
REMARK SMILES IDX 47 78 51 79 48 80 50 81 49 82
REMARK H PARENT 15 6 22 31 66 50 44 61
REMARK Flexibility Score: inf
ROOT
ATOM      1  C   UNL A   1      34.993  32.523  29.299  1.00  0.00     0.021 C 
ENDROOT
BRANCH   1   2
ATOM      2  C   UNL A   1      34.967  31.496  28.161  1.00  0.00     0.116 C 
BRANCH   2   3
ATOM      3  N   UNL A   1      33.627  31.342  27.606  1.00  0.00    -0.356 N 
ATOM      4  C   UNL A   1      33.067  30.377  26.824  1.00  0.00     0.220 C 
ATOM      5  O   UNL A   1      31.904  30.541  26.446  1.00  0.00    -0.275 OA
ATOM      6  H   UNL A   1      33.010  32.073  27.842  1.00  0.00     0.163 HD
BRANCH   4   7
ATOM      7  C   UNL A   1      33.824  29.121  26.433  1.00  0.00     0.106 C 
BRANCH   7   8
ATOM      8  C   UNL A   1      33.300  28.502  25.138  1.00  0.00     0.074 C 
BRANCH   8   9
ATOM      9  C   UNL A   1      32.562  27.218  25.425  1.00  0.00     0.131 A 
ATOM     10  C   UNL A   1      31.968  22.206  25.304  1.00  0.00     0.210 C 
ATOM     11  S   UNL A   1      30.791  23.241  26.220  1.00  0.00    -0.063 SA
ATOM     12  C   UNL A   1      32.152  22.812  23.928  1.00  0.00     0.061 C 
ATOM     13  C   UNL A   1      31.564  24.784  25.912  1.00  0.00     0.214 A 
ATOM     14  N   UNL A   1      32.158  24.076  23.651  1.00  0.00    -0.171 NA
ATOM     15  C   UNL A   1      32.394  21.929  22.724  1.00  0.00     0.065 C 
ATOM     16  N   UNL A   1      31.599  25.661  26.863  1.00  0.00    -0.123 NA
ATOM     17  N   UNL A   1      32.029  25.009  24.642  1.00  0.00    -0.169 N 
ATOM     18  N   UNL A   1      32.237  26.894  26.638  1.00  0.00    -0.147 NA
ATOM     19  C   UNL A   1      32.313  26.305  24.261  1.00  0.00     0.296 A 
ATOM     20  O   UNL A   1      32.400  26.741  23.129  1.00  0.00    -0.265 OA
BRANCH  10  21
ATOM     21  C   UNL A   1      33.209  22.052  26.171  1.00  0.00     0.325 C 
ATOM     22  O   UNL A   1      33.217  21.649  27.324  1.00  0.00    -0.250 OA
BRANCH  21  23
ATOM     23  O   UNL A   1      34.332  22.383  25.473  1.00  0.00    -0.468 OA
ATOM     24  C   UNL A   1      35.145  23.442  26.007  1.00  0.00     0.282 C 
ENDBRANCH  21  23
ENDBRANCH  10  21
ENDBRANCH   8   9
ENDBRANCH   7   8
ENDBRANCH   4   7
ENDBRANCH   2   3
ENDBRANCH   1   2
BRANCH   1  25
ATOM     25  C   UNL A   1      35.614  33.902  29.061  1.00  0.00     0.002 C 
BRANCH  25  26
ATOM     26  C   UNL A   1      34.860  34.945  28.215  1.00  0.00     0.002 C 
BRANCH  26  27
ATOM     27  C   UNL A   1      33.776  35.853  28.824  1.00  0.00     0.021 C 
BRANCH  27  28
ATOM     28  C   UNL A   1      32.712  35.305  29.787  1.00  0.00     0.116 C 
BRANCH  28  29
ATOM     29  N   UNL A   1      32.309  36.115  30.918  1.00  0.00    -0.352 N 
ATOM     30  C   UNL A   1      32.858  36.134  32.193  1.00  0.00     0.251 C 
ATOM     31  H   UNL A   1      31.553  36.726  30.763  1.00  0.00     0.163 HD
ATOM     32  O   UNL A   1      32.379  36.867  33.054  1.00  0.00    -0.269 OA
BRANCH  30  33
ATOM     33  C   UNL A   1      34.019  35.271  32.566  1.00  0.00     0.039 A 
ATOM     34  C   UNL A   1      35.321  35.708  32.311  1.00  0.00     0.014 A 
ATOM     35  C   UNL A   1      33.841  33.973  33.045  1.00  0.00     0.014 A 
ATOM     36  C   UNL A   1      36.424  34.880  32.605  1.00  0.00     0.010 A 
ATOM     37  C   UNL A   1      34.944  33.160  33.381  1.00  0.00     0.010 A 
ATOM     38  C   UNL A   1      36.258  33.602  33.173  1.00  0.00    -0.014 A 
BRANCH  38  39
ATOM     39  C   UNL A   1      37.449  32.769  33.557  1.00  0.00     0.031 A 
ATOM     40  C   UNL A   1      37.992  31.676  32.662  1.00  0.00     0.074 A 
ATOM     41  C   UNL A   1      38.080  32.987  34.732  1.00  0.00     0.049 A 
ATOM     42  N   UNL A   1      39.084  30.959  32.809  1.00  0.00    -0.248 NA
ATOM     43  C   UNL A   1      37.218  31.337  31.461  1.00  0.00     0.031 C 
ATOM     44  C   UNL A   1      37.677  33.968  35.738  1.00  0.00     0.029 A 
ATOM     45  N   UNL A   1      39.207  32.408  35.273  1.00  0.00    -0.354 N 
ATOM     46  C   UNL A   1      39.138  30.106  31.713  1.00  0.00     0.074 A 
ATOM     47  C   UNL A   1      37.937  30.350  30.941  1.00  0.00     0.031 C 
ATOM     48  C   UNL A   1      38.557  33.952  36.751  1.00  0.00     0.029 A 
ATOM     49  C   UNL A   1      39.587  32.953  36.479  1.00  0.00     0.049 A 
ATOM     50  H   UNL A   1      39.696  31.673  34.838  1.00  0.00     0.167 HD
ATOM     51  C   UNL A   1      40.106  29.225  31.352  1.00  0.00     0.031 A 
ATOM     52  C   UNL A   1      40.649  32.707  37.274  1.00  0.00     0.031 A 
ATOM     53  C   UNL A   1      41.310  28.957  32.095  1.00  0.00     0.049 A 
ATOM     54  C   UNL A   1      41.688  31.694  36.874  1.00  0.00     0.074 A 
ATOM     55  C   UNL A   1      42.360  28.118  31.754  1.00  0.00     0.029 A 
ATOM     56  N   UNL A   1      41.627  29.506  33.324  1.00  0.00    -0.354 N 
ATOM     57  N   UNL A   1      41.765  30.980  35.781  1.00  0.00    -0.248 NA
ATOM     58  C   UNL A   1      42.799  31.473  37.816  1.00  0.00     0.031 C 
ATOM     59  C   UNL A   1      43.289  28.121  32.799  1.00  0.00     0.029 A 
ATOM     60  C   UNL A   1      42.840  29.001  33.768  1.00  0.00     0.049 A 
ATOM     61  H   UNL A   1      41.073  30.158  33.813  1.00  0.00     0.167 HD
ATOM     62  C   UNL A   1      42.942  30.248  35.890  1.00  0.00     0.074 A 
ATOM     63  C   UNL A   1      43.555  30.612  37.148  1.00  0.00     0.031 C 
ATOM     64  C   UNL A   1      43.462  29.353  35.016  1.00  0.00     0.031 A 
BRANCH  51  65
ATOM     65  C   UNL A   1      39.927  28.485  30.055  1.00  0.00    -0.014 A 
ATOM     66  C   UNL A   1      40.402  29.031  28.853  1.00  0.00     0.009 A 
ATOM     67  C   UNL A   1      39.381  27.191  30.048  1.00  0.00     0.009 A 
ATOM     68  C   UNL A   1      40.314  28.304  27.664  1.00  0.00     0.001 A 
ATOM     69  C   UNL A   1      39.317  26.458  28.861  1.00  0.00     0.001 A 
ATOM     70  C   UNL A   1      39.778  27.017  27.670  1.00  0.00     0.000 A 
ENDBRANCH  51  65
BRANCH  52  71
ATOM     71  C   UNL A   1      40.821  33.474  38.537  1.00  0.00    -0.014 A 
ATOM     72  C   UNL A   1      41.573  34.659  38.550  1.00  0.00     0.009 A 
ATOM     73  C   UNL A   1      40.262  33.009  39.737  1.00  0.00     0.009 A 
ATOM     74  C   UNL A   1      41.782  35.351  39.744  1.00  0.00     0.001 A 
ATOM     75  C   UNL A   1      40.451  33.719  40.926  1.00  0.00     0.001 A 
ATOM     76  C   UNL A   1      41.218  34.884  40.929  1.00  0.00     0.000 A 
ENDBRANCH  52  71
BRANCH  64  77
ATOM     77  C   UNL A   1      44.774  28.706  35.364  1.00  0.00    -0.014 A 
ATOM     78  C   UNL A   1      45.994  29.313  35.028  1.00  0.00     0.009 A 
ATOM     79  C   UNL A   1      44.791  27.510  36.099  1.00  0.00     0.009 A 
ATOM     80  C   UNL A   1      47.205  28.724  35.406  1.00  0.00     0.001 A 
ATOM     81  C   UNL A   1      46.002  26.937  36.496  1.00  0.00     0.001 A 
ATOM     82  C   UNL A   1      47.207  27.541  36.144  1.00  0.00     0.000 A 
ENDBRANCH  64  77
ENDBRANCH  38  39
ENDBRANCH  30  33
ENDBRANCH  28  29
ENDBRANCH  27  28
ENDBRANCH  26  27
ENDBRANCH  25  26
ENDBRANCH   1  25
TORSDOF 17
ENDMDL
MODEL 2
REMARK VINA RESULT:      -9.7      2.201      3.286
REMARK SMILES COC(=O)[C@H]1Sc2nnc(CCC(=O)NCCCCCCNC(=O)c3ccc(-c4c5nc(c(-c6ccccc6)c6ccc([nH]6)c(-c6ccccc6)c6nc(c(-c7ccccc7)c7ccc4[nH]7)C=C6)C=C5)cc3)c(=O)n2N=C1C
REMARK SMILES IDX 17 1 16 2 15 3 13 4 14 5 12 7 11 8 10 9 5 10 6 11 77 12 7 13
REMARK SMILES IDX 76 14 78 15 8 16 75 17 9 18 73 19 74 20 3 21 4 22 2 23 1 24
REMARK SMILES IDX 18 25 19 26 20 27 21 28 22 29 23 30 24 32 25 33 26 34 72 35
REMARK SMILES IDX 27 36 71 37 28 38 29 39 30 40 65 41 31 42 70 43 64 44 66 45
REMARK SMILES IDX 32 46 69 47 63 48 62 49 33 51 55 52 40 53 54 54 41 55 44 56
REMARK SMILES IDX 53 57 67 58 42 59 43 60 52 62 68 63 45 64 34 65 35 66 39 67
REMARK SMILES IDX 36 68 38 69 37 70 56 71 57 72 61 73 58 74 60 75 59 76 46 77
REMARK SMILES IDX 47 78 51 79 48 80 50 81 49 82
REMARK H PARENT 15 6 22 31 66 50 44 61
REMARK Flexibility Score: inf
ROOT
ATOM      1  C   UNL A   1      31.024  31.189  25.562  1.00  0.00     0.021 C 
ENDROOT
BRANCH   1   2
ATOM      2  C   UNL A   1      31.118  29.922  24.704  1.00  0.00     0.116 C 
BRANCH   2   3
ATOM      3  N   UNL A   1      30.229  29.987  23.550  1.00  0.00    -0.356 N 
ATOM      4  C   UNL A   1      29.741  29.025  22.716  1.00  0.00     0.220 C 
ATOM      5  O   UNL A   1      29.042  29.385  21.765  1.00  0.00    -0.275 OA
ATOM      6  H   UNL A   1      29.922  30.897  23.333  1.00  0.00     0.163 HD
BRANCH   4   7
ATOM      7  C   UNL A   1      30.019  27.551  22.942  1.00  0.00     0.106 C 
BRANCH   7   8
ATOM      8  C   UNL A   1      31.182  27.038  22.093  1.00  0.00     0.074 C 
BRANCH   8   9
ATOM      9  C   UNL A   1      31.527  25.619  22.469  1.00  0.00     0.131 A 
ATOM     10  C   UNL A   1      34.474  22.057  24.498  1.00  0.00     0.210 C 
ATOM     11  S   UNL A   1      32.821  21.629  23.879  1.00  0.00    -0.063 SA
ATOM     12  C   UNL A   1      35.179  22.868  23.430  1.00  0.00     0.061 C 
ATOM     13  C   UNL A   1      32.345  23.241  23.383  1.00  0.00     0.214 A 
ATOM     14  N   UNL A   1      34.620  23.724  22.637  1.00  0.00    -0.171 NA
ATOM     15  C   UNL A   1      36.674  22.752  23.237  1.00  0.00     0.065 C 
ATOM     16  N   UNL A   1      31.122  23.615  23.582  1.00  0.00    -0.123 NA
ATOM     17  N   UNL A   1      33.285  24.001  22.736  1.00  0.00    -0.169 N 
ATOM     18  N   UNL A   1      30.730  24.914  23.211  1.00  0.00    -0.147 NA
ATOM     19  C   UNL A   1      32.867  25.108  22.025  1.00  0.00     0.296 A 
ATOM     20  O   UNL A   1      33.464  25.687  21.140  1.00  0.00    -0.265 OA
BRANCH  10  21
ATOM     21  C   UNL A   1      34.294  22.706  25.863  1.00  0.00     0.325 C 
ATOM     22  O   UNL A   1      34.988  23.606  26.312  1.00  0.00    -0.250 OA
BRANCH  21  23
ATOM     23  O   UNL A   1      33.216  22.181  26.512  1.00  0.00    -0.468 OA
ATOM     24  C   UNL A   1      33.152  22.375  27.935  1.00  0.00     0.282 C 
ENDBRANCH  21  23
ENDBRANCH  10  21
ENDBRANCH   8   9
ENDBRANCH   7   8
ENDBRANCH   4   7
ENDBRANCH   2   3
ENDBRANCH   1   2
BRANCH   1  25
ATOM     25  C   UNL A   1      31.624  31.196  26.970  1.00  0.00     0.002 C 
BRANCH  25  26
ATOM     26  C   UNL A   1      33.154  31.189  27.151  1.00  0.00     0.002 C 
BRANCH  26  27
ATOM     27  C   UNL A   1      33.868  32.209  28.056  1.00  0.00     0.021 C 
BRANCH  27  28
ATOM     28  C   UNL A   1      33.620  33.719  27.925  1.00  0.00     0.116 C 
BRANCH  28  29
ATOM     29  N   UNL A   1      33.190  34.461  29.091  1.00  0.00    -0.352 N 
ATOM     30  C   UNL A   1      33.745  34.448  30.365  1.00  0.00     0.251 C 
ATOM     31  H   UNL A   1      32.408  35.045  28.967  1.00  0.00     0.163 HD
ATOM     32  O   UNL A   1      33.240  35.122  31.258  1.00  0.00    -0.269 OA
BRANCH  30  33
ATOM     33  C   UNL A   1      34.944  33.621  30.695  1.00  0.00     0.039 A 
ATOM     34  C   UNL A   1      36.182  33.931  30.125  1.00  0.00     0.014 A 
ATOM     35  C   UNL A   1      34.842  32.458  31.457  1.00  0.00     0.014 A 
ATOM     36  C   UNL A   1      37.309  33.125  30.382  1.00  0.00     0.010 A 
ATOM     37  C   UNL A   1      35.978  31.674  31.752  1.00  0.00     0.010 A 
ATOM     38  C   UNL A   1      37.236  31.998  31.225  1.00  0.00    -0.014 A 
BRANCH  38  39
ATOM     39  C   UNL A   1      38.467  31.201  31.554  1.00  0.00     0.031 A 
ATOM     40  C   UNL A   1      38.916  30.024  30.714  1.00  0.00     0.074 A 
ATOM     41  C   UNL A   1      39.221  31.528  32.627  1.00  0.00     0.049 A 
ATOM     42  N   UNL A   1      40.022  29.321  30.809  1.00  0.00    -0.248 NA
ATOM     43  C   UNL A   1      38.017  29.576  29.643  1.00  0.00     0.031 C 
ATOM     44  C   UNL A   1      38.924  32.602  33.572  1.00  0.00     0.029 A 
ATOM     45  N   UNL A   1      40.404  30.999  33.094  1.00  0.00    -0.354 N 
ATOM     46  C   UNL A   1      39.961  28.366  29.799  1.00  0.00     0.074 A 
ATOM     47  C   UNL A   1      38.681  28.540  29.144  1.00  0.00     0.031 C 
ATOM     48  C   UNL A   1      39.910  32.680  34.480  1.00  0.00     0.029 A 
ATOM     49  C   UNL A   1      40.911  31.655  34.193  1.00  0.00     0.049 A 
ATOM     50  H   UNL A   1      40.848  30.223  32.680  1.00  0.00     0.167 HD
ATOM     51  C   UNL A   1      40.889  27.451  29.421  1.00  0.00     0.031 A 
ATOM     52  C   UNL A   1      42.054  31.482  34.888  1.00  0.00     0.031 A 
ATOM     53  C   UNL A   1      42.169  27.250  30.050  1.00  0.00     0.049 A 
ATOM     54  C   UNL A   1      43.050  30.431  34.475  1.00  0.00     0.074 A 
ATOM     55  C   UNL A   1      43.181  26.377  29.678  1.00  0.00     0.029 A 
ATOM     56  N   UNL A   1      42.615  27.913  31.179  1.00  0.00    -0.354 N 
ATOM     57  N   UNL A   1      43.011  29.615  33.454  1.00  0.00    -0.248 NA
ATOM     58  C   UNL A   1      44.258  30.296  35.306  1.00  0.00     0.031 C 
ATOM     59  C   UNL A   1      44.218  26.476  30.610  1.00  0.00     0.029 A 
ATOM     60  C   UNL A   1      43.872  27.448  31.533  1.00  0.00     0.049 A 
ATOM     61  H   UNL A   1      42.114  28.611  31.660  1.00  0.00     0.167 HD
ATOM     62  C   UNL A   1      44.198  28.891  33.503  1.00  0.00     0.074 A 
ATOM     63  C   UNL A   1      44.942  29.372  34.645  1.00  0.00     0.031 C 
ATOM     64  C   UNL A   1      44.625  27.915  32.666  1.00  0.00     0.031 A 
BRANCH  51  65
ATOM     65  C   UNL A   1      40.574  26.590  28.228  1.00  0.00    -0.014 A 
ATOM     66  C   UNL A   1      41.119  26.890  26.971  1.00  0.00     0.009 A 
ATOM     67  C   UNL A   1      39.820  25.416  28.382  1.00  0.00     0.009 A 
ATOM     68  C   UNL A   1      40.898  26.041  25.884  1.00  0.00     0.001 A 
ATOM     69  C   UNL A   1      39.620  24.557  27.299  1.00  0.00     0.001 A 
ATOM     70  C   UNL A   1      40.155  24.873  26.050  1.00  0.00     0.000 A 
ENDBRANCH  51  65
BRANCH  52  71
ATOM     71  C   UNL A   1      42.359  32.365  36.045  1.00  0.00    -0.014 A 
ATOM     72  C   UNL A   1      43.062  33.565  35.855  1.00  0.00     0.009 A 
ATOM     73  C   UNL A   1      41.976  31.999  37.344  1.00  0.00     0.009 A 
ATOM     74  C   UNL A   1      43.397  34.370  36.945  1.00  0.00     0.001 A 
ATOM     75  C   UNL A   1      42.290  32.819  38.430  1.00  0.00     0.001 A 
ATOM     76  C   UNL A   1      43.007  33.999  38.231  1.00  0.00     0.000 A 
ENDBRANCH  52  71
BRANCH  64  77
ATOM     77  C   UNL A   1      45.971  27.299  32.929  1.00  0.00    -0.014 A 
ATOM     78  C   UNL A   1      47.144  27.872  32.414  1.00  0.00     0.009 A 
ATOM     79  C   UNL A   1      46.074  26.171  33.760  1.00  0.00     0.009 A 
ATOM     80  C   UNL A   1      48.393  27.316  32.712  1.00  0.00     0.001 A 
ATOM     81  C   UNL A   1      47.324  25.634  34.075  1.00  0.00     0.001 A 
ATOM     82  C   UNL A   1      48.482  26.203  33.546  1.00  0.00     0.000 A 
ENDBRANCH  64  77
ENDBRANCH  38  39
ENDBRANCH  30  33
ENDBRANCH  28  29
ENDBRANCH  27  28
ENDBRANCH  26  27
ENDBRANCH  25  26
ENDBRANCH   1  25
TORSDOF 17
ENDMDL
MODEL 3
REMARK VINA RESULT:      -9.7      6.823     12.974
REMARK SMILES COC(=O)[C@H]1Sc2nnc(CCC(=O)NCCCCCCNC(=O)c3ccc(-c4c5nc(c(-c6ccccc6)c6ccc([nH]6)c(-c6ccccc6)c6nc(c(-c7ccccc7)c7ccc4[nH]7)C=C6)C=C5)cc3)c(=O)n2N=C1C
REMARK SMILES IDX 17 1 16 2 15 3 13 4 14 5 12 7 11 8 10 9 5 10 6 11 77 12 7 13
REMARK SMILES IDX 76 14 78 15 8 16 75 17 9 18 73 19 74 20 3 21 4 22 2 23 1 24
REMARK SMILES IDX 18 25 19 26 20 27 21 28 22 29 23 30 24 32 25 33 26 34 72 35
REMARK SMILES IDX 27 36 71 37 28 38 29 39 30 40 65 41 31 42 70 43 64 44 66 45
REMARK SMILES IDX 32 46 69 47 63 48 62 49 33 51 55 52 40 53 54 54 41 55 44 56
REMARK SMILES IDX 53 57 67 58 42 59 43 60 52 62 68 63 45 64 34 65 35 66 39 67
REMARK SMILES IDX 36 68 38 69 37 70 56 71 57 72 61 73 58 74 60 75 59 76 46 77
REMARK SMILES IDX 47 78 51 79 48 80 50 81 49 82
REMARK H PARENT 15 6 22 31 66 50 44 61
REMARK Flexibility Score: inf
ROOT
ATOM      1  C   UNL A   1      45.557  22.810  25.246  1.00  0.00     0.021 C 
ENDROOT
BRANCH   1   2
ATOM      2  C   UNL A   1      46.813  23.642  25.529  1.00  0.00     0.116 C 
BRANCH   2   3
ATOM      3  N   UNL A   1      46.976  24.715  24.554  1.00  0.00    -0.356 N 
ATOM      4  C   UNL A   1      47.228  26.047  24.695  1.00  0.00     0.220 C 
ATOM      5  O   UNL A   1      47.255  26.742  23.676  1.00  0.00    -0.275 OA
ATOM      6  H   UNL A   1      46.889  24.422  23.618  1.00  0.00     0.163 HD
BRANCH   4   7
ATOM      7  C   UNL A   1      47.490  26.676  26.052  1.00  0.00     0.106 C 
BRANCH   7   8
ATOM      8  C   UNL A   1      47.989  28.116  25.942  1.00  0.00     0.074 C 
BRANCH   8   9
ATOM      9  C   UNL A   1      46.958  29.076  26.483  1.00  0.00     0.131 A 
ATOM     10  C   UNL A   1      45.122  33.674  27.468  1.00  0.00     0.210 C 
ATOM     11  S   UNL A   1      44.113  32.201  27.796  1.00  0.00    -0.063 SA
ATOM     12  C   UNL A   1      46.494  33.446  28.068  1.00  0.00     0.061 C 
ATOM     13  C   UNL A   1      45.262  31.010  27.217  1.00  0.00     0.214 A 
ATOM     14  N   UNL A   1      47.121  32.315  28.115  1.00  0.00    -0.171 NA
ATOM     15  C   UNL A   1      47.281  34.598  28.649  1.00  0.00     0.065 C 
ATOM     16  N   UNL A   1      44.818  29.989  26.559  1.00  0.00    -0.123 NA
ATOM     17  N   UNL A   1      46.577  31.189  27.561  1.00  0.00    -0.169 N 
ATOM     18  N   UNL A   1      45.730  29.037  26.067  1.00  0.00    -0.147 NA
ATOM     19  C   UNL A   1      47.445  30.123  27.441  1.00  0.00     0.296 A 
ATOM     20  O   UNL A   1      48.518  29.977  27.992  1.00  0.00    -0.265 OA
BRANCH  10  21
ATOM     21  C   UNL A   1      45.050  33.950  25.973  1.00  0.00     0.325 C 
ATOM     22  O   UNL A   1      46.011  34.169  25.250  1.00  0.00    -0.250 OA
BRANCH  21  23
ATOM     23  O   UNL A   1      43.765  33.876  25.526  1.00  0.00    -0.468 OA
ATOM     24  C   UNL A   1      42.951  35.051  25.679  1.00  0.00     0.282 C 
ENDBRANCH  21  23
ENDBRANCH  10  21
ENDBRANCH   8   9
ENDBRANCH   7   8
ENDBRANCH   4   7
ENDBRANCH   2   3
ENDBRANCH   1   2
BRANCH   1  25
ATOM     25  C   UNL A   1      45.647  21.591  24.324  1.00  0.00     0.002 C 
BRANCH  25  26
ATOM     26  C   UNL A   1      45.711  20.176  24.929  1.00  0.00     0.002 C 
BRANCH  26  27
ATOM     27  C   UNL A   1      44.554  19.173  24.770  1.00  0.00     0.021 C 
BRANCH  27  28
ATOM     28  C   UNL A   1      43.679  18.753  25.960  1.00  0.00     0.116 C 
BRANCH  28  29
ATOM     29  N   UNL A   1      42.249  18.635  25.770  1.00  0.00    -0.352 N 
ATOM     30  C   UNL A   1      41.269  19.578  26.054  1.00  0.00     0.251 C 
ATOM     31  H   UNL A   1      41.933  17.783  25.395  1.00  0.00     0.163 HD
ATOM     32  O   UNL A   1      40.087  19.309  25.856  1.00  0.00    -0.269 OA
BRANCH  30  33
ATOM     33  C   UNL A   1      41.604  20.922  26.613  1.00  0.00     0.039 A 
ATOM     34  C   UNL A   1      41.962  21.963  25.753  1.00  0.00     0.014 A 
ATOM     35  C   UNL A   1      41.700  21.139  27.987  1.00  0.00     0.014 A 
ATOM     36  C   UNL A   1      42.337  23.221  26.270  1.00  0.00     0.010 A 
ATOM     37  C   UNL A   1      42.032  22.408  28.506  1.00  0.00     0.010 A 
ATOM     38  C   UNL A   1      42.350  23.476  27.656  1.00  0.00    -0.014 A 
BRANCH  38  39
ATOM     39  C   UNL A   1      42.670  24.847  28.183  1.00  0.00     0.031 A 
ATOM     40  C   UNL A   1      41.616  25.924  28.322  1.00  0.00     0.074 A 
ATOM     41  C   UNL A   1      43.932  25.153  28.559  1.00  0.00     0.049 A 
ATOM     42  N   UNL A   1      41.723  27.113  28.873  1.00  0.00    -0.248 NA
ATOM     43  C   UNL A   1      40.284  25.643  27.772  1.00  0.00     0.031 C 
ATOM     44  C   UNL A   1      45.083  24.258  28.459  1.00  0.00     0.029 A 
ATOM     45  N   UNL A   1      44.455  26.299  29.117  1.00  0.00    -0.354 N 
ATOM     46  C   UNL A   1      40.471  27.707  28.757  1.00  0.00     0.074 A 
ATOM     47  C   UNL A   1      39.638  26.774  28.027  1.00  0.00     0.031 C 
ATOM     48  C   UNL A   1      46.164  24.867  28.972  1.00  0.00     0.029 A 
ATOM     49  C   UNL A   1      45.792  26.204  29.430  1.00  0.00     0.049 A 
ATOM     50  H   UNL A   1      43.922  27.110  29.278  1.00  0.00     0.167 HD
ATOM     51  C   UNL A   1      40.035  28.898  29.238  1.00  0.00     0.031 A 
ATOM     52  C   UNL A   1      46.631  27.070  30.034  1.00  0.00     0.031 A 
ATOM     53  C   UNL A   1      40.835  29.850  29.966  1.00  0.00     0.049 A 
ATOM     54  C   UNL A   1      46.134  28.404  30.522  1.00  0.00     0.074 A 
ATOM     55  C   UNL A   1      40.437  31.052  30.532  1.00  0.00     0.029 A 
ATOM     56  N   UNL A   1      42.189  29.722  30.221  1.00  0.00    -0.354 N 
ATOM     57  N   UNL A   1      44.921  28.893  30.491  1.00  0.00    -0.248 NA
ATOM     58  C   UNL A   1      47.126  29.296  31.147  1.00  0.00     0.031 C 
ATOM     59  C   UNL A   1      41.559  31.674  31.087  1.00  0.00     0.029 A 
ATOM     60  C   UNL A   1      42.646  30.836  30.909  1.00  0.00     0.049 A 
ATOM     61  H   UNL A   1      42.745  28.955  29.953  1.00  0.00     0.167 HD
ATOM     62  C   UNL A   1      44.998  30.134  31.115  1.00  0.00     0.074 A 
ATOM     63  C   UNL A   1      46.372  30.318  31.527  1.00  0.00     0.031 C 
ATOM     64  C   UNL A   1      44.008  31.034  31.326  1.00  0.00     0.031 A 
BRANCH  51  65
ATOM     65  C   UNL A   1      38.588  29.250  29.024  1.00  0.00    -0.014 A 
ATOM     66  C   UNL A   1      37.662  29.124  30.071  1.00  0.00     0.009 A 
ATOM     67  C   UNL A   1      38.169  29.810  27.807  1.00  0.00     0.009 A 
ATOM     68  C   UNL A   1      36.339  29.533  29.897  1.00  0.00     0.001 A 
ATOM     69  C   UNL A   1      36.850  30.240  27.644  1.00  0.00     0.001 A 
ATOM     70  C   UNL A   1      35.935  30.096  28.687  1.00  0.00     0.000 A 
ENDBRANCH  51  65
BRANCH  52  71
ATOM     71  C   UNL A   1      48.051  26.689  30.263  1.00  0.00    -0.014 A 
ATOM     72  C   UNL A   1      48.432  26.060  31.459  1.00  0.00     0.009 A 
ATOM     73  C   UNL A   1      49.032  26.978  29.304  1.00  0.00     0.009 A 
ATOM     74  C   UNL A   1      49.771  25.750  31.700  1.00  0.00     0.001 A 
ATOM     75  C   UNL A   1      50.368  26.643  29.537  1.00  0.00     0.001 A 
ATOM     76  C   UNL A   1      50.737  26.037  30.738  1.00  0.00     0.000 A 
ENDBRANCH  52  71
BRANCH  64  77
ATOM     77  C   UNL A   1      44.352  32.305  32.052  1.00  0.00    -0.014 A 
ATOM     78  C   UNL A   1      44.737  33.459  31.353  1.00  0.00     0.009 A 
ATOM     79  C   UNL A   1      44.221  32.370  33.449  1.00  0.00     0.009 A 
ATOM     80  C   UNL A   1      45.001  34.648  32.040  1.00  0.00     0.001 A 
ATOM     81  C   UNL A   1      44.462  33.566  34.130  1.00  0.00     0.001 A 
ATOM     82  C   UNL A   1      44.858  34.701  33.426  1.00  0.00     0.000 A 
ENDBRANCH  64  77
ENDBRANCH  38  39
ENDBRANCH  30  33
ENDBRANCH  28  29
ENDBRANCH  27  28
ENDBRANCH  26  27
ENDBRANCH  25  26
ENDBRANCH   1  25
TORSDOF 17
ENDMDL
