MODEL 1
REMARK VINA RESULT:     -10.1      0.000      0.000
REMARK SMILES CC[C@H](C(=O)NCCCCCCNC(=O)c1ccc(-c2c3nc(c(-c4ccccc4)c4ccc([nH]4)c(-c4ccccc4)c4nc(c(-c5ccccc5)c5ccc2[nH]5)C=C4)C=C3)cc1)N(C)C(=O)[C@H]1CC[C@@H](C[NH3+])CC1
REMARK SMILES IDX 8 1 7 2 6 3 4 4 5 5 3 7 2 8 1 9 64 10 65 11 66 12 67 13
REMARK SMILES IDX 68 14 75 15 69 16 74 17 70 18 71 19 72 20 73 21 9 25 10 26
REMARK SMILES IDX 11 27 12 28 13 29 14 30 15 32 16 33 17 34 63 35 18 36 62 37
REMARK SMILES IDX 19 38 20 39 21 40 56 41 22 42 61 43 55 44 57 45 23 46 60 47
REMARK SMILES IDX 54 48 53 49 24 51 46 52 31 53 45 54 32 55 35 56 44 57 58 58
REMARK SMILES IDX 33 59 34 60 43 62 59 63 36 64 25 65 26 66 30 67 27 68 29 69
REMARK SMILES IDX 28 70 47 71 48 72 52 73 49 74 51 75 50 76 37 77 38 78 42 79
REMARK SMILES IDX 39 80 41 81 40 82
REMARK H PARENT 6 6 73 22 73 23 73 24 13 31 57 50 35 61
REMARK Flexibility Score: inf
ROOT
ATOM      1  C   UNL A   1      37.049  23.389  24.805  1.00  0.00     0.021 C 
ENDROOT
BRANCH   1   2
ATOM      2  C   UNL A   1      36.177  24.005  25.898  1.00  0.00     0.116 C 
BRANCH   2   3
ATOM      3  N   UNL A   1      35.542  22.972  26.683  1.00  0.00    -0.354 N 
ATOM      4  C   UNL A   1      34.264  22.547  26.809  1.00  0.00     0.242 C 
ATOM      5  O   UNL A   1      34.097  21.643  27.648  1.00  0.00    -0.273 OA
ATOM      6  H   UNL A   1      36.174  22.469  27.247  1.00  0.00     0.163 HD
BRANCH   4   7
ATOM      7  C   UNL A   1      33.031  23.037  25.992  1.00  0.00     0.173 C 
BRANCH   7   8
ATOM      8  C   UNL A   1      32.675  24.503  25.731  1.00  0.00     0.032 C 
ATOM      9  C   UNL A   1      31.174  24.759  25.733  1.00  0.00     0.006 C 
ENDBRANCH   7   8
BRANCH   7  10
ATOM     10  N   UNL A   1      33.024  22.244  24.735  1.00  0.00    -0.334 N 
ATOM     11  C   UNL A   1      33.600  22.909  23.578  1.00  0.00     0.147 C 
BRANCH  10  12
ATOM     12  C   UNL A   1      32.486  20.966  24.776  1.00  0.00     0.226 C 
ATOM     13  O   UNL A   1      31.423  20.752  25.373  1.00  0.00    -0.275 OA
BRANCH  12  14
ATOM     14  C   UNL A   1      33.148  19.784  24.060  1.00  0.00     0.078 C 
ATOM     15  C   UNL A   1      34.182  19.080  24.948  1.00  0.00     0.014 C 
ATOM     16  C   UNL A   1      32.181  18.841  23.336  1.00  0.00     0.014 C 
ATOM     17  C   UNL A   1      34.860  17.914  24.226  1.00  0.00     0.010 C 
ATOM     18  C   UNL A   1      32.923  17.698  22.646  1.00  0.00     0.010 C 
ATOM     19  C   UNL A   1      33.858  16.928  23.595  1.00  0.00     0.044 C 
BRANCH  19  20
ATOM     20  C   UNL A   1      33.136  16.115  24.689  1.00  0.00     0.262 C 
BRANCH  20  21
ATOM     21  N   UNL A   1      33.769  16.239  25.998  1.00  0.00    -0.357 N 
ATOM     22  H   UNL A   1      34.097  15.324  26.305  1.00  0.00     0.344 HD
ATOM     23  H   UNL A   1      33.092  16.602  26.669  1.00  0.00     0.344 HD
ATOM     24  H   UNL A   1      34.560  16.881  25.933  1.00  0.00     0.344 HD
ENDBRANCH  20  21
ENDBRANCH  19  20
ENDBRANCH  12  14
ENDBRANCH  10  12
ENDBRANCH   7  10
ENDBRANCH   4   7
ENDBRANCH   2   3
ENDBRANCH   1   2
BRANCH   1  25
ATOM     25  C   UNL A   1      37.823  22.145  25.251  1.00  0.00     0.002 C 
BRANCH  25  26
ATOM     26  C   UNL A   1      37.470  20.856  24.500  1.00  0.00     0.002 C 
BRANCH  26  27
ATOM     27  C   UNL A   1      38.301  19.625  24.875  1.00  0.00     0.021 C 
BRANCH  27  28
ATOM     28  C   UNL A   1      39.235  19.816  26.068  1.00  0.00     0.116 C 
BRANCH  28  29
ATOM     29  N   UNL A   1      40.400  18.952  25.991  1.00  0.00    -0.352 N 
ATOM     30  C   UNL A   1      41.732  19.269  26.046  1.00  0.00     0.251 C 
ATOM     31  H   UNL A   1      40.204  17.993  25.882  1.00  0.00     0.163 HD
ATOM     32  O   UNL A   1      42.577  18.422  25.757  1.00  0.00    -0.269 OA
BRANCH  30  33
ATOM     33  C   UNL A   1      42.168  20.625  26.442  1.00  0.00     0.039 A 
ATOM     34  C   UNL A   1      42.525  21.533  25.441  1.00  0.00     0.014 A 
ATOM     35  C   UNL A   1      42.277  20.988  27.789  1.00  0.00     0.014 A 
ATOM     36  C   UNL A   1      42.953  22.815  25.788  1.00  0.00     0.010 A 
ATOM     37  C   UNL A   1      42.649  22.287  28.132  1.00  0.00     0.010 A 
ATOM     38  C   UNL A   1      43.000  23.210  27.135  1.00  0.00    -0.014 A 
BRANCH  38  39
ATOM     39  C   UNL A   1      43.419  24.584  27.504  1.00  0.00     0.031 A 
ATOM     40  C   UNL A   1      42.396  25.622  27.869  1.00  0.00     0.074 A 
ATOM     41  C   UNL A   1      44.726  24.907  27.477  1.00  0.00     0.049 A 
ATOM     42  N   UNL A   1      42.579  26.866  28.236  1.00  0.00    -0.248 NA
ATOM     43  C   UNL A   1      40.983  25.221  27.790  1.00  0.00     0.031 C 
ATOM     44  C   UNL A   1      45.813  24.006  27.088  1.00  0.00     0.029 A 
ATOM     45  N   UNL A   1      45.360  26.084  27.783  1.00  0.00    -0.354 N 
ATOM     46  C   UNL A   1      41.309  27.398  28.417  1.00  0.00     0.074 A 
ATOM     47  C   UNL A   1      40.363  26.356  28.079  1.00  0.00     0.031 C 
ATOM     48  C   UNL A   1      46.982  24.655  27.208  1.00  0.00     0.029 A 
ATOM     49  C   UNL A   1      46.725  26.020  27.660  1.00  0.00     0.049 A 
ATOM     50  H   UNL A   1      44.881  26.897  28.066  1.00  0.00     0.167 HD
ATOM     51  C   UNL A   1      40.959  28.636  28.842  1.00  0.00     0.031 A 
ATOM     52  C   UNL A   1      47.668  26.952  27.892  1.00  0.00     0.031 A 
ATOM     53  C   UNL A   1      41.896  29.669  29.193  1.00  0.00     0.049 A 
ATOM     54  C   UNL A   1      47.258  28.307  28.391  1.00  0.00     0.074 A 
ATOM     55  C   UNL A   1      41.640  30.932  29.700  1.00  0.00     0.029 A 
ATOM     56  N   UNL A   1      43.273  29.558  29.071  1.00  0.00    -0.354 N 
ATOM     57  N   UNL A   1      46.055  28.767  28.634  1.00  0.00    -0.248 NA
ATOM     58  C   UNL A   1      48.340  29.264  28.663  1.00  0.00     0.031 C 
ATOM     59  C   UNL A   1      42.862  31.600  29.847  1.00  0.00     0.029 A 
ATOM     60  C   UNL A   1      43.879  30.737  29.473  1.00  0.00     0.049 A 
ATOM     61  H   UNL A   1      43.749  28.760  28.747  1.00  0.00     0.167 HD
ATOM     62  C   UNL A   1      46.234  30.061  29.104  1.00  0.00     0.074 A 
ATOM     63  C   UNL A   1      47.662  30.304  29.132  1.00  0.00     0.031 C 
ATOM     64  C   UNL A   1      45.300  30.968  29.480  1.00  0.00     0.031 A 
BRANCH  51  65
ATOM     65  C   UNL A   1      39.490  28.939  28.944  1.00  0.00    -0.014 A 
ATOM     66  C   UNL A   1      38.782  28.709  30.134  1.00  0.00     0.009 A 
ATOM     67  C   UNL A   1      38.812  29.485  27.844  1.00  0.00     0.009 A 
ATOM     68  C   UNL A   1      37.416  28.986  30.209  1.00  0.00     0.001 A 
ATOM     69  C   UNL A   1      37.450  29.784  27.929  1.00  0.00     0.001 A 
ATOM     70  C   UNL A   1      36.752  29.525  29.108  1.00  0.00     0.000 A 
ENDBRANCH  51  65
BRANCH  52  71
ATOM     71  C   UNL A   1      49.101  26.619  27.688  1.00  0.00    -0.014 A 
ATOM     72  C   UNL A   1      49.708  26.831  26.441  1.00  0.00     0.009 A 
ATOM     73  C   UNL A   1      49.868  26.098  28.741  1.00  0.00     0.009 A 
ATOM     74  C   UNL A   1      51.052  26.508  26.247  1.00  0.00     0.001 A 
ATOM     75  C   UNL A   1      51.219  25.798  28.550  1.00  0.00     0.001 A 
ATOM     76  C   UNL A   1      51.807  25.995  27.301  1.00  0.00     0.000 A 
ENDBRANCH  52  71
BRANCH  64  77
ATOM     77  C   UNL A   1      45.800  32.298  29.963  1.00  0.00    -0.014 A 
ATOM     78  C   UNL A   1      46.110  32.506  31.317  1.00  0.00     0.009 A 
ATOM     79  C   UNL A   1      45.981  33.349  29.053  1.00  0.00     0.009 A 
ATOM     80  C   UNL A   1      46.557  33.754  31.753  1.00  0.00     0.001 A 
ATOM     81  C   UNL A   1      46.453  34.588  29.488  1.00  0.00     0.001 A 
ATOM     82  C   UNL A   1      46.731  34.793  30.839  1.00  0.00     0.000 A 
ENDBRANCH  64  77
ENDBRANCH  38  39
ENDBRANCH  30  33
ENDBRANCH  28  29
ENDBRANCH  27  28
ENDBRANCH  26  27
ENDBRANCH  25  26
ENDBRANCH   1  25
TORSDOF 19
ENDMDL
MODEL 2
REMARK VINA RESULT:     -10.1      1.079      5.991
REMARK SMILES CC[C@H](C(=O)NCCCCCCNC(=O)c1ccc(-c2c3nc(c(-c4ccccc4)c4ccc([nH]4)c(-c4ccccc4)c4nc(c(-c5ccccc5)c5ccc2[nH]5)C=C4)C=C3)cc1)N(C)C(=O)[C@H]1CC[C@@H](C[NH3+])CC1
REMARK SMILES IDX 8 1 7 2 6 3 4 4 5 5 3 7 2 8 1 9 64 10 65 11 66 12 67 13
REMARK SMILES IDX 68 14 75 15 69 16 74 17 70 18 71 19 72 20 73 21 9 25 10 26
REMARK SMILES IDX 11 27 12 28 13 29 14 30 15 32 16 33 17 34 63 35 18 36 62 37
REMARK SMILES IDX 19 38 20 39 21 40 56 41 22 42 61 43 55 44 57 45 23 46 60 47
REMARK SMILES IDX 54 48 53 49 24 51 46 52 31 53 45 54 32 55 35 56 44 57 58 58
REMARK SMILES IDX 33 59 34 60 43 62 59 63 36 64 25 65 26 66 30 67 27 68 29 69
REMARK SMILES IDX 28 70 47 71 48 72 52 73 49 74 51 75 50 76 37 77 38 78 42 79
REMARK SMILES IDX 39 80 41 81 40 82
REMARK H PARENT 6 6 73 22 73 23 73 24 13 31 57 50 35 61
REMARK Flexibility Score: inf
ROOT
ATOM      1  C   UNL A   1      37.002  23.192  24.541  1.00  0.00     0.021 C 
ENDROOT
BRANCH   1   2
ATOM      2  C   UNL A   1      36.242  24.053  25.550  1.00  0.00     0.116 C 
BRANCH   2   3
ATOM      3  N   UNL A   1      35.461  23.223  26.438  1.00  0.00    -0.354 N 
ATOM      4  C   UNL A   1      34.141  22.944  26.536  1.00  0.00     0.242 C 
ATOM      5  O   UNL A   1      33.835  22.207  27.490  1.00  0.00    -0.273 OA
ATOM      6  H   UNL A   1      36.005  22.763  27.118  1.00  0.00     0.163 HD
BRANCH   4   7
ATOM      7  C   UNL A   1      33.013  23.406  25.564  1.00  0.00     0.173 C 
BRANCH   7   8
ATOM      8  C   UNL A   1      32.812  24.840  25.069  1.00  0.00     0.032 C 
ATOM      9  C   UNL A   1      33.116  25.884  26.135  1.00  0.00     0.006 C 
ENDBRANCH   7   8
BRANCH   7  10
ATOM     10  N   UNL A   1      33.012  22.437  24.437  1.00  0.00    -0.334 N 
ATOM     11  C   UNL A   1      33.607  22.921  23.202  1.00  0.00     0.147 C 
BRANCH  10  12
ATOM     12  C   UNL A   1      32.462  21.183  24.659  1.00  0.00     0.226 C 
ATOM     13  O   UNL A   1      31.416  21.064  25.309  1.00  0.00    -0.275 OA
BRANCH  12  14
ATOM     14  C   UNL A   1      33.090  19.909  24.084  1.00  0.00     0.078 C 
ATOM     15  C   UNL A   1      34.042  19.236  25.080  1.00  0.00     0.014 C 
ATOM     16  C   UNL A   1      32.105  18.955  23.399  1.00  0.00     0.014 C 
ATOM     17  C   UNL A   1      34.687  17.977  24.497  1.00  0.00     0.010 C 
ATOM     18  C   UNL A   1      32.813  17.717  22.849  1.00  0.00     0.010 C 
ATOM     19  C   UNL A   1      33.661  16.991  23.907  1.00  0.00     0.044 C 
BRANCH  19  20
ATOM     20  C   UNL A   1      32.848  16.317  25.032  1.00  0.00     0.262 C 
BRANCH  20  21
ATOM     21  N   UNL A   1      33.245  14.934  25.269  1.00  0.00    -0.357 N 
ATOM     22  H   UNL A   1      34.180  14.779  24.894  1.00  0.00     0.344 HD
ATOM     23  H   UNL A   1      32.585  14.308  24.808  1.00  0.00     0.344 HD
ATOM     24  H   UNL A   1      33.245  14.748  26.273  1.00  0.00     0.344 HD
ENDBRANCH  20  21
ENDBRANCH  19  20
ENDBRANCH  12  14
ENDBRANCH  10  12
ENDBRANCH   7  10
ENDBRANCH   4   7
ENDBRANCH   2   3
ENDBRANCH   1   2
BRANCH   1  25
ATOM     25  C   UNL A   1      37.730  21.997  25.165  1.00  0.00     0.002 C 
BRANCH  25  26
ATOM     26  C   UNL A   1      37.360  20.632  24.577  1.00  0.00     0.002 C 
BRANCH  26  27
ATOM     27  C   UNL A   1      38.269  19.469  24.985  1.00  0.00     0.021 C 
BRANCH  27  28
ATOM     28  C   UNL A   1      39.298  19.801  26.063  1.00  0.00     0.116 C 
BRANCH  28  29
ATOM     29  N   UNL A   1      40.556  19.109  25.848  1.00  0.00    -0.352 N 
ATOM     30  C   UNL A   1      41.841  19.577  25.928  1.00  0.00     0.251 C 
ATOM     31  H   UNL A   1      40.474  18.157  25.607  1.00  0.00     0.163 HD
ATOM     32  O   UNL A   1      42.772  18.891  25.509  1.00  0.00    -0.269 OA
BRANCH  30  33
ATOM     33  C   UNL A   1      42.122  20.909  26.506  1.00  0.00     0.039 A 
ATOM     34  C   UNL A   1      42.452  21.958  25.643  1.00  0.00     0.014 A 
ATOM     35  C   UNL A   1      42.114  21.115  27.890  1.00  0.00     0.014 A 
ATOM     36  C   UNL A   1      42.734  23.221  26.164  1.00  0.00     0.010 A 
ATOM     37  C   UNL A   1      42.340  22.391  28.404  1.00  0.00     0.010 A 
ATOM     38  C   UNL A   1      42.663  23.454  27.546  1.00  0.00    -0.014 A 
BRANCH  38  39
ATOM     39  C   UNL A   1      42.927  24.805  28.099  1.00  0.00     0.031 A 
ATOM     40  C   UNL A   1      44.321  25.215  28.483  1.00  0.00     0.074 A 
ATOM     41  C   UNL A   1      41.900  25.655  28.287  1.00  0.00     0.049 A 
ATOM     42  N   UNL A   1      44.741  26.359  28.963  1.00  0.00    -0.248 NA
ATOM     43  C   UNL A   1      45.378  24.202  28.332  1.00  0.00     0.031 C 
ATOM     44  C   UNL A   1      40.494  25.359  28.005  1.00  0.00     0.029 A 
ATOM     45  N   UNL A   1      41.882  26.942  28.761  1.00  0.00    -0.354 N 
ATOM     46  C   UNL A   1      46.103  26.199  29.184  1.00  0.00     0.074 A 
ATOM     47  C   UNL A   1      46.432  24.836  28.826  1.00  0.00     0.031 C 
ATOM     48  C   UNL A   1      39.754  26.445  28.284  1.00  0.00     0.029 A 
ATOM     49  C   UNL A   1      40.630  27.502  28.783  1.00  0.00     0.049 A 
ATOM     50  H   UNL A   1      42.692  27.419  29.056  1.00  0.00     0.167 HD
ATOM     51  C   UNL A   1      47.004  27.109  29.627  1.00  0.00     0.031 A 
ATOM     52  C   UNL A   1      40.229  28.731  29.155  1.00  0.00     0.031 A 
ATOM     53  C   UNL A   1      46.683  28.469  29.969  1.00  0.00     0.049 A 
ATOM     54  C   UNL A   1      41.249  29.732  29.615  1.00  0.00     0.074 A 
ATOM     55  C   UNL A   1      47.538  29.485  30.362  1.00  0.00     0.029 A 
ATOM     56  N   UNL A   1      45.404  29.003  29.960  1.00  0.00    -0.354 N 
ATOM     57  N   UNL A   1      42.546  29.589  29.741  1.00  0.00    -0.248 NA
ATOM     58  C   UNL A   1      40.750  31.068  29.968  1.00  0.00     0.031 C 
ATOM     59  C   UNL A   1      46.769  30.624  30.630  1.00  0.00     0.029 A 
ATOM     60  C   UNL A   1      45.442  30.328  30.362  1.00  0.00     0.049 A 
ATOM     61  H   UNL A   1      44.589  28.513  29.706  1.00  0.00     0.167 HD
ATOM     62  C   UNL A   1      43.021  30.820  30.170  1.00  0.00     0.074 A 
ATOM     63  C   UNL A   1      41.876  31.703  30.263  1.00  0.00     0.031 C 
ATOM     64  C   UNL A   1      44.292  31.188  30.463  1.00  0.00     0.031 A 
BRANCH  51  65
ATOM     65  C   UNL A   1      48.428  26.652  29.773  1.00  0.00    -0.014 A 
ATOM     66  C   UNL A   1      48.887  26.075  30.967  1.00  0.00     0.009 A 
ATOM     67  C   UNL A   1      49.316  26.777  28.693  1.00  0.00     0.009 A 
ATOM     68  C   UNL A   1      50.216  25.665  31.089  1.00  0.00     0.001 A 
ATOM     69  C   UNL A   1      50.638  26.344  28.809  1.00  0.00     0.001 A 
ATOM     70  C   UNL A   1      51.090  25.798  30.011  1.00  0.00     0.000 A 
ENDBRANCH  51  65
BRANCH  52  71
ATOM     71  C   UNL A   1      38.792  29.096  29.071  1.00  0.00    -0.014 A 
ATOM     72  C   UNL A   1      37.973  29.018  30.208  1.00  0.00     0.009 A 
ATOM     73  C   UNL A   1      38.237  29.531  27.858  1.00  0.00     0.009 A 
ATOM     74  C   UNL A   1      36.619  29.350  30.126  1.00  0.00     0.001 A 
ATOM     75  C   UNL A   1      36.888  29.886  27.786  1.00  0.00     0.001 A 
ATOM     76  C   UNL A   1      36.079  29.787  28.917  1.00  0.00     0.000 A 
ENDBRANCH  52  71
BRANCH  64  77
ATOM     77  C   UNL A   1      44.506  32.609  30.896  1.00  0.00    -0.014 A 
ATOM     78  C   UNL A   1      44.749  33.623  29.957  1.00  0.00     0.009 A 
ATOM     79  C   UNL A   1      44.444  32.941  32.258  1.00  0.00     0.009 A 
ATOM     80  C   UNL A   1      44.963  34.937  30.378  1.00  0.00     0.001 A 
ATOM     81  C   UNL A   1      44.633  34.260  32.673  1.00  0.00     0.001 A 
ATOM     82  C   UNL A   1      44.902  35.255  31.734  1.00  0.00     0.000 A 
ENDBRANCH  64  77
ENDBRANCH  38  39
ENDBRANCH  30  33
ENDBRANCH  28  29
ENDBRANCH  27  28
ENDBRANCH  26  27
ENDBRANCH  25  26
ENDBRANCH   1  25
TORSDOF 19
ENDMDL
MODEL 3
REMARK VINA RESULT:     -10.0      1.829      3.976
REMARK SMILES CC[C@H](C(=O)NCCCCCCNC(=O)c1ccc(-c2c3nc(c(-c4ccccc4)c4ccc([nH]4)c(-c4ccccc4)c4nc(c(-c5ccccc5)c5ccc2[nH]5)C=C4)C=C3)cc1)N(C)C(=O)[C@H]1CC[C@@H](C[NH3+])CC1
REMARK SMILES IDX 8 1 7 2 6 3 4 4 5 5 3 7 2 8 1 9 64 10 65 11 66 12 67 13
REMARK SMILES IDX 68 14 75 15 69 16 74 17 70 18 71 19 72 20 73 21 9 25 10 26
REMARK SMILES IDX 11 27 12 28 13 29 14 30 15 32 16 33 17 34 63 35 18 36 62 37
REMARK SMILES IDX 19 38 20 39 21 40 56 41 22 42 61 43 55 44 57 45 23 46 60 47
REMARK SMILES IDX 54 48 53 49 24 51 46 52 31 53 45 54 32 55 35 56 44 57 58 58
REMARK SMILES IDX 33 59 34 60 43 62 59 63 36 64 25 65 26 66 30 67 27 68 29 69
REMARK SMILES IDX 28 70 47 71 48 72 52 73 49 74 51 75 50 76 37 77 38 78 42 79
REMARK SMILES IDX 39 80 41 81 40 82
REMARK H PARENT 6 6 73 22 73 23 73 24 13 31 57 50 35 61
REMARK Flexibility Score: inf
ROOT
ATOM      1  C   UNL A   1      37.528  23.845  26.155  1.00  0.00     0.021 C 
ENDROOT
BRANCH   1   2
ATOM      2  C   UNL A   1      36.059  23.713  25.755  1.00  0.00     0.116 C 
BRANCH   2   3
ATOM      3  N   UNL A   1      35.294  23.112  26.822  1.00  0.00    -0.354 N 
ATOM      4  C   UNL A   1      34.076  22.526  26.883  1.00  0.00     0.242 C 
ATOM      5  O   UNL A   1      33.727  22.169  28.022  1.00  0.00    -0.273 OA
ATOM      6  H   UNL A   1      35.756  23.133  27.691  1.00  0.00     0.163 HD
BRANCH   4   7
ATOM      7  C   UNL A   1      33.123  22.223  25.687  1.00  0.00     0.173 C 
BRANCH   7   8
ATOM      8  C   UNL A   1      32.553  20.845  25.343  1.00  0.00     0.032 C 
ATOM      9  C   UNL A   1      32.413  20.617  23.844  1.00  0.00     0.006 C 
ENDBRANCH   7   8
BRANCH   7  10
ATOM     10  N   UNL A   1      32.055  23.256  25.735  1.00  0.00    -0.334 N 
ATOM     11  C   UNL A   1      30.827  22.849  26.397  1.00  0.00     0.147 C 
BRANCH  10  12
ATOM     12  C   UNL A   1      32.320  24.491  25.162  1.00  0.00     0.226 C 
ATOM     13  O   UNL A   1      32.354  24.617  23.931  1.00  0.00    -0.275 OA
BRANCH  12  14
ATOM     14  C   UNL A   1      32.539  25.748  26.010  1.00  0.00     0.078 C 
ATOM     15  C   UNL A   1      33.703  26.599  25.487  1.00  0.00     0.014 C 
ATOM     16  C   UNL A   1      31.267  26.539  26.337  1.00  0.00     0.014 C 
ATOM     17  C   UNL A   1      33.937  27.843  26.347  1.00  0.00     0.010 C 
ATOM     18  C   UNL A   1      31.575  27.769  27.189  1.00  0.00     0.010 C 
ATOM     19  C   UNL A   1      32.658  28.671  26.573  1.00  0.00     0.044 C 
BRANCH  19  20
ATOM     20  C   UNL A   1      32.237  29.384  25.271  1.00  0.00     0.262 C 
BRANCH  20  21
ATOM     21  N   UNL A   1      33.368  29.692  24.403  1.00  0.00    -0.357 N 
ATOM     22  H   UNL A   1      33.586  30.686  24.467  1.00  0.00     0.344 HD
ATOM     23  H   UNL A   1      33.129  29.458  23.439  1.00  0.00     0.344 HD
ATOM     24  H   UNL A   1      34.179  29.145  24.694  1.00  0.00     0.344 HD
ENDBRANCH  20  21
ENDBRANCH  19  20
ENDBRANCH  12  14
ENDBRANCH  10  12
ENDBRANCH   7  10
ENDBRANCH   4   7
ENDBRANCH   2   3
ENDBRANCH   1   2
BRANCH   1  25
ATOM     25  C   UNL A   1      38.380  22.618  25.815  1.00  0.00     0.002 C 
BRANCH  25  26
ATOM     26  C   UNL A   1      37.728  21.622  24.851  1.00  0.00     0.002 C 
BRANCH  26  27
ATOM     27  C   UNL A   1      38.247  20.183  24.938  1.00  0.00     0.021 C 
BRANCH  27  28
ATOM     28  C   UNL A   1      39.030  19.855  26.207  1.00  0.00     0.116 C 
BRANCH  28  29
ATOM     29  N   UNL A   1      40.267  19.152  25.917  1.00  0.00    -0.352 N 
ATOM     30  C   UNL A   1      41.557  19.614  25.907  1.00  0.00     0.251 C 
ATOM     31  H   UNL A   1      40.164  18.198  25.694  1.00  0.00     0.163 HD
ATOM     32  O   UNL A   1      42.455  18.916  25.437  1.00  0.00    -0.269 OA
BRANCH  30  33
ATOM     33  C   UNL A   1      41.883  20.950  26.450  1.00  0.00     0.039 A 
ATOM     34  C   UNL A   1      41.847  21.139  27.834  1.00  0.00     0.014 A 
ATOM     35  C   UNL A   1      42.171  22.026  25.602  1.00  0.00     0.014 A 
ATOM     36  C   UNL A   1      42.138  22.393  28.371  1.00  0.00     0.010 A 
ATOM     37  C   UNL A   1      42.518  23.263  26.143  1.00  0.00     0.010 A 
ATOM     38  C   UNL A   1      42.494  23.461  27.532  1.00  0.00    -0.014 A 
BRANCH  38  39
ATOM     39  C   UNL A   1      42.840  24.786  28.103  1.00  0.00     0.031 A 
ATOM     40  C   UNL A   1      41.777  25.824  28.325  1.00  0.00     0.074 A 
ATOM     41  C   UNL A   1      44.125  25.067  28.391  1.00  0.00     0.049 A 
ATOM     42  N   UNL A   1      41.891  27.027  28.830  1.00  0.00    -0.248 NA
ATOM     43  C   UNL A   1      40.410  25.478  27.903  1.00  0.00     0.031 C 
ATOM     44  C   UNL A   1      45.259  24.166  28.173  1.00  0.00     0.029 A 
ATOM     45  N   UNL A   1      44.693  26.193  28.931  1.00  0.00    -0.354 N 
ATOM     46  C   UNL A   1      40.620  27.584  28.774  1.00  0.00     0.074 A 
ATOM     47  C   UNL A   1      39.758  26.605  28.147  1.00  0.00     0.031 C 
ATOM     48  C   UNL A   1      46.382  24.763  28.602  1.00  0.00     0.029 A 
ATOM     49  C   UNL A   1      46.050  26.094  29.104  1.00  0.00     0.049 A 
ATOM     50  H   UNL A   1      44.175  26.995  29.171  1.00  0.00     0.167 HD
ATOM     51  C   UNL A   1      40.203  28.794  29.219  1.00  0.00     0.031 A 
ATOM     52  C   UNL A   1      46.931  26.972  29.618  1.00  0.00     0.031 A 
ATOM     53  C   UNL A   1      41.054  29.763  29.855  1.00  0.00     0.049 A 
ATOM     54  C   UNL A   1      46.440  28.295  30.132  1.00  0.00     0.074 A 
ATOM     55  C   UNL A   1      40.710  30.988  30.402  1.00  0.00     0.029 A 
ATOM     56  N   UNL A   1      42.421  29.617  30.029  1.00  0.00    -0.354 N 
ATOM     57  N   UNL A   1      45.220  28.773  30.145  1.00  0.00    -0.248 NA
ATOM     58  C   UNL A   1      47.448  29.190  30.717  1.00  0.00     0.031 C 
ATOM     59  C   UNL A   1      41.878  31.601  30.871  1.00  0.00     0.029 A 
ATOM     60  C   UNL A   1      42.941  30.738  30.655  1.00  0.00     0.049 A 
ATOM     61  H   UNL A   1      42.946  28.832  29.749  1.00  0.00     0.167 HD
ATOM     62  C   UNL A   1      45.309  30.017  30.754  1.00  0.00     0.074 A 
ATOM     63  C   UNL A   1      46.699  30.209  31.114  1.00  0.00     0.031 C 
ATOM     64  C   UNL A   1      44.328  30.920  30.993  1.00  0.00     0.031 A 
BRANCH  51  65
ATOM     65  C   UNL A   1      38.752  29.135  29.022  1.00  0.00    -0.014 A 
ATOM     66  C   UNL A   1      38.273  29.582  27.781  1.00  0.00     0.009 A 
ATOM     67  C   UNL A   1      37.849  28.984  30.086  1.00  0.00     0.009 A 
ATOM     68  C   UNL A   1      36.925  29.905  27.619  1.00  0.00     0.001 A 
ATOM     69  C   UNL A   1      36.496  29.285  29.914  1.00  0.00     0.001 A 
ATOM     70  C   UNL A   1      36.037  29.754  28.683  1.00  0.00     0.000 A 
ENDBRANCH  51  65
BRANCH  52  71
ATOM     71  C   UNL A   1      48.369  26.610  29.705  1.00  0.00    -0.014 A 
ATOM     72  C   UNL A   1      49.252  26.959  28.672  1.00  0.00     0.009 A 
ATOM     73  C   UNL A   1      48.864  25.923  30.824  1.00  0.00     0.009 A 
ATOM     74  C   UNL A   1      50.601  26.609  28.749  1.00  0.00     0.001 A 
ATOM     75  C   UNL A   1      50.219  25.595  30.908  1.00  0.00     0.001 A 
ATOM     76  C   UNL A   1      51.084  25.931  29.868  1.00  0.00     0.000 A 
ENDBRANCH  52  71
BRANCH  64  77
ATOM     77  C   UNL A   1      44.727  32.189  31.689  1.00  0.00    -0.014 A 
ATOM     78  C   UNL A   1      45.116  33.323  30.958  1.00  0.00     0.009 A 
ATOM     79  C   UNL A   1      44.697  32.257  33.090  1.00  0.00     0.009 A 
ATOM     80  C   UNL A   1      45.502  34.490  31.621  1.00  0.00     0.001 A 
ATOM     81  C   UNL A   1      45.059  33.433  33.748  1.00  0.00     0.001 A 
ATOM     82  C   UNL A   1      45.471  34.545  33.014  1.00  0.00     0.000 A 
ENDBRANCH  64  77
ENDBRANCH  38  39
ENDBRANCH  30  33
ENDBRANCH  28  29
ENDBRANCH  27  28
ENDBRANCH  26  27
ENDBRANCH  25  26
ENDBRANCH   1  25
TORSDOF 19
ENDMDL
