MODEL 1
REMARK VINA RESULT:     -11.4      0.000      0.000
REMARK SMILES Cc1cc2n(n1)[C@H](C(F)(F)F)CCN2C(=O)c1cnn([C@@H](C)C(=O)NCCCCCCNC(=O)c2ccc(-c3c4nc(c(-c5ccccc5)c5ccc([nH]5)c(-c5ccccc5)c5nc(c(-c6ccccc6)c6ccc3[nH]6)C=C5)C=C4)cc2)c1
REMARK SMILES IDX 27 1 26 2 25 3 23 4 24 5 21 7 22 8 20 9 17 10 18 11 83 12
REMARK SMILES IDX 19 13 15 14 16 15 14 16 1 17 2 18 3 19 6 20 4 21 5 22 7 23
REMARK SMILES IDX 13 24 12 25 8 26 9 27 10 28 11 29 28 30 29 31 30 32 31 33
REMARK SMILES IDX 32 34 33 35 34 37 35 38 36 39 82 40 37 41 81 42 38 43 39 44
REMARK SMILES IDX 40 45 75 46 41 47 80 48 74 49 76 50 42 51 79 52 73 53 72 54
REMARK SMILES IDX 43 56 65 57 50 58 64 59 51 60 54 61 63 62 77 63 52 64 53 65
REMARK SMILES IDX 62 67 78 68 55 69 44 70 45 71 49 72 46 73 48 74 47 75 66 76
REMARK SMILES IDX 67 77 71 78 68 79 70 80 69 81 56 82 57 83 61 84 58 85 60 86
REMARK SMILES IDX 59 87
REMARK H PARENT 25 6 32 36 76 55 54 66
REMARK Flexibility Score: inf
ROOT
ATOM      1  C   UNL A   1      33.477  28.145  25.855  1.00  0.00     0.021 C 
ENDROOT
BRANCH   1   2
ATOM      2  C   UNL A   1      31.976  28.416  25.987  1.00  0.00     0.116 C 
BRANCH   2   3
ATOM      3  N   UNL A   1      31.246  27.229  26.395  1.00  0.00    -0.354 N 
ATOM      4  C   UNL A   1      30.284  26.510  25.755  1.00  0.00     0.244 C 
ATOM      5  O   UNL A   1      29.736  25.612  26.406  1.00  0.00    -0.273 OA
ATOM      6  H   UNL A   1      31.489  26.886  27.285  1.00  0.00     0.163 HD
BRANCH   4   7
ATOM      7  C   UNL A   1      29.889  26.725  24.297  1.00  0.00     0.193 C 
ATOM      8  C   UNL A   1      28.431  26.410  23.977  1.00  0.00     0.044 C 
BRANCH   7   9
ATOM      9  N   UNL A   1      30.846  26.148  23.358  1.00  0.00    -0.260 N 
ATOM     10  C   UNL A   1      32.347  24.840  22.401  1.00  0.00     0.078 A 
ATOM     11  C   UNL A   1      32.035  25.965  21.615  1.00  0.00     0.149 A 
ATOM     12  C   UNL A   1      31.519  24.962  23.503  1.00  0.00     0.123 A 
ATOM     13  N   UNL A   1      31.240  26.816  22.255  1.00  0.00    -0.180 NA
BRANCH  10  14
ATOM     14  C   UNL A   1      33.244  23.770  22.108  1.00  0.00     0.262 C 
ATOM     15  O   UNL A   1      33.436  23.338  20.962  1.00  0.00    -0.269 OA
BRANCH  14  16
ATOM     16  N   UNL A   1      33.890  23.190  23.274  1.00  0.00    -0.293 N 
ATOM     17  C   UNL A   1      32.116  18.523  23.869  1.00  0.00     0.069 C 
ATOM     18  C   UNL A   1      32.834  19.815  23.978  1.00  0.00     0.062 A 
ATOM     19  C   UNL A   1      32.735  20.943  23.126  1.00  0.00     0.072 A 
ATOM     20  N   UNL A   1      33.703  20.026  24.975  1.00  0.00    -0.176 NA
ATOM     21  C   UNL A   1      33.569  21.888  23.677  1.00  0.00     0.134 A 
ATOM     22  N   UNL A   1      34.082  21.295  24.799  1.00  0.00    -0.237 N 
ATOM     23  C   UNL A   1      35.034  21.922  25.687  1.00  0.00     0.216 C 
ATOM     24  C   UNL A   1      34.759  23.987  24.188  1.00  0.00     0.130 C 
ATOM     25  C   UNL A   1      35.727  23.089  24.971  1.00  0.00     0.059 C 
BRANCH  23  26
ATOM     26  C   UNL A   1      34.361  22.367  26.969  1.00  0.00     0.410 C 
ATOM     27  F   UNL A   1      33.079  22.735  26.808  1.00  0.00    -0.169 F 
ATOM     28  F   UNL A   1      34.376  21.346  27.863  1.00  0.00    -0.169 F 
ATOM     29  F   UNL A   1      35.027  23.395  27.541  1.00  0.00    -0.169 F 
ENDBRANCH  23  26
ENDBRANCH  14  16
ENDBRANCH  10  14
ENDBRANCH   7   9
ENDBRANCH   4   7
ENDBRANCH   2   3
ENDBRANCH   1   2
BRANCH   1  30
ATOM     30  C   UNL A   1      34.289  28.409  27.125  1.00  0.00     0.002 C 
BRANCH  30  31
ATOM     31  C   UNL A   1      35.012  29.762  27.199  1.00  0.00     0.002 C 
BRANCH  31  32
ATOM     32  C   UNL A   1      34.172  30.984  27.601  1.00  0.00     0.021 C 
BRANCH  32  33
ATOM     33  C   UNL A   1      34.984  32.187  28.055  1.00  0.00     0.116 C 
BRANCH  33  34
ATOM     34  N   UNL A   1      34.757  32.533  29.462  1.00  0.00    -0.352 N 
ATOM     35  C   UNL A   1      35.391  32.045  30.592  1.00  0.00     0.251 C 
ATOM     36  H   UNL A   1      34.058  33.207  29.625  1.00  0.00     0.163 HD
ATOM     37  O   UNL A   1      34.889  32.158  31.703  1.00  0.00    -0.269 OA
BRANCH  35  38
ATOM     38  C   UNL A   1      36.699  31.394  30.431  1.00  0.00     0.039 A 
ATOM     39  C   UNL A   1      37.885  32.101  30.207  1.00  0.00     0.014 A 
ATOM     40  C   UNL A   1      36.714  30.014  30.562  1.00  0.00     0.014 A 
ATOM     41  C   UNL A   1      39.095  31.402  30.192  1.00  0.00     0.010 A 
ATOM     42  C   UNL A   1      37.897  29.381  30.796  1.00  0.00     0.010 A 
ATOM     43  C   UNL A   1      39.087  30.036  30.493  1.00  0.00    -0.014 A 
BRANCH  43  44
ATOM     44  C   UNL A   1      40.282  29.203  30.484  1.00  0.00     0.031 A 
ATOM     45  C   UNL A   1      40.905  28.882  31.793  1.00  0.00     0.074 A 
ATOM     46  C   UNL A   1      40.591  28.480  29.383  1.00  0.00     0.049 A 
ATOM     47  N   UNL A   1      42.122  29.098  32.167  1.00  0.00    -0.248 NA
ATOM     48  C   UNL A   1      40.062  28.266  32.831  1.00  0.00     0.031 C 
ATOM     49  C   UNL A   1      39.857  28.408  28.107  1.00  0.00     0.029 A 
ATOM     50  N   UNL A   1      41.537  27.517  29.233  1.00  0.00    -0.354 N 
ATOM     51  C   UNL A   1      42.255  28.513  33.424  1.00  0.00     0.074 A 
ATOM     52  C   UNL A   1      40.927  28.133  33.837  1.00  0.00     0.031 C 
ATOM     53  C   UNL A   1      40.213  27.289  27.441  1.00  0.00     0.029 A 
ATOM     54  C   UNL A   1      41.339  26.696  28.132  1.00  0.00     0.049 A 
ATOM     55  H   UNL A   1      42.295  27.410  29.852  1.00  0.00     0.167 HD
ATOM     56  C   UNL A   1      43.471  28.186  33.945  1.00  0.00     0.031 A 
ATOM     57  C   UNL A   1      42.046  25.592  27.806  1.00  0.00     0.031 A 
ATOM     58  C   UNL A   1      44.555  28.782  33.211  1.00  0.00     0.049 A 
ATOM     59  C   UNL A   1      43.336  25.675  28.523  1.00  0.00     0.074 A 
ATOM     60  C   UNL A   1      44.966  30.070  32.937  1.00  0.00     0.029 A 
ATOM     61  N   UNL A   1      45.204  27.979  32.304  1.00  0.00    -0.354 N 
ATOM     62  N   UNL A   1      44.225  26.597  28.291  1.00  0.00    -0.248 NA
ATOM     63  C   UNL A   1      43.478  24.978  29.790  1.00  0.00     0.031 C 
ATOM     64  C   UNL A   1      45.456  30.022  31.596  1.00  0.00     0.029 A 
ATOM     65  C   UNL A   1      45.353  28.702  31.150  1.00  0.00     0.049 A 
ATOM     66  H   UNL A   1      45.506  27.055  32.456  1.00  0.00     0.167 HD
ATOM     67  C   UNL A   1      44.765  26.892  29.533  1.00  0.00     0.074 A 
ATOM     68  C   UNL A   1      44.372  25.773  30.386  1.00  0.00     0.031 C 
ATOM     69  C   UNL A   1      45.230  28.145  29.819  1.00  0.00     0.031 A 
BRANCH  56  70
ATOM     70  C   UNL A   1      43.701  27.036  34.891  1.00  0.00    -0.014 A 
ATOM     71  C   UNL A   1      43.408  25.728  34.464  1.00  0.00     0.009 A 
ATOM     72  C   UNL A   1      43.939  27.214  36.267  1.00  0.00     0.009 A 
ATOM     73  C   UNL A   1      43.318  24.666  35.374  1.00  0.00     0.001 A 
ATOM     74  C   UNL A   1      43.891  26.149  37.172  1.00  0.00     0.001 A 
ATOM     75  C   UNL A   1      43.557  24.878  36.728  1.00  0.00     0.000 A 
ENDBRANCH  56  70
BRANCH  57  76
ATOM     76  C   UNL A   1      41.588  24.388  27.092  1.00  0.00    -0.014 A 
ATOM     77  C   UNL A   1      42.442  23.701  26.220  1.00  0.00     0.009 A 
ATOM     78  C   UNL A   1      40.379  23.765  27.461  1.00  0.00     0.009 A 
ATOM     79  C   UNL A   1      42.117  22.417  25.764  1.00  0.00     0.001 A 
ATOM     80  C   UNL A   1      40.053  22.484  27.005  1.00  0.00     0.001 A 
ATOM     81  C   UNL A   1      40.932  21.804  26.169  1.00  0.00     0.000 A 
ENDBRANCH  57  76
BRANCH  69  82
ATOM     82  C   UNL A   1      45.346  29.121  28.670  1.00  0.00    -0.014 A 
ATOM     83  C   UNL A   1      46.525  29.265  27.915  1.00  0.00     0.009 A 
ATOM     84  C   UNL A   1      44.199  29.799  28.240  1.00  0.00     0.009 A 
ATOM     85  C   UNL A   1      46.562  30.084  26.783  1.00  0.00     0.001 A 
ATOM     86  C   UNL A   1      44.231  30.605  27.097  1.00  0.00     0.001 A 
ATOM     87  C   UNL A   1      45.412  30.751  26.372  1.00  0.00     0.000 A 
ENDBRANCH  69  82
ENDBRANCH  43  44
ENDBRANCH  35  38
ENDBRANCH  33  34
ENDBRANCH  32  33
ENDBRANCH  31  32
ENDBRANCH  30  31
ENDBRANCH   1  30
TORSDOF 17
ENDMDL
MODEL 2
REMARK VINA RESULT:     -10.7      6.387     10.411
REMARK SMILES Cc1cc2n(n1)[C@H](C(F)(F)F)CCN2C(=O)c1cnn([C@@H](C)C(=O)NCCCCCCNC(=O)c2ccc(-c3c4nc(c(-c5ccccc5)c5ccc([nH]5)c(-c5ccccc5)c5nc(c(-c6ccccc6)c6ccc3[nH]6)C=C5)C=C4)cc2)c1
REMARK SMILES IDX 27 1 26 2 25 3 23 4 24 5 21 7 22 8 20 9 17 10 18 11 83 12
REMARK SMILES IDX 19 13 15 14 16 15 14 16 1 17 2 18 3 19 6 20 4 21 5 22 7 23
REMARK SMILES IDX 13 24 12 25 8 26 9 27 10 28 11 29 28 30 29 31 30 32 31 33
REMARK SMILES IDX 32 34 33 35 34 37 35 38 36 39 82 40 37 41 81 42 38 43 39 44
REMARK SMILES IDX 40 45 75 46 41 47 80 48 74 49 76 50 42 51 79 52 73 53 72 54
REMARK SMILES IDX 43 56 65 57 50 58 64 59 51 60 54 61 63 62 77 63 52 64 53 65
REMARK SMILES IDX 62 67 78 68 55 69 44 70 45 71 49 72 46 73 48 74 47 75 66 76
REMARK SMILES IDX 67 77 71 78 68 79 70 80 69 81 56 82 57 83 61 84 58 85 60 86
REMARK SMILES IDX 59 87
REMARK H PARENT 25 6 32 36 76 55 54 66
REMARK Flexibility Score: inf
ROOT
ATOM      1  C   UNL A   1      42.749  28.505  32.867  1.00  0.00     0.021 C 
ENDROOT
BRANCH   1   2
ATOM      2  C   UNL A   1      42.132  29.605  32.000  1.00  0.00     0.116 C 
BRANCH   2   3
ATOM      3  N   UNL A   1      41.286  29.059  30.955  1.00  0.00    -0.354 N 
ATOM      4  C   UNL A   1      40.011  28.583  30.997  1.00  0.00     0.244 C 
ATOM      5  O   UNL A   1      39.584  28.048  29.966  1.00  0.00    -0.273 OA
ATOM      6  H   UNL A   1      41.704  29.027  30.064  1.00  0.00     0.163 HD
BRANCH   4   7
ATOM      7  C   UNL A   1      39.094  28.713  32.209  1.00  0.00     0.193 C 
ATOM      8  C   UNL A   1      38.365  27.430  32.598  1.00  0.00     0.044 C 
BRANCH   7   9
ATOM      9  N   UNL A   1      38.238  29.894  32.149  1.00  0.00    -0.260 N 
ATOM     10  C   UNL A   1      37.504  31.969  31.966  1.00  0.00     0.078 A 
ATOM     11  C   UNL A   1      36.469  31.054  32.233  1.00  0.00     0.149 A 
ATOM     12  C   UNL A   1      38.634  31.176  31.866  1.00  0.00     0.123 A 
ATOM     13  N   UNL A   1      36.932  29.834  32.479  1.00  0.00    -0.180 NA
BRANCH  10  14
ATOM     14  C   UNL A   1      37.417  33.378  31.761  1.00  0.00     0.262 C 
ATOM     15  O   UNL A   1      38.348  34.058  31.306  1.00  0.00    -0.269 OA
BRANCH  14  16
ATOM     16  N   UNL A   1      36.153  33.969  32.170  1.00  0.00    -0.293 N 
ATOM     17  C   UNL A   1      33.179  34.222  28.124  1.00  0.00     0.069 C 
ATOM     18  C   UNL A   1      33.773  34.287  29.480  1.00  0.00     0.062 A 
ATOM     19  C   UNL A   1      35.056  33.848  29.892  1.00  0.00     0.072 A 
ATOM     20  N   UNL A   1      33.080  34.810  30.500  1.00  0.00    -0.176 NA
ATOM     21  C   UNL A   1      35.136  34.166  31.228  1.00  0.00     0.134 A 
ATOM     22  N   UNL A   1      33.944  34.775  31.518  1.00  0.00    -0.237 N 
ATOM     23  C   UNL A   1      33.577  35.261  32.828  1.00  0.00     0.216 C 
ATOM     24  C   UNL A   1      35.943  34.551  33.527  1.00  0.00     0.130 C 
ATOM     25  C   UNL A   1      34.453  34.595  33.897  1.00  0.00     0.059 C 
BRANCH  23  26
ATOM     26  C   UNL A   1      33.666  36.771  32.887  1.00  0.00     0.410 C 
ATOM     27  F   UNL A   1      34.601  37.290  32.072  1.00  0.00    -0.169 F 
ATOM     28  F   UNL A   1      32.475  37.307  32.523  1.00  0.00    -0.169 F 
ATOM     29  F   UNL A   1      33.918  37.199  34.145  1.00  0.00    -0.169 F 
ENDBRANCH  23  26
ENDBRANCH  14  16
ENDBRANCH  10  14
ENDBRANCH   7   9
ENDBRANCH   4   7
ENDBRANCH   2   3
ENDBRANCH   1   2
BRANCH   1  30
ATOM     30  C   UNL A   1      42.205  28.437  34.297  1.00  0.00     0.002 C 
BRANCH  30  31
ATOM     31  C   UNL A   1      41.424  27.167  34.665  1.00  0.00     0.002 C 
BRANCH  31  32
ATOM     32  C   UNL A   1      41.830  26.446  35.960  1.00  0.00     0.021 C 
BRANCH  32  33
ATOM     33  C   UNL A   1      41.712  24.932  35.904  1.00  0.00     0.116 C 
BRANCH  33  34
ATOM     34  N   UNL A   1      42.916  24.245  36.384  1.00  0.00    -0.352 N 
ATOM     35  C   UNL A   1      43.984  23.748  35.658  1.00  0.00     0.251 C 
ATOM     36  H   UNL A   1      42.972  24.121  37.360  1.00  0.00     0.163 HD
ATOM     37  O   UNL A   1      44.745  22.913  36.131  1.00  0.00    -0.269 OA
BRANCH  35  38
ATOM     38  C   UNL A   1      44.197  24.257  34.295  1.00  0.00     0.039 A 
ATOM     39  C   UNL A   1      44.672  25.545  34.024  1.00  0.00     0.014 A 
ATOM     40  C   UNL A   1      43.946  23.366  33.264  1.00  0.00     0.014 A 
ATOM     41  C   UNL A   1      44.959  25.894  32.702  1.00  0.00     0.010 A 
ATOM     42  C   UNL A   1      44.459  23.618  32.027  1.00  0.00     0.010 A 
ATOM     43  C   UNL A   1      44.852  24.915  31.708  1.00  0.00    -0.014 A 
BRANCH  43  44
ATOM     44  C   UNL A   1      45.103  25.169  30.296  1.00  0.00     0.031 A 
ATOM     45  C   UNL A   1      46.340  25.909  29.941  1.00  0.00     0.074 A 
ATOM     46  C   UNL A   1      44.431  24.466  29.355  1.00  0.00     0.049 A 
ATOM     47  N   UNL A   1      46.444  26.999  29.256  1.00  0.00    -0.248 NA
ATOM     48  C   UNL A   1      47.626  25.387  30.432  1.00  0.00     0.031 C 
ATOM     49  C   UNL A   1      43.415  23.417  29.557  1.00  0.00     0.029 A 
ATOM     50  N   UNL A   1      44.643  24.417  28.015  1.00  0.00    -0.354 N 
ATOM     51  C   UNL A   1      47.807  27.228  29.089  1.00  0.00     0.074 A 
ATOM     52  C   UNL A   1      48.485  26.282  29.942  1.00  0.00     0.031 C 
ATOM     53  C   UNL A   1      43.305  22.672  28.437  1.00  0.00     0.029 A 
ATOM     54  C   UNL A   1      44.070  23.318  27.391  1.00  0.00     0.049 A 
ATOM     55  H   UNL A   1      45.160  25.100  27.529  1.00  0.00     0.167 HD
ATOM     56  C   UNL A   1      48.292  28.033  28.103  1.00  0.00     0.031 A 
ATOM     57  C   UNL A   1      44.216  22.951  26.099  1.00  0.00     0.031 A 
ATOM     58  C   UNL A   1      47.257  28.824  27.491  1.00  0.00     0.049 A 
ATOM     59  C   UNL A   1      44.676  24.144  25.358  1.00  0.00     0.074 A 
ATOM     60  C   UNL A   1      46.381  29.799  27.921  1.00  0.00     0.029 A 
ATOM     61  N   UNL A   1      46.759  28.373  26.293  1.00  0.00    -0.354 N 
ATOM     62  N   UNL A   1      43.956  25.219  25.214  1.00  0.00    -0.248 NA
ATOM     63  C   UNL A   1      46.100  24.312  25.118  1.00  0.00     0.031 C 
ATOM     64  C   UNL A   1      45.170  29.544  27.209  1.00  0.00     0.029 A 
ATOM     65  C   UNL A   1      45.393  28.458  26.359  1.00  0.00     0.049 A 
ATOM     66  H   UNL A   1      47.286  28.048  25.528  1.00  0.00     0.167 HD
ATOM     67  C   UNL A   1      44.860  26.267  25.289  1.00  0.00     0.074 A 
ATOM     68  C   UNL A   1      46.167  25.646  25.087  1.00  0.00     0.031 C 
ATOM     69  C   UNL A   1      44.488  27.483  25.789  1.00  0.00     0.031 A 
BRANCH  56  70
ATOM     70  C   UNL A   1      49.631  27.841  27.439  1.00  0.00    -0.014 A 
ATOM     71  C   UNL A   1      50.589  28.868  27.519  1.00  0.00     0.009 A 
ATOM     72  C   UNL A   1      49.885  26.808  26.517  1.00  0.00     0.009 A 
ATOM     73  C   UNL A   1      51.719  28.878  26.690  1.00  0.00     0.001 A 
ATOM     74  C   UNL A   1      51.032  26.793  25.718  1.00  0.00     0.001 A 
ATOM     75  C   UNL A   1      51.938  27.841  25.788  1.00  0.00     0.000 A 
ENDBRANCH  56  70
BRANCH  57  76
ATOM     76  C   UNL A   1      44.187  21.596  25.523  1.00  0.00    -0.014 A 
ATOM     77  C   UNL A   1      45.329  21.043  24.930  1.00  0.00     0.009 A 
ATOM     78  C   UNL A   1      43.095  20.742  25.778  1.00  0.00     0.009 A 
ATOM     79  C   UNL A   1      45.393  19.674  24.640  1.00  0.00     0.001 A 
ATOM     80  C   UNL A   1      43.157  19.377  25.486  1.00  0.00     0.001 A 
ATOM     81  C   UNL A   1      44.315  18.840  24.932  1.00  0.00     0.000 A 
ENDBRANCH  57  76
BRANCH  69  82
ATOM     82  C   UNL A   1      43.014  27.709  26.039  1.00  0.00    -0.014 A 
ATOM     83  C   UNL A   1      42.324  27.098  27.102  1.00  0.00     0.009 A 
ATOM     84  C   UNL A   1      42.339  28.675  25.281  1.00  0.00     0.009 A 
ATOM     85  C   UNL A   1      40.993  27.422  27.381  1.00  0.00     0.001 A 
ATOM     86  C   UNL A   1      41.013  29.012  25.570  1.00  0.00     0.001 A 
ATOM     87  C   UNL A   1      40.339  28.383  26.616  1.00  0.00     0.000 A 
ENDBRANCH  69  82
ENDBRANCH  43  44
ENDBRANCH  35  38
ENDBRANCH  33  34
ENDBRANCH  32  33
ENDBRANCH  31  32
ENDBRANCH  30  31
ENDBRANCH   1  30
TORSDOF 17
ENDMDL
MODEL 3
REMARK VINA RESULT:     -10.5      5.658     10.748
REMARK SMILES Cc1cc2n(n1)[C@H](C(F)(F)F)CCN2C(=O)c1cnn([C@@H](C)C(=O)NCCCCCCNC(=O)c2ccc(-c3c4nc(c(-c5ccccc5)c5ccc([nH]5)c(-c5ccccc5)c5nc(c(-c6ccccc6)c6ccc3[nH]6)C=C5)C=C4)cc2)c1
REMARK SMILES IDX 27 1 26 2 25 3 23 4 24 5 21 7 22 8 20 9 17 10 18 11 83 12
REMARK SMILES IDX 19 13 15 14 16 15 14 16 1 17 2 18 3 19 6 20 4 21 5 22 7 23
REMARK SMILES IDX 13 24 12 25 8 26 9 27 10 28 11 29 28 30 29 31 30 32 31 33
REMARK SMILES IDX 32 34 33 35 34 37 35 38 36 39 82 40 37 41 81 42 38 43 39 44
REMARK SMILES IDX 40 45 75 46 41 47 80 48 74 49 76 50 42 51 79 52 73 53 72 54
REMARK SMILES IDX 43 56 65 57 50 58 64 59 51 60 54 61 63 62 77 63 52 64 53 65
REMARK SMILES IDX 62 67 78 68 55 69 44 70 45 71 49 72 46 73 48 74 47 75 66 76
REMARK SMILES IDX 67 77 71 78 68 79 70 80 69 81 56 82 57 83 61 84 58 85 60 86
REMARK SMILES IDX 59 87
REMARK H PARENT 25 6 32 36 76 55 54 66
REMARK Flexibility Score: inf
ROOT
ATOM      1  C   UNL A   1      39.892  30.052  32.476  1.00  0.00     0.021 C 
ENDROOT
BRANCH   1   2
ATOM      2  C   UNL A   1      41.116  29.224  32.876  1.00  0.00     0.116 C 
BRANCH   2   3
ATOM      3  N   UNL A   1      40.967  28.643  34.198  1.00  0.00    -0.354 N 
ATOM      4  C   UNL A   1      41.237  29.151  35.431  1.00  0.00     0.244 C 
ATOM      5  O   UNL A   1      41.138  28.372  36.387  1.00  0.00    -0.273 OA
ATOM      6  H   UNL A   1      40.610  27.725  34.203  1.00  0.00     0.163 HD
BRANCH   4   7
ATOM      7  C   UNL A   1      41.604  30.609  35.689  1.00  0.00     0.193 C 
ATOM      8  C   UNL A   1      42.572  30.829  36.847  1.00  0.00     0.044 C 
BRANCH   7   9
ATOM      9  N   UNL A   1      40.442  31.494  35.704  1.00  0.00    -0.260 N 
ATOM     10  C   UNL A   1      39.063  33.182  35.350  1.00  0.00     0.078 A 
ATOM     11  C   UNL A   1      38.519  32.216  36.215  1.00  0.00     0.149 A 
ATOM     12  C   UNL A   1      40.294  32.658  34.994  1.00  0.00     0.123 A 
ATOM     13  N   UNL A   1      39.402  31.276  36.534  1.00  0.00    -0.180 NA
BRANCH  10  14
ATOM     14  C   UNL A   1      38.468  34.388  34.874  1.00  0.00     0.262 C 
ATOM     15  O   UNL A   1      38.911  35.515  35.135  1.00  0.00    -0.269 OA
BRANCH  14  16
ATOM     16  N   UNL A   1      37.263  34.192  34.084  1.00  0.00    -0.293 N 
ATOM     17  C   UNL A   1      38.576  34.178  29.231  1.00  0.00     0.069 C 
ATOM     18  C   UNL A   1      37.864  34.126  30.530  1.00  0.00     0.062 A 
ATOM     19  C   UNL A   1      38.415  34.227  31.831  1.00  0.00     0.072 A 
ATOM     20  N   UNL A   1      36.535  33.963  30.569  1.00  0.00    -0.176 NA
ATOM     21  C   UNL A   1      37.340  34.157  32.687  1.00  0.00     0.134 A 
ATOM     22  N   UNL A   1      36.247  34.043  31.871  1.00  0.00    -0.237 N 
ATOM     23  C   UNL A   1      34.888  33.918  32.345  1.00  0.00     0.216 C 
ATOM     24  C   UNL A   1      35.898  34.207  34.688  1.00  0.00     0.130 C 
ATOM     25  C   UNL A   1      34.886  33.458  33.809  1.00  0.00     0.059 C 
BRANCH  23  26
ATOM     26  C   UNL A   1      34.131  35.216  32.162  1.00  0.00     0.410 C 
ATOM     27  F   UNL A   1      32.987  35.281  32.864  1.00  0.00    -0.169 F 
ATOM     28  F   UNL A   1      34.909  36.252  32.567  1.00  0.00    -0.169 F 
ATOM     29  F   UNL A   1      33.840  35.435  30.860  1.00  0.00    -0.169 F 
ENDBRANCH  23  26
ENDBRANCH  14  16
ENDBRANCH  10  14
ENDBRANCH   7   9
ENDBRANCH   4   7
ENDBRANCH   2   3
ENDBRANCH   1   2
BRANCH   1  30
ATOM     30  C   UNL A   1      38.567  29.559  33.063  1.00  0.00     0.002 C 
BRANCH  30  31
ATOM     31  C   UNL A   1      37.435  30.593  33.144  1.00  0.00     0.002 C 
BRANCH  31  32
ATOM     32  C   UNL A   1      36.474  30.676  31.947  1.00  0.00     0.021 C 
BRANCH  32  33
ATOM     33  C   UNL A   1      36.510  29.469  31.024  1.00  0.00     0.116 C 
BRANCH  33  34
ATOM     34  N   UNL A   1      35.827  29.703  29.748  1.00  0.00    -0.352 N 
ATOM     35  C   UNL A   1      36.366  29.805  28.477  1.00  0.00     0.251 C 
ATOM     36  H   UNL A   1      34.848  29.800  29.803  1.00  0.00     0.163 HD
ATOM     37  O   UNL A   1      35.745  30.329  27.561  1.00  0.00    -0.269 OA
BRANCH  35  38
ATOM     38  C   UNL A   1      37.709  29.253  28.243  1.00  0.00     0.039 A 
ATOM     39  C   UNL A   1      38.545  29.685  27.207  1.00  0.00     0.014 A 
ATOM     40  C   UNL A   1      38.141  28.295  29.146  1.00  0.00     0.014 A 
ATOM     41  C   UNL A   1      39.849  29.188  27.142  1.00  0.00     0.010 A 
ATOM     42  C   UNL A   1      39.471  28.010  29.228  1.00  0.00     0.010 A 
ATOM     43  C   UNL A   1      40.303  28.350  28.166  1.00  0.00    -0.014 A 
BRANCH  43  44
ATOM     44  C   UNL A   1      41.633  27.756  28.191  1.00  0.00     0.031 A 
ATOM     45  C   UNL A   1      41.816  26.456  27.497  1.00  0.00     0.074 A 
ATOM     46  C   UNL A   1      42.704  28.514  28.521  1.00  0.00     0.049 A 
ATOM     47  N   UNL A   1      42.269  25.351  27.988  1.00  0.00    -0.248 NA
ATOM     48  C   UNL A   1      41.424  26.364  26.081  1.00  0.00     0.031 C 
ATOM     49  C   UNL A   1      42.729  29.942  28.887  1.00  0.00     0.029 A 
ATOM     50  N   UNL A   1      44.024  28.210  28.428  1.00  0.00    -0.354 N 
ATOM     51  C   UNL A   1      42.369  24.460  26.923  1.00  0.00     0.074 A 
ATOM     52  C   UNL A   1      41.714  25.092  25.804  1.00  0.00     0.031 C 
ATOM     53  C   UNL A   1      43.976  30.430  28.722  1.00  0.00     0.029 A 
ATOM     54  C   UNL A   1      44.862  29.316  28.455  1.00  0.00     0.049 A 
ATOM     55  H   UNL A   1      44.357  27.287  28.347  1.00  0.00     0.167 HD
ATOM     56  C   UNL A   1      43.168  23.358  26.972  1.00  0.00     0.031 A 
ATOM     57  C   UNL A   1      46.199  29.325  28.263  1.00  0.00     0.031 A 
ATOM     58  C   UNL A   1      43.623  23.077  28.307  1.00  0.00     0.049 A 
ATOM     59  C   UNL A   1      46.681  27.948  28.498  1.00  0.00     0.074 A 
ATOM     60  C   UNL A   1      43.018  22.749  29.503  1.00  0.00     0.029 A 
ATOM     61  N   UNL A   1      44.893  23.488  28.630  1.00  0.00    -0.354 N 
ATOM     62  N   UNL A   1      46.617  27.355  29.655  1.00  0.00    -0.248 NA
ATOM     63  C   UNL A   1      46.865  27.067  27.357  1.00  0.00     0.031 C 
ATOM     64  C   UNL A   1      43.782  23.429  30.500  1.00  0.00     0.029 A 
ATOM     65  C   UNL A   1      44.829  24.094  29.857  1.00  0.00     0.049 A 
ATOM     66  H   UNL A   1      45.701  23.371  28.080  1.00  0.00     0.167 HD
ATOM     67  C   UNL A   1      46.323  26.033  29.363  1.00  0.00     0.074 A 
ATOM     68  C   UNL A   1      46.628  25.888  27.941  1.00  0.00     0.031 C 
ATOM     69  C   UNL A   1      45.594  25.265  30.228  1.00  0.00     0.031 A 
BRANCH  56  70
ATOM     70  C   UNL A   1      43.840  22.749  25.768  1.00  0.00    -0.014 A 
ATOM     71  C   UNL A   1      43.827  21.351  25.610  1.00  0.00     0.009 A 
ATOM     72  C   UNL A   1      44.710  23.473  24.931  1.00  0.00     0.009 A 
ATOM     73  C   UNL A   1      44.672  20.713  24.692  1.00  0.00     0.001 A 
ATOM     74  C   UNL A   1      45.523  22.843  23.984  1.00  0.00     0.001 A 
ATOM     75  C   UNL A   1      45.520  21.460  23.881  1.00  0.00     0.000 A 
ENDBRANCH  56  70
BRANCH  57  76
ATOM     76  C   UNL A   1      47.035  30.392  27.687  1.00  0.00    -0.014 A 
ATOM     77  C   UNL A   1      46.479  31.368  26.850  1.00  0.00     0.009 A 
ATOM     78  C   UNL A   1      48.345  30.598  28.164  1.00  0.00     0.009 A 
ATOM     79  C   UNL A   1      47.194  32.530  26.533  1.00  0.00     0.001 A 
ATOM     80  C   UNL A   1      49.060  31.757  27.846  1.00  0.00     0.001 A 
ATOM     81  C   UNL A   1      48.476  32.731  27.043  1.00  0.00     0.000 A 
ENDBRANCH  57  76
BRANCH  69  82
ATOM     82  C   UNL A   1      45.324  25.836  31.602  1.00  0.00    -0.014 A 
ATOM     83  C   UNL A   1      46.071  25.468  32.735  1.00  0.00     0.009 A 
ATOM     84  C   UNL A   1      44.399  26.880  31.731  1.00  0.00     0.009 A 
ATOM     85  C   UNL A   1      45.880  26.104  33.966  1.00  0.00     0.001 A 
ATOM     86  C   UNL A   1      44.218  27.528  32.957  1.00  0.00     0.001 A 
ATOM     87  C   UNL A   1      44.954  27.137  34.074  1.00  0.00     0.000 A 
ENDBRANCH  69  82
ENDBRANCH  43  44
ENDBRANCH  35  38
ENDBRANCH  33  34
ENDBRANCH  32  33
ENDBRANCH  31  32
ENDBRANCH  30  31
ENDBRANCH   1  30
TORSDOF 17
ENDMDL
