MODEL 1
REMARK VINA RESULT:     -10.0      0.000      0.000
REMARK SMILES CCCCCCOC(=O)Nc1cccc(-c2ccc([C@@H](C)C(=O)NCCCCCCNC(=O)c3ccc(-c4c5nc(c(-c6ccccc6)c6ccc([nH]6)c(-c6ccccc6)c6nc(c(-c7ccccc7)c7ccc4[nH]7)C=C6)C=C5)cc3)cc2F)c1
REMARK SMILES IDX 22 1 23 2 24 3 20 5 21 6 19 7 16 8 17 9 83 10 18 11 82 12
REMARK SMILES IDX 84 13 15 14 11 15 12 16 85 17 13 18 14 19 10 20 8 21 9 22
REMARK SMILES IDX 7 24 6 25 5 26 4 27 3 28 2 29 1 30 25 31 26 32 27 33 28 34
REMARK SMILES IDX 29 35 30 36 31 37 32 38 33 40 34 41 35 42 81 43 36 44 80 45
REMARK SMILES IDX 37 46 38 47 39 48 74 49 40 50 79 51 73 52 75 53 41 54 78 55
REMARK SMILES IDX 72 56 71 57 42 59 64 60 49 61 63 62 50 63 53 64 62 65 76 66
REMARK SMILES IDX 51 67 52 68 61 70 77 71 54 72 43 73 44 74 48 75 45 76 47 77
REMARK SMILES IDX 46 78 65 79 66 80 70 81 67 82 69 83 68 84 55 85 56 86 60 87
REMARK SMILES IDX 57 88 59 89 58 90
REMARK H PARENT 24 4 10 23 31 39 75 58 53 69
REMARK Flexibility Score: inf
ROOT
ATOM      1  C   UNL A   1      35.804  31.922  29.731  1.00  0.00     0.227 C 
ATOM      2  O   UNL A   1      34.949  32.219  30.573  1.00  0.00    -0.274 OA
ATOM      3  N   UNL A   1      36.996  31.474  30.211  1.00  0.00    -0.356 N 
ATOM      4  H   UNL A   1      37.019  31.355  31.188  1.00  0.00     0.163 HD
ENDROOT
BRANCH   1   5
ATOM      5  C   UNL A   1      35.483  32.051  28.234  1.00  0.00     0.105 C 
ATOM      6  C   UNL A   1      35.013  33.444  27.819  1.00  0.00     0.023 C 
BRANCH   5   7
ATOM      7  C   UNL A   1      34.682  30.886  27.678  1.00  0.00    -0.033 A 
ATOM      8  C   UNL A   1      33.144  28.790  26.482  1.00  0.00     0.018 A 
ATOM      9  C   UNL A   1      34.445  28.565  26.955  1.00  0.00     0.012 A 
ATOM     10  C   UNL A   1      32.621  30.080  26.668  1.00  0.00     0.131 A 
ATOM     11  C   UNL A   1      35.185  29.585  27.570  1.00  0.00     0.005 A 
ATOM     12  C   UNL A   1      33.374  31.112  27.230  1.00  0.00     0.044 A 
ATOM     13  F   UNL A   1      31.359  30.364  26.308  1.00  0.00    -0.206 F 
BRANCH   8  14
ATOM     14  C   UNL A   1      32.376  27.714  25.819  1.00  0.00    -0.013 A 
ATOM     15  C   UNL A   1      31.813  26.461  23.791  1.00  0.00     0.045 A 
ATOM     16  C   UNL A   1      30.822  25.767  24.479  1.00  0.00     0.026 A 
ATOM     17  C   UNL A   1      32.591  27.410  24.464  1.00  0.00     0.035 A 
ATOM     18  C   UNL A   1      30.636  25.998  25.840  1.00  0.00     0.003 A 
ATOM     19  C   UNL A   1      31.397  26.968  26.499  1.00  0.00     0.009 A 
BRANCH  15  20
ATOM     20  N   UNL A   1      31.928  26.273  22.408  1.00  0.00    -0.291 N 
ATOM     21  C   UNL A   1      32.955  25.668  21.732  1.00  0.00     0.411 C 
ATOM     22  O   UNL A   1      33.198  25.944  20.571  1.00  0.00    -0.224 OA
ATOM     23  H   UNL A   1      31.185  26.614  21.858  1.00  0.00     0.173 HD
BRANCH  21  24
ATOM     24  O   UNL A   1      33.543  24.673  22.450  1.00  0.00    -0.449 OA
BRANCH  24  25
ATOM     25  C   UNL A   1      33.266  23.315  22.078  1.00  0.00     0.235 C 
BRANCH  25  26
ATOM     26  C   UNL A   1      32.664  22.511  23.236  1.00  0.00     0.042 C 
BRANCH  26  27
ATOM     27  C   UNL A   1      33.031  22.995  24.644  1.00  0.00     0.003 C 
BRANCH  27  28
ATOM     28  C   UNL A   1      32.186  22.395  25.776  1.00  0.00    -0.000 C 
BRANCH  28  29
ATOM     29  C   UNL A   1      32.527  22.907  27.175  1.00  0.00    -0.003 C 
ATOM     30  C   UNL A   1      33.845  22.359  27.696  1.00  0.00     0.004 C 
ENDBRANCH  28  29
ENDBRANCH  27  28
ENDBRANCH  26  27
ENDBRANCH  25  26
ENDBRANCH  24  25
ENDBRANCH  21  24
ENDBRANCH  15  20
ENDBRANCH   8  14
ENDBRANCH   5   7
ENDBRANCH   1   5
BRANCH   3  31
ATOM     31  C   UNL A   1      38.235  31.143  29.542  1.00  0.00     0.116 C 
BRANCH  31  32
ATOM     32  C   UNL A   1      38.433  29.629  29.438  1.00  0.00     0.021 C 
BRANCH  32  33
ATOM     33  C   UNL A   1      38.950  29.168  28.071  1.00  0.00     0.002 C 
BRANCH  33  34
ATOM     34  C   UNL A   1      40.082  28.133  28.121  1.00  0.00     0.002 C 
BRANCH  34  35
ATOM     35  C   UNL A   1      39.632  26.669  28.175  1.00  0.00     0.021 C 
BRANCH  35  36
ATOM     36  C   UNL A   1      39.823  25.900  26.872  1.00  0.00     0.116 C 
BRANCH  36  37
ATOM     37  N   UNL A   1      40.300  24.545  27.109  1.00  0.00    -0.352 N 
ATOM     38  C   UNL A   1      41.577  24.044  27.050  1.00  0.00     0.251 C 
ATOM     39  H   UNL A   1      39.603  23.891  27.345  1.00  0.00     0.163 HD
ATOM     40  O   UNL A   1      41.770  22.834  27.044  1.00  0.00    -0.269 OA
BRANCH  38  41
ATOM     41  C   UNL A   1      42.724  24.972  26.982  1.00  0.00     0.039 A 
ATOM     42  C   UNL A   1      43.159  25.427  25.735  1.00  0.00     0.014 A 
ATOM     43  C   UNL A   1      43.374  25.381  28.148  1.00  0.00     0.014 A 
ATOM     44  C   UNL A   1      44.204  26.351  25.662  1.00  0.00     0.010 A 
ATOM     45  C   UNL A   1      44.370  26.351  28.080  1.00  0.00     0.010 A 
ATOM     46  C   UNL A   1      44.792  26.848  26.837  1.00  0.00    -0.014 A 
BRANCH  46  47
ATOM     47  C   UNL A   1      45.837  27.900  26.795  1.00  0.00     0.031 A 
ATOM     48  C   UNL A   1      45.451  29.352  26.828  1.00  0.00     0.074 A 
ATOM     49  C   UNL A   1      47.128  27.547  26.645  1.00  0.00     0.049 A 
ATOM     50  N   UNL A   1      46.210  30.411  26.708  1.00  0.00    -0.248 NA
ATOM     51  C   UNL A   1      44.020  29.651  26.995  1.00  0.00     0.031 C 
ATOM     52  C   UNL A   1      47.631  26.174  26.575  1.00  0.00     0.029 A 
ATOM     53  N   UNL A   1      48.255  28.320  26.516  1.00  0.00    -0.354 N 
ATOM     54  C   UNL A   1      45.351  31.500  26.772  1.00  0.00     0.074 A 
ATOM     55  C   UNL A   1      44.009  30.972  26.891  1.00  0.00     0.031 C 
ATOM     56  C   UNL A   1      48.967  26.201  26.442  1.00  0.00     0.029 A 
ATOM     57  C   UNL A   1      49.409  27.589  26.371  1.00  0.00     0.049 A 
ATOM     58  H   UNL A   1      48.238  29.304  26.528  1.00  0.00     0.167 HD
ATOM     59  C   UNL A   1      45.651  32.820  26.749  1.00  0.00     0.031 A 
ATOM     60  C   UNL A   1      50.680  27.993  26.188  1.00  0.00     0.031 A 
ATOM     61  C   UNL A   1      46.986  33.345  26.630  1.00  0.00     0.049 A 
ATOM     62  C   UNL A   1      50.983  29.463  26.121  1.00  0.00     0.074 A 
ATOM     63  C   UNL A   1      47.398  34.665  26.643  1.00  0.00     0.029 A 
ATOM     64  N   UNL A   1      48.125  32.571  26.472  1.00  0.00    -0.354 N 
ATOM     65  N   UNL A   1      50.165  30.481  26.236  1.00  0.00    -0.248 NA
ATOM     66  C   UNL A   1      52.388  29.838  25.902  1.00  0.00     0.031 C 
ATOM     67  C   UNL A   1      48.782  34.692  26.441  1.00  0.00     0.029 A 
ATOM     68  C   UNL A   1      49.238  33.387  26.357  1.00  0.00     0.049 A 
ATOM     69  H   UNL A   1      48.141  31.587  26.443  1.00  0.00     0.167 HD
ATOM     70  C   UNL A   1      50.957  31.615  26.132  1.00  0.00     0.074 A 
ATOM     71  C   UNL A   1      52.322  31.162  25.957  1.00  0.00     0.031 C 
ATOM     72  C   UNL A   1      50.588  32.920  26.181  1.00  0.00     0.031 A 
BRANCH  59  73
ATOM     73  C   UNL A   1      44.505  33.788  26.844  1.00  0.00    -0.014 A 
ATOM     74  C   UNL A   1      43.884  34.296  25.692  1.00  0.00     0.009 A 
ATOM     75  C   UNL A   1      44.023  34.181  28.103  1.00  0.00     0.009 A 
ATOM     76  C   UNL A   1      42.832  35.209  25.798  1.00  0.00     0.001 A 
ATOM     77  C   UNL A   1      42.953  35.071  28.206  1.00  0.00     0.001 A 
ATOM     78  C   UNL A   1      42.366  35.593  27.054  1.00  0.00     0.000 A 
ENDBRANCH  59  73
BRANCH  60  79
ATOM     79  C   UNL A   1      51.769  26.988  26.069  1.00  0.00    -0.014 A 
ATOM     80  C   UNL A   1      52.030  26.372  24.835  1.00  0.00     0.009 A 
ATOM     81  C   UNL A   1      52.549  26.638  27.182  1.00  0.00     0.009 A 
ATOM     82  C   UNL A   1      53.037  25.409  24.725  1.00  0.00     0.001 A 
ATOM     83  C   UNL A   1      53.571  25.695  27.062  1.00  0.00     0.001 A 
ATOM     84  C   UNL A   1      53.809  25.074  25.836  1.00  0.00     0.000 A 
ENDBRANCH  60  79
BRANCH  72  85
ATOM     85  C   UNL A   1      51.679  33.947  26.076  1.00  0.00    -0.014 A 
ATOM     86  C   UNL A   1      52.096  34.442  24.830  1.00  0.00     0.009 A 
ATOM     87  C   UNL A   1      52.267  34.457  27.244  1.00  0.00     0.009 A 
ATOM     88  C   UNL A   1      53.101  35.409  24.757  1.00  0.00     0.001 A 
ATOM     89  C   UNL A   1      53.252  35.443  27.169  1.00  0.00     0.001 A 
ATOM     90  C   UNL A   1      53.672  35.912  25.926  1.00  0.00     0.000 A 
ENDBRANCH  72  85
ENDBRANCH  46  47
ENDBRANCH  38  41
ENDBRANCH  36  37
ENDBRANCH  35  36
ENDBRANCH  34  35
ENDBRANCH  33  34
ENDBRANCH  32  33
ENDBRANCH  31  32
ENDBRANCH   3  31
TORSDOF 22
ENDMDL
MODEL 2
REMARK VINA RESULT:      -9.9      0.754      5.635
REMARK SMILES CCCCCCOC(=O)Nc1cccc(-c2ccc([C@@H](C)C(=O)NCCCCCCNC(=O)c3ccc(-c4c5nc(c(-c6ccccc6)c6ccc([nH]6)c(-c6ccccc6)c6nc(c(-c7ccccc7)c7ccc4[nH]7)C=C6)C=C5)cc3)cc2F)c1
REMARK SMILES IDX 22 1 23 2 24 3 20 5 21 6 19 7 16 8 17 9 83 10 18 11 82 12
REMARK SMILES IDX 84 13 15 14 11 15 12 16 85 17 13 18 14 19 10 20 8 21 9 22
REMARK SMILES IDX 7 24 6 25 5 26 4 27 3 28 2 29 1 30 25 31 26 32 27 33 28 34
REMARK SMILES IDX 29 35 30 36 31 37 32 38 33 40 34 41 35 42 81 43 36 44 80 45
REMARK SMILES IDX 37 46 38 47 39 48 74 49 40 50 79 51 73 52 75 53 41 54 78 55
REMARK SMILES IDX 72 56 71 57 42 59 64 60 49 61 63 62 50 63 53 64 62 65 76 66
REMARK SMILES IDX 51 67 52 68 61 70 77 71 54 72 43 73 44 74 48 75 45 76 47 77
REMARK SMILES IDX 46 78 65 79 66 80 70 81 67 82 69 83 68 84 55 85 56 86 60 87
REMARK SMILES IDX 57 88 59 89 58 90
REMARK H PARENT 24 4 10 23 31 39 75 58 53 69
REMARK Flexibility Score: inf
ROOT
ATOM      1  C   UNL A   1      36.213  31.708  29.700  1.00  0.00     0.227 C 
ATOM      2  O   UNL A   1      35.467  31.976  30.649  1.00  0.00    -0.274 OA
ATOM      3  N   UNL A   1      37.436  31.205  30.015  1.00  0.00    -0.356 N 
ATOM      4  H   UNL A   1      37.566  31.028  30.975  1.00  0.00     0.163 HD
ENDROOT
BRANCH   1   5
ATOM      5  C   UNL A   1      35.730  31.933  28.258  1.00  0.00     0.105 C 
ATOM      6  C   UNL A   1      35.204  33.343  27.993  1.00  0.00     0.023 C 
BRANCH   5   7
ATOM      7  C   UNL A   1      34.884  30.794  27.713  1.00  0.00    -0.033 A 
ATOM      8  C   UNL A   1      33.243  28.758  26.550  1.00  0.00     0.018 A 
ATOM      9  C   UNL A   1      34.593  28.528  26.851  1.00  0.00     0.012 A 
ATOM     10  C   UNL A   1      32.730  30.021  26.889  1.00  0.00     0.131 A 
ATOM     11  C   UNL A   1      35.387  29.515  27.450  1.00  0.00     0.005 A 
ATOM     12  C   UNL A   1      33.530  31.025  27.436  1.00  0.00     0.044 A 
ATOM     13  F   UNL A   1      31.431  30.304  26.700  1.00  0.00    -0.206 F 
BRANCH   8  14
ATOM     14  C   UNL A   1      32.417  27.718  25.901  1.00  0.00    -0.013 A 
ATOM     15  C   UNL A   1      31.826  26.429  23.903  1.00  0.00     0.045 A 
ATOM     16  C   UNL A   1      30.762  25.842  24.581  1.00  0.00     0.026 A 
ATOM     17  C   UNL A   1      32.652  27.343  24.567  1.00  0.00     0.035 A 
ATOM     18  C   UNL A   1      30.550  26.141  25.925  1.00  0.00     0.003 A 
ATOM     19  C   UNL A   1      31.361  27.077  26.573  1.00  0.00     0.009 A 
BRANCH  15  20
ATOM     20  N   UNL A   1      31.971  26.176  22.533  1.00  0.00    -0.291 N 
ATOM     21  C   UNL A   1      33.098  25.749  21.880  1.00  0.00     0.411 C 
ATOM     22  O   UNL A   1      33.275  25.991  20.700  1.00  0.00    -0.224 OA
ATOM     23  H   UNL A   1      31.172  26.321  21.976  1.00  0.00     0.173 HD
BRANCH  21  24
ATOM     24  O   UNL A   1      33.879  24.946  22.651  1.00  0.00    -0.449 OA
BRANCH  24  25
ATOM     25  C   UNL A   1      33.603  23.537  22.656  1.00  0.00     0.235 C 
BRANCH  25  26
ATOM     26  C   UNL A   1      33.261  23.021  24.058  1.00  0.00     0.042 C 
BRANCH  26  27
ATOM     27  C   UNL A   1      34.443  22.890  25.026  1.00  0.00     0.003 C 
BRANCH  27  28
ATOM     28  C   UNL A   1      34.778  21.454  25.450  1.00  0.00    -0.000 C 
BRANCH  28  29
ATOM     29  C   UNL A   1      36.081  20.899  24.877  1.00  0.00    -0.003 C 
ATOM     30  C   UNL A   1      36.957  21.977  24.262  1.00  0.00     0.004 C 
ENDBRANCH  28  29
ENDBRANCH  27  28
ENDBRANCH  26  27
ENDBRANCH  25  26
ENDBRANCH  24  25
ENDBRANCH  21  24
ENDBRANCH  15  20
ENDBRANCH   8  14
ENDBRANCH   5   7
ENDBRANCH   1   5
BRANCH   3  31
ATOM     31  C   UNL A   1      38.582  30.883  29.191  1.00  0.00     0.116 C 
BRANCH  31  32
ATOM     32  C   UNL A   1      38.750  29.372  29.024  1.00  0.00     0.021 C 
BRANCH  32  33
ATOM     33  C   UNL A   1      39.432  28.970  27.711  1.00  0.00     0.002 C 
BRANCH  33  34
ATOM     34  C   UNL A   1      40.359  27.752  27.808  1.00  0.00     0.002 C 
BRANCH  34  35
ATOM     35  C   UNL A   1      39.659  26.410  28.049  1.00  0.00     0.021 C 
BRANCH  35  36
ATOM     36  C   UNL A   1      39.835  25.394  26.924  1.00  0.00     0.116 C 
BRANCH  36  37
ATOM     37  N   UNL A   1      40.405  24.145  27.408  1.00  0.00    -0.352 N 
ATOM     38  C   UNL A   1      41.718  23.751  27.475  1.00  0.00     0.251 C 
ATOM     39  H   UNL A   1      39.751  23.485  27.736  1.00  0.00     0.163 HD
ATOM     40  O   UNL A   1      42.005  22.578  27.687  1.00  0.00    -0.269 OA
BRANCH  38  41
ATOM     41  C   UNL A   1      42.792  24.746  27.277  1.00  0.00     0.039 A 
ATOM     42  C   UNL A   1      43.164  25.097  25.978  1.00  0.00     0.014 A 
ATOM     43  C   UNL A   1      43.435  25.321  28.376  1.00  0.00     0.014 A 
ATOM     44  C   UNL A   1      44.136  26.082  25.780  1.00  0.00     0.010 A 
ATOM     45  C   UNL A   1      44.355  26.347  28.178  1.00  0.00     0.010 A 
ATOM     46  C   UNL A   1      44.711  26.739  26.879  1.00  0.00    -0.014 A 
BRANCH  46  47
ATOM     47  C   UNL A   1      45.673  27.853  26.698  1.00  0.00     0.031 A 
ATOM     48  C   UNL A   1      47.141  27.568  26.548  1.00  0.00     0.074 A 
ATOM     49  C   UNL A   1      45.235  29.126  26.750  1.00  0.00     0.049 A 
ATOM     50  N   UNL A   1      48.142  28.408  26.472  1.00  0.00    -0.248 NA
ATOM     51  C   UNL A   1      47.537  26.151  26.499  1.00  0.00     0.031 C 
ATOM     52  C   UNL A   1      43.839  29.536  26.915  1.00  0.00     0.029 A 
ATOM     53  N   UNL A   1      45.922  30.311  26.676  1.00  0.00    -0.354 N 
ATOM     54  C   UNL A   1      49.285  27.624  26.381  1.00  0.00     0.074 A 
ATOM     55  C   UNL A   1      48.859  26.244  26.460  1.00  0.00     0.031 C 
ATOM     56  C   UNL A   1      43.772  30.877  26.905  1.00  0.00     0.029 A 
ATOM     57  C   UNL A   1      45.120  31.420  26.779  1.00  0.00     0.049 A 
ATOM     58  H   UNL A   1      46.899  30.361  26.559  1.00  0.00     0.167 HD
ATOM     59  C   UNL A   1      50.573  28.016  26.229  1.00  0.00     0.031 A 
ATOM     60  C   UNL A   1      45.435  32.729  26.783  1.00  0.00     0.031 A 
ATOM     61  C   UNL A   1      50.997  29.389  26.150  1.00  0.00     0.049 A 
ATOM     62  C   UNL A   1      46.875  33.139  26.658  1.00  0.00     0.074 A 
ATOM     63  C   UNL A   1      52.272  29.888  25.951  1.00  0.00     0.029 A 
ATOM     64  N   UNL A   1      50.153  30.482  26.272  1.00  0.00    -0.354 N 
ATOM     65  N   UNL A   1      47.939  32.386  26.519  1.00  0.00    -0.248 NA
ATOM     66  C   UNL A   1      47.156  34.581  26.687  1.00  0.00     0.031 C 
ATOM     67  C   UNL A   1      52.207  31.284  26.004  1.00  0.00     0.029 A 
ATOM     68  C   UNL A   1      50.884  31.654  26.181  1.00  0.00     0.049 A 
ATOM     69  H   UNL A   1      49.179  30.433  26.405  1.00  0.00     0.167 HD
ATOM     70  C   UNL A   1      49.011  33.261  26.416  1.00  0.00     0.074 A 
ATOM     71  C   UNL A   1      48.468  34.602  26.496  1.00  0.00     0.031 C 
ATOM     72  C   UNL A   1      50.329  32.981  26.265  1.00  0.00     0.031 A 
BRANCH  59  73
ATOM     73  C   UNL A   1      51.616  26.937  26.148  1.00  0.00    -0.014 A 
ATOM     74  C   UNL A   1      52.318  26.517  27.290  1.00  0.00     0.009 A 
ATOM     75  C   UNL A   1      51.884  26.312  24.920  1.00  0.00     0.009 A 
ATOM     76  C   UNL A   1      53.297  25.526  27.194  1.00  0.00     0.001 A 
ATOM     77  C   UNL A   1      52.843  25.301  24.833  1.00  0.00     0.001 A 
ATOM     78  C   UNL A   1      53.557  24.917  25.968  1.00  0.00     0.000 A 
ENDBRANCH  59  73
BRANCH  60  79
ATOM     79  C   UNL A   1      44.363  33.751  26.896  1.00  0.00    -0.014 A 
ATOM     80  C   UNL A   1      43.792  34.308  25.741  1.00  0.00     0.009 A 
ATOM     81  C   UNL A   1      43.907  34.179  28.153  1.00  0.00     0.009 A 
ATOM     82  C   UNL A   1      42.801  35.288  25.844  1.00  0.00     0.001 A 
ATOM     83  C   UNL A   1      42.898  35.139  28.252  1.00  0.00     0.001 A 
ATOM     84  C   UNL A   1      42.352  35.699  27.097  1.00  0.00     0.000 A 
ENDBRANCH  60  79
BRANCH  72  85
ATOM     85  C   UNL A   1      51.270  34.145  26.144  1.00  0.00    -0.014 A 
ATOM     86  C   UNL A   1      51.919  34.678  27.268  1.00  0.00     0.009 A 
ATOM     87  C   UNL A   1      51.544  34.688  24.878  1.00  0.00     0.009 A 
ATOM     88  C   UNL A   1      52.802  35.750  27.130  1.00  0.00     0.001 A 
ATOM     89  C   UNL A   1      52.448  35.742  24.740  1.00  0.00     0.001 A 
ATOM     90  C   UNL A   1      53.070  36.276  25.866  1.00  0.00     0.000 A 
ENDBRANCH  72  85
ENDBRANCH  46  47
ENDBRANCH  38  41
ENDBRANCH  36  37
ENDBRANCH  35  36
ENDBRANCH  34  35
ENDBRANCH  33  34
ENDBRANCH  32  33
ENDBRANCH  31  32
ENDBRANCH   3  31
TORSDOF 22
ENDMDL
MODEL 3
REMARK VINA RESULT:      -9.9      5.570     11.738
REMARK SMILES CCCCCCOC(=O)Nc1cccc(-c2ccc([C@@H](C)C(=O)NCCCCCCNC(=O)c3ccc(-c4c5nc(c(-c6ccccc6)c6ccc([nH]6)c(-c6ccccc6)c6nc(c(-c7ccccc7)c7ccc4[nH]7)C=C6)C=C5)cc3)cc2F)c1
REMARK SMILES IDX 22 1 23 2 24 3 20 5 21 6 19 7 16 8 17 9 83 10 18 11 82 12
REMARK SMILES IDX 84 13 15 14 11 15 12 16 85 17 13 18 14 19 10 20 8 21 9 22
REMARK SMILES IDX 7 24 6 25 5 26 4 27 3 28 2 29 1 30 25 31 26 32 27 33 28 34
REMARK SMILES IDX 29 35 30 36 31 37 32 38 33 40 34 41 35 42 81 43 36 44 80 45
REMARK SMILES IDX 37 46 38 47 39 48 74 49 40 50 79 51 73 52 75 53 41 54 78 55
REMARK SMILES IDX 72 56 71 57 42 59 64 60 49 61 63 62 50 63 53 64 62 65 76 66
REMARK SMILES IDX 51 67 52 68 61 70 77 71 54 72 43 73 44 74 48 75 45 76 47 77
REMARK SMILES IDX 46 78 65 79 66 80 70 81 67 82 69 83 68 84 55 85 56 86 60 87
REMARK SMILES IDX 57 88 59 89 58 90
REMARK H PARENT 24 4 10 23 31 39 75 58 53 69
REMARK Flexibility Score: inf
ROOT
ATOM      1  C   UNL A   1      33.694  22.477  25.392  1.00  0.00     0.227 C 
ATOM      2  O   UNL A   1      33.899  21.459  26.061  1.00  0.00    -0.274 OA
ATOM      3  N   UNL A   1      32.438  22.998  25.452  1.00  0.00    -0.356 N 
ATOM      4  H   UNL A   1      31.845  22.549  26.097  1.00  0.00     0.163 HD
ENDROOT
BRANCH   1   5
ATOM      5  C   UNL A   1      34.833  23.094  24.566  1.00  0.00     0.105 C 
ATOM      6  C   UNL A   1      34.723  22.832  23.065  1.00  0.00     0.023 C 
BRANCH   5   7
ATOM      7  C   UNL A   1      36.210  22.893  25.178  1.00  0.00    -0.033 A 
ATOM      8  C   UNL A   1      38.860  22.460  26.167  1.00  0.00     0.018 A 
ATOM      9  C   UNL A   1      38.207  23.689  26.336  1.00  0.00     0.012 A 
ATOM     10  C   UNL A   1      38.131  21.443  25.530  1.00  0.00     0.131 A 
ATOM     11  C   UNL A   1      36.896  23.889  25.880  1.00  0.00     0.005 A 
ATOM     12  C   UNL A   1      36.847  21.654  25.026  1.00  0.00     0.044 A 
ATOM     13  F   UNL A   1      38.653  20.214  25.388  1.00  0.00    -0.206 F 
BRANCH   8  14
ATOM     14  C   UNL A   1      40.248  22.262  26.636  1.00  0.00    -0.013 A 
ATOM     15  C   UNL A   1      42.508  21.401  26.246  1.00  0.00     0.045 A 
ATOM     16  C   UNL A   1      42.872  21.730  27.549  1.00  0.00     0.026 A 
ATOM     17  C   UNL A   1      41.213  21.682  25.796  1.00  0.00     0.035 A 
ATOM     18  C   UNL A   1      41.957  22.371  28.380  1.00  0.00     0.003 A 
ATOM     19  C   UNL A   1      40.656  22.623  27.932  1.00  0.00     0.009 A 
BRANCH  15  20
ATOM     20  N   UNL A   1      43.416  20.685  25.456  1.00  0.00    -0.291 N 
ATOM     21  C   UNL A   1      44.183  21.166  24.427  1.00  0.00     0.411 C 
ATOM     22  O   UNL A   1      44.571  20.435  23.532  1.00  0.00    -0.224 OA
ATOM     23  H   UNL A   1      43.516  19.728  25.664  1.00  0.00     0.173 HD
BRANCH  21  24
ATOM     24  O   UNL A   1      44.546  22.465  24.604  1.00  0.00    -0.449 OA
BRANCH  24  25
ATOM     25  C   UNL A   1      45.943  22.763  24.747  1.00  0.00     0.235 C 
BRANCH  25  26
ATOM     26  C   UNL A   1      46.193  24.259  24.969  1.00  0.00     0.042 C 
BRANCH  26  27
ATOM     27  C   UNL A   1      47.033  24.618  26.201  1.00  0.00     0.003 C 
BRANCH  27  28
ATOM     28  C   UNL A   1      46.308  25.461  27.258  1.00  0.00    -0.000 C 
BRANCH  28  29
ATOM     29  C   UNL A   1      46.289  24.858  28.661  1.00  0.00    -0.003 C 
ATOM     30  C   UNL A   1      44.910  24.368  29.071  1.00  0.00     0.004 C 
ENDBRANCH  28  29
ENDBRANCH  27  28
ENDBRANCH  26  27
ENDBRANCH  25  26
ENDBRANCH  24  25
ENDBRANCH  21  24
ENDBRANCH  15  20
ENDBRANCH   8  14
ENDBRANCH   5   7
ENDBRANCH   1   5
BRANCH   3  31
ATOM     31  C   UNL A   1      31.819  24.094  24.738  1.00  0.00     0.116 C 
BRANCH  31  32
ATOM     32  C   UNL A   1      32.335  25.449  25.227  1.00  0.00     0.021 C 
BRANCH  32  33
ATOM     33  C   UNL A   1      31.402  26.137  26.229  1.00  0.00     0.002 C 
BRANCH  33  34
ATOM     34  C   UNL A   1      31.647  27.639  26.419  1.00  0.00     0.002 C 
BRANCH  34  35
ATOM     35  C   UNL A   1      31.885  28.435  25.131  1.00  0.00     0.021 C 
BRANCH  35  36
ATOM     36  C   UNL A   1      32.940  29.530  25.250  1.00  0.00     0.116 C 
BRANCH  36  37
ATOM     37  N   UNL A   1      32.379  30.766  25.777  1.00  0.00    -0.352 N 
ATOM     38  C   UNL A   1      32.765  31.507  26.866  1.00  0.00     0.251 C 
ATOM     39  H   UNL A   1      31.608  31.122  25.278  1.00  0.00     0.163 HD
ATOM     40  O   UNL A   1      32.037  32.389  27.307  1.00  0.00    -0.269 OA
BRANCH  38  41
ATOM     41  C   UNL A   1      34.062  31.230  27.517  1.00  0.00     0.039 A 
ATOM     42  C   UNL A   1      34.905  32.297  27.837  1.00  0.00     0.014 A 
ATOM     43  C   UNL A   1      34.447  29.917  27.797  1.00  0.00     0.014 A 
ATOM     44  C   UNL A   1      36.106  32.051  28.507  1.00  0.00     0.010 A 
ATOM     45  C   UNL A   1      35.612  29.679  28.522  1.00  0.00     0.010 A 
ATOM     46  C   UNL A   1      36.450  30.744  28.887  1.00  0.00    -0.014 A 
BRANCH  46  47
ATOM     47  C   UNL A   1      37.671  30.464  29.681  1.00  0.00     0.031 A 
ATOM     48  C   UNL A   1      38.807  29.689  29.075  1.00  0.00     0.074 A 
ATOM     49  C   UNL A   1      37.722  30.839  30.974  1.00  0.00     0.049 A 
ATOM     50  N   UNL A   1      39.912  29.268  29.637  1.00  0.00    -0.248 NA
ATOM     51  C   UNL A   1      38.672  29.320  27.657  1.00  0.00     0.031 C 
ATOM     52  C   UNL A   1      36.676  31.575  31.687  1.00  0.00     0.029 A 
ATOM     53  N   UNL A   1      38.695  30.643  31.922  1.00  0.00    -0.354 N 
ATOM     54  C   UNL A   1      40.596  28.575  28.648  1.00  0.00     0.074 A 
ATOM     55  C   UNL A   1      39.761  28.588  27.467  1.00  0.00     0.031 C 
ATOM     56  C   UNL A   1      37.074  31.790  32.951  1.00  0.00     0.029 A 
ATOM     57  C   UNL A   1      38.379  31.169  33.151  1.00  0.00     0.049 A 
ATOM     58  H   UNL A   1      39.540  30.171  31.739  1.00  0.00     0.167 HD
ATOM     59  C   UNL A   1      41.817  27.991  28.711  1.00  0.00     0.031 A 
ATOM     60  C   UNL A   1      39.060  31.145  34.312  1.00  0.00     0.031 A 
ATOM     61  C   UNL A   1      42.648  27.978  29.886  1.00  0.00     0.049 A 
ATOM     62  C   UNL A   1      40.392  30.452  34.369  1.00  0.00     0.074 A 
ATOM     63  C   UNL A   1      43.919  27.453  30.038  1.00  0.00     0.029 A 
ATOM     64  N   UNL A   1      42.285  28.511  31.114  1.00  0.00    -0.354 N 
ATOM     65  N   UNL A   1      41.050  29.847  33.410  1.00  0.00    -0.248 NA
ATOM     66  C   UNL A   1      41.077  30.445  35.670  1.00  0.00     0.031 C 
ATOM     67  C   UNL A   1      44.305  27.623  31.372  1.00  0.00     0.029 A 
ATOM     68  C   UNL A   1      43.296  28.302  32.036  1.00  0.00     0.049 A 
ATOM     69  H   UNL A   1      41.434  28.968  31.302  1.00  0.00     0.167 HD
ATOM     70  C   UNL A   1      42.237  29.411  33.984  1.00  0.00     0.074 A 
ATOM     71  C   UNL A   1      42.214  29.832  35.369  1.00  0.00     0.031 C 
ATOM     72  C   UNL A   1      43.257  28.725  33.412  1.00  0.00     0.031 A 
BRANCH  59  73
ATOM     73  C   UNL A   1      42.320  27.310  27.469  1.00  0.00    -0.014 A 
ATOM     74  C   UNL A   1      43.088  28.003  26.520  1.00  0.00     0.009 A 
ATOM     75  C   UNL A   1      42.043  25.951  27.255  1.00  0.00     0.009 A 
ATOM     76  C   UNL A   1      43.531  27.360  25.362  1.00  0.00     0.001 A 
ATOM     77  C   UNL A   1      42.513  25.303  26.111  1.00  0.00     0.001 A 
ATOM     78  C   UNL A   1      43.246  26.011  25.160  1.00  0.00     0.000 A 
ENDBRANCH  59  73
BRANCH  60  79
ATOM     79  C   UNL A   1      38.499  31.809  35.516  1.00  0.00    -0.014 A 
ATOM     80  C   UNL A   1      38.136  31.049  36.639  1.00  0.00     0.009 A 
ATOM     81  C   UNL A   1      38.320  33.201  35.552  1.00  0.00     0.009 A 
ATOM     82  C   UNL A   1      37.585  31.667  37.764  1.00  0.00     0.001 A 
ATOM     83  C   UNL A   1      37.794  33.819  36.688  1.00  0.00     0.001 A 
ATOM     84  C   UNL A   1      37.418  33.051  37.790  1.00  0.00     0.000 A 
ENDBRANCH  60  79
BRANCH  72  85
ATOM     85  C   UNL A   1      44.447  28.417  34.276  1.00  0.00    -0.014 A 
ATOM     86  C   UNL A   1      44.532  27.215  34.996  1.00  0.00     0.009 A 
ATOM     87  C   UNL A   1      45.516  29.324  34.334  1.00  0.00     0.009 A 
ATOM     88  C   UNL A   1      45.655  26.942  35.780  1.00  0.00     0.001 A 
ATOM     89  C   UNL A   1      46.649  29.036  35.097  1.00  0.00     0.001 A 
ATOM     90  C   UNL A   1      46.713  27.849  35.825  1.00  0.00     0.000 A 
ENDBRANCH  72  85
ENDBRANCH  46  47
ENDBRANCH  38  41
ENDBRANCH  36  37
ENDBRANCH  35  36
ENDBRANCH  34  35
ENDBRANCH  33  34
ENDBRANCH  32  33
ENDBRANCH  31  32
ENDBRANCH   3  31
TORSDOF 22
ENDMDL
