MODEL 1
REMARK VINA RESULT:     -11.3      0.000      0.000
REMARK SMILES O=C(NCc1ccc(C(=O)NCCCCCCNC(=O)c2ccc(-c3c4nc(c(-c5ccccc5)c5ccc([nH]5)c(-c5ccccc5)c5nc(c(-c6ccccc6)c6ccc3[nH]6)C=C5)C=C4)cc2)o1)Nc1ccc(F)c(Cl)c1
REMARK SMILES IDX 14 1 13 2 12 3 11 4 9 5 10 6 8 8 5 9 6 10 69 11 7 12 4 13
REMARK SMILES IDX 3 14 1 15 2 16 70 17 71 20 72 21 78 22 73 23 76 24 74 25
REMARK SMILES IDX 77 26 75 27 15 28 16 29 17 30 18 31 19 32 20 34 21 35 22 36
REMARK SMILES IDX 68 37 23 38 67 39 24 40 25 41 26 42 61 43 27 44 66 45 60 46
REMARK SMILES IDX 62 47 28 48 65 49 59 50 58 51 29 53 51 54 36 55 50 56 37 57
REMARK SMILES IDX 40 58 49 59 63 60 38 61 39 62 48 64 64 65 41 66 30 67 31 68
REMARK SMILES IDX 35 69 32 70 34 71 33 72 52 73 53 74 57 75 54 76 56 77 55 78
REMARK SMILES IDX 42 79 43 80 47 81 44 82 46 83 45 84
REMARK H PARENT 11 7 3 18 70 19 18 33 62 52 40 63
REMARK Flexibility Score: inf
ROOT
ATOM      1  C   UNL A   1      33.964  27.265  23.719  1.00  0.00     0.002 C 
ENDROOT
BRANCH   1   2
ATOM      2  C   UNL A   1      33.466  28.350  22.753  1.00  0.00     0.021 C 
BRANCH   2   3
ATOM      3  C   UNL A   1      32.449  29.298  23.387  1.00  0.00     0.116 C 
BRANCH   3   4
ATOM      4  N   UNL A   1      31.419  29.650  22.440  1.00  0.00    -0.349 N 
ATOM      5  C   UNL A   1      30.189  29.102  22.164  1.00  0.00     0.286 C 
ATOM      6  O   UNL A   1      29.552  29.680  21.280  1.00  0.00    -0.266 OA
ATOM      7  H   UNL A   1      31.638  30.434  21.886  1.00  0.00     0.163 HD
BRANCH   5   8
ATOM      8  C   UNL A   1      29.676  27.941  22.872  1.00  0.00     0.191 A 
ATOM      9  C   UNL A   1      29.906  25.860  23.622  1.00  0.00     0.124 A 
ATOM     10  C   UNL A   1      28.647  26.264  23.992  1.00  0.00     0.048 A 
ATOM     11  O   UNL A   1      30.528  26.862  22.944  1.00  0.00    -0.454 OA
ATOM     12  C   UNL A   1      28.518  27.606  23.554  1.00  0.00     0.056 A 
BRANCH   9  13
ATOM     13  C   UNL A   1      30.687  24.623  23.878  1.00  0.00     0.193 C 
BRANCH  13  14
ATOM     14  N   UNL A   1      31.691  24.439  22.855  1.00  0.00    -0.331 N 
ATOM     15  O   UNL A   1      33.692  24.053  21.974  1.00  0.00    -0.248 OA
ATOM     16  C   UNL A   1      32.961  23.966  22.956  1.00  0.00     0.319 C 
ATOM     17  N   UNL A   1      33.302  23.405  24.157  1.00  0.00    -0.308 N 
ATOM     18  H   UNL A   1      31.411  24.694  21.946  1.00  0.00     0.165 HD
ATOM     19  H   UNL A   1      32.564  23.212  24.779  1.00  0.00     0.171 HD
BRANCH  17  20
ATOM     20  C   UNL A   1      34.600  23.076  24.595  1.00  0.00     0.044 A 
ATOM     21  C   UNL A   1      35.402  24.124  25.071  1.00  0.00     0.029 A 
ATOM     22  C   UNL A   1      35.124  21.780  24.547  1.00  0.00     0.049 A 
ATOM     23  C   UNL A   1      36.697  23.871  25.530  1.00  0.00     0.043 A 
ATOM     24  C   UNL A   1      36.422  21.531  24.997  1.00  0.00     0.078 A 
ATOM     25  C   UNL A   1      37.199  22.576  25.494  1.00  0.00     0.141 A 
ATOM     26  Cl  UNL A   1      37.055  19.932  24.926  1.00  0.00    -0.081 Cl
ATOM     27  F   UNL A   1      38.443  22.356  25.943  1.00  0.00    -0.205 F 
ENDBRANCH  17  20
ENDBRANCH  13  14
ENDBRANCH   9  13
ENDBRANCH   5   8
ENDBRANCH   3   4
ENDBRANCH   2   3
ENDBRANCH   1   2
BRANCH   1  28
ATOM     28  C   UNL A   1      33.407  27.363  25.145  1.00  0.00     0.002 C 
BRANCH  28  29
ATOM     29  C   UNL A   1      34.248  28.201  26.110  1.00  0.00     0.021 C 
BRANCH  29  30
ATOM     30  C   UNL A   1      33.527  28.564  27.404  1.00  0.00     0.116 C 
BRANCH  30  31
ATOM     31  N   UNL A   1      33.547  29.997  27.645  1.00  0.00    -0.352 N 
ATOM     32  C   UNL A   1      34.536  30.764  28.211  1.00  0.00     0.251 C 
ATOM     33  H   UNL A   1      32.741  30.487  27.364  1.00  0.00     0.163 HD
ATOM     34  O   UNL A   1      34.313  31.918  28.552  1.00  0.00    -0.269 OA
BRANCH  32  35
ATOM     35  C   UNL A   1      35.876  30.176  28.414  1.00  0.00     0.039 A 
ATOM     36  C   UNL A   1      36.817  30.251  27.385  1.00  0.00     0.014 A 
ATOM     37  C   UNL A   1      36.196  29.558  29.626  1.00  0.00     0.014 A 
ATOM     38  C   UNL A   1      38.105  29.753  27.593  1.00  0.00     0.010 A 
ATOM     39  C   UNL A   1      37.499  29.134  29.858  1.00  0.00     0.010 A 
ATOM     40  C   UNL A   1      38.464  29.219  28.841  1.00  0.00    -0.014 A 
BRANCH  40  41
ATOM     41  C   UNL A   1      39.833  28.719  29.112  1.00  0.00     0.031 A 
ATOM     42  C   UNL A   1      40.854  29.637  29.723  1.00  0.00     0.074 A 
ATOM     43  C   UNL A   1      40.180  27.474  28.736  1.00  0.00     0.049 A 
ATOM     44  N   UNL A   1      42.130  29.433  29.931  1.00  0.00    -0.248 NA
ATOM     45  C   UNL A   1      40.385  30.973  30.125  1.00  0.00     0.031 C 
ATOM     46  C   UNL A   1      39.287  26.493  28.114  1.00  0.00     0.029 A 
ATOM     47  N   UNL A   1      41.387  26.823  28.811  1.00  0.00    -0.354 N 
ATOM     48  C   UNL A   1      42.618  30.619  30.466  1.00  0.00     0.074 A 
ATOM     49  C   UNL A   1      41.514  31.554  30.500  1.00  0.00     0.031 C 
ATOM     50  C   UNL A   1      39.972  25.360  27.886  1.00  0.00     0.029 A 
ATOM     51  C   UNL A   1      41.359  25.551  28.297  1.00  0.00     0.049 A 
ATOM     52  H   UNL A   1      42.195  27.232  29.196  1.00  0.00     0.167 HD
ATOM     53  C   UNL A   1      43.866  30.901  30.906  1.00  0.00     0.031 A 
ATOM     54  C   UNL A   1      42.344  24.643  28.159  1.00  0.00     0.031 A 
ATOM     55  C   UNL A   1      44.959  29.967  30.877  1.00  0.00     0.049 A 
ATOM     56  C   UNL A   1      43.732  24.990  28.621  1.00  0.00     0.074 A 
ATOM     57  C   UNL A   1      46.252  30.138  31.341  1.00  0.00     0.029 A 
ATOM     58  N   UNL A   1      44.888  28.686  30.351  1.00  0.00    -0.354 N 
ATOM     59  N   UNL A   1      44.167  26.098  29.172  1.00  0.00    -0.248 NA
ATOM     60  C   UNL A   1      44.765  23.959  28.449  1.00  0.00     0.031 C 
ATOM     61  C   UNL A   1      46.978  28.981  31.043  1.00  0.00     0.029 A 
ATOM     62  C   UNL A   1      46.120  28.064  30.455  1.00  0.00     0.049 A 
ATOM     63  H   UNL A   1      44.081  28.279  29.960  1.00  0.00     0.167 HD
ATOM     64  C   UNL A   1      45.512  25.882  29.448  1.00  0.00     0.074 A 
ATOM     65  C   UNL A   1      45.818  24.537  29.009  1.00  0.00     0.031 C 
ATOM     66  C   UNL A   1      46.408  26.722  30.020  1.00  0.00     0.031 A 
BRANCH  53  67
ATOM     67  C   UNL A   1      44.115  32.284  31.443  1.00  0.00    -0.014 A 
ATOM     68  C   UNL A   1      44.548  33.326  30.607  1.00  0.00     0.009 A 
ATOM     69  C   UNL A   1      43.892  32.554  32.803  1.00  0.00     0.009 A 
ATOM     70  C   UNL A   1      44.797  34.596  31.130  1.00  0.00     0.001 A 
ATOM     71  C   UNL A   1      44.110  33.834  33.316  1.00  0.00     0.001 A 
ATOM     72  C   UNL A   1      44.574  34.850  32.483  1.00  0.00     0.000 A 
ENDBRANCH  53  67
BRANCH  54  73
ATOM     73  C   UNL A   1      42.051  23.310  27.568  1.00  0.00    -0.014 A 
ATOM     74  C   UNL A   1      42.381  23.037  26.232  1.00  0.00     0.009 A 
ATOM     75  C   UNL A   1      41.438  22.305  28.334  1.00  0.00     0.009 A 
ATOM     76  C   UNL A   1      42.080  21.795  25.668  1.00  0.00     0.001 A 
ATOM     77  C   UNL A   1      41.166  21.055  27.776  1.00  0.00     0.001 A 
ATOM     78  C   UNL A   1      41.477  20.804  26.440  1.00  0.00     0.000 A 
ENDBRANCH  54  73
BRANCH  66  79
ATOM     79  C   UNL A   1      47.797  26.196  30.256  1.00  0.00    -0.014 A 
ATOM     80  C   UNL A   1      48.769  26.210  29.244  1.00  0.00     0.009 A 
ATOM     81  C   UNL A   1      48.152  25.740  31.535  1.00  0.00     0.009 A 
ATOM     82  C   UNL A   1      50.062  25.751  29.505  1.00  0.00     0.001 A 
ATOM     83  C   UNL A   1      49.453  25.311  31.801  1.00  0.00     0.001 A 
ATOM     84  C   UNL A   1      50.404  25.310  30.783  1.00  0.00     0.000 A 
ENDBRANCH  66  79
ENDBRANCH  40  41
ENDBRANCH  32  35
ENDBRANCH  30  31
ENDBRANCH  29  30
ENDBRANCH  28  29
ENDBRANCH   1  28
TORSDOF 16
ENDMDL
MODEL 2
REMARK VINA RESULT:     -11.0      3.902      8.540
REMARK SMILES O=C(NCc1ccc(C(=O)NCCCCCCNC(=O)c2ccc(-c3c4nc(c(-c5ccccc5)c5ccc([nH]5)c(-c5ccccc5)c5nc(c(-c6ccccc6)c6ccc3[nH]6)C=C5)C=C4)cc2)o1)Nc1ccc(F)c(Cl)c1
REMARK SMILES IDX 14 1 13 2 12 3 11 4 9 5 10 6 8 8 5 9 6 10 69 11 7 12 4 13
REMARK SMILES IDX 3 14 1 15 2 16 70 17 71 20 72 21 78 22 73 23 76 24 74 25
REMARK SMILES IDX 77 26 75 27 15 28 16 29 17 30 18 31 19 32 20 34 21 35 22 36
REMARK SMILES IDX 68 37 23 38 67 39 24 40 25 41 26 42 61 43 27 44 66 45 60 46
REMARK SMILES IDX 62 47 28 48 65 49 59 50 58 51 29 53 51 54 36 55 50 56 37 57
REMARK SMILES IDX 40 58 49 59 63 60 38 61 39 62 48 64 64 65 41 66 30 67 31 68
REMARK SMILES IDX 35 69 32 70 34 71 33 72 52 73 53 74 57 75 54 76 56 77 55 78
REMARK SMILES IDX 42 79 43 80 47 81 44 82 46 83 45 84
REMARK H PARENT 11 7 3 18 70 19 18 33 62 52 40 63
REMARK Flexibility Score: inf
ROOT
ATOM      1  C   UNL A   1      40.682  21.942  26.105  1.00  0.00     0.002 C 
ENDROOT
BRANCH   1   2
ATOM      2  C   UNL A   1      39.271  21.337  26.113  1.00  0.00     0.021 C 
BRANCH   2   3
ATOM      3  C   UNL A   1      38.169  22.381  25.941  1.00  0.00     0.116 C 
BRANCH   3   4
ATOM      4  N   UNL A   1      37.790  22.498  24.553  1.00  0.00    -0.349 N 
ATOM      5  C   UNL A   1      36.652  22.967  23.941  1.00  0.00     0.286 C 
ATOM      6  O   UNL A   1      36.675  22.931  22.708  1.00  0.00    -0.266 OA
ATOM      7  H   UNL A   1      38.478  22.183  23.924  1.00  0.00     0.163 HD
BRANCH   5   8
ATOM      8  C   UNL A   1      35.517  23.480  24.692  1.00  0.00     0.191 A 
ATOM      9  C   UNL A   1      33.353  23.463  25.200  1.00  0.00     0.124 A 
ATOM     10  C   UNL A   1      33.916  24.463  25.954  1.00  0.00     0.048 A 
ATOM     11  O   UNL A   1      34.310  22.871  24.435  1.00  0.00    -0.454 OA
ATOM     12  C   UNL A   1      35.303  24.443  25.664  1.00  0.00     0.056 A 
BRANCH   9  13
ATOM     13  C   UNL A   1      31.980  22.901  25.130  1.00  0.00     0.193 C 
BRANCH  13  14
ATOM     14  N   UNL A   1      31.838  22.057  23.965  1.00  0.00    -0.331 N 
ATOM     15  O   UNL A   1      32.122  20.290  22.651  1.00  0.00    -0.248 OA
ATOM     16  C   UNL A   1      32.186  20.756  23.784  1.00  0.00     0.319 C 
ATOM     17  N   UNL A   1      32.556  20.070  24.909  1.00  0.00    -0.308 N 
ATOM     18  H   UNL A   1      31.427  22.492  23.183  1.00  0.00     0.165 HD
ATOM     19  H   UNL A   1      32.362  20.500  25.772  1.00  0.00     0.171 HD
BRANCH  17  20
ATOM     20  C   UNL A   1      33.188  18.811  24.957  1.00  0.00     0.044 A 
ATOM     21  C   UNL A   1      34.544  18.759  24.603  1.00  0.00     0.029 A 
ATOM     22  C   UNL A   1      32.525  17.630  25.306  1.00  0.00     0.049 A 
ATOM     23  C   UNL A   1      35.238  17.547  24.636  1.00  0.00     0.043 A 
ATOM     24  C   UNL A   1      33.219  16.418  25.330  1.00  0.00     0.078 A 
ATOM     25  C   UNL A   1      34.573  16.384  25.003  1.00  0.00     0.141 A 
ATOM     26  Cl  UNL A   1      32.387  14.971  25.756  1.00  0.00    -0.081 Cl
ATOM     27  F   UNL A   1      35.259  15.232  25.031  1.00  0.00    -0.205 F 
ENDBRANCH  17  20
ENDBRANCH  13  14
ENDBRANCH   9  13
ENDBRANCH   5   8
ENDBRANCH   3   4
ENDBRANCH   2   3
ENDBRANCH   1   2
BRANCH   1  28
ATOM     28  C   UNL A   1      41.785  21.021  26.644  1.00  0.00     0.002 C 
BRANCH  28  29
ATOM     29  C   UNL A   1      41.956  19.706  25.882  1.00  0.00     0.021 C 
BRANCH  29  30
ATOM     30  C   UNL A   1      43.215  18.932  26.258  1.00  0.00     0.116 C 
BRANCH  30  31
ATOM     31  N   UNL A   1      44.003  18.589  25.085  1.00  0.00    -0.352 N 
ATOM     32  C   UNL A   1      44.683  19.418  24.229  1.00  0.00     0.251 C 
ATOM     33  H   UNL A   1      44.057  17.628  24.877  1.00  0.00     0.163 HD
ATOM     34  O   UNL A   1      45.110  19.000  23.160  1.00  0.00    -0.269 OA
BRANCH  32  35
ATOM     35  C   UNL A   1      44.888  20.832  24.606  1.00  0.00     0.039 A 
ATOM     36  C   UNL A   1      44.395  21.839  23.772  1.00  0.00     0.014 A 
ATOM     37  C   UNL A   1      45.563  21.154  25.786  1.00  0.00     0.014 A 
ATOM     38  C   UNL A   1      44.532  23.175  24.154  1.00  0.00     0.010 A 
ATOM     39  C   UNL A   1      45.629  22.479  26.201  1.00  0.00     0.010 A 
ATOM     40  C   UNL A   1      45.121  23.503  25.385  1.00  0.00    -0.014 A 
BRANCH  40  41
ATOM     41  C   UNL A   1      45.246  24.908  25.842  1.00  0.00     0.031 A 
ATOM     42  C   UNL A   1      46.582  25.594  25.786  1.00  0.00     0.074 A 
ATOM     43  C   UNL A   1      44.184  25.536  26.380  1.00  0.00     0.049 A 
ATOM     44  N   UNL A   1      46.927  26.772  26.241  1.00  0.00    -0.248 NA
ATOM     45  C   UNL A   1      47.684  24.844  25.161  1.00  0.00     0.031 C 
ATOM     46  C   UNL A   1      42.838  24.972  26.512  1.00  0.00     0.029 A 
ATOM     47  N   UNL A   1      44.073  26.788  26.932  1.00  0.00    -0.354 N 
ATOM     48  C   UNL A   1      48.286  26.893  25.978  1.00  0.00     0.074 A 
ATOM     49  C   UNL A   1      48.713  25.650  25.374  1.00  0.00     0.031 C 
ATOM     50  C   UNL A   1      42.035  25.883  27.085  1.00  0.00     0.029 A 
ATOM     51  C   UNL A   1      42.817  27.072  27.406  1.00  0.00     0.049 A 
ATOM     52  H   UNL A   1      44.825  27.422  26.983  1.00  0.00     0.167 HD
ATOM     53  C   UNL A   1      49.102  27.949  26.203  1.00  0.00     0.031 A 
ATOM     54  C   UNL A   1      42.349  28.164  28.042  1.00  0.00     0.031 A 
ATOM     55  C   UNL A   1      48.672  29.185  26.798  1.00  0.00     0.049 A 
ATOM     56  C   UNL A   1      43.283  29.311  28.314  1.00  0.00     0.074 A 
ATOM     57  C   UNL A   1      49.410  30.334  27.027  1.00  0.00     0.029 A 
ATOM     58  N   UNL A   1      47.389  29.434  27.261  1.00  0.00    -0.354 N 
ATOM     59  N   UNL A   1      44.553  29.432  28.013  1.00  0.00    -0.248 NA
ATOM     60  C   UNL A   1      42.715  30.476  29.006  1.00  0.00     0.031 C 
ATOM     61  C   UNL A   1      48.587  31.256  27.681  1.00  0.00     0.029 A 
ATOM     62  C   UNL A   1      47.320  30.707  27.799  1.00  0.00     0.049 A 
ATOM     63  H   UNL A   1      46.639  28.798  27.215  1.00  0.00     0.167 HD
ATOM     64  C   UNL A   1      44.926  30.699  28.444  1.00  0.00     0.074 A 
ATOM     65  C   UNL A   1      43.746  31.309  29.021  1.00  0.00     0.031 C 
ATOM     66  C   UNL A   1      46.136  31.303  28.362  1.00  0.00     0.031 A 
BRANCH  53  67
ATOM     67  C   UNL A   1      50.548  27.800  25.814  1.00  0.00    -0.014 A 
ATOM     68  C   UNL A   1      51.504  27.324  26.725  1.00  0.00     0.009 A 
ATOM     69  C   UNL A   1      50.955  28.122  24.509  1.00  0.00     0.009 A 
ATOM     70  C   UNL A   1      52.846  27.219  26.351  1.00  0.00     0.001 A 
ATOM     71  C   UNL A   1      52.291  27.983  24.130  1.00  0.00     0.001 A 
ATOM     72  C   UNL A   1      53.237  27.544  25.053  1.00  0.00     0.000 A 
ENDBRANCH  53  67
BRANCH  54  73
ATOM     73  C   UNL A   1      40.922  28.231  28.454  1.00  0.00    -0.014 A 
ATOM     74  C   UNL A   1      40.513  27.704  29.687  1.00  0.00     0.009 A 
ATOM     75  C   UNL A   1      39.961  28.821  27.616  1.00  0.00     0.009 A 
ATOM     76  C   UNL A   1      39.168  27.740  30.063  1.00  0.00     0.001 A 
ATOM     77  C   UNL A   1      38.622  28.883  28.008  1.00  0.00     0.001 A 
ATOM     78  C   UNL A   1      38.224  28.333  29.225  1.00  0.00     0.000 A 
ENDBRANCH  54  73
BRANCH  66  79
ATOM     79  C   UNL A   1      46.239  32.719  28.859  1.00  0.00    -0.014 A 
ATOM     80  C   UNL A   1      46.671  33.010  30.162  1.00  0.00     0.009 A 
ATOM     81  C   UNL A   1      45.958  33.778  27.982  1.00  0.00     0.009 A 
ATOM     82  C   UNL A   1      46.793  34.336  30.583  1.00  0.00     0.001 A 
ATOM     83  C   UNL A   1      46.111  35.102  28.396  1.00  0.00     0.001 A 
ATOM     84  C   UNL A   1      46.521  35.379  29.698  1.00  0.00     0.000 A 
ENDBRANCH  66  79
ENDBRANCH  40  41
ENDBRANCH  32  35
ENDBRANCH  30  31
ENDBRANCH  29  30
ENDBRANCH  28  29
ENDBRANCH   1  28
TORSDOF 16
ENDMDL
MODEL 3
REMARK VINA RESULT:     -10.9      2.833      4.176
REMARK SMILES O=C(NCc1ccc(C(=O)NCCCCCCNC(=O)c2ccc(-c3c4nc(c(-c5ccccc5)c5ccc([nH]5)c(-c5ccccc5)c5nc(c(-c6ccccc6)c6ccc3[nH]6)C=C5)C=C4)cc2)o1)Nc1ccc(F)c(Cl)c1
REMARK SMILES IDX 14 1 13 2 12 3 11 4 9 5 10 6 8 8 5 9 6 10 69 11 7 12 4 13
REMARK SMILES IDX 3 14 1 15 2 16 70 17 71 20 72 21 78 22 73 23 76 24 74 25
REMARK SMILES IDX 77 26 75 27 15 28 16 29 17 30 18 31 19 32 20 34 21 35 22 36
REMARK SMILES IDX 68 37 23 38 67 39 24 40 25 41 26 42 61 43 27 44 66 45 60 46
REMARK SMILES IDX 62 47 28 48 65 49 59 50 58 51 29 53 51 54 36 55 50 56 37 57
REMARK SMILES IDX 40 58 49 59 63 60 38 61 39 62 48 64 64 65 41 66 30 67 31 68
REMARK SMILES IDX 35 69 32 70 34 71 33 72 52 73 53 74 57 75 54 76 56 77 55 78
REMARK SMILES IDX 42 79 43 80 47 81 44 82 46 83 45 84
REMARK H PARENT 11 7 3 18 70 19 18 33 62 52 40 63
REMARK Flexibility Score: inf
ROOT
ATOM      1  C   UNL A   1      34.762  30.358  28.199  1.00  0.00     0.002 C 
ENDROOT
BRANCH   1   2
ATOM      2  C   UNL A   1      35.319  29.295  27.240  1.00  0.00     0.021 C 
BRANCH   2   3
ATOM      3  C   UNL A   1      34.230  28.564  26.456  1.00  0.00     0.116 C 
BRANCH   3   4
ATOM      4  N   UNL A   1      33.058  28.365  27.275  1.00  0.00    -0.349 N 
ATOM      5  C   UNL A   1      31.791  27.920  26.985  1.00  0.00     0.286 C 
ATOM      6  O   UNL A   1      31.028  27.860  27.953  1.00  0.00    -0.266 OA
ATOM      7  H   UNL A   1      33.193  28.588  28.224  1.00  0.00     0.163 HD
BRANCH   5   8
ATOM      8  C   UNL A   1      31.388  27.536  25.642  1.00  0.00     0.191 A 
ATOM      9  C   UNL A   1      30.942  25.984  24.113  1.00  0.00     0.124 A 
ATOM     10  C   UNL A   1      30.768  27.197  23.491  1.00  0.00     0.048 A 
ATOM     11  O   UNL A   1      31.319  26.182  25.405  1.00  0.00    -0.454 OA
ATOM     12  C   UNL A   1      31.008  28.185  24.478  1.00  0.00     0.056 A 
BRANCH   9  13
ATOM     13  C   UNL A   1      30.733  24.582  23.670  1.00  0.00     0.193 C 
BRANCH  13  14
ATOM     14  N   UNL A   1      31.693  24.227  22.650  1.00  0.00    -0.331 N 
ATOM     15  O   UNL A   1      33.646  23.646  21.767  1.00  0.00    -0.248 OA
ATOM     16  C   UNL A   1      32.946  23.715  22.773  1.00  0.00     0.319 C 
ATOM     17  N   UNL A   1      33.305  23.294  24.024  1.00  0.00    -0.308 N 
ATOM     18  H   UNL A   1      31.393  24.379  21.724  1.00  0.00     0.165 HD
ATOM     19  H   UNL A   1      32.581  23.213  24.687  1.00  0.00     0.171 HD
BRANCH  17  20
ATOM     20  C   UNL A   1      34.603  22.965  24.463  1.00  0.00     0.044 A 
ATOM     21  C   UNL A   1      35.431  24.022  24.869  1.00  0.00     0.029 A 
ATOM     22  C   UNL A   1      35.102  21.659  24.480  1.00  0.00     0.049 A 
ATOM     23  C   UNL A   1      36.728  23.771  25.323  1.00  0.00     0.043 A 
ATOM     24  C   UNL A   1      36.402  21.411  24.926  1.00  0.00     0.078 A 
ATOM     25  C   UNL A   1      37.205  22.466  25.354  1.00  0.00     0.141 A 
ATOM     26  Cl  UNL A   1      37.005  19.798  24.936  1.00  0.00    -0.081 Cl
ATOM     27  F   UNL A   1      38.452  22.247  25.797  1.00  0.00    -0.205 F 
ENDBRANCH  17  20
ENDBRANCH  13  14
ENDBRANCH   9  13
ENDBRANCH   5   8
ENDBRANCH   3   4
ENDBRANCH   2   3
ENDBRANCH   1   2
BRANCH   1  28
ATOM     28  C   UNL A   1      34.995  31.810  27.762  1.00  0.00     0.002 C 
BRANCH  28  29
ATOM     29  C   UNL A   1      33.797  32.742  27.957  1.00  0.00     0.021 C 
BRANCH  29  30
ATOM     30  C   UNL A   1      34.175  34.211  28.112  1.00  0.00     0.116 C 
BRANCH  30  31
ATOM     31  N   UNL A   1      33.553  34.803  29.285  1.00  0.00    -0.352 N 
ATOM     32  C   UNL A   1      33.802  34.556  30.612  1.00  0.00     0.251 C 
ATOM     33  H   UNL A   1      32.857  35.474  29.103  1.00  0.00     0.163 HD
ATOM     34  O   UNL A   1      33.040  34.966  31.478  1.00  0.00    -0.269 OA
BRANCH  32  35
ATOM     35  C   UNL A   1      35.000  33.778  30.988  1.00  0.00     0.039 A 
ATOM     36  C   UNL A   1      34.846  32.599  31.722  1.00  0.00     0.014 A 
ATOM     37  C   UNL A   1      36.272  34.215  30.607  1.00  0.00     0.014 A 
ATOM     38  C   UNL A   1      35.969  31.827  32.026  1.00  0.00     0.010 A 
ATOM     39  C   UNL A   1      37.377  33.407  30.843  1.00  0.00     0.010 A 
ATOM     40  C   UNL A   1      37.238  32.209  31.563  1.00  0.00    -0.014 A 
BRANCH  40  41
ATOM     41  C   UNL A   1      38.446  31.393  31.831  1.00  0.00     0.031 A 
ATOM     42  C   UNL A   1      39.339  31.743  32.989  1.00  0.00     0.074 A 
ATOM     43  C   UNL A   1      38.783  30.395  30.993  1.00  0.00     0.049 A 
ATOM     44  N   UNL A   1      40.497  31.232  33.324  1.00  0.00    -0.248 NA
ATOM     45  C   UNL A   1      38.885  32.832  33.868  1.00  0.00     0.031 C 
ATOM     46  C   UNL A   1      38.011  29.970  29.822  1.00  0.00     0.029 A 
ATOM     47  N   UNL A   1      39.874  29.562  30.991  1.00  0.00    -0.354 N 
ATOM     48  C   UNL A   1      40.916  31.951  34.436  1.00  0.00     0.074 A 
ATOM     49  C   UNL A   1      39.918  32.967  34.685  1.00  0.00     0.031 C 
ATOM     50  C   UNL A   1      38.643  28.944  29.230  1.00  0.00     0.029 A 
ATOM     51  C   UNL A   1      39.884  28.671  29.947  1.00  0.00     0.049 A 
ATOM     52  H   UNL A   1      40.582  29.601  31.673  1.00  0.00     0.167 HD
ATOM     53  C   UNL A   1      42.024  31.772  35.193  1.00  0.00     0.031 A 
ATOM     54  C   UNL A   1      40.799  27.746  29.597  1.00  0.00     0.031 A 
ATOM     55  C   UNL A   1      43.012  30.756  34.946  1.00  0.00     0.049 A 
ATOM     56  C   UNL A   1      42.040  27.588  30.431  1.00  0.00     0.074 A 
ATOM     57  C   UNL A   1      44.147  30.461  35.680  1.00  0.00     0.029 A 
ATOM     58  N   UNL A   1      42.983  29.871  33.879  1.00  0.00    -0.354 N 
ATOM     59  N   UNL A   1      42.399  28.241  31.510  1.00  0.00    -0.248 NA
ATOM     60  C   UNL A   1      42.999  26.561  30.004  1.00  0.00     0.031 C 
ATOM     61  C   UNL A   1      44.834  29.435  35.025  1.00  0.00     0.029 A 
ATOM     62  C   UNL A   1      44.093  29.046  33.921  1.00  0.00     0.049 A 
ATOM     63  H   UNL A   1      42.277  29.835  33.193  1.00  0.00     0.167 HD
ATOM     64  C   UNL A   1      43.604  27.678  31.912  1.00  0.00     0.074 A 
ATOM     65  C   UNL A   1      43.910  26.627  30.964  1.00  0.00     0.031 C 
ATOM     66  C   UNL A   1      44.380  27.999  32.974  1.00  0.00     0.031 A 
BRANCH  53  67
ATOM     67  C   UNL A   1      42.229  32.709  36.352  1.00  0.00    -0.014 A 
ATOM     68  C   UNL A   1      41.724  32.413  37.629  1.00  0.00     0.009 A 
ATOM     69  C   UNL A   1      42.954  33.896  36.169  1.00  0.00     0.009 A 
ATOM     70  C   UNL A   1      41.902  33.308  38.685  1.00  0.00     0.001 A 
ATOM     71  C   UNL A   1      43.160  34.773  37.235  1.00  0.00     0.001 A 
ATOM     72  C   UNL A   1      42.623  34.485  38.489  1.00  0.00     0.000 A 
ENDBRANCH  53  67
BRANCH  54  73
ATOM     73  C   UNL A   1      40.569  26.885  28.406  1.00  0.00    -0.014 A 
ATOM     74  C   UNL A   1      39.783  25.728  28.507  1.00  0.00     0.009 A 
ATOM     75  C   UNL A   1      41.136  27.213  27.164  1.00  0.00     0.009 A 
ATOM     76  C   UNL A   1      39.590  24.903  27.397  1.00  0.00     0.001 A 
ATOM     77  C   UNL A   1      40.916  26.402  26.048  1.00  0.00     0.001 A 
ATOM     78  C   UNL A   1      40.153  25.242  26.168  1.00  0.00     0.000 A 
ENDBRANCH  54  73
BRANCH  66  79
ATOM     79  C   UNL A   1      45.615  27.172  33.205  1.00  0.00    -0.014 A 
ATOM     80  C   UNL A   1      45.559  25.942  33.879  1.00  0.00     0.009 A 
ATOM     81  C   UNL A   1      46.843  27.606  32.681  1.00  0.00     0.009 A 
ATOM     82  C   UNL A   1      46.716  25.178  34.045  1.00  0.00     0.001 A 
ATOM     83  C   UNL A   1      47.991  26.825  32.821  1.00  0.00     0.001 A 
ATOM     84  C   UNL A   1      47.927  25.616  33.509  1.00  0.00     0.000 A 
ENDBRANCH  66  79
ENDBRANCH  40  41
ENDBRANCH  32  35
ENDBRANCH  30  31
ENDBRANCH  29  30
ENDBRANCH  28  29
ENDBRANCH   1  28
TORSDOF 16
ENDMDL
