MODEL 1
REMARK VINA RESULT:     -10.6      0.000      0.000
REMARK SMILES O=C(/C=C/c1cc(C(=O)NCCn2cccn2)cs1)NCCCCCCNC(=O)c1ccc(-c2c3nc(c(-c4ccccc4)c4ccc([nH]4)c(-c4ccccc4)c4nc(c(-c5ccccc5)c5ccc2[nH]5)C=C4)C=C3)cc1
REMARK SMILES IDX 22 1 21 2 20 3 1 4 2 5 3 7 4 8 5 9 6 10 19 11 7 12 18 13
REMARK SMILES IDX 8 14 9 15 10 16 11 18 12 19 13 20 14 21 17 22 15 23 16 24
REMARK SMILES IDX 23 25 24 26 25 27 26 28 27 29 28 30 29 32 30 33 31 34 77 35
REMARK SMILES IDX 32 36 76 37 33 38 34 39 35 40 70 41 36 42 75 43 69 44 71 45
REMARK SMILES IDX 37 46 74 47 68 48 67 49 38 51 60 52 45 53 59 54 46 55 49 56
REMARK SMILES IDX 58 57 72 58 47 59 48 60 57 62 73 63 50 64 39 65 40 66 44 67
REMARK SMILES IDX 41 68 43 69 42 70 61 71 62 72 66 73 63 74 65 75 64 76 51 77
REMARK SMILES IDX 52 78 56 79 53 80 55 81 54 82
REMARK H PARENT 20 6 10 17 27 31 71 50 49 61
REMARK Flexibility Score: inf
ROOT
ATOM      1  C   UNL A   1      34.819  32.539  30.403  1.00  0.00     0.021 C 
ENDROOT
BRANCH   1   2
ATOM      2  C   UNL A   1      35.717  31.535  29.684  1.00  0.00     0.116 C 
BRANCH   2   3
ATOM      3  N   UNL A   1      34.947  30.688  28.799  1.00  0.00    -0.353 N 
ATOM      4  O   UNL A   1      36.723  29.932  27.553  1.00  0.00    -0.270 OA
ATOM      5  C   UNL A   1      35.519  29.998  27.769  1.00  0.00     0.244 C 
ATOM      6  H   UNL A   1      33.977  30.606  28.946  1.00  0.00     0.163 HD
BRANCH   5   7
ATOM      7  C   UNL A   1      34.582  29.220  26.934  1.00  0.00     0.072 C 
ATOM      8  C   UNL A   1      33.427  29.672  26.414  1.00  0.00     0.024 C 
BRANCH   8   9
ATOM      9  C   UNL A   1      32.641  28.786  25.628  1.00  0.00     0.028 A 
ATOM     10  C   UNL A   1      32.592  28.677  24.249  1.00  0.00     0.033 A 
ATOM     11  S   UNL A   1      31.585  27.652  26.350  1.00  0.00    -0.144 S 
ATOM     12  C   UNL A   1      31.524  27.862  23.760  1.00  0.00     0.051 A 
ATOM     13  C   UNL A   1      30.946  27.197  24.833  1.00  0.00     0.079 A 
BRANCH  12  14
ATOM     14  C   UNL A   1      31.042  27.637  22.395  1.00  0.00     0.252 C 
ATOM     15  O   UNL A   1      30.073  28.261  21.960  1.00  0.00    -0.269 OA
ATOM     16  N   UNL A   1      31.653  26.761  21.541  1.00  0.00    -0.350 N 
ATOM     17  H   UNL A   1      31.224  26.739  20.655  1.00  0.00     0.163 HD
BRANCH  16  18
ATOM     18  C   UNL A   1      32.788  25.851  21.629  1.00  0.00     0.140 C 
BRANCH  18  19
ATOM     19  C   UNL A   1      32.446  24.606  22.456  1.00  0.00     0.165 C 
BRANCH  19  20
ATOM     20  N   UNL A   1      33.018  24.647  23.793  1.00  0.00    -0.271 N 
ATOM     21  C   UNL A   1      34.122  25.349  24.187  1.00  0.00     0.108 A 
ATOM     22  N   UNL A   1      32.483  23.907  24.787  1.00  0.00    -0.181 NA
ATOM     23  C   UNL A   1      34.341  25.010  25.502  1.00  0.00     0.042 A 
ATOM     24  C   UNL A   1      33.302  24.118  25.819  1.00  0.00     0.135 A 
ENDBRANCH  19  20
ENDBRANCH  18  19
ENDBRANCH  16  18
ENDBRANCH  12  14
ENDBRANCH   8   9
ENDBRANCH   5   7
ENDBRANCH   2   3
ENDBRANCH   1   2
BRANCH   1  25
ATOM     25  C   UNL A   1      34.990  32.568  31.928  1.00  0.00     0.002 C 
BRANCH  25  26
ATOM     26  C   UNL A   1      36.148  31.730  32.494  1.00  0.00     0.002 C 
BRANCH  26  27
ATOM     27  C   UNL A   1      37.127  32.455  33.426  1.00  0.00     0.021 C 
BRANCH  27  28
ATOM     28  C   UNL A   1      38.521  32.627  32.845  1.00  0.00     0.116 C 
BRANCH  28  29
ATOM     29  N   UNL A   1      38.571  33.584  31.737  1.00  0.00    -0.352 N 
ATOM     30  C   UNL A   1      39.471  33.622  30.683  1.00  0.00     0.251 C 
ATOM     31  H   UNL A   1      37.879  34.285  31.741  1.00  0.00     0.163 HD
ATOM     32  O   UNL A   1      39.661  34.644  30.045  1.00  0.00    -0.269 OA
BRANCH  30  33
ATOM     33  C   UNL A   1      40.184  32.380  30.334  1.00  0.00     0.039 A 
ATOM     34  C   UNL A   1      41.570  32.250  30.456  1.00  0.00     0.014 A 
ATOM     35  C   UNL A   1      39.405  31.314  29.900  1.00  0.00     0.014 A 
ATOM     36  C   UNL A   1      42.147  31.007  30.194  1.00  0.00     0.010 A 
ATOM     37  C   UNL A   1      39.937  30.058  29.862  1.00  0.00     0.010 A 
ATOM     38  C   UNL A   1      41.314  29.914  29.909  1.00  0.00    -0.014 A 
BRANCH  38  39
ATOM     39  C   UNL A   1      41.833  28.566  29.745  1.00  0.00     0.031 A 
ATOM     40  C   UNL A   1      42.541  28.042  30.939  1.00  0.00     0.074 A 
ATOM     41  C   UNL A   1      41.476  27.774  28.708  1.00  0.00     0.049 A 
ATOM     42  N   UNL A   1      43.802  27.801  31.057  1.00  0.00    -0.248 NA
ATOM     43  C   UNL A   1      41.788  27.915  32.200  1.00  0.00     0.031 C 
ATOM     44  C   UNL A   1      40.506  28.048  27.637  1.00  0.00     0.029 A 
ATOM     45  N   UNL A   1      41.816  26.484  28.463  1.00  0.00    -0.354 N 
ATOM     46  C   UNL A   1      43.973  27.280  32.334  1.00  0.00     0.074 A 
ATOM     47  C   UNL A   1      42.755  27.564  33.049  1.00  0.00     0.031 C 
ATOM     48  C   UNL A   1      40.159  26.891  27.030  1.00  0.00     0.029 A 
ATOM     49  C   UNL A   1      41.004  25.830  27.542  1.00  0.00     0.049 A 
ATOM     50  H   UNL A   1      42.580  26.043  28.903  1.00  0.00     0.167 HD
ATOM     51  C   UNL A   1      44.986  26.412  32.606  1.00  0.00     0.031 A 
ATOM     52  C   UNL A   1      41.011  24.505  27.250  1.00  0.00     0.031 A 
ATOM     53  C   UNL A   1      45.971  26.407  31.552  1.00  0.00     0.049 A 
ATOM     54  C   UNL A   1      42.310  23.963  27.716  1.00  0.00     0.074 A 
ATOM     55  C   UNL A   1      46.782  27.363  30.974  1.00  0.00     0.029 A 
ATOM     56  N   UNL A   1      45.911  25.370  30.649  1.00  0.00    -0.354 N 
ATOM     57  N   UNL A   1      43.452  24.302  27.189  1.00  0.00    -0.248 NA
ATOM     58  C   UNL A   1      42.374  23.439  29.071  1.00  0.00     0.031 C 
ATOM     59  C   UNL A   1      46.748  27.073  29.577  1.00  0.00     0.029 A 
ATOM     60  C   UNL A   1      45.999  25.909  29.393  1.00  0.00     0.049 A 
ATOM     61  H   UNL A   1      45.822  24.414  30.866  1.00  0.00     0.167 HD
ATOM     62  C   UNL A   1      44.301  24.469  28.274  1.00  0.00     0.074 A 
ATOM     63  C   UNL A   1      43.607  23.837  29.399  1.00  0.00     0.031 C 
ATOM     64  C   UNL A   1      45.339  25.356  28.230  1.00  0.00     0.031 A 
BRANCH  51  65
ATOM     65  C   UNL A   1      44.857  25.257  33.571  1.00  0.00    -0.014 A 
ATOM     66  C   UNL A   1      44.090  24.143  33.181  1.00  0.00     0.009 A 
ATOM     67  C   UNL A   1      45.200  25.338  34.934  1.00  0.00     0.009 A 
ATOM     68  C   UNL A   1      43.617  23.219  34.119  1.00  0.00     0.001 A 
ATOM     69  C   UNL A   1      44.765  24.395  35.867  1.00  0.00     0.001 A 
ATOM     70  C   UNL A   1      43.947  23.351  35.464  1.00  0.00     0.000 A 
ENDBRANCH  51  65
BRANCH  52  71
ATOM     71  C   UNL A   1      39.877  23.623  26.884  1.00  0.00    -0.014 A 
ATOM     72  C   UNL A   1      38.612  24.159  26.591  1.00  0.00     0.009 A 
ATOM     73  C   UNL A   1      40.109  22.279  26.539  1.00  0.00     0.009 A 
ATOM     74  C   UNL A   1      37.633  23.390  25.943  1.00  0.00     0.001 A 
ATOM     75  C   UNL A   1      39.133  21.512  25.893  1.00  0.00     0.001 A 
ATOM     76  C   UNL A   1      37.900  22.073  25.580  1.00  0.00     0.000 A 
ENDBRANCH  52  71
BRANCH  64  77
ATOM     77  C   UNL A   1      45.675  25.996  26.902  1.00  0.00    -0.014 A 
ATOM     78  C   UNL A   1      45.025  27.141  26.405  1.00  0.00     0.009 A 
ATOM     79  C   UNL A   1      46.798  25.521  26.212  1.00  0.00     0.009 A 
ATOM     80  C   UNL A   1      45.477  27.773  25.239  1.00  0.00     0.001 A 
ATOM     81  C   UNL A   1      47.260  26.162  25.061  1.00  0.00     0.001 A 
ATOM     82  C   UNL A   1      46.598  27.285  24.572  1.00  0.00     0.000 A 
ENDBRANCH  64  77
ENDBRANCH  38  39
ENDBRANCH  30  33
ENDBRANCH  28  29
ENDBRANCH  27  28
ENDBRANCH  26  27
ENDBRANCH  25  26
ENDBRANCH   1  25
TORSDOF 18
ENDMDL
MODEL 2
REMARK VINA RESULT:     -10.2      3.857      6.644
REMARK SMILES O=C(/C=C/c1cc(C(=O)NCCn2cccn2)cs1)NCCCCCCNC(=O)c1ccc(-c2c3nc(c(-c4ccccc4)c4ccc([nH]4)c(-c4ccccc4)c4nc(c(-c5ccccc5)c5ccc2[nH]5)C=C4)C=C3)cc1
REMARK SMILES IDX 22 1 21 2 20 3 1 4 2 5 3 7 4 8 5 9 6 10 19 11 7 12 18 13
REMARK SMILES IDX 8 14 9 15 10 16 11 18 12 19 13 20 14 21 17 22 15 23 16 24
REMARK SMILES IDX 23 25 24 26 25 27 26 28 27 29 28 30 29 32 30 33 31 34 77 35
REMARK SMILES IDX 32 36 76 37 33 38 34 39 35 40 70 41 36 42 75 43 69 44 71 45
REMARK SMILES IDX 37 46 74 47 68 48 67 49 38 51 60 52 45 53 59 54 46 55 49 56
REMARK SMILES IDX 58 57 72 58 47 59 48 60 57 62 73 63 50 64 39 65 40 66 44 67
REMARK SMILES IDX 41 68 43 69 42 70 61 71 62 72 66 73 63 74 65 75 64 76 51 77
REMARK SMILES IDX 52 78 56 79 53 80 55 81 54 82
REMARK H PARENT 20 6 10 17 27 31 71 50 49 61
REMARK Flexibility Score: inf
ROOT
ATOM      1  C   UNL A   1      34.652  31.399  27.622  1.00  0.00     0.021 C 
ENDROOT
BRANCH   1   2
ATOM      2  C   UNL A   1      33.270  30.807  27.359  1.00  0.00     0.116 C 
BRANCH   2   3
ATOM      3  N   UNL A   1      33.368  29.536  26.674  1.00  0.00    -0.353 N 
ATOM      4  O   UNL A   1      31.707  28.476  27.854  1.00  0.00    -0.270 OA
ATOM      5  C   UNL A   1      32.607  28.458  27.024  1.00  0.00     0.244 C 
ATOM      6  H   UNL A   1      34.006  29.446  25.930  1.00  0.00     0.163 HD
BRANCH   5   7
ATOM      7  C   UNL A   1      32.868  27.225  26.254  1.00  0.00     0.072 C 
ATOM      8  C   UNL A   1      33.604  27.137  25.133  1.00  0.00     0.024 C 
BRANCH   8   9
ATOM      9  C   UNL A   1      33.757  25.865  24.516  1.00  0.00     0.028 A 
ATOM     10  C   UNL A   1      34.739  24.916  24.740  1.00  0.00     0.033 A 
ATOM     11  S   UNL A   1      32.651  25.308  23.337  1.00  0.00    -0.144 S 
ATOM     12  C   UNL A   1      34.754  23.850  23.789  1.00  0.00     0.051 A 
ATOM     13  C   UNL A   1      33.608  23.932  23.009  1.00  0.00     0.079 A 
BRANCH  12  14
ATOM     14  C   UNL A   1      35.718  22.765  23.585  1.00  0.00     0.252 C 
ATOM     15  O   UNL A   1      36.648  22.892  22.787  1.00  0.00    -0.269 OA
ATOM     16  N   UNL A   1      35.652  21.590  24.281  1.00  0.00    -0.350 N 
ATOM     17  H   UNL A   1      36.382  20.972  24.047  1.00  0.00     0.163 HD
BRANCH  16  18
ATOM     18  C   UNL A   1      34.757  21.032  25.289  1.00  0.00     0.140 C 
BRANCH  18  19
ATOM     19  C   UNL A   1      33.515  20.403  24.648  1.00  0.00     0.165 C 
BRANCH  19  20
ATOM     20  N   UNL A   1      33.593  18.951  24.585  1.00  0.00    -0.271 N 
ATOM     21  C   UNL A   1      32.551  18.072  24.691  1.00  0.00     0.108 A 
ATOM     22  N   UNL A   1      34.787  18.338  24.451  1.00  0.00    -0.181 NA
ATOM     23  C   UNL A   1      33.110  16.815  24.670  1.00  0.00     0.042 A 
ATOM     24  C   UNL A   1      34.489  17.039  24.522  1.00  0.00     0.135 A 
ENDBRANCH  19  20
ENDBRANCH  18  19
ENDBRANCH  16  18
ENDBRANCH  12  14
ENDBRANCH   8   9
ENDBRANCH   5   7
ENDBRANCH   2   3
ENDBRANCH   1   2
BRANCH   1  25
ATOM     25  C   UNL A   1      34.682  32.491  28.700  1.00  0.00     0.002 C 
BRANCH  25  26
ATOM     26  C   UNL A   1      35.072  33.900  28.224  1.00  0.00     0.002 C 
BRANCH  26  27
ATOM     27  C   UNL A   1      34.263  35.067  28.803  1.00  0.00     0.021 C 
BRANCH  27  28
ATOM     28  C   UNL A   1      32.955  34.650  29.454  1.00  0.00     0.116 C 
BRANCH  28  29
ATOM     29  N   UNL A   1      32.654  35.398  30.678  1.00  0.00    -0.352 N 
ATOM     30  C   UNL A   1      33.156  35.186  31.953  1.00  0.00     0.251 C 
ATOM     31  H   UNL A   1      32.018  36.144  30.582  1.00  0.00     0.163 HD
ATOM     32  O   UNL A   1      32.575  35.600  32.942  1.00  0.00    -0.269 OA
BRANCH  30  33
ATOM     33  C   UNL A   1      34.433  34.461  32.083  1.00  0.00     0.039 A 
ATOM     34  C   UNL A   1      34.504  33.066  32.124  1.00  0.00     0.014 A 
ATOM     35  C   UNL A   1      35.588  35.233  32.136  1.00  0.00     0.014 A 
ATOM     36  C   UNL A   1      35.762  32.464  32.151  1.00  0.00     0.010 A 
ATOM     37  C   UNL A   1      36.803  34.647  31.940  1.00  0.00     0.010 A 
ATOM     38  C   UNL A   1      36.906  33.269  32.047  1.00  0.00    -0.014 A 
BRANCH  38  39
ATOM     39  C   UNL A   1      38.243  32.707  31.948  1.00  0.00     0.031 A 
ATOM     40  C   UNL A   1      38.978  32.663  33.236  1.00  0.00     0.074 A 
ATOM     41  C   UNL A   1      38.672  32.050  30.846  1.00  0.00     0.049 A 
ATOM     42  N   UNL A   1      40.012  33.356  33.570  1.00  0.00    -0.248 NA
ATOM     43  C   UNL A   1      38.408  31.869  34.340  1.00  0.00     0.031 C 
ATOM     44  C   UNL A   1      37.920  31.719  29.625  1.00  0.00     0.029 A 
ATOM     45  N   UNL A   1      39.853  31.416  30.635  1.00  0.00    -0.354 N 
ATOM     46  C   UNL A   1      40.362  32.928  34.846  1.00  0.00     0.074 A 
ATOM     47  C   UNL A   1      39.237  32.176  35.339  1.00  0.00     0.031 C 
ATOM     48  C   UNL A   1      38.569  30.750  28.940  1.00  0.00     0.029 A 
ATOM     49  C   UNL A   1      39.855  30.522  29.570  1.00  0.00     0.049 A 
ATOM     50  H   UNL A   1      40.649  31.576  31.194  1.00  0.00     0.167 HD
ATOM     51  C   UNL A   1      41.654  32.986  35.273  1.00  0.00     0.031 A 
ATOM     52  C   UNL A   1      40.834  29.637  29.253  1.00  0.00     0.031 A 
ATOM     53  C   UNL A   1      42.456  33.820  34.411  1.00  0.00     0.049 A 
ATOM     54  C   UNL A   1      42.070  30.097  29.930  1.00  0.00     0.074 A 
ATOM     55  C   UNL A   1      42.401  35.139  34.009  1.00  0.00     0.029 A 
ATOM     56  N   UNL A   1      43.250  33.178  33.489  1.00  0.00    -0.354 N 
ATOM     57  N   UNL A   1      42.680  31.206  29.623  1.00  0.00    -0.248 NA
ATOM     58  C   UNL A   1      42.340  29.580  31.262  1.00  0.00     0.031 C 
ATOM     59  C   UNL A   1      42.736  35.111  32.622  1.00  0.00     0.029 A 
ATOM     60  C   UNL A   1      43.064  33.797  32.281  1.00  0.00     0.049 A 
ATOM     61  H   UNL A   1      43.845  32.414  33.664  1.00  0.00     0.167 HD
ATOM     62  C   UNL A   1      43.032  31.761  30.845  1.00  0.00     0.074 A 
ATOM     63  C   UNL A   1      42.877  30.674  31.814  1.00  0.00     0.031 C 
ATOM     64  C   UNL A   1      43.126  33.114  31.007  1.00  0.00     0.031 A 
BRANCH  51  65
ATOM     65  C   UNL A   1      42.280  31.947  36.173  1.00  0.00    -0.014 A 
ATOM     66  C   UNL A   1      43.048  32.388  37.267  1.00  0.00     0.009 A 
ATOM     67  C   UNL A   1      42.395  30.587  35.831  1.00  0.00     0.009 A 
ATOM     68  C   UNL A   1      43.948  31.535  37.917  1.00  0.00     0.001 A 
ATOM     69  C   UNL A   1      43.262  29.722  36.504  1.00  0.00     0.001 A 
ATOM     70  C   UNL A   1      44.062  30.205  37.528  1.00  0.00     0.000 A 
ENDBRANCH  51  65
BRANCH  52  71
ATOM     71  C   UNL A   1      40.714  28.280  28.671  1.00  0.00    -0.014 A 
ATOM     72  C   UNL A   1      39.848  27.328  29.233  1.00  0.00     0.009 A 
ATOM     73  C   UNL A   1      41.233  28.011  27.391  1.00  0.00     0.009 A 
ATOM     74  C   UNL A   1      39.484  26.173  28.524  1.00  0.00     0.001 A 
ATOM     75  C   UNL A   1      40.871  26.859  26.683  1.00  0.00     0.001 A 
ATOM     76  C   UNL A   1      39.984  25.947  27.244  1.00  0.00     0.000 A 
ENDBRANCH  52  71
BRANCH  64  77
ATOM     77  C   UNL A   1      43.048  33.988  29.775  1.00  0.00    -0.014 A 
ATOM     78  C   UNL A   1      44.064  34.054  28.804  1.00  0.00     0.009 A 
ATOM     79  C   UNL A   1      41.835  34.637  29.508  1.00  0.00     0.009 A 
ATOM     80  C   UNL A   1      43.874  34.768  27.614  1.00  0.00     0.001 A 
ATOM     81  C   UNL A   1      41.638  35.333  28.314  1.00  0.00     0.001 A 
ATOM     82  C   UNL A   1      42.659  35.402  27.369  1.00  0.00     0.000 A 
ENDBRANCH  64  77
ENDBRANCH  38  39
ENDBRANCH  30  33
ENDBRANCH  28  29
ENDBRANCH  27  28
ENDBRANCH  26  27
ENDBRANCH  25  26
ENDBRANCH   1  25
TORSDOF 18
ENDMDL
MODEL 3
REMARK VINA RESULT:     -10.2      3.080      4.792
REMARK SMILES O=C(/C=C/c1cc(C(=O)NCCn2cccn2)cs1)NCCCCCCNC(=O)c1ccc(-c2c3nc(c(-c4ccccc4)c4ccc([nH]4)c(-c4ccccc4)c4nc(c(-c5ccccc5)c5ccc2[nH]5)C=C4)C=C3)cc1
REMARK SMILES IDX 22 1 21 2 20 3 1 4 2 5 3 7 4 8 5 9 6 10 19 11 7 12 18 13
REMARK SMILES IDX 8 14 9 15 10 16 11 18 12 19 13 20 14 21 17 22 15 23 16 24
REMARK SMILES IDX 23 25 24 26 25 27 26 28 27 29 28 30 29 32 30 33 31 34 77 35
REMARK SMILES IDX 32 36 76 37 33 38 34 39 35 40 70 41 36 42 75 43 69 44 71 45
REMARK SMILES IDX 37 46 74 47 68 48 67 49 38 51 60 52 45 53 59 54 46 55 49 56
REMARK SMILES IDX 58 57 72 58 47 59 48 60 57 62 73 63 50 64 39 65 40 66 44 67
REMARK SMILES IDX 41 68 43 69 42 70 61 71 62 72 66 73 63 74 65 75 64 76 51 77
REMARK SMILES IDX 52 78 56 79 53 80 55 81 54 82
REMARK H PARENT 20 6 10 17 27 31 71 50 49 61
REMARK Flexibility Score: inf
ROOT
ATOM      1  C   UNL A   1      35.473  32.121  27.773  1.00  0.00     0.021 C 
ENDROOT
BRANCH   1   2
ATOM      2  C   UNL A   1      34.241  31.354  28.247  1.00  0.00     0.116 C 
BRANCH   2   3
ATOM      3  N   UNL A   1      33.924  30.268  27.345  1.00  0.00    -0.353 N 
ATOM      4  O   UNL A   1      31.933  31.130  26.589  1.00  0.00    -0.270 OA
ATOM      5  C   UNL A   1      32.760  30.229  26.632  1.00  0.00     0.244 C 
ATOM      6  H   UNL A   1      34.570  29.533  27.243  1.00  0.00     0.163 HD
BRANCH   5   7
ATOM      7  C   UNL A   1      32.575  29.025  25.796  1.00  0.00     0.072 C 
ATOM      8  C   UNL A   1      31.398  28.451  25.491  1.00  0.00     0.024 C 
BRANCH   8   9
ATOM      9  C   UNL A   1      31.399  27.291  24.668  1.00  0.00     0.028 A 
ATOM     10  C   UNL A   1      32.446  26.760  23.935  1.00  0.00     0.033 A 
ATOM     11  S   UNL A   1      29.996  26.333  24.479  1.00  0.00    -0.144 S 
ATOM     12  C   UNL A   1      32.062  25.731  23.022  1.00  0.00     0.051 A 
ATOM     13  C   UNL A   1      30.747  25.371  23.283  1.00  0.00     0.079 A 
BRANCH  12  14
ATOM     14  C   UNL A   1      32.827  25.049  21.974  1.00  0.00     0.252 C 
ATOM     15  O   UNL A   1      33.424  25.695  21.111  1.00  0.00    -0.269 OA
ATOM     16  N   UNL A   1      32.941  23.688  21.922  1.00  0.00    -0.350 N 
ATOM     17  H   UNL A   1      33.505  23.385  21.173  1.00  0.00     0.163 HD
BRANCH  16  18
ATOM     18  C   UNL A   1      32.425  22.575  22.711  1.00  0.00     0.140 C 
BRANCH  18  19
ATOM     19  C   UNL A   1      33.203  22.410  24.022  1.00  0.00     0.165 C 
BRANCH  19  20
ATOM     20  N   UNL A   1      32.437  22.834  25.184  1.00  0.00    -0.271 N 
ATOM     21  C   UNL A   1      31.230  22.340  25.591  1.00  0.00     0.108 A 
ATOM     22  N   UNL A   1      32.882  23.843  25.963  1.00  0.00    -0.181 NA
ATOM     23  C   UNL A   1      30.849  23.103  26.670  1.00  0.00     0.042 A 
ATOM     24  C   UNL A   1      31.903  24.014  26.853  1.00  0.00     0.135 A 
ENDBRANCH  19  20
ENDBRANCH  18  19
ENDBRANCH  16  18
ENDBRANCH  12  14
ENDBRANCH   8   9
ENDBRANCH   5   7
ENDBRANCH   2   3
ENDBRANCH   1   2
BRANCH   1  25
ATOM     25  C   UNL A   1      35.688  33.472  28.469  1.00  0.00     0.002 C 
BRANCH  25  26
ATOM     26  C   UNL A   1      34.776  34.622  28.009  1.00  0.00     0.002 C 
BRANCH  26  27
ATOM     27  C   UNL A   1      33.922  35.293  29.091  1.00  0.00     0.021 C 
BRANCH  27  28
ATOM     28  C   UNL A   1      33.962  34.589  30.437  1.00  0.00     0.116 C 
BRANCH  28  29
ATOM     29  N   UNL A   1      34.165  35.504  31.563  1.00  0.00    -0.352 N 
ATOM     30  C   UNL A   1      34.913  35.292  32.711  1.00  0.00     0.251 C 
ATOM     31  H   UNL A   1      33.715  36.377  31.494  1.00  0.00     0.163 HD
ATOM     32  O   UNL A   1      34.716  35.937  33.726  1.00  0.00    -0.269 OA
BRANCH  30  33
ATOM     33  C   UNL A   1      35.978  34.274  32.666  1.00  0.00     0.039 A 
ATOM     34  C   UNL A   1      35.707  32.903  32.681  1.00  0.00     0.014 A 
ATOM     35  C   UNL A   1      37.285  34.739  32.576  1.00  0.00     0.014 A 
ATOM     36  C   UNL A   1      36.771  32.013  32.538  1.00  0.00     0.010 A 
ATOM     37  C   UNL A   1      38.284  33.884  32.218  1.00  0.00     0.010 A 
ATOM     38  C   UNL A   1      38.057  32.520  32.295  1.00  0.00    -0.014 A 
BRANCH  38  39
ATOM     39  C   UNL A   1      39.192  31.654  32.017  1.00  0.00     0.031 A 
ATOM     40  C   UNL A   1      39.921  31.205  33.228  1.00  0.00     0.074 A 
ATOM     41  C   UNL A   1      39.399  31.103  30.799  1.00  0.00     0.049 A 
ATOM     42  N   UNL A   1      41.111  31.539  33.592  1.00  0.00    -0.248 NA
ATOM     43  C   UNL A   1      39.189  30.412  34.232  1.00  0.00     0.031 C 
ATOM     44  C   UNL A   1      38.555  31.188  29.597  1.00  0.00     0.029 A 
ATOM     45  N   UNL A   1      40.362  30.229  30.411  1.00  0.00    -0.354 N 
ATOM     46  C   UNL A   1      41.367  30.827  34.758  1.00  0.00     0.074 A 
ATOM     47  C   UNL A   1      40.095  30.321  35.207  1.00  0.00     0.031 C 
ATOM     48  C   UNL A   1      38.902  30.214  28.726  1.00  0.00     0.029 A 
ATOM     49  C   UNL A   1      40.096  29.557  29.222  1.00  0.00     0.049 A 
ATOM     50  H   UNL A   1      41.185  30.080  30.930  1.00  0.00     0.167 HD
ATOM     51  C   UNL A   1      42.638  30.474  35.098  1.00  0.00     0.031 A 
ATOM     52  C   UNL A   1      40.794  28.514  28.704  1.00  0.00     0.031 A 
ATOM     53  C   UNL A   1      43.611  31.204  34.322  1.00  0.00     0.049 A 
ATOM     54  C   UNL A   1      42.125  28.517  29.356  1.00  0.00     0.074 A 
ATOM     55  C   UNL A   1      43.901  32.540  34.134  1.00  0.00     0.029 A 
ATOM     56  N   UNL A   1      44.181  30.542  33.258  1.00  0.00    -0.354 N 
ATOM     57  N   UNL A   1      43.001  29.464  29.183  1.00  0.00    -0.248 NA
ATOM     58  C   UNL A   1      42.282  27.731  30.570  1.00  0.00     0.031 C 
ATOM     59  C   UNL A   1      44.180  32.659  32.739  1.00  0.00     0.029 A 
ATOM     60  C   UNL A   1      44.136  31.382  32.176  1.00  0.00     0.049 A 
ATOM     61  H   UNL A   1      44.553  29.631  33.271  1.00  0.00     0.167 HD
ATOM     62  C   UNL A   1      43.521  29.695  30.448  1.00  0.00     0.074 A 
ATOM     63  C   UNL A   1      43.106  28.538  31.245  1.00  0.00     0.031 C 
ATOM     64  C   UNL A   1      43.978  30.930  30.810  1.00  0.00     0.031 A 
BRANCH  51  65
ATOM     65  C   UNL A   1      42.987  29.173  35.780  1.00  0.00    -0.014 A 
ATOM     66  C   UNL A   1      43.960  29.192  36.797  1.00  0.00     0.009 A 
ATOM     67  C   UNL A   1      42.628  27.908  35.277  1.00  0.00     0.009 A 
ATOM     68  C   UNL A   1      44.601  28.020  37.215  1.00  0.00     0.001 A 
ATOM     69  C   UNL A   1      43.236  26.731  35.721  1.00  0.00     0.001 A 
ATOM     70  C   UNL A   1      44.246  26.792  36.669  1.00  0.00     0.000 A 
ENDBRANCH  51  65
BRANCH  52  71
ATOM     71  C   UNL A   1      40.299  27.353  27.929  1.00  0.00    -0.014 A 
ATOM     72  C   UNL A   1      40.857  27.027  26.681  1.00  0.00     0.009 A 
ATOM     73  C   UNL A   1      39.476  26.391  28.543  1.00  0.00     0.009 A 
ATOM     74  C   UNL A   1      40.632  25.774  26.093  1.00  0.00     0.001 A 
ATOM     75  C   UNL A   1      39.251  25.140  27.956  1.00  0.00     0.001 A 
ATOM     76  C   UNL A   1      39.842  24.825  26.738  1.00  0.00     0.000 A 
ENDBRANCH  52  71
BRANCH  64  77
ATOM     77  C   UNL A   1      44.105  31.988  29.738  1.00  0.00    -0.014 A 
ATOM     78  C   UNL A   1      43.093  32.919  29.441  1.00  0.00     0.009 A 
ATOM     79  C   UNL A   1      45.354  32.150  29.123  1.00  0.00     0.009 A 
ATOM     80  C   UNL A   1      43.322  33.965  28.538  1.00  0.00     0.001 A 
ATOM     81  C   UNL A   1      45.589  33.205  28.238  1.00  0.00     0.001 A 
ATOM     82  C   UNL A   1      44.573  34.110  27.943  1.00  0.00     0.000 A 
ENDBRANCH  64  77
ENDBRANCH  38  39
ENDBRANCH  30  33
ENDBRANCH  28  29
ENDBRANCH  27  28
ENDBRANCH  26  27
ENDBRANCH  25  26
ENDBRANCH   1  25
TORSDOF 18
ENDMDL
