MODEL 1
REMARK VINA RESULT:     -11.5      0.000      0.000
REMARK SMILES Nc1nc(N2CCOC[C@H]2C(=O)NCCCCCCNC(=O)c2ccc(-c3c4nc(c(-c5ccccc5)c5ccc([nH]5)c(-c5ccccc5)c5nc(c(-c6ccccc6)c6ccc3[nH]6)C=C5)C=C4)cc2)ccc1[N+](=O)[O-]
REMARK SMILES IDX 16 1 15 2 14 3 13 4 11 5 12 6 10 8 5 9 6 10 7 11 9 12 8 13
REMARK SMILES IDX 4 14 2 15 3 16 73 17 72 18 71 19 1 20 74 23 75 24 76 25
REMARK SMILES IDX 17 26 18 27 19 28 20 29 21 30 22 32 23 33 24 34 70 35 25 36
REMARK SMILES IDX 69 37 26 38 27 39 28 40 63 41 29 42 68 43 62 44 64 45 30 46
REMARK SMILES IDX 67 47 61 48 60 49 31 51 53 52 38 53 52 54 39 55 42 56 51 57
REMARK SMILES IDX 65 58 40 59 41 60 50 62 66 63 43 64 32 65 33 66 37 67 34 68
REMARK SMILES IDX 36 69 35 70 54 71 55 72 59 73 56 74 58 75 57 76 44 77 45 78
REMARK SMILES IDX 49 79 46 80 48 81 47 82
REMARK H PARENT 13 7 1 21 1 22 20 31 64 50 42 61
REMARK Flexibility Score: inf
ROOT
ATOM      1  C   UNL A   1      36.501  22.163  24.092  1.00  0.00     0.002 C 
ENDROOT
BRANCH   1   2
ATOM      2  C   UNL A   1      36.138  23.369  24.961  1.00  0.00     0.021 C 
BRANCH   2   3
ATOM      3  C   UNL A   1      34.759  23.956  24.654  1.00  0.00     0.116 C 
BRANCH   3   4
ATOM      4  N   UNL A   1      34.419  23.797  23.258  1.00  0.00    -0.354 N 
ATOM      5  C   UNL A   1      33.332  23.279  22.624  1.00  0.00     0.245 C 
ATOM      6  O   UNL A   1      33.375  23.342  21.386  1.00  0.00    -0.273 OA
ATOM      7  H   UNL A   1      35.111  24.128  22.642  1.00  0.00     0.163 HD
BRANCH   5   8
ATOM      8  C   UNL A   1      32.060  22.739  23.320  1.00  0.00     0.199 C 
ATOM      9  N   UNL A   1      32.253  21.872  24.505  1.00  0.00    -0.340 N 
ATOM     10  C   UNL A   1      32.200  22.476  25.828  1.00  0.00     0.147 C 
ATOM     11  C   UNL A   1      31.010  23.433  25.927  1.00  0.00     0.181 C 
ATOM     12  C   UNL A   1      30.995  23.827  23.586  1.00  0.00     0.195 C 
ATOM     13  O   UNL A   1      31.042  24.425  24.895  1.00  0.00    -0.377 OA
BRANCH   9  14
ATOM     14  C   UNL A   1      32.507  20.528  24.341  1.00  0.00     0.132 A 
ATOM     15  C   UNL A   1      32.469  18.624  22.967  1.00  0.00     0.204 A 
ATOM     16  N   UNL A   1      32.163  19.930  23.181  1.00  0.00    -0.207 NA
ATOM     17  C   UNL A   1      33.121  17.869  23.936  1.00  0.00     0.311 A 
ATOM     18  C   UNL A   1      33.420  18.450  25.166  1.00  0.00     0.093 A 
ATOM     19  C   UNL A   1      33.105  19.788  25.361  1.00  0.00     0.054 A 
BRANCH  15  20
ATOM     20  N   UNL A   1      32.175  18.178  21.696  1.00  0.00    -0.378 N 
ATOM     21  H   UNL A   1      31.724  17.312  21.569  1.00  0.00     0.158 HD
ATOM     22  H   UNL A   1      32.415  18.726  20.914  1.00  0.00     0.158 HD
ENDBRANCH  15  20
BRANCH  17  23
ATOM     23  N   UNL A   1      33.499  16.482  23.709  1.00  0.00     0.066 N 
ATOM     24  O   UNL A   1      34.140  16.232  22.676  1.00  0.00    -0.258 OA
ATOM     25  O   UNL A   1      33.197  15.637  24.565  1.00  0.00    -0.258 OA
ENDBRANCH  17  23
ENDBRANCH   9  14
ENDBRANCH   5   8
ENDBRANCH   3   4
ENDBRANCH   2   3
ENDBRANCH   1   2
BRANCH   1  26
ATOM     26  C   UNL A   1      36.433  20.805  24.804  1.00  0.00     0.002 C 
BRANCH  26  27
ATOM     27  C   UNL A   1      37.718  19.972  24.770  1.00  0.00     0.021 C 
BRANCH  27  28
ATOM     28  C   UNL A   1      38.804  20.420  25.746  1.00  0.00     0.116 C 
BRANCH  28  29
ATOM     29  N   UNL A   1      39.910  19.478  25.805  1.00  0.00    -0.352 N 
ATOM     30  C   UNL A   1      41.233  19.695  26.096  1.00  0.00     0.251 C 
ATOM     31  H   UNL A   1      39.673  18.543  25.607  1.00  0.00     0.163 HD
ATOM     32  O   UNL A   1      42.060  18.811  25.897  1.00  0.00    -0.269 OA
BRANCH  30  33
ATOM     33  C   UNL A   1      41.669  20.996  26.641  1.00  0.00     0.039 A 
ATOM     34  C   UNL A   1      42.148  21.972  25.762  1.00  0.00     0.014 A 
ATOM     35  C   UNL A   1      41.641  21.244  28.017  1.00  0.00     0.014 A 
ATOM     36  C   UNL A   1      42.550  23.214  26.257  1.00  0.00     0.010 A 
ATOM     37  C   UNL A   1      41.979  22.504  28.501  1.00  0.00     0.010 A 
ATOM     38  C   UNL A   1      42.444  23.497  27.628  1.00  0.00    -0.014 A 
BRANCH  38  39
ATOM     39  C   UNL A   1      42.829  24.824  28.169  1.00  0.00     0.031 A 
ATOM     40  C   UNL A   1      41.784  25.884  28.383  1.00  0.00     0.074 A 
ATOM     41  C   UNL A   1      44.124  25.095  28.415  1.00  0.00     0.049 A 
ATOM     42  N   UNL A   1      41.929  27.116  28.800  1.00  0.00    -0.248 NA
ATOM     43  C   UNL A   1      40.396  25.516  28.061  1.00  0.00     0.031 C 
ATOM     44  C   UNL A   1      45.236  24.162  28.227  1.00  0.00     0.029 A 
ATOM     45  N   UNL A   1      44.722  26.239  28.877  1.00  0.00    -0.354 N 
ATOM     46  C   UNL A   1      40.658  27.674  28.776  1.00  0.00     0.074 A 
ATOM     47  C   UNL A   1      39.763  26.665  28.252  1.00  0.00     0.031 C 
ATOM     48  C   UNL A   1      46.377  24.759  28.606  1.00  0.00     0.029 A 
ATOM     49  C   UNL A   1      46.083  26.125  29.026  1.00  0.00     0.049 A 
ATOM     50  H   UNL A   1      44.224  27.063  29.083  1.00  0.00     0.167 HD
ATOM     51  C   UNL A   1      40.264  28.908  29.172  1.00  0.00     0.031 A 
ATOM     52  C   UNL A   1      46.991  27.021  29.454  1.00  0.00     0.031 A 
ATOM     53  C   UNL A   1      41.152  29.912  29.695  1.00  0.00     0.049 A 
ATOM     54  C   UNL A   1      46.537  28.395  29.855  1.00  0.00     0.074 A 
ATOM     55  C   UNL A   1      40.845  31.176  30.168  1.00  0.00     0.029 A 
ATOM     56  N   UNL A   1      42.526  29.764  29.808  1.00  0.00    -0.354 N 
ATOM     57  N   UNL A   1      45.325  28.891  29.876  1.00  0.00    -0.248 NA
ATOM     58  C   UNL A   1      47.581  29.331  30.296  1.00  0.00     0.031 C 
ATOM     59  C   UNL A   1      42.042  31.811  30.523  1.00  0.00     0.029 A 
ATOM     60  C   UNL A   1      43.086  30.923  30.320  1.00  0.00     0.049 A 
ATOM     61  H   UNL A   1      43.030  28.955  29.562  1.00  0.00     0.167 HD
ATOM     62  C   UNL A   1      45.454  30.186  30.362  1.00  0.00     0.074 A 
ATOM     63  C   UNL A   1      46.862  30.394  30.629  1.00  0.00     0.031 C 
ATOM     64  C   UNL A   1      44.491  31.117  30.573  1.00  0.00     0.031 A 
BRANCH  51  65
ATOM     65  C   UNL A   1      38.802  29.235  29.032  1.00  0.00    -0.014 A 
ATOM     66  C   UNL A   1      37.915  29.082  30.111  1.00  0.00     0.009 A 
ATOM     67  C   UNL A   1      38.302  29.698  27.806  1.00  0.00     0.009 A 
ATOM     68  C   UNL A   1      36.551  29.333  29.949  1.00  0.00     0.001 A 
ATOM     69  C   UNL A   1      36.943  29.980  27.655  1.00  0.00     0.001 A 
ATOM     70  C   UNL A   1      36.067  29.783  28.722  1.00  0.00     0.000 A 
ENDBRANCH  51  65
BRANCH  52  71
ATOM     71  C   UNL A   1      48.420  26.629  29.564  1.00  0.00    -0.014 A 
ATOM     72  C   UNL A   1      48.889  26.007  30.730  1.00  0.00     0.009 A 
ATOM     73  C   UNL A   1      49.313  26.856  28.507  1.00  0.00     0.009 A 
ATOM     74  C   UNL A   1      50.230  25.634  30.842  1.00  0.00     0.001 A 
ATOM     75  C   UNL A   1      50.649  26.461  28.613  1.00  0.00     0.001 A 
ATOM     76  C   UNL A   1      51.107  25.856  29.782  1.00  0.00     0.000 A 
ENDBRANCH  52  71
BRANCH  64  77
ATOM     77  C   UNL A   1      44.927  32.434  31.148  1.00  0.00    -0.014 A 
ATOM     78  C   UNL A   1      45.002  32.636  32.535  1.00  0.00     0.009 A 
ATOM     79  C   UNL A   1      45.301  33.477  30.286  1.00  0.00     0.009 A 
ATOM     80  C   UNL A   1      45.413  33.869  33.046  1.00  0.00     0.001 A 
ATOM     81  C   UNL A   1      45.737  34.699  30.800  1.00  0.00     0.001 A 
ATOM     82  C   UNL A   1      45.783  34.896  32.179  1.00  0.00     0.000 A 
ENDBRANCH  64  77
ENDBRANCH  38  39
ENDBRANCH  30  33
ENDBRANCH  28  29
ENDBRANCH  27  28
ENDBRANCH  26  27
ENDBRANCH   1  26
TORSDOF 16
ENDMDL
MODEL 2
REMARK VINA RESULT:     -11.5      4.200      9.359
REMARK SMILES Nc1nc(N2CCOC[C@H]2C(=O)NCCCCCCNC(=O)c2ccc(-c3c4nc(c(-c5ccccc5)c5ccc([nH]5)c(-c5ccccc5)c5nc(c(-c6ccccc6)c6ccc3[nH]6)C=C5)C=C4)cc2)ccc1[N+](=O)[O-]
REMARK SMILES IDX 16 1 15 2 14 3 13 4 11 5 12 6 10 8 5 9 6 10 7 11 9 12 8 13
REMARK SMILES IDX 4 14 2 15 3 16 73 17 72 18 71 19 1 20 74 23 75 24 76 25
REMARK SMILES IDX 17 26 18 27 19 28 20 29 21 30 22 32 23 33 24 34 70 35 25 36
REMARK SMILES IDX 69 37 26 38 27 39 28 40 63 41 29 42 68 43 62 44 64 45 30 46
REMARK SMILES IDX 67 47 61 48 60 49 31 51 53 52 38 53 52 54 39 55 42 56 51 57
REMARK SMILES IDX 65 58 40 59 41 60 50 62 66 63 43 64 32 65 33 66 37 67 34 68
REMARK SMILES IDX 36 69 35 70 54 71 55 72 59 73 56 74 58 75 57 76 44 77 45 78
REMARK SMILES IDX 49 79 46 80 48 81 47 82
REMARK H PARENT 13 7 1 21 1 22 20 31 64 50 42 61
REMARK Flexibility Score: inf
ROOT
ATOM      1  C   UNL A   1      32.294  29.682  26.779  1.00  0.00     0.002 C 
ENDROOT
BRANCH   1   2
ATOM      2  C   UNL A   1      31.592  28.571  27.564  1.00  0.00     0.021 C 
BRANCH   2   3
ATOM      3  C   UNL A   1      31.490  27.249  26.801  1.00  0.00     0.116 C 
BRANCH   3   4
ATOM      4  N   UNL A   1      32.796  26.754  26.428  1.00  0.00    -0.354 N 
ATOM      5  C   UNL A   1      33.212  25.856  25.495  1.00  0.00     0.245 C 
ATOM      6  O   UNL A   1      34.443  25.704  25.436  1.00  0.00    -0.273 OA
ATOM      7  H   UNL A   1      33.530  27.144  26.954  1.00  0.00     0.163 HD
BRANCH   5   8
ATOM      8  C   UNL A   1      32.300  25.127  24.480  1.00  0.00     0.199 C 
ATOM      9  N   UNL A   1      32.056  25.801  23.184  1.00  0.00    -0.340 N 
ATOM     10  C   UNL A   1      32.887  25.443  22.043  1.00  0.00     0.147 C 
ATOM     11  C   UNL A   1      33.036  23.923  21.952  1.00  0.00     0.181 C 
ATOM     12  C   UNL A   1      32.670  23.640  24.280  1.00  0.00     0.195 C 
ATOM     13  O   UNL A   1      33.544  23.367  23.170  1.00  0.00    -0.377 OA
BRANCH   9  14
ATOM     14  C   UNL A   1      31.079  26.766  23.084  1.00  0.00     0.132 A 
ATOM     15  C   UNL A   1      30.414  28.887  22.327  1.00  0.00     0.204 A 
ATOM     16  N   UNL A   1      31.378  27.948  22.503  1.00  0.00    -0.207 NA
ATOM     17  C   UNL A   1      29.108  28.669  22.753  1.00  0.00     0.311 A 
ATOM     18  C   UNL A   1      28.797  27.484  23.416  1.00  0.00     0.093 A 
ATOM     19  C   UNL A   1      29.797  26.534  23.580  1.00  0.00     0.054 A 
BRANCH  15  20
ATOM     20  N   UNL A   1      30.827  29.990  21.610  1.00  0.00    -0.378 N 
ATOM     21  H   UNL A   1      31.788  30.155  21.470  1.00  0.00     0.158 HD
ATOM     22  H   UNL A   1      30.162  30.613  21.236  1.00  0.00     0.158 HD
ENDBRANCH  15  20
BRANCH  17  23
ATOM     23  N   UNL A   1      28.050  29.643  22.531  1.00  0.00     0.066 N 
ATOM     24  O   UNL A   1      27.993  30.172  21.410  1.00  0.00    -0.258 OA
ATOM     25  O   UNL A   1      27.247  29.866  23.449  1.00  0.00    -0.258 OA
ENDBRANCH  17  23
ENDBRANCH   9  14
ENDBRANCH   5   8
ENDBRANCH   3   4
ENDBRANCH   2   3
ENDBRANCH   1   2
BRANCH   1  26
ATOM     26  C   UNL A   1      31.358  30.632  26.020  1.00  0.00     0.002 C 
BRANCH  26  27
ATOM     27  C   UNL A   1      31.296  32.068  26.551  1.00  0.00     0.021 C 
BRANCH  27  28
ATOM     28  C   UNL A   1      32.624  32.629  27.053  1.00  0.00     0.116 C 
BRANCH  28  29
ATOM     29  N   UNL A   1      32.470  33.940  27.662  1.00  0.00    -0.352 N 
ATOM     30  C   UNL A   1      33.196  34.533  28.664  1.00  0.00     0.251 C 
ATOM     31  H   UNL A   1      31.734  34.485  27.301  1.00  0.00     0.163 HD
ATOM     32  O   UNL A   1      32.790  35.565  29.191  1.00  0.00    -0.269 OA
BRANCH  30  33
ATOM     33  C   UNL A   1      34.463  33.927  29.122  1.00  0.00     0.039 A 
ATOM     34  C   UNL A   1      34.444  33.077  30.231  1.00  0.00     0.014 A 
ATOM     35  C   UNL A   1      35.670  34.222  28.484  1.00  0.00     0.014 A 
ATOM     36  C   UNL A   1      35.629  32.482  30.669  1.00  0.00     0.010 A 
ATOM     37  C   UNL A   1      36.839  33.577  28.879  1.00  0.00     0.010 A 
ATOM     38  C   UNL A   1      36.831  32.709  29.979  1.00  0.00    -0.014 A 
BRANCH  38  39
ATOM     39  C   UNL A   1      38.094  32.056  30.403  1.00  0.00     0.031 A 
ATOM     40  C   UNL A   1      38.963  32.699  31.448  1.00  0.00     0.074 A 
ATOM     41  C   UNL A   1      38.488  30.914  29.808  1.00  0.00     0.049 A 
ATOM     42  N   UNL A   1      40.122  32.308  31.914  1.00  0.00    -0.248 NA
ATOM     43  C   UNL A   1      38.475  33.961  32.026  1.00  0.00     0.031 C 
ATOM     44  C   UNL A   1      37.747  30.203  28.765  1.00  0.00     0.029 A 
ATOM     45  N   UNL A   1      39.612  30.152  29.999  1.00  0.00    -0.354 N 
ATOM     46  C   UNL A   1      40.508  33.281  32.826  1.00  0.00     0.074 A 
ATOM     47  C   UNL A   1      39.488  34.307  32.808  1.00  0.00     0.031 C 
ATOM     48  C   UNL A   1      38.419  29.088  28.434  1.00  0.00     0.029 A 
ATOM     49  C   UNL A   1      39.652  29.027  29.212  1.00  0.00     0.049 A 
ATOM     50  H   UNL A   1      40.322  30.388  30.639  1.00  0.00     0.167 HD
ATOM     51  C   UNL A   1      41.603  33.312  33.623  1.00  0.00     0.031 A 
ATOM     52  C   UNL A   1      40.579  28.055  29.128  1.00  0.00     0.031 A 
ATOM     53  C   UNL A   1      42.618  32.293  33.645  1.00  0.00     0.049 A 
ATOM     54  C   UNL A   1      41.802  28.127  29.996  1.00  0.00     0.074 A 
ATOM     55  C   UNL A   1      43.741  32.207  34.449  1.00  0.00     0.029 A 
ATOM     56  N   UNL A   1      42.632  31.181  32.816  1.00  0.00    -0.354 N 
ATOM     57  N   UNL A   1      42.128  29.026  30.891  1.00  0.00    -0.248 NA
ATOM     58  C   UNL A   1      42.783  27.044  29.843  1.00  0.00     0.031 C 
ATOM     59  C   UNL A   1      44.460  31.066  34.073  1.00  0.00     0.029 A 
ATOM     60  C   UNL A   1      43.758  30.415  33.071  1.00  0.00     0.049 A 
ATOM     61  H   UNL A   1      41.944  30.966  32.145  1.00  0.00     0.167 HD
ATOM     62  C   UNL A   1      43.335  28.603  31.432  1.00  0.00     0.074 A 
ATOM     63  C   UNL A   1      43.679  27.362  30.767  1.00  0.00     0.031 C 
ATOM     64  C   UNL A   1      44.089  29.187  32.395  1.00  0.00     0.031 A 
BRANCH  51  65
ATOM     65  C   UNL A   1      41.757  34.506  34.526  1.00  0.00    -0.014 A 
ATOM     66  C   UNL A   1      42.419  35.667  34.092  1.00  0.00     0.009 A 
ATOM     67  C   UNL A   1      41.238  34.470  35.828  1.00  0.00     0.009 A 
ATOM     68  C   UNL A   1      42.605  36.744  34.961  1.00  0.00     0.001 A 
ATOM     69  C   UNL A   1      41.397  35.562  36.685  1.00  0.00     0.001 A 
ATOM     70  C   UNL A   1      42.092  36.691  36.256  1.00  0.00     0.000 A 
ENDBRANCH  51  65
BRANCH  52  71
ATOM     71  C   UNL A   1      40.362  26.905  28.213  1.00  0.00    -0.014 A 
ATOM     72  C   UNL A   1      40.889  26.934  26.913  1.00  0.00     0.009 A 
ATOM     73  C   UNL A   1      39.648  25.773  28.633  1.00  0.00     0.009 A 
ATOM     74  C   UNL A   1      40.691  25.857  26.046  1.00  0.00     0.001 A 
ATOM     75  C   UNL A   1      39.473  24.688  27.772  1.00  0.00     0.001 A 
ATOM     76  C   UNL A   1      39.989  24.734  26.478  1.00  0.00     0.000 A 
ENDBRANCH  52  71
BRANCH  64  77
ATOM     77  C   UNL A   1      45.344  28.472  32.809  1.00  0.00    -0.014 A 
ATOM     78  C   UNL A   1      46.576  28.747  32.196  1.00  0.00     0.009 A 
ATOM     79  C   UNL A   1      45.296  27.532  33.851  1.00  0.00     0.009 A 
ATOM     80  C   UNL A   1      47.730  28.072  32.600  1.00  0.00     0.001 A 
ATOM     81  C   UNL A   1      46.455  26.879  34.270  1.00  0.00     0.001 A 
ATOM     82  C   UNL A   1      47.669  27.143  33.637  1.00  0.00     0.000 A 
ENDBRANCH  64  77
ENDBRANCH  38  39
ENDBRANCH  30  33
ENDBRANCH  28  29
ENDBRANCH  27  28
ENDBRANCH  26  27
ENDBRANCH   1  26
TORSDOF 16
ENDMDL
MODEL 3
REMARK VINA RESULT:     -11.4      4.747      9.737
REMARK SMILES Nc1nc(N2CCOC[C@H]2C(=O)NCCCCCCNC(=O)c2ccc(-c3c4nc(c(-c5ccccc5)c5ccc([nH]5)c(-c5ccccc5)c5nc(c(-c6ccccc6)c6ccc3[nH]6)C=C5)C=C4)cc2)ccc1[N+](=O)[O-]
REMARK SMILES IDX 16 1 15 2 14 3 13 4 11 5 12 6 10 8 5 9 6 10 7 11 9 12 8 13
REMARK SMILES IDX 4 14 2 15 3 16 73 17 72 18 71 19 1 20 74 23 75 24 76 25
REMARK SMILES IDX 17 26 18 27 19 28 20 29 21 30 22 32 23 33 24 34 70 35 25 36
REMARK SMILES IDX 69 37 26 38 27 39 28 40 63 41 29 42 68 43 62 44 64 45 30 46
REMARK SMILES IDX 67 47 61 48 60 49 31 51 53 52 38 53 52 54 39 55 42 56 51 57
REMARK SMILES IDX 65 58 40 59 41 60 50 62 66 63 43 64 32 65 33 66 37 67 34 68
REMARK SMILES IDX 36 69 35 70 54 71 55 72 59 73 56 74 58 75 57 76 44 77 45 78
REMARK SMILES IDX 49 79 46 80 48 81 47 82
REMARK H PARENT 13 7 1 21 1 22 20 31 64 50 42 61
REMARK Flexibility Score: inf
ROOT
ATOM      1  C   UNL A   1      32.186  29.620  26.129  1.00  0.00     0.002 C 
ENDROOT
BRANCH   1   2
ATOM      2  C   UNL A   1      31.594  28.753  27.243  1.00  0.00     0.021 C 
BRANCH   2   3
ATOM      3  C   UNL A   1      31.504  27.269  26.885  1.00  0.00     0.116 C 
BRANCH   3   4
ATOM      4  N   UNL A   1      32.794  26.741  26.499  1.00  0.00    -0.354 N 
ATOM      5  C   UNL A   1      33.177  25.822  25.572  1.00  0.00     0.245 C 
ATOM      6  O   UNL A   1      34.403  25.643  25.497  1.00  0.00    -0.273 OA
ATOM      7  H   UNL A   1      33.544  27.122  27.009  1.00  0.00     0.163 HD
BRANCH   5   8
ATOM      8  C   UNL A   1      32.235  25.100  24.580  1.00  0.00     0.199 C 
ATOM      9  N   UNL A   1      32.000  25.753  23.273  1.00  0.00    -0.340 N 
ATOM     10  C   UNL A   1      32.810  25.347  22.133  1.00  0.00     0.147 C 
ATOM     11  C   UNL A   1      32.913  23.821  22.073  1.00  0.00     0.181 C 
ATOM     12  C   UNL A   1      32.558  23.598  24.409  1.00  0.00     0.195 C 
ATOM     13  O   UNL A   1      33.415  23.276  23.298  1.00  0.00    -0.377 OA
BRANCH   9  14
ATOM     14  C   UNL A   1      31.051  26.745  23.159  1.00  0.00     0.132 A 
ATOM     15  C   UNL A   1      30.444  28.870  22.367  1.00  0.00     0.204 A 
ATOM     16  N   UNL A   1      31.381  27.906  22.556  1.00  0.00    -0.207 NA
ATOM     17  C   UNL A   1      29.135  28.698  22.804  1.00  0.00     0.311 A 
ATOM     18  C   UNL A   1      28.793  27.536  23.491  1.00  0.00     0.093 A 
ATOM     19  C   UNL A   1      29.765  26.560  23.667  1.00  0.00     0.054 A 
BRANCH  15  20
ATOM     20  N   UNL A   1      30.886  29.947  21.627  1.00  0.00    -0.378 N 
ATOM     21  H   UNL A   1      31.667  30.465  21.929  1.00  0.00     0.158 HD
ATOM     22  H   UNL A   1      30.420  30.199  20.797  1.00  0.00     0.158 HD
ENDBRANCH  15  20
BRANCH  17  23
ATOM     23  N   UNL A   1      28.105  29.700  22.570  1.00  0.00     0.066 N 
ATOM     24  O   UNL A   1      28.026  30.174  21.426  1.00  0.00    -0.258 OA
ATOM     25  O   UNL A   1      27.344  29.997  23.502  1.00  0.00    -0.258 OA
ENDBRANCH  17  23
ENDBRANCH   9  14
ENDBRANCH   5   8
ENDBRANCH   3   4
ENDBRANCH   2   3
ENDBRANCH   1   2
BRANCH   1  26
ATOM     26  C   UNL A   1      31.213  30.631  25.507  1.00  0.00     0.002 C 
BRANCH  26  27
ATOM     27  C   UNL A   1      31.059  31.956  26.260  1.00  0.00     0.021 C 
BRANCH  27  28
ATOM     28  C   UNL A   1      32.317  32.442  26.974  1.00  0.00     0.116 C 
BRANCH  28  29
ATOM     29  N   UNL A   1      32.205  33.828  27.399  1.00  0.00    -0.352 N 
ATOM     30  C   UNL A   1      32.909  34.512  28.358  1.00  0.00     0.251 C 
ATOM     31  H   UNL A   1      31.520  34.356  26.928  1.00  0.00     0.163 HD
ATOM     32  O   UNL A   1      32.535  35.622  28.722  1.00  0.00    -0.269 OA
BRANCH  30  33
ATOM     33  C   UNL A   1      34.114  33.911  28.964  1.00  0.00     0.039 A 
ATOM     34  C   UNL A   1      35.373  34.359  28.553  1.00  0.00     0.014 A 
ATOM     35  C   UNL A   1      34.008  32.885  29.907  1.00  0.00     0.014 A 
ATOM     36  C   UNL A   1      36.524  33.813  29.126  1.00  0.00     0.010 A 
ATOM     37  C   UNL A   1      35.152  32.389  30.525  1.00  0.00     0.010 A 
ATOM     38  C   UNL A   1      36.420  32.842  30.135  1.00  0.00    -0.014 A 
BRANCH  38  39
ATOM     39  C   UNL A   1      37.629  32.279  30.784  1.00  0.00     0.031 A 
ATOM     40  C   UNL A   1      38.318  31.082  30.189  1.00  0.00     0.074 A 
ATOM     41  C   UNL A   1      38.074  32.807  31.940  1.00  0.00     0.049 A 
ATOM     42  N   UNL A   1      39.355  30.419  30.634  1.00  0.00    -0.248 NA
ATOM     43  C   UNL A   1      37.750  30.547  28.941  1.00  0.00     0.031 C 
ATOM     44  C   UNL A   1      37.480  33.953  32.632  1.00  0.00     0.029 A 
ATOM     45  N   UNL A   1      39.131  32.446  32.736  1.00  0.00    -0.354 N 
ATOM     46  C   UNL A   1      39.553  29.382  29.733  1.00  0.00     0.074 A 
ATOM     47  C   UNL A   1      38.498  29.471  28.747  1.00  0.00     0.031 C 
ATOM     48  C   UNL A   1      38.205  34.224  33.729  1.00  0.00     0.029 A 
ATOM     49  C   UNL A   1      39.287  33.251  33.838  1.00  0.00     0.049 A 
ATOM     50  H   UNL A   1      39.722  31.685  32.535  1.00  0.00     0.167 HD
ATOM     51  C   UNL A   1      40.535  28.449  29.714  1.00  0.00     0.031 A 
ATOM     52  C   UNL A   1      40.201  33.208  34.824  1.00  0.00     0.031 A 
ATOM     53  C   UNL A   1      41.586  28.359  30.692  1.00  0.00     0.049 A 
ATOM     54  C   UNL A   1      41.260  32.145  34.802  1.00  0.00     0.074 A 
ATOM     55  C   UNL A   1      42.655  27.481  30.736  1.00  0.00     0.029 A 
ATOM     56  N   UNL A   1      41.695  29.179  31.805  1.00  0.00    -0.354 N 
ATOM     57  N   UNL A   1      41.467  31.203  33.915  1.00  0.00    -0.248 NA
ATOM     58  C   UNL A   1      42.217  32.144  35.918  1.00  0.00     0.031 C 
ATOM     59  C   UNL A   1      43.384  27.740  31.903  1.00  0.00     0.029 A 
ATOM     60  C   UNL A   1      42.799  28.812  32.556  1.00  0.00     0.049 A 
ATOM     61  H   UNL A   1      41.079  29.914  32.029  1.00  0.00     0.167 HD
ATOM     62  C   UNL A   1      42.594  30.515  34.347  1.00  0.00     0.074 A 
ATOM     63  C   UNL A   1      43.029  31.155  35.572  1.00  0.00     0.031 C 
ATOM     64  C   UNL A   1      43.215  29.454  33.778  1.00  0.00     0.031 A 
BRANCH  51  65
ATOM     65  C   UNL A   1      40.497  27.441  28.597  1.00  0.00    -0.014 A 
ATOM     66  C   UNL A   1      41.180  27.664  27.390  1.00  0.00     0.009 A 
ATOM     67  C   UNL A   1      39.765  26.254  28.750  1.00  0.00     0.009 A 
ATOM     68  C   UNL A   1      41.086  26.746  26.342  1.00  0.00     0.001 A 
ATOM     69  C   UNL A   1      39.699  25.322  27.712  1.00  0.00     0.001 A 
ATOM     70  C   UNL A   1      40.348  25.576  26.505  1.00  0.00     0.000 A 
ENDBRANCH  51  65
BRANCH  52  71
ATOM     71  C   UNL A   1      40.177  34.236  35.897  1.00  0.00    -0.014 A 
ATOM     72  C   UNL A   1      39.443  34.009  37.071  1.00  0.00     0.009 A 
ATOM     73  C   UNL A   1      40.896  35.434  35.765  1.00  0.00     0.009 A 
ATOM     74  C   UNL A   1      39.416  34.968  38.085  1.00  0.00     0.001 A 
ATOM     75  C   UNL A   1      40.886  36.381  36.792  1.00  0.00     0.001 A 
ATOM     76  C   UNL A   1      40.141  36.150  37.947  1.00  0.00     0.000 A 
ENDBRANCH  52  71
BRANCH  64  77
ATOM     77  C   UNL A   1      44.450  28.938  34.459  1.00  0.00    -0.014 A 
ATOM     78  C   UNL A   1      44.382  27.914  35.416  1.00  0.00     0.009 A 
ATOM     79  C   UNL A   1      45.704  29.464  34.112  1.00  0.00     0.009 A 
ATOM     80  C   UNL A   1      45.545  27.449  36.034  1.00  0.00     0.001 A 
ATOM     81  C   UNL A   1      46.867  28.978  34.712  1.00  0.00     0.001 A 
ATOM     82  C   UNL A   1      46.784  27.978  35.679  1.00  0.00     0.000 A 
ENDBRANCH  64  77
ENDBRANCH  38  39
ENDBRANCH  30  33
ENDBRANCH  28  29
ENDBRANCH  27  28
ENDBRANCH  26  27
ENDBRANCH   1  26
TORSDOF 16
ENDMDL
