MODEL 1
REMARK VINA RESULT:     -12.4      0.000      0.000
REMARK SMILES C[C@@H]1C(C(=O)NCCCCCCNC(=O)c2ccc(-c3c4nc(c(-c5ccccc5)c5ccc([nH]5)c(-c5ccccc5)c5nc(c(-c6ccccc6)c6ccc3[nH]6)C=C5)C=C4)cc2)=NC2=C1C(=O)C[C@H](c1ccccc1)C2
REMARK SMILES IDX 10 1 9 2 8 3 7 4 6 5 4 6 5 7 3 9 1 10 2 11 66 12 64 13 65 14
REMARK SMILES IDX 67 15 77 16 68 17 69 18 70 19 71 20 72 21 76 22 73 23 75 24
REMARK SMILES IDX 74 25 11 26 12 27 13 28 14 29 15 31 16 32 17 33 63 34 18 35
REMARK SMILES IDX 62 36 19 37 20 38 21 39 56 40 22 41 61 42 55 43 57 44 23 45
REMARK SMILES IDX 60 46 54 47 53 48 24 50 46 51 31 52 45 53 32 54 35 55 44 56
REMARK SMILES IDX 58 57 33 58 34 59 43 61 59 62 36 63 25 64 26 65 30 66 27 67
REMARK SMILES IDX 29 68 28 69 47 70 48 71 52 72 49 73 51 74 50 75 37 76 38 77
REMARK SMILES IDX 42 78 39 79 41 80 40 81
REMARK H PARENT 6 8 13 30 57 49 35 60
REMARK Flexibility Score: inf
ROOT
ATOM      1  C   UNL A   1      31.527  30.420  26.001  1.00  0.00     0.002 C 
ENDROOT
BRANCH   1   2
ATOM      2  C   UNL A   1      31.763  29.350  27.073  1.00  0.00     0.002 C 
BRANCH   2   3
ATOM      3  C   UNL A   1      33.124  28.665  27.143  1.00  0.00     0.021 C 
BRANCH   3   4
ATOM      4  C   UNL A   1      33.374  27.380  26.355  1.00  0.00     0.116 C 
BRANCH   4   5
ATOM      5  N   UNL A   1      33.970  27.477  25.039  1.00  0.00    -0.351 N 
ATOM      6  C   UNL A   1      33.341  27.466  23.798  1.00  0.00     0.266 C 
ATOM      7  O   UNL A   1      33.914  27.956  22.831  1.00  0.00    -0.268 OA
ATOM      8  H   UNL A   1      34.951  27.563  25.021  1.00  0.00     0.163 HD
BRANCH   6   9
ATOM      9  C   UNL A   1      32.024  26.716  23.574  1.00  0.00     0.113 C 
ATOM     10  C   UNL A   1      29.793  27.791  23.250  1.00  0.00     0.020 C 
ATOM     11  C   UNL A   1      30.720  27.081  24.233  1.00  0.00     0.076 C 
ATOM     12  C   UNL A   1      30.353  25.642  24.392  1.00  0.00     0.026 C 
ATOM     13  N   UNL A   1      31.973  25.613  22.865  1.00  0.00    -0.251 NA
ATOM     14  C   UNL A   1      30.918  24.918  23.421  1.00  0.00     0.049 C 
ATOM     15  C   UNL A   1      30.270  24.973  25.710  1.00  0.00     0.161 C 
ATOM     16  C   UNL A   1      30.941  23.418  23.494  1.00  0.00     0.065 C 
ATOM     17  O   UNL A   1      29.645  25.522  26.617  1.00  0.00    -0.294 OA
ATOM     18  C   UNL A   1      31.080  23.682  25.960  1.00  0.00     0.089 C 
ATOM     19  C   UNL A   1      31.786  23.031  24.724  1.00  0.00     0.033 C 
BRANCH  19  20
ATOM     20  C   UNL A   1      33.286  23.338  24.535  1.00  0.00    -0.044 A 
ATOM     21  C   UNL A   1      34.014  24.026  25.531  1.00  0.00     0.004 A 
ATOM     22  C   UNL A   1      34.002  22.951  23.394  1.00  0.00     0.004 A 
ATOM     23  C   UNL A   1      35.403  24.141  25.490  1.00  0.00     0.000 A 
ATOM     24  C   UNL A   1      35.395  23.096  23.332  1.00  0.00     0.000 A 
ATOM     25  C   UNL A   1      36.099  23.652  24.397  1.00  0.00     0.000 A 
ENDBRANCH  19  20
ENDBRANCH   6   9
ENDBRANCH   4   5
ENDBRANCH   3   4
ENDBRANCH   2   3
ENDBRANCH   1   2
BRANCH   1  26
ATOM     26  C   UNL A   1      31.380  31.882  26.442  1.00  0.00     0.021 C 
BRANCH  26  27
ATOM     27  C   UNL A   1      32.558  32.459  27.208  1.00  0.00     0.116 C 
BRANCH  27  28
ATOM     28  N   UNL A   1      32.385  33.856  27.613  1.00  0.00    -0.352 N 
ATOM     29  C   UNL A   1      33.059  34.543  28.616  1.00  0.00     0.251 C 
ATOM     30  H   UNL A   1      31.712  34.370  27.114  1.00  0.00     0.163 HD
ATOM     31  O   UNL A   1      32.598  35.556  29.110  1.00  0.00    -0.269 OA
BRANCH  29  32
ATOM     32  C   UNL A   1      34.370  34.026  29.060  1.00  0.00     0.039 A 
ATOM     33  C   UNL A   1      34.562  33.435  30.314  1.00  0.00     0.014 A 
ATOM     34  C   UNL A   1      35.426  34.137  28.163  1.00  0.00     0.014 A 
ATOM     35  C   UNL A   1      35.815  32.904  30.617  1.00  0.00     0.010 A 
ATOM     36  C   UNL A   1      36.573  33.428  28.371  1.00  0.00     0.010 A 
ATOM     37  C   UNL A   1      36.812  32.897  29.628  1.00  0.00    -0.014 A 
BRANCH  37  38
ATOM     38  C   UNL A   1      38.093  32.230  29.816  1.00  0.00     0.031 A 
ATOM     39  C   UNL A   1      38.060  30.804  29.411  1.00  0.00     0.074 A 
ATOM     40  C   UNL A   1      39.238  32.914  30.051  1.00  0.00     0.049 A 
ATOM     41  N   UNL A   1      38.067  29.770  30.183  1.00  0.00    -0.248 NA
ATOM     42  C   UNL A   1      37.792  30.486  27.995  1.00  0.00     0.031 C 
ATOM     43  C   UNL A   1      39.410  34.376  30.090  1.00  0.00     0.029 A 
ATOM     44  N   UNL A   1      40.520  32.469  30.176  1.00  0.00    -0.354 N 
ATOM     45  C   UNL A   1      38.091  28.673  29.326  1.00  0.00     0.074 A 
ATOM     46  C   UNL A   1      37.659  29.158  28.043  1.00  0.00     0.031 C 
ATOM     47  C   UNL A   1      40.721  34.688  29.977  1.00  0.00     0.029 A 
ATOM     48  C   UNL A   1      41.491  33.461  30.045  1.00  0.00     0.049 A 
ATOM     49  H   UNL A   1      40.742  31.525  30.345  1.00  0.00     0.167 HD
ATOM     50  C   UNL A   1      38.835  27.576  29.642  1.00  0.00     0.031 A 
ATOM     51  C   UNL A   1      42.835  33.290  29.993  1.00  0.00     0.031 A 
ATOM     52  C   UNL A   1      39.288  27.651  31.009  1.00  0.00     0.049 A 
ATOM     53  C   UNL A   1      43.128  31.961  30.567  1.00  0.00     0.074 A 
ATOM     54  C   UNL A   1      38.743  27.514  32.265  1.00  0.00     0.029 A 
ATOM     55  N   UNL A   1      40.460  28.352  31.142  1.00  0.00    -0.354 N 
ATOM     56  N   UNL A   1      42.924  31.671  31.821  1.00  0.00    -0.248 NA
ATOM     57  C   UNL A   1      43.291  30.820  29.676  1.00  0.00     0.031 C 
ATOM     58  C   UNL A   1      39.550  28.308  33.132  1.00  0.00     0.029 A 
ATOM     59  C   UNL A   1      40.604  28.856  32.402  1.00  0.00     0.049 A 
ATOM     60  H   UNL A   1      41.115  28.476  30.417  1.00  0.00     0.167 HD
ATOM     61  C   UNL A   1      42.486  30.360  31.794  1.00  0.00     0.074 A 
ATOM     62  C   UNL A   1      42.903  29.840  30.497  1.00  0.00     0.031 C 
ATOM     63  C   UNL A   1      41.540  29.925  32.674  1.00  0.00     0.031 A 
BRANCH  50  64
ATOM     64  C   UNL A   1      39.635  26.771  28.633  1.00  0.00    -0.014 A 
ATOM     65  C   UNL A   1      40.629  27.441  27.893  1.00  0.00     0.009 A 
ATOM     66  C   UNL A   1      39.261  25.498  28.165  1.00  0.00     0.009 A 
ATOM     67  C   UNL A   1      41.157  26.899  26.713  1.00  0.00     0.001 A 
ATOM     68  C   UNL A   1      39.809  24.939  27.004  1.00  0.00     0.001 A 
ATOM     69  C   UNL A   1      40.739  25.652  26.265  1.00  0.00     0.000 A 
ENDBRANCH  50  64
BRANCH  51  70
ATOM     70  C   UNL A   1      43.877  34.081  29.302  1.00  0.00    -0.014 A 
ATOM     71  C   UNL A   1      45.191  34.143  29.796  1.00  0.00     0.009 A 
ATOM     72  C   UNL A   1      43.650  34.533  27.990  1.00  0.00     0.009 A 
ATOM     73  C   UNL A   1      46.246  34.596  28.989  1.00  0.00     0.001 A 
ATOM     74  C   UNL A   1      44.705  34.980  27.183  1.00  0.00     0.001 A 
ATOM     75  C   UNL A   1      46.005  34.998  27.677  1.00  0.00     0.000 A 
ENDBRANCH  51  70
BRANCH  63  76
ATOM     76  C   UNL A   1      41.356  30.701  33.945  1.00  0.00    -0.014 A 
ATOM     77  C   UNL A   1      40.418  31.732  34.112  1.00  0.00     0.009 A 
ATOM     78  C   UNL A   1      42.110  30.292  35.054  1.00  0.00     0.009 A 
ATOM     79  C   UNL A   1      40.255  32.344  35.361  1.00  0.00     0.001 A 
ATOM     80  C   UNL A   1      41.933  30.887  36.301  1.00  0.00     0.001 A 
ATOM     81  C   UNL A   1      41.008  31.916  36.454  1.00  0.00     0.000 A 
ENDBRANCH  63  76
ENDBRANCH  37  38
ENDBRANCH  29  32
ENDBRANCH  27  28
ENDBRANCH  26  27
ENDBRANCH   1  26
TORSDOF 14
ENDMDL
MODEL 2
REMARK VINA RESULT:     -12.1      2.724      6.359
REMARK SMILES C[C@@H]1C(C(=O)NCCCCCCNC(=O)c2ccc(-c3c4nc(c(-c5ccccc5)c5ccc([nH]5)c(-c5ccccc5)c5nc(c(-c6ccccc6)c6ccc3[nH]6)C=C5)C=C4)cc2)=NC2=C1C(=O)C[C@H](c1ccccc1)C2
REMARK SMILES IDX 10 1 9 2 8 3 7 4 6 5 4 6 5 7 3 9 1 10 2 11 66 12 64 13 65 14
REMARK SMILES IDX 67 15 77 16 68 17 69 18 70 19 71 20 72 21 76 22 73 23 75 24
REMARK SMILES IDX 74 25 11 26 12 27 13 28 14 29 15 31 16 32 17 33 63 34 18 35
REMARK SMILES IDX 62 36 19 37 20 38 21 39 56 40 22 41 61 42 55 43 57 44 23 45
REMARK SMILES IDX 60 46 54 47 53 48 24 50 46 51 31 52 45 53 32 54 35 55 44 56
REMARK SMILES IDX 58 57 33 58 34 59 43 61 59 62 36 63 25 64 26 65 30 66 27 67
REMARK SMILES IDX 29 68 28 69 47 70 48 71 52 72 49 73 51 74 50 75 37 76 38 77
REMARK SMILES IDX 42 78 39 79 41 80 40 81
REMARK H PARENT 6 8 13 30 57 49 35 60
REMARK Flexibility Score: inf
ROOT
ATOM      1  C   UNL A   1      34.761  29.554  27.500  1.00  0.00     0.002 C 
ENDROOT
BRANCH   1   2
ATOM      2  C   UNL A   1      33.724  28.461  27.221  1.00  0.00     0.002 C 
BRANCH   2   3
ATOM      3  C   UNL A   1      33.619  27.887  25.811  1.00  0.00     0.021 C 
BRANCH   3   4
ATOM      4  C   UNL A   1      33.675  26.376  25.595  1.00  0.00     0.116 C 
BRANCH   4   5
ATOM      5  N   UNL A   1      34.341  25.867  24.414  1.00  0.00    -0.351 N 
ATOM      6  C   UNL A   1      33.879  24.932  23.493  1.00  0.00     0.266 C 
ATOM      7  O   UNL A   1      34.360  24.912  22.365  1.00  0.00    -0.268 OA
ATOM      8  H   UNL A   1      35.238  26.232  24.240  1.00  0.00     0.163 HD
BRANCH   6   9
ATOM      9  C   UNL A   1      32.901  23.823  23.897  1.00  0.00     0.113 C 
ATOM     10  C   UNL A   1      30.438  23.857  23.490  1.00  0.00     0.020 C 
ATOM     11  C   UNL A   1      31.550  24.070  24.514  1.00  0.00     0.076 C 
ATOM     12  C   UNL A   1      31.702  22.888  25.414  1.00  0.00     0.026 C 
ATOM     13  N   UNL A   1      33.237  22.556  23.836  1.00  0.00    -0.251 NA
ATOM     14  C   UNL A   1      32.484  21.971  24.835  1.00  0.00     0.049 C 
ATOM     15  C   UNL A   1      31.851  23.007  26.882  1.00  0.00     0.161 C 
ATOM     16  C   UNL A   1      33.023  20.813  25.623  1.00  0.00     0.065 C 
ATOM     17  O   UNL A   1      31.072  23.732  27.502  1.00  0.00    -0.294 OA
ATOM     18  C   UNL A   1      33.055  22.341  27.581  1.00  0.00     0.089 C 
ATOM     19  C   UNL A   1      33.946  21.388  26.715  1.00  0.00     0.033 C 
BRANCH  19  20
ATOM     20  C   UNL A   1      35.249  21.981  26.140  1.00  0.00    -0.044 A 
ATOM     21  C   UNL A   1      36.083  21.211  25.299  1.00  0.00     0.004 A 
ATOM     22  C   UNL A   1      35.667  23.293  26.404  1.00  0.00     0.004 A 
ATOM     23  C   UNL A   1      37.153  21.772  24.600  1.00  0.00     0.000 A 
ATOM     24  C   UNL A   1      36.763  23.850  25.730  1.00  0.00     0.000 A 
ATOM     25  C   UNL A   1      37.479  23.103  24.798  1.00  0.00     0.000 A 
ENDBRANCH  19  20
ENDBRANCH   6   9
ENDBRANCH   4   5
ENDBRANCH   3   4
ENDBRANCH   2   3
ENDBRANCH   1   2
BRANCH   1  26
ATOM     26  C   UNL A   1      34.318  31.021  27.438  1.00  0.00     0.021 C 
BRANCH  26  27
ATOM     27  C   UNL A   1      35.338  32.037  27.925  1.00  0.00     0.116 C 
BRANCH  27  28
ATOM     28  N   UNL A   1      35.002  32.658  29.208  1.00  0.00    -0.352 N 
ATOM     29  C   UNL A   1      35.325  32.209  30.483  1.00  0.00     0.251 C 
ATOM     30  H   UNL A   1      34.486  33.494  29.162  1.00  0.00     0.163 HD
ATOM     31  O   UNL A   1      34.701  32.578  31.462  1.00  0.00    -0.269 OA
BRANCH  29  32
ATOM     32  C   UNL A   1      36.465  31.281  30.632  1.00  0.00     0.039 A 
ATOM     33  C   UNL A   1      36.298  29.906  30.828  1.00  0.00     0.014 A 
ATOM     34  C   UNL A   1      37.738  31.833  30.553  1.00  0.00     0.014 A 
ATOM     35  C   UNL A   1      37.432  29.095  30.878  1.00  0.00     0.010 A 
ATOM     36  C   UNL A   1      38.822  31.023  30.381  1.00  0.00     0.010 A 
ATOM     37  C   UNL A   1      38.692  29.668  30.641  1.00  0.00    -0.014 A 
BRANCH  37  38
ATOM     38  C   UNL A   1      39.904  28.868  30.529  1.00  0.00     0.031 A 
ATOM     39  C   UNL A   1      40.583  28.672  31.831  1.00  0.00     0.074 A 
ATOM     40  C   UNL A   1      40.198  28.153  29.417  1.00  0.00     0.049 A 
ATOM     41  N   UNL A   1      41.680  29.222  32.234  1.00  0.00    -0.248 NA
ATOM     42  C   UNL A   1      39.866  27.934  32.889  1.00  0.00     0.031 C 
ATOM     43  C   UNL A   1      39.367  27.999  28.210  1.00  0.00     0.029 A 
ATOM     44  N   UNL A   1      41.232  27.302  29.166  1.00  0.00    -0.354 N 
ATOM     45  C   UNL A   1      41.927  28.669  33.487  1.00  0.00     0.074 A 
ATOM     46  C   UNL A   1      40.679  28.112  33.933  1.00  0.00     0.031 C 
ATOM     47  C   UNL A   1      39.797  26.941  27.488  1.00  0.00     0.029 A 
ATOM     48  C   UNL A   1      41.034  26.460  28.072  1.00  0.00     0.049 A 
ATOM     49  H   UNL A   1      42.052  27.285  29.710  1.00  0.00     0.167 HD
ATOM     50  C   UNL A   1      43.203  28.368  33.861  1.00  0.00     0.031 A 
ATOM     51  C   UNL A   1      41.827  25.434  27.674  1.00  0.00     0.031 A 
ATOM     52  C   UNL A   1      44.148  28.946  32.936  1.00  0.00     0.049 A 
ATOM     53  C   UNL A   1      43.156  25.649  28.282  1.00  0.00     0.074 A 
ATOM     54  C   UNL A   1      44.640  30.197  32.642  1.00  0.00     0.029 A 
ATOM     55  N   UNL A   1      44.389  28.141  31.852  1.00  0.00    -0.354 N 
ATOM     56  N   UNL A   1      43.926  26.652  27.965  1.00  0.00    -0.248 NA
ATOM     57  C   UNL A   1      43.488  24.971  29.529  1.00  0.00     0.031 C 
ATOM     58  C   UNL A   1      45.032  30.152  31.271  1.00  0.00     0.029 A 
ATOM     59  C   UNL A   1      44.834  28.861  30.781  1.00  0.00     0.049 A 
ATOM     60  H   UNL A   1      44.257  27.165  31.847  1.00  0.00     0.167 HD
ATOM     61  C   UNL A   1      44.525  27.005  29.158  1.00  0.00     0.074 A 
ATOM     62  C   UNL A   1      44.367  25.845  30.029  1.00  0.00     0.031 C 
ATOM     63  C   UNL A   1      44.791  28.312  29.444  1.00  0.00     0.031 A 
BRANCH  50  64
ATOM     64  C   UNL A   1      43.590  27.128  34.646  1.00  0.00    -0.014 A 
ATOM     65  C   UNL A   1      44.320  27.303  35.839  1.00  0.00     0.009 A 
ATOM     66  C   UNL A   1      43.546  25.820  34.129  1.00  0.00     0.009 A 
ATOM     67  C   UNL A   1      45.025  26.246  36.430  1.00  0.00     0.001 A 
ATOM     68  C   UNL A   1      44.222  24.755  34.734  1.00  0.00     0.001 A 
ATOM     69  C   UNL A   1      44.983  24.974  35.872  1.00  0.00     0.000 A 
ENDBRANCH  50  64
BRANCH  51  70
ATOM     70  C   UNL A   1      41.487  24.170  26.984  1.00  0.00    -0.014 A 
ATOM     71  C   UNL A   1      42.420  23.518  26.161  1.00  0.00     0.009 A 
ATOM     72  C   UNL A   1      40.345  23.451  27.375  1.00  0.00     0.009 A 
ATOM     73  C   UNL A   1      42.238  22.179  25.782  1.00  0.00     0.001 A 
ATOM     74  C   UNL A   1      40.166  22.112  27.002  1.00  0.00     0.001 A 
ATOM     75  C   UNL A   1      41.120  21.471  26.217  1.00  0.00     0.000 A 
ENDBRANCH  51  70
BRANCH  63  76
ATOM     76  C   UNL A   1      44.893  29.272  28.296  1.00  0.00    -0.014 A 
ATOM     77  C   UNL A   1      43.834  30.073  27.840  1.00  0.00     0.009 A 
ATOM     78  C   UNL A   1      46.159  29.437  27.716  1.00  0.00     0.009 A 
ATOM     79  C   UNL A   1      44.043  31.006  26.817  1.00  0.00     0.001 A 
ATOM     80  C   UNL A   1      46.371  30.380  26.713  1.00  0.00     0.001 A 
ATOM     81  C   UNL A   1      45.312  31.162  26.260  1.00  0.00     0.000 A 
ENDBRANCH  63  76
ENDBRANCH  37  38
ENDBRANCH  29  32
ENDBRANCH  27  28
ENDBRANCH  26  27
ENDBRANCH   1  26
TORSDOF 14
ENDMDL
MODEL 3
REMARK VINA RESULT:     -12.1      2.308      7.441
REMARK SMILES C[C@@H]1C(C(=O)NCCCCCCNC(=O)c2ccc(-c3c4nc(c(-c5ccccc5)c5ccc([nH]5)c(-c5ccccc5)c5nc(c(-c6ccccc6)c6ccc3[nH]6)C=C5)C=C4)cc2)=NC2=C1C(=O)C[C@H](c1ccccc1)C2
REMARK SMILES IDX 10 1 9 2 8 3 7 4 6 5 4 6 5 7 3 9 1 10 2 11 66 12 64 13 65 14
REMARK SMILES IDX 67 15 77 16 68 17 69 18 70 19 71 20 72 21 76 22 73 23 75 24
REMARK SMILES IDX 74 25 11 26 12 27 13 28 14 29 15 31 16 32 17 33 63 34 18 35
REMARK SMILES IDX 62 36 19 37 20 38 21 39 56 40 22 41 61 42 55 43 57 44 23 45
REMARK SMILES IDX 60 46 54 47 53 48 24 50 46 51 31 52 45 53 32 54 35 55 44 56
REMARK SMILES IDX 58 57 33 58 34 59 43 61 59 62 36 63 25 64 26 65 30 66 27 67
REMARK SMILES IDX 29 68 28 69 47 70 48 71 52 72 49 73 51 74 50 75 37 76 38 77
REMARK SMILES IDX 42 78 39 79 41 80 40 81
REMARK H PARENT 6 8 13 30 57 49 35 60
REMARK Flexibility Score: inf
ROOT
ATOM      1  C   UNL A   1      38.008  23.591  26.056  1.00  0.00     0.002 C 
ENDROOT
BRANCH   1   2
ATOM      2  C   UNL A   1      36.855  23.705  25.053  1.00  0.00     0.002 C 
BRANCH   2   3
ATOM      3  C   UNL A   1      35.421  23.688  25.574  1.00  0.00     0.021 C 
BRANCH   3   4
ATOM      4  C   UNL A   1      34.512  24.895  25.349  1.00  0.00     0.116 C 
BRANCH   4   5
ATOM      5  N   UNL A   1      33.467  25.166  26.313  1.00  0.00    -0.351 N 
ATOM      6  C   UNL A   1      32.090  25.186  26.116  1.00  0.00     0.266 C 
ATOM      7  O   UNL A   1      31.344  25.026  27.077  1.00  0.00    -0.268 OA
ATOM      8  H   UNL A   1      33.771  25.362  27.229  1.00  0.00     0.163 HD
BRANCH   6   9
ATOM      9  C   UNL A   1      31.478  25.562  24.763  1.00  0.00     0.113 C 
ATOM     10  C   UNL A   1      30.503  23.948  23.125  1.00  0.00     0.020 C 
ATOM     11  C   UNL A   1      31.717  24.800  23.486  1.00  0.00     0.076 C 
ATOM     12  C   UNL A   1      31.754  26.066  22.693  1.00  0.00     0.026 C 
ATOM     13  N   UNL A   1      30.783  26.664  24.605  1.00  0.00    -0.251 NA
ATOM     14  C   UNL A   1      30.994  26.995  23.281  1.00  0.00     0.049 C 
ATOM     15  C   UNL A   1      32.984  26.575  22.046  1.00  0.00     0.161 C 
ATOM     16  C   UNL A   1      31.067  28.432  22.852  1.00  0.00     0.065 C 
ATOM     17  O   UNL A   1      33.664  25.802  21.370  1.00  0.00    -0.294 OA
ATOM     18  C   UNL A   1      33.462  28.012  22.344  1.00  0.00     0.089 C 
ATOM     19  C   UNL A   1      32.492  28.933  23.159  1.00  0.00     0.033 C 
BRANCH  19  20
ATOM     20  C   UNL A   1      32.762  29.066  24.672  1.00  0.00    -0.044 A 
ATOM     21  C   UNL A   1      33.886  28.444  25.262  1.00  0.00     0.004 A 
ATOM     22  C   UNL A   1      31.934  29.803  25.529  1.00  0.00     0.004 A 
ATOM     23  C   UNL A   1      34.274  28.707  26.576  1.00  0.00     0.000 A 
ATOM     24  C   UNL A   1      32.303  30.041  26.860  1.00  0.00     0.000 A 
ATOM     25  C   UNL A   1      33.493  29.529  27.370  1.00  0.00     0.000 A 
ENDBRANCH  19  20
ENDBRANCH   6   9
ENDBRANCH   4   5
ENDBRANCH   3   4
ENDBRANCH   2   3
ENDBRANCH   1   2
BRANCH   1  26
ATOM     26  C   UNL A   1      38.787  22.272  26.134  1.00  0.00     0.021 C 
BRANCH  26  27
ATOM     27  C   UNL A   1      40.018  22.287  27.025  1.00  0.00     0.116 C 
BRANCH  27  28
ATOM     28  N   UNL A   1      41.278  22.064  26.312  1.00  0.00    -0.352 N 
ATOM     29  C   UNL A   1      42.130  23.017  25.767  1.00  0.00     0.251 C 
ATOM     30  H   UNL A   1      41.555  21.126  26.208  1.00  0.00     0.163 HD
ATOM     31  O   UNL A   1      42.932  22.727  24.897  1.00  0.00    -0.269 OA
BRANCH  29  32
ATOM     32  C   UNL A   1      42.057  24.399  26.283  1.00  0.00     0.039 A 
ATOM     33  C   UNL A   1      41.298  25.397  25.663  1.00  0.00     0.014 A 
ATOM     34  C   UNL A   1      42.774  24.676  27.442  1.00  0.00     0.014 A 
ATOM     35  C   UNL A   1      41.224  26.653  26.265  1.00  0.00     0.010 A 
ATOM     36  C   UNL A   1      42.525  25.822  28.139  1.00  0.00     0.010 A 
ATOM     37  C   UNL A   1      41.836  26.848  27.514  1.00  0.00    -0.014 A 
BRANCH  37  38
ATOM     38  C   UNL A   1      41.680  28.080  28.275  1.00  0.00     0.031 A 
ATOM     39  C   UNL A   1      42.759  29.059  28.008  1.00  0.00     0.074 A 
ATOM     40  C   UNL A   1      40.528  28.393  28.916  1.00  0.00     0.049 A 
ATOM     41  N   UNL A   1      43.734  29.385  28.789  1.00  0.00    -0.248 NA
ATOM     42  C   UNL A   1      42.890  29.599  26.640  1.00  0.00     0.031 C 
ATOM     43  C   UNL A   1      39.269  27.630  28.910  1.00  0.00     0.029 A 
ATOM     44  N   UNL A   1      40.181  29.517  29.604  1.00  0.00    -0.354 N 
ATOM     45  C   UNL A   1      44.430  30.382  28.111  1.00  0.00     0.074 A 
ATOM     46  C   UNL A   1      44.037  30.276  26.731  1.00  0.00     0.031 C 
ATOM     47  C   UNL A   1      38.254  28.415  29.335  1.00  0.00     0.029 A 
ATOM     48  C   UNL A   1      38.811  29.663  29.817  1.00  0.00     0.049 A 
ATOM     49  H   UNL A   1      40.843  30.171  29.925  1.00  0.00     0.167 HD
ATOM     50  C   UNL A   1      44.947  31.440  28.796  1.00  0.00     0.031 A 
ATOM     51  C   UNL A   1      38.175  30.737  30.350  1.00  0.00     0.031 A 
ATOM     52  C   UNL A   1      44.896  31.195  30.216  1.00  0.00     0.049 A 
ATOM     53  C   UNL A   1      39.183  31.515  31.097  1.00  0.00     0.074 A 
ATOM     54  C   UNL A   1      45.561  30.412  31.132  1.00  0.00     0.029 A 
ATOM     55  N   UNL A   1      43.697  31.556  30.775  1.00  0.00    -0.354 N 
ATOM     56  N   UNL A   1      39.777  31.065  32.166  1.00  0.00    -0.248 NA
ATOM     57  C   UNL A   1      39.830  32.650  30.449  1.00  0.00     0.031 C 
ATOM     58  C   UNL A   1      44.637  30.179  32.193  1.00  0.00     0.029 A 
ATOM     59  C   UNL A   1      43.458  30.877  31.934  1.00  0.00     0.049 A 
ATOM     60  H   UNL A   1      43.085  32.222  30.386  1.00  0.00     0.167 HD
ATOM     61  C   UNL A   1      41.068  31.546  32.060  1.00  0.00     0.074 A 
ATOM     62  C   UNL A   1      40.994  32.645  31.104  1.00  0.00     0.031 C 
ATOM     63  C   UNL A   1      42.125  30.800  32.491  1.00  0.00     0.031 A 
BRANCH  50  64
ATOM     64  C   UNL A   1      44.940  32.870  28.284  1.00  0.00    -0.014 A 
ATOM     65  C   UNL A   1      43.703  33.540  28.216  1.00  0.00     0.009 A 
ATOM     66  C   UNL A   1      46.011  33.466  27.593  1.00  0.00     0.009 A 
ATOM     67  C   UNL A   1      43.535  34.695  27.439  1.00  0.00     0.001 A 
ATOM     68  C   UNL A   1      45.856  34.637  26.842  1.00  0.00     0.001 A 
ATOM     69  C   UNL A   1      44.610  35.237  26.744  1.00  0.00     0.000 A 
ENDBRANCH  50  64
BRANCH  51  70
ATOM     70  C   UNL A   1      36.816  31.266  30.102  1.00  0.00    -0.014 A 
ATOM     71  C   UNL A   1      35.988  31.669  31.164  1.00  0.00     0.009 A 
ATOM     72  C   UNL A   1      36.448  31.655  28.803  1.00  0.00     0.009 A 
ATOM     73  C   UNL A   1      34.859  32.472  30.936  1.00  0.00     0.001 A 
ATOM     74  C   UNL A   1      35.324  32.460  28.576  1.00  0.00     0.001 A 
ATOM     75  C   UNL A   1      34.538  32.881  29.644  1.00  0.00     0.000 A 
ENDBRANCH  51  70
BRANCH  63  76
ATOM     76  C   UNL A   1      41.857  29.723  33.501  1.00  0.00    -0.014 A 
ATOM     77  C   UNL A   1      41.599  28.382  33.176  1.00  0.00     0.009 A 
ATOM     78  C   UNL A   1      41.971  30.078  34.853  1.00  0.00     0.009 A 
ATOM     79  C   UNL A   1      41.446  27.427  34.188  1.00  0.00     0.001 A 
ATOM     80  C   UNL A   1      41.839  29.123  35.858  1.00  0.00     0.001 A 
ATOM     81  C   UNL A   1      41.573  27.797  35.526  1.00  0.00     0.000 A 
ENDBRANCH  63  76
ENDBRANCH  37  38
ENDBRANCH  29  32
ENDBRANCH  27  28
ENDBRANCH  26  27
ENDBRANCH   1  26
TORSDOF 14
ENDMDL
