MODEL 1
REMARK VINA RESULT:     -10.1      0.000      0.000
REMARK SMILES CC(C)CC1(CNc2ccnc(C(=O)NCCCCCCNC(=O)c3ccc(-c4c5nc(c(-c6ccccc6)c6ccc([nH]6)c(-c6ccccc6)c6nc(c(-c7ccccc7)c7ccc4[nH]7)C=C6)C=C5)cc3)c2)CCCC1
REMARK SMILES IDX 17 1 16 2 15 3 13 4 14 5 12 7 8 8 9 9 73 10 10 11 11 12 7 13
REMARK SMILES IDX 6 15 5 16 74 17 77 18 75 19 76 20 4 21 2 22 1 23 3 24 18 25
REMARK SMILES IDX 19 26 20 27 21 28 22 29 23 30 24 32 25 33 26 34 72 35 27 36
REMARK SMILES IDX 71 37 28 38 29 39 30 40 65 41 31 42 70 43 64 44 66 45 32 46
REMARK SMILES IDX 69 47 63 48 62 49 33 51 55 52 40 53 54 54 41 55 44 56 53 57
REMARK SMILES IDX 67 58 42 59 43 60 52 62 68 63 45 64 34 65 35 66 39 67 36 68
REMARK SMILES IDX 38 69 37 70 56 71 57 72 61 73 58 74 60 75 59 76 46 77 47 78
REMARK SMILES IDX 51 79 48 80 50 81 49 82
REMARK H PARENT 15 6 7 14 22 31 66 50 44 61
REMARK Flexibility Score: inf
ROOT
ATOM      1  C   UNL A   1      36.880  22.559  25.744  1.00  0.00     0.021 C 
ENDROOT
BRANCH   1   2
ATOM      2  C   UNL A   1      36.425  22.448  24.295  1.00  0.00     0.116 C 
BRANCH   2   3
ATOM      3  N   UNL A   1      35.081  21.926  24.131  1.00  0.00    -0.351 N 
ATOM      4  C   UNL A   1      33.921  22.474  23.615  1.00  0.00     0.269 C 
ATOM      5  O   UNL A   1      32.924  21.748  23.614  1.00  0.00    -0.268 OA
ATOM      6  H   UNL A   1      34.975  21.000  24.448  1.00  0.00     0.163 HD
BRANCH   4   7
ATOM      7  C   UNL A   1      33.818  23.893  23.122  1.00  0.00     0.130 A 
ATOM      8  C   UNL A   1      33.703  26.266  23.496  1.00  0.00     0.038 A 
ATOM      9  C   UNL A   1      33.255  26.401  22.186  1.00  0.00     0.046 A 
ATOM     10  C   UNL A   1      34.096  24.997  23.918  1.00  0.00     0.060 A 
ATOM     11  C   UNL A   1      33.150  25.271  21.393  1.00  0.00     0.114 A 
ATOM     12  N   UNL A   1      33.378  24.023  21.843  1.00  0.00    -0.251 NA
BRANCH   8  13
ATOM     13  N   UNL A   1      33.657  27.291  24.427  1.00  0.00    -0.384 N 
ATOM     14  H   UNL A   1      33.975  28.185  24.162  1.00  0.00     0.160 HD
BRANCH  13  15
ATOM     15  C   UNL A   1      33.156  27.102  25.785  1.00  0.00     0.119 C 
BRANCH  15  16
ATOM     16  C   UNL A   1      31.666  27.575  25.976  1.00  0.00    -0.012 C 
ATOM     17  C   UNL A   1      31.460  28.762  25.005  1.00  0.00     0.009 C 
ATOM     18  C   UNL A   1      31.445  28.237  27.347  1.00  0.00     0.009 C 
ATOM     19  C   UNL A   1      32.011  29.986  25.727  1.00  0.00     0.001 C 
ATOM     20  C   UNL A   1      31.971  29.665  27.217  1.00  0.00     0.001 C 
BRANCH  16  21
ATOM     21  C   UNL A   1      30.683  26.401  25.672  1.00  0.00     0.012 C 
BRANCH  21  22
ATOM     22  C   UNL A   1      30.173  26.149  24.224  1.00  0.00    -0.017 C 
ATOM     23  C   UNL A   1      30.318  24.718  23.706  1.00  0.00     0.007 C 
ATOM     24  C   UNL A   1      28.691  26.538  24.131  1.00  0.00     0.007 C 
ENDBRANCH  21  22
ENDBRANCH  16  21
ENDBRANCH  15  16
ENDBRANCH  13  15
ENDBRANCH   8  13
ENDBRANCH   4   7
ENDBRANCH   2   3
ENDBRANCH   1   2
BRANCH   1  25
ATOM     25  C   UNL A   1      38.061  23.482  26.028  1.00  0.00     0.002 C 
BRANCH  25  26
ATOM     26  C   UNL A   1      39.352  22.812  26.508  1.00  0.00     0.002 C 
BRANCH  26  27
ATOM     27  C   UNL A   1      39.613  21.393  26.000  1.00  0.00     0.021 C 
BRANCH  27  28
ATOM     28  C   UNL A   1      40.508  20.529  26.883  1.00  0.00     0.116 C 
BRANCH  28  29
ATOM     29  N   UNL A   1      41.643  19.977  26.161  1.00  0.00    -0.352 N 
ATOM     30  C   UNL A   1      42.773  20.612  25.703  1.00  0.00     0.251 C 
ATOM     31  H   UNL A   1      41.595  19.011  25.974  1.00  0.00     0.163 HD
ATOM     32  O   UNL A   1      43.564  20.032  24.975  1.00  0.00    -0.269 OA
BRANCH  30  33
ATOM     33  C   UNL A   1      43.018  22.021  26.083  1.00  0.00     0.039 A 
ATOM     34  C   UNL A   1      43.024  23.003  25.088  1.00  0.00     0.014 A 
ATOM     35  C   UNL A   1      43.232  22.367  27.419  1.00  0.00     0.014 A 
ATOM     36  C   UNL A   1      43.171  24.347  25.444  1.00  0.00     0.010 A 
ATOM     37  C   UNL A   1      43.315  23.708  27.777  1.00  0.00     0.010 A 
ATOM     38  C   UNL A   1      43.282  24.711  26.794  1.00  0.00    -0.014 A 
BRANCH  38  39
ATOM     39  C   UNL A   1      43.368  26.129  27.223  1.00  0.00     0.031 A 
ATOM     40  C   UNL A   1      44.715  26.775  27.390  1.00  0.00     0.074 A 
ATOM     41  C   UNL A   1      42.252  26.796  27.574  1.00  0.00     0.049 A 
ATOM     42  N   UNL A   1      45.019  27.929  27.927  1.00  0.00    -0.248 NA
ATOM     43  C   UNL A   1      45.877  26.002  26.920  1.00  0.00     0.031 C 
ATOM     44  C   UNL A   1      40.886  26.277  27.478  1.00  0.00     0.029 A 
ATOM     45  N   UNL A   1      42.094  28.052  28.107  1.00  0.00    -0.354 N 
ATOM     46  C   UNL A   1      46.405  28.004  27.892  1.00  0.00     0.074 A 
ATOM     47  C   UNL A   1      46.884  26.767  27.312  1.00  0.00     0.031 C 
ATOM     48  C   UNL A   1      40.032  27.207  27.935  1.00  0.00     0.029 A 
ATOM     49  C   UNL A   1      40.789  28.365  28.398  1.00  0.00     0.049 A 
ATOM     50  H   UNL A   1      42.846  28.668  28.268  1.00  0.00     0.167 HD
ATOM     51  C   UNL A   1      47.209  29.016  28.298  1.00  0.00     0.031 A 
ATOM     52  C   UNL A   1      40.262  29.452  28.993  1.00  0.00     0.031 A 
ATOM     53  C   UNL A   1      46.731  30.252  28.856  1.00  0.00     0.049 A 
ATOM     54  C   UNL A   1      41.173  30.560  29.444  1.00  0.00     0.074 A 
ATOM     55  C   UNL A   1      47.461  31.361  29.245  1.00  0.00     0.029 A 
ATOM     56  N   UNL A   1      45.398  30.542  29.102  1.00  0.00    -0.354 N 
ATOM     57  N   UNL A   1      42.479  30.636  29.366  1.00  0.00    -0.248 NA
ATOM     58  C   UNL A   1      40.536  31.733  30.060  1.00  0.00     0.031 C 
ATOM     59  C   UNL A   1      46.573  32.306  29.769  1.00  0.00     0.029 A 
ATOM     60  C   UNL A   1      45.285  31.805  29.655  1.00  0.00     0.049 A 
ATOM     61  H   UNL A   1      44.643  29.938  28.910  1.00  0.00     0.167 HD
ATOM     62  C   UNL A   1      42.818  31.877  29.890  1.00  0.00     0.074 A 
ATOM     63  C   UNL A   1      41.580  32.521  30.281  1.00  0.00     0.031 C 
ATOM     64  C   UNL A   1      44.045  32.435  30.027  1.00  0.00     0.031 A 
BRANCH  51  65
ATOM     65  C   UNL A   1      48.693  28.814  28.170  1.00  0.00    -0.014 A 
ATOM     66  C   UNL A   1      49.443  28.236  29.206  1.00  0.00     0.009 A 
ATOM     67  C   UNL A   1      49.346  29.189  26.986  1.00  0.00     0.009 A 
ATOM     68  C   UNL A   1      50.825  28.076  29.074  1.00  0.00     0.001 A 
ATOM     69  C   UNL A   1      50.722  29.000  26.844  1.00  0.00     0.001 A 
ATOM     70  C   UNL A   1      51.462  28.455  27.893  1.00  0.00     0.000 A 
ENDBRANCH  51  65
BRANCH  52  71
ATOM     71  C   UNL A   1      38.793  29.548  29.193  1.00  0.00    -0.014 A 
ATOM     72  C   UNL A   1      38.213  29.135  30.402  1.00  0.00     0.009 A 
ATOM     73  C   UNL A   1      37.964  30.062  28.183  1.00  0.00     0.009 A 
ATOM     74  C   UNL A   1      36.832  29.216  30.589  1.00  0.00     0.001 A 
ATOM     75  C   UNL A   1      36.585  30.167  28.384  1.00  0.00     0.001 A 
ATOM     76  C   UNL A   1      36.020  29.736  29.582  1.00  0.00     0.000 A 
ENDBRANCH  52  71
BRANCH  64  77
ATOM     77  C   UNL A   1      44.115  33.831  30.577  1.00  0.00    -0.014 A 
ATOM     78  C   UNL A   1      44.005  34.951  29.742  1.00  0.00     0.009 A 
ATOM     79  C   UNL A   1      44.223  34.021  31.965  1.00  0.00     0.009 A 
ATOM     80  C   UNL A   1      44.021  36.239  30.286  1.00  0.00     0.001 A 
ATOM     81  C   UNL A   1      44.213  35.305  32.506  1.00  0.00     0.001 A 
ATOM     82  C   UNL A   1      44.117  36.414  31.666  1.00  0.00     0.000 A 
ENDBRANCH  64  77
ENDBRANCH  38  39
ENDBRANCH  30  33
ENDBRANCH  28  29
ENDBRANCH  27  28
ENDBRANCH  26  27
ENDBRANCH  25  26
ENDBRANCH   1  25
TORSDOF 18
ENDMDL
MODEL 2
REMARK VINA RESULT:     -10.0      1.837      6.325
REMARK SMILES CC(C)CC1(CNc2ccnc(C(=O)NCCCCCCNC(=O)c3ccc(-c4c5nc(c(-c6ccccc6)c6ccc([nH]6)c(-c6ccccc6)c6nc(c(-c7ccccc7)c7ccc4[nH]7)C=C6)C=C5)cc3)c2)CCCC1
REMARK SMILES IDX 17 1 16 2 15 3 13 4 14 5 12 7 8 8 9 9 73 10 10 11 11 12 7 13
REMARK SMILES IDX 6 15 5 16 74 17 77 18 75 19 76 20 4 21 2 22 1 23 3 24 18 25
REMARK SMILES IDX 19 26 20 27 21 28 22 29 23 30 24 32 25 33 26 34 72 35 27 36
REMARK SMILES IDX 71 37 28 38 29 39 30 40 65 41 31 42 70 43 64 44 66 45 32 46
REMARK SMILES IDX 69 47 63 48 62 49 33 51 55 52 40 53 54 54 41 55 44 56 53 57
REMARK SMILES IDX 67 58 42 59 43 60 52 62 68 63 45 64 34 65 35 66 39 67 36 68
REMARK SMILES IDX 38 69 37 70 56 71 57 72 61 73 58 74 60 75 59 76 46 77 47 78
REMARK SMILES IDX 51 79 48 80 50 81 49 82
REMARK H PARENT 15 6 7 14 22 31 66 50 44 61
REMARK Flexibility Score: inf
ROOT
ATOM      1  C   UNL A   1      33.970  20.713  25.695  1.00  0.00     0.021 C 
ENDROOT
BRANCH   1   2
ATOM      2  C   UNL A   1      34.193  21.677  26.854  1.00  0.00     0.116 C 
BRANCH   2   3
ATOM      3  N   UNL A   1      32.976  22.261  27.385  1.00  0.00    -0.351 N 
ATOM      4  C   UNL A   1      32.015  23.088  26.831  1.00  0.00     0.269 C 
ATOM      5  O   UNL A   1      31.077  23.408  27.565  1.00  0.00    -0.268 OA
ATOM      6  H   UNL A   1      32.799  22.021  28.323  1.00  0.00     0.163 HD
BRANCH   4   7
ATOM      7  C   UNL A   1      32.096  23.636  25.431  1.00  0.00     0.130 A 
ATOM      8  C   UNL A   1      32.550  25.407  23.869  1.00  0.00     0.038 A 
ATOM      9  C   UNL A   1      31.860  24.672  22.910  1.00  0.00     0.046 A 
ATOM     10  C   UNL A   1      32.761  24.812  25.112  1.00  0.00     0.060 A 
ATOM     11  C   UNL A   1      31.355  23.429  23.253  1.00  0.00     0.114 A 
ATOM     12  N   UNL A   1      31.419  22.918  24.496  1.00  0.00    -0.251 NA
BRANCH   8  13
ATOM     13  N   UNL A   1      32.920  26.731  23.694  1.00  0.00    -0.384 N 
ATOM     14  H   UNL A   1      33.841  26.997  23.919  1.00  0.00     0.160 HD
BRANCH  13  15
ATOM     15  C   UNL A   1      32.002  27.748  23.189  1.00  0.00     0.119 C 
BRANCH  15  16
ATOM     16  C   UNL A   1      31.017  28.302  24.285  1.00  0.00    -0.012 C 
ATOM     17  C   UNL A   1      29.808  27.338  24.309  1.00  0.00     0.009 C 
ATOM     18  C   UNL A   1      30.365  29.628  23.853  1.00  0.00     0.009 C 
ATOM     19  C   UNL A   1      28.899  27.788  23.170  1.00  0.00     0.001 C 
ATOM     20  C   UNL A   1      29.231  29.252  22.903  1.00  0.00     0.001 C 
BRANCH  16  21
ATOM     21  C   UNL A   1      31.732  28.368  25.672  1.00  0.00     0.012 C 
BRANCH  21  22
ATOM     22  C   UNL A   1      32.801  29.460  25.960  1.00  0.00    -0.017 C 
ATOM     23  C   UNL A   1      32.360  30.599  26.879  1.00  0.00     0.007 C 
ATOM     24  C   UNL A   1      34.043  28.806  26.581  1.00  0.00     0.007 C 
ENDBRANCH  21  22
ENDBRANCH  16  21
ENDBRANCH  15  16
ENDBRANCH  13  15
ENDBRANCH   8  13
ENDBRANCH   4   7
ENDBRANCH   2   3
ENDBRANCH   1   2
BRANCH   1  25
ATOM     25  C   UNL A   1      35.214  20.210  24.967  1.00  0.00     0.002 C 
BRANCH  25  26
ATOM     26  C   UNL A   1      36.524  20.944  25.266  1.00  0.00     0.002 C 
BRANCH  26  27
ATOM     27  C   UNL A   1      37.816  20.210  24.902  1.00  0.00     0.021 C 
BRANCH  27  28
ATOM     28  C   UNL A   1      39.024  20.522  25.779  1.00  0.00     0.116 C 
BRANCH  28  29
ATOM     29  N   UNL A   1      40.003  19.447  25.789  1.00  0.00    -0.352 N 
ATOM     30  C   UNL A   1      41.351  19.504  26.050  1.00  0.00     0.251 C 
ATOM     31  H   UNL A   1      39.649  18.553  25.580  1.00  0.00     0.163 HD
ATOM     32  O   UNL A   1      42.065  18.530  25.863  1.00  0.00    -0.269 OA
BRANCH  30  33
ATOM     33  C   UNL A   1      41.944  20.767  26.542  1.00  0.00     0.039 A 
ATOM     34  C   UNL A   1      42.472  21.676  25.620  1.00  0.00     0.014 A 
ATOM     35  C   UNL A   1      41.966  21.054  27.909  1.00  0.00     0.014 A 
ATOM     36  C   UNL A   1      42.958  22.909  26.065  1.00  0.00     0.010 A 
ATOM     37  C   UNL A   1      42.392  22.305  28.342  1.00  0.00     0.010 A 
ATOM     38  C   UNL A   1      42.889  23.245  27.425  1.00  0.00    -0.014 A 
BRANCH  38  39
ATOM     39  C   UNL A   1      43.326  24.569  27.932  1.00  0.00     0.031 A 
ATOM     40  C   UNL A   1      42.299  25.615  28.263  1.00  0.00     0.074 A 
ATOM     41  C   UNL A   1      44.638  24.871  27.986  1.00  0.00     0.049 A 
ATOM     42  N   UNL A   1      42.467  26.883  28.540  1.00  0.00    -0.248 NA
ATOM     43  C   UNL A   1      40.892  25.183  28.245  1.00  0.00     0.031 C 
ATOM     44  C   UNL A   1      45.734  23.953  27.673  1.00  0.00     0.029 A 
ATOM     45  N   UNL A   1      45.269  26.049  28.299  1.00  0.00    -0.354 N 
ATOM     46  C   UNL A   1      41.190  27.406  28.693  1.00  0.00     0.074 A 
ATOM     47  C   UNL A   1      40.257  26.327  28.446  1.00  0.00     0.031 C 
ATOM     48  C   UNL A   1      46.902  24.602  27.813  1.00  0.00     0.029 A 
ATOM     49  C   UNL A   1      46.636  25.989  28.178  1.00  0.00     0.049 A 
ATOM     50  H   UNL A   1      44.788  26.861  28.582  1.00  0.00     0.167 HD
ATOM     51  C   UNL A   1      40.826  28.669  29.019  1.00  0.00     0.031 A 
ATOM     52  C   UNL A   1      47.570  26.949  28.320  1.00  0.00     0.031 A 
ATOM     53  C   UNL A   1      41.754  29.734  29.283  1.00  0.00     0.049 A 
ATOM     54  C   UNL A   1      47.143  28.347  28.674  1.00  0.00     0.074 A 
ATOM     55  C   UNL A   1      41.486  31.034  29.676  1.00  0.00     0.029 A 
ATOM     56  N   UNL A   1      43.132  29.621  29.181  1.00  0.00    -0.354 N 
ATOM     57  N   UNL A   1      45.933  28.817  28.857  1.00  0.00    -0.248 NA
ATOM     58  C   UNL A   1      48.210  29.344  28.844  1.00  0.00     0.031 C 
ATOM     59  C   UNL A   1      42.700  31.720  29.769  1.00  0.00     0.029 A 
ATOM     60  C   UNL A   1      43.727  30.832  29.486  1.00  0.00     0.049 A 
ATOM     61  H   UNL A   1      43.615  28.800  28.931  1.00  0.00     0.167 HD
ATOM     62  C   UNL A   1      46.095  30.154  29.198  1.00  0.00     0.074 A 
ATOM     63  C   UNL A   1      47.519  30.419  29.198  1.00  0.00     0.031 C 
ATOM     64  C   UNL A   1      45.147  31.076  29.493  1.00  0.00     0.031 A 
BRANCH  51  65
ATOM     65  C   UNL A   1      39.354  28.968  29.087  1.00  0.00    -0.014 A 
ATOM     66  C   UNL A   1      38.628  28.799  30.276  1.00  0.00     0.009 A 
ATOM     67  C   UNL A   1      38.688  29.447  27.948  1.00  0.00     0.009 A 
ATOM     68  C   UNL A   1      37.257  29.064  30.312  1.00  0.00     0.001 A 
ATOM     69  C   UNL A   1      37.324  29.740  27.994  1.00  0.00     0.001 A 
ATOM     70  C   UNL A   1      36.608  29.537  29.173  1.00  0.00     0.000 A 
ENDBRANCH  51  65
BRANCH  52  71
ATOM     71  C   UNL A   1      49.006  26.618  28.132  1.00  0.00    -0.014 A 
ATOM     72  C   UNL A   1      49.839  26.419  29.244  1.00  0.00     0.009 A 
ATOM     73  C   UNL A   1      49.550  26.489  26.845  1.00  0.00     0.009 A 
ATOM     74  C   UNL A   1      51.191  26.116  29.070  1.00  0.00     0.001 A 
ATOM     75  C   UNL A   1      50.897  26.161  26.674  1.00  0.00     0.001 A 
ATOM     76  C   UNL A   1      51.717  25.983  27.786  1.00  0.00     0.000 A 
ENDBRANCH  52  71
BRANCH  64  77
ATOM     77  C   UNL A   1      45.612  32.448  29.890  1.00  0.00    -0.014 A 
ATOM     78  C   UNL A   1      45.762  33.471  28.945  1.00  0.00     0.009 A 
ATOM     79  C   UNL A   1      45.836  32.733  31.247  1.00  0.00     0.009 A 
ATOM     80  C   UNL A   1      46.146  34.753  29.350  1.00  0.00     0.001 A 
ATOM     81  C   UNL A   1      46.194  34.018  31.651  1.00  0.00     0.001 A 
ATOM     82  C   UNL A   1      46.354  35.026  30.701  1.00  0.00     0.000 A 
ENDBRANCH  64  77
ENDBRANCH  38  39
ENDBRANCH  30  33
ENDBRANCH  28  29
ENDBRANCH  27  28
ENDBRANCH  26  27
ENDBRANCH  25  26
ENDBRANCH   1  25
TORSDOF 18
ENDMDL
MODEL 3
REMARK VINA RESULT:      -9.9      2.032      6.314
REMARK SMILES CC(C)CC1(CNc2ccnc(C(=O)NCCCCCCNC(=O)c3ccc(-c4c5nc(c(-c6ccccc6)c6ccc([nH]6)c(-c6ccccc6)c6nc(c(-c7ccccc7)c7ccc4[nH]7)C=C6)C=C5)cc3)c2)CCCC1
REMARK SMILES IDX 17 1 16 2 15 3 13 4 14 5 12 7 8 8 9 9 73 10 10 11 11 12 7 13
REMARK SMILES IDX 6 15 5 16 74 17 77 18 75 19 76 20 4 21 2 22 1 23 3 24 18 25
REMARK SMILES IDX 19 26 20 27 21 28 22 29 23 30 24 32 25 33 26 34 72 35 27 36
REMARK SMILES IDX 71 37 28 38 29 39 30 40 65 41 31 42 70 43 64 44 66 45 32 46
REMARK SMILES IDX 69 47 63 48 62 49 33 51 55 52 40 53 54 54 41 55 44 56 53 57
REMARK SMILES IDX 67 58 42 59 43 60 52 62 68 63 45 64 34 65 35 66 39 67 36 68
REMARK SMILES IDX 38 69 37 70 56 71 57 72 61 73 58 74 60 75 59 76 46 77 47 78
REMARK SMILES IDX 51 79 48 80 50 81 49 82
REMARK H PARENT 15 6 7 14 22 31 66 50 44 61
REMARK Flexibility Score: inf
ROOT
ATOM      1  C   UNL A   1      33.500  20.610  25.999  1.00  0.00     0.021 C 
ENDROOT
BRANCH   1   2
ATOM      2  C   UNL A   1      33.543  21.863  26.864  1.00  0.00     0.116 C 
BRANCH   2   3
ATOM      3  N   UNL A   1      32.239  22.339  27.287  1.00  0.00    -0.351 N 
ATOM      4  C   UNL A   1      31.283  23.122  26.666  1.00  0.00     0.269 C 
ATOM      5  O   UNL A   1      30.255  23.347  27.309  1.00  0.00    -0.268 OA
ATOM      6  H   UNL A   1      31.986  22.048  28.192  1.00  0.00     0.163 HD
BRANCH   4   7
ATOM      7  C   UNL A   1      31.465  23.734  25.302  1.00  0.00     0.130 A 
ATOM      8  C   UNL A   1      31.091  25.483  23.694  1.00  0.00     0.038 A 
ATOM      9  C   UNL A   1      31.521  24.602  22.708  1.00  0.00     0.046 A 
ATOM     10  C   UNL A   1      31.179  25.064  25.021  1.00  0.00     0.060 A 
ATOM     11  C   UNL A   1      31.944  23.336  23.078  1.00  0.00     0.114 A 
ATOM     12  N   UNL A   1      31.884  22.871  24.340  1.00  0.00    -0.251 NA
BRANCH   8  13
ATOM     13  N   UNL A   1      30.467  26.689  23.419  1.00  0.00    -0.384 N 
ATOM     14  H   UNL A   1      30.085  26.830  22.522  1.00  0.00     0.160 HD
BRANCH  13  15
ATOM     15  C   UNL A   1      30.350  27.761  24.403  1.00  0.00     0.119 C 
BRANCH  15  16
ATOM     16  C   UNL A   1      30.918  29.140  23.899  1.00  0.00    -0.012 C 
ATOM     17  C   UNL A   1      32.266  28.828  23.208  1.00  0.00     0.009 C 
ATOM     18  C   UNL A   1      31.354  30.043  25.067  1.00  0.00     0.009 C 
ATOM     19  C   UNL A   1      33.294  28.740  24.331  1.00  0.00     0.001 C 
ATOM     20  C   UNL A   1      32.729  29.539  25.500  1.00  0.00     0.001 C 
BRANCH  16  21
ATOM     21  C   UNL A   1      29.907  29.815  22.919  1.00  0.00     0.012 C 
BRANCH  21  22
ATOM     22  C   UNL A   1      28.776  30.737  23.457  1.00  0.00    -0.017 C 
ATOM     23  C   UNL A   1      28.758  32.162  22.905  1.00  0.00     0.007 C 
ATOM     24  C   UNL A   1      27.413  30.097  23.160  1.00  0.00     0.007 C 
ENDBRANCH  21  22
ENDBRANCH  16  21
ENDBRANCH  15  16
ENDBRANCH  13  15
ENDBRANCH   8  13
ENDBRANCH   4   7
ENDBRANCH   2   3
ENDBRANCH   1   2
BRANCH   1  25
ATOM     25  C   UNL A   1      34.673  20.386  25.049  1.00  0.00     0.002 C 
BRANCH  25  26
ATOM     26  C   UNL A   1      35.941  21.199  25.327  1.00  0.00     0.002 C 
BRANCH  26  27
ATOM     27  C   UNL A   1      37.253  20.623  24.790  1.00  0.00     0.021 C 
BRANCH  27  28
ATOM     28  C   UNL A   1      38.502  20.957  25.599  1.00  0.00     0.116 C 
BRANCH  28  29
ATOM     29  N   UNL A   1      39.461  19.864  25.626  1.00  0.00    -0.352 N 
ATOM     30  C   UNL A   1      40.787  19.882  25.985  1.00  0.00     0.251 C 
ATOM     31  H   UNL A   1      39.110  18.988  25.347  1.00  0.00     0.163 HD
ATOM     32  O   UNL A   1      41.498  18.905  25.802  1.00  0.00    -0.269 OA
BRANCH  30  33
ATOM     33  C   UNL A   1      41.361  21.109  26.582  1.00  0.00     0.039 A 
ATOM     34  C   UNL A   1      41.912  22.081  25.742  1.00  0.00     0.014 A 
ATOM     35  C   UNL A   1      41.345  21.298  27.966  1.00  0.00     0.014 A 
ATOM     36  C   UNL A   1      42.381  23.280  26.285  1.00  0.00     0.010 A 
ATOM     37  C   UNL A   1      41.754  22.516  28.498  1.00  0.00     0.010 A 
ATOM     38  C   UNL A   1      42.273  23.520  27.663  1.00  0.00    -0.014 A 
BRANCH  38  39
ATOM     39  C   UNL A   1      42.692  24.805  28.275  1.00  0.00     0.031 A 
ATOM     40  C   UNL A   1      41.670  25.879  28.520  1.00  0.00     0.074 A 
ATOM     41  C   UNL A   1      43.997  25.051  28.501  1.00  0.00     0.049 A 
ATOM     42  N   UNL A   1      41.848  27.128  28.868  1.00  0.00    -0.248 NA
ATOM     43  C   UNL A   1      40.261  25.506  28.312  1.00  0.00     0.031 C 
ATOM     44  C   UNL A   1      45.090  24.100  28.288  1.00  0.00     0.029 A 
ATOM     45  N   UNL A   1      44.627  26.190  28.938  1.00  0.00    -0.354 N 
ATOM     46  C   UNL A   1      40.582  27.697  28.885  1.00  0.00     0.074 A 
ATOM     47  C   UNL A   1      39.648  26.667  28.481  1.00  0.00     0.031 C 
ATOM     48  C   UNL A   1      46.254  24.695  28.597  1.00  0.00     0.029 A 
ATOM     49  C   UNL A   1      45.995  26.078  28.984  1.00  0.00     0.049 A 
ATOM     50  H   UNL A   1      44.143  27.009  29.193  1.00  0.00     0.167 HD
ATOM     51  C   UNL A   1      40.226  28.961  29.216  1.00  0.00     0.031 A 
ATOM     52  C   UNL A   1      46.938  26.993  29.279  1.00  0.00     0.031 A 
ATOM     53  C   UNL A   1      41.152  29.977  29.635  1.00  0.00     0.049 A 
ATOM     54  C   UNL A   1      46.521  28.393  29.635  1.00  0.00     0.074 A 
ATOM     55  C   UNL A   1      40.884  31.271  30.046  1.00  0.00     0.029 A 
ATOM     56  N   UNL A   1      42.527  29.812  29.699  1.00  0.00    -0.354 N 
ATOM     57  N   UNL A   1      45.316  28.906  29.687  1.00  0.00    -0.248 NA
ATOM     58  C   UNL A   1      47.594  29.338  29.976  1.00  0.00     0.031 C 
ATOM     59  C   UNL A   1      42.102  31.904  30.315  1.00  0.00     0.029 A 
ATOM     60  C   UNL A   1      43.123  30.985  30.124  1.00  0.00     0.049 A 
ATOM     61  H   UNL A   1      43.008  28.981  29.475  1.00  0.00     0.167 HD
ATOM     62  C   UNL A   1      45.482  30.221  30.101  1.00  0.00     0.074 A 
ATOM     63  C   UNL A   1      46.904  30.428  30.287  1.00  0.00     0.031 C 
ATOM     64  C   UNL A   1      44.539  31.170  30.315  1.00  0.00     0.031 A 
BRANCH  51  65
ATOM     65  C   UNL A   1      38.769  29.318  29.115  1.00  0.00    -0.014 A 
ATOM     66  C   UNL A   1      38.226  29.845  27.933  1.00  0.00     0.009 A 
ATOM     67  C   UNL A   1      37.922  29.102  30.213  1.00  0.00     0.009 A 
ATOM     68  C   UNL A   1      36.873  30.188  27.867  1.00  0.00     0.001 A 
ATOM     69  C   UNL A   1      36.564  29.417  30.135  1.00  0.00     0.001 A 
ATOM     70  C   UNL A   1      36.044  29.971  28.966  1.00  0.00     0.000 A 
ENDBRANCH  51  65
BRANCH  52  71
ATOM     71  C   UNL A   1      48.373  26.611  29.255  1.00  0.00    -0.014 A 
ATOM     72  C   UNL A   1      48.986  26.085  30.403  1.00  0.00     0.009 A 
ATOM     73  C   UNL A   1      49.135  26.758  28.085  1.00  0.00     0.009 A 
ATOM     74  C   UNL A   1      50.338  25.733  30.385  1.00  0.00     0.001 A 
ATOM     75  C   UNL A   1      50.480  26.380  28.063  1.00  0.00     0.001 A 
ATOM     76  C   UNL A   1      51.081  25.876  29.215  1.00  0.00     0.000 A 
ENDBRANCH  52  71
BRANCH  64  77
ATOM     77  C   UNL A   1      45.001  32.506  30.823  1.00  0.00    -0.014 A 
ATOM     78  C   UNL A   1      45.352  33.540  29.945  1.00  0.00     0.009 A 
ATOM     79  C   UNL A   1      45.015  32.749  32.206  1.00  0.00     0.009 A 
ATOM     80  C   UNL A   1      45.728  34.790  30.445  1.00  0.00     0.001 A 
ATOM     81  C   UNL A   1      45.365  34.005  32.701  1.00  0.00     0.001 A 
ATOM     82  C   UNL A   1      45.727  35.023  31.819  1.00  0.00     0.000 A 
ENDBRANCH  64  77
ENDBRANCH  38  39
ENDBRANCH  30  33
ENDBRANCH  28  29
ENDBRANCH  27  28
ENDBRANCH  26  27
ENDBRANCH  25  26
ENDBRANCH   1  25
TORSDOF 18
ENDMDL
