MODEL 1
REMARK VINA RESULT:     -10.8      0.000      0.000
REMARK SMILES O=C(NCCCCCCNC(=O)c1cccc(-c2c(F)cc(F)cc2F)c1)c1ccc(-c2c3nc(c(-c4ccccc4)c4ccc([nH]4)c(-c4ccccc4)c4nc(c(-c5ccccc5)c5ccc2[nH]5)C=C4)C=C3)cc1
REMARK SMILES IDX 6 1 5 2 4 3 3 4 1 5 2 6 28 8 29 9 75 10 30 11 74 12 31 13
REMARK SMILES IDX 32 14 33 15 68 16 34 17 73 18 67 19 69 20 35 21 72 22 66 23
REMARK SMILES IDX 65 24 36 26 58 27 43 28 57 29 44 30 47 31 56 32 70 33 45 34
REMARK SMILES IDX 46 35 55 37 71 38 48 39 37 40 38 41 42 42 39 43 41 44 40 45
REMARK SMILES IDX 59 46 60 47 64 48 61 49 63 50 62 51 49 52 50 53 54 54 51 55
REMARK SMILES IDX 53 56 52 57 7 58 8 59 9 60 10 61 11 62 12 64 13 65 14 66
REMARK SMILES IDX 27 67 15 68 17 69 16 70 18 71 19 72 25 73 20 74 21 75 24 76
REMARK SMILES IDX 26 77 22 78 23 79
REMARK H PARENT 3 7 69 25 47 36 10 63
REMARK Flexibility Score: inf
ROOT
ATOM      1  C   UNL A   1      34.669  23.675  24.653  1.00  0.00     0.002 C 
ENDROOT
BRANCH   1   2
ATOM      2  C   UNL A   1      36.177  23.774  24.439  1.00  0.00     0.021 C 
BRANCH   2   3
ATOM      3  C   UNL A   1      37.009  23.857  25.712  1.00  0.00     0.116 C 
BRANCH   3   4
ATOM      4  N   UNL A   1      38.099  22.894  25.750  1.00  0.00    -0.352 N 
ATOM      5  O   UNL A   1      40.216  22.177  26.084  1.00  0.00    -0.269 OA
ATOM      6  C   UNL A   1      39.376  23.058  26.233  1.00  0.00     0.251 C 
ATOM      7  H   UNL A   1      37.894  22.005  25.380  1.00  0.00     0.163 HD
BRANCH   6   8
ATOM      8  C   UNL A   1      39.744  24.322  26.910  1.00  0.00     0.039 A 
ATOM      9  C   UNL A   1      39.425  24.523  28.254  1.00  0.00     0.014 A 
ATOM     10  C   UNL A   1      40.403  25.322  26.189  1.00  0.00     0.014 A 
ATOM     11  C   UNL A   1      39.621  25.773  28.828  1.00  0.00     0.010 A 
ATOM     12  C   UNL A   1      40.688  26.549  26.800  1.00  0.00     0.010 A 
ATOM     13  C   UNL A   1      40.271  26.796  28.115  1.00  0.00    -0.014 A 
BRANCH  13  14
ATOM     14  C   UNL A   1      40.558  28.075  28.815  1.00  0.00     0.031 A 
ATOM     15  C   UNL A   1      39.527  29.161  28.933  1.00  0.00     0.074 A 
ATOM     16  C   UNL A   1      41.758  28.213  29.414  1.00  0.00     0.049 A 
ATOM     17  N   UNL A   1      39.596  30.286  29.602  1.00  0.00    -0.248 NA
ATOM     18  C   UNL A   1      38.260  28.971  28.210  1.00  0.00     0.031 C 
ATOM     19  C   UNL A   1      42.848  27.235  29.351  1.00  0.00     0.029 A 
ATOM     20  N   UNL A   1      42.247  29.204  30.224  1.00  0.00    -0.354 N 
ATOM     21  C   UNL A   1      38.393  30.942  29.373  1.00  0.00     0.074 A 
ATOM     22  C   UNL A   1      37.620  30.103  28.483  1.00  0.00     0.031 C 
ATOM     23  C   UNL A   1      43.846  27.638  30.148  1.00  0.00     0.029 A 
ATOM     24  C   UNL A   1      43.496  28.930  30.726  1.00  0.00     0.049 A 
ATOM     25  H   UNL A   1      41.753  30.031  30.426  1.00  0.00     0.167 HD
ATOM     26  C   UNL A   1      37.970  32.132  29.866  1.00  0.00     0.031 A 
ATOM     27  C   UNL A   1      44.281  29.636  31.558  1.00  0.00     0.031 A 
ATOM     28  C   UNL A   1      38.743  32.970  30.747  1.00  0.00     0.049 A 
ATOM     29  C   UNL A   1      43.786  30.950  32.084  1.00  0.00     0.074 A 
ATOM     30  C   UNL A   1      38.396  34.191  31.302  1.00  0.00     0.029 A 
ATOM     31  N   UNL A   1      40.019  32.676  31.202  1.00  0.00    -0.354 N 
ATOM     32  N   UNL A   1      42.635  31.541  31.875  1.00  0.00    -0.248 NA
ATOM     33  C   UNL A   1      44.699  31.692  32.963  1.00  0.00     0.031 C 
ATOM     34  C   UNL A   1      39.478  34.653  32.060  1.00  0.00     0.029 A 
ATOM     35  C   UNL A   1      40.478  33.697  32.018  1.00  0.00     0.049 A 
ATOM     36  H   UNL A   1      40.524  31.861  30.977  1.00  0.00     0.167 HD
ATOM     37  C   UNL A   1      42.684  32.725  32.594  1.00  0.00     0.074 A 
ATOM     38  C   UNL A   1      43.962  32.748  33.278  1.00  0.00     0.031 C 
ATOM     39  C   UNL A   1      41.759  33.711  32.674  1.00  0.00     0.031 A 
BRANCH  26  40
ATOM     40  C   UNL A   1      36.605  32.612  29.453  1.00  0.00    -0.014 A 
ATOM     41  C   UNL A   1      35.466  32.293  30.207  1.00  0.00     0.009 A 
ATOM     42  C   UNL A   1      36.466  33.446  28.332  1.00  0.00     0.009 A 
ATOM     43  C   UNL A   1      34.211  32.782  29.833  1.00  0.00     0.001 A 
ATOM     44  C   UNL A   1      35.215  33.951  27.973  1.00  0.00     0.001 A 
ATOM     45  C   UNL A   1      34.087  33.614  28.721  1.00  0.00     0.000 A 
ENDBRANCH  26  40
BRANCH  27  46
ATOM     46  C   UNL A   1      45.624  29.119  31.926  1.00  0.00    -0.014 A 
ATOM     47  C   UNL A   1      46.755  29.446  31.165  1.00  0.00     0.009 A 
ATOM     48  C   UNL A   1      45.777  28.301  33.056  1.00  0.00     0.009 A 
ATOM     49  C   UNL A   1      48.011  28.945  31.516  1.00  0.00     0.001 A 
ATOM     50  C   UNL A   1      47.038  27.828  33.423  1.00  0.00     0.001 A 
ATOM     51  C   UNL A   1      48.151  28.142  32.647  1.00  0.00     0.000 A 
ENDBRANCH  27  46
BRANCH  39  52
ATOM     52  C   UNL A   1      42.107  34.889  33.538  1.00  0.00    -0.014 A 
ATOM     53  C   UNL A   1      41.704  34.945  34.881  1.00  0.00     0.009 A 
ATOM     54  C   UNL A   1      42.844  35.956  33.001  1.00  0.00     0.009 A 
ATOM     55  C   UNL A   1      41.995  36.068  35.659  1.00  0.00     0.001 A 
ATOM     56  C   UNL A   1      43.157  37.064  33.789  1.00  0.00     0.001 A 
ATOM     57  C   UNL A   1      42.721  37.125  35.113  1.00  0.00     0.000 A 
ENDBRANCH  39  52
ENDBRANCH  13  14
ENDBRANCH   6   8
ENDBRANCH   3   4
ENDBRANCH   2   3
ENDBRANCH   1   2
BRANCH   1  58
ATOM     58  C   UNL A   1      34.028  22.340  24.260  1.00  0.00     0.002 C 
BRANCH  58  59
ATOM     59  C   UNL A   1      33.283  21.597  25.374  1.00  0.00     0.021 C 
BRANCH  59  60
ATOM     60  C   UNL A   1      31.829  21.244  25.073  1.00  0.00     0.116 C 
BRANCH  60  61
ATOM     61  N   UNL A   1      30.923  21.735  26.095  1.00  0.00    -0.352 N 
ATOM     62  C   UNL A   1      30.547  23.025  26.374  1.00  0.00     0.251 C 
ATOM     63  H   UNL A   1      30.521  21.045  26.670  1.00  0.00     0.163 HD
ATOM     64  O   UNL A   1      29.908  23.278  27.390  1.00  0.00    -0.269 OA
BRANCH  62  65
ATOM     65  C   UNL A   1      30.927  24.117  25.454  1.00  0.00     0.040 A 
ATOM     66  C   UNL A   1      30.653  23.976  24.094  1.00  0.00     0.014 A 
ATOM     67  C   UNL A   1      31.578  25.261  25.933  1.00  0.00     0.022 A 
ATOM     68  C   UNL A   1      30.986  25.007  23.220  1.00  0.00     0.001 A 
ATOM     69  C   UNL A   1      31.903  26.319  25.070  1.00  0.00    -0.012 A 
ATOM     70  C   UNL A   1      31.594  26.170  23.706  1.00  0.00     0.009 A 
BRANCH  69  71
ATOM     71  C   UNL A   1      32.526  27.549  25.588  1.00  0.00     0.053 A 
ATOM     72  C   UNL A   1      33.807  27.539  26.162  1.00  0.00     0.136 A 
ATOM     73  C   UNL A   1      31.882  28.796  25.505  1.00  0.00     0.136 A 
ATOM     74  F   UNL A   1      34.495  26.391  26.255  1.00  0.00    -0.206 F 
ATOM     75  C   UNL A   1      34.419  28.701  26.628  1.00  0.00     0.079 A 
ATOM     76  C   UNL A   1      32.476  29.968  25.968  1.00  0.00     0.079 A 
ATOM     77  F   UNL A   1      30.656  28.886  24.967  1.00  0.00    -0.206 F 
ATOM     78  C   UNL A   1      33.745  29.907  26.525  1.00  0.00     0.129 A 
ATOM     79  F   UNL A   1      34.326  31.029  26.965  1.00  0.00    -0.207 F 
ENDBRANCH  69  71
ENDBRANCH  62  65
ENDBRANCH  60  61
ENDBRANCH  59  60
ENDBRANCH  58  59
ENDBRANCH   1  58
TORSDOF 14
ENDMDL
MODEL 2
REMARK VINA RESULT:     -10.8      3.769      8.192
REMARK SMILES O=C(NCCCCCCNC(=O)c1cccc(-c2c(F)cc(F)cc2F)c1)c1ccc(-c2c3nc(c(-c4ccccc4)c4ccc([nH]4)c(-c4ccccc4)c4nc(c(-c5ccccc5)c5ccc2[nH]5)C=C4)C=C3)cc1
REMARK SMILES IDX 6 1 5 2 4 3 3 4 1 5 2 6 28 8 29 9 75 10 30 11 74 12 31 13
REMARK SMILES IDX 32 14 33 15 68 16 34 17 73 18 67 19 69 20 35 21 72 22 66 23
REMARK SMILES IDX 65 24 36 26 58 27 43 28 57 29 44 30 47 31 56 32 70 33 45 34
REMARK SMILES IDX 46 35 55 37 71 38 48 39 37 40 38 41 42 42 39 43 41 44 40 45
REMARK SMILES IDX 59 46 60 47 64 48 61 49 63 50 62 51 49 52 50 53 54 54 51 55
REMARK SMILES IDX 53 56 52 57 7 58 8 59 9 60 10 61 11 62 12 64 13 65 14 66
REMARK SMILES IDX 27 67 15 68 17 69 16 70 18 71 19 72 25 73 20 74 21 75 24 76
REMARK SMILES IDX 26 77 22 78 23 79
REMARK H PARENT 3 7 69 25 47 36 10 63
REMARK Flexibility Score: inf
ROOT
ATOM      1  C   UNL A   1      36.526  20.600  25.015  1.00  0.00     0.002 C 
ENDROOT
BRANCH   1   2
ATOM      2  C   UNL A   1      37.821  19.815  24.812  1.00  0.00     0.021 C 
BRANCH   2   3
ATOM      3  C   UNL A   1      38.931  20.126  25.806  1.00  0.00     0.116 C 
BRANCH   3   4
ATOM      4  N   UNL A   1      39.989  19.129  25.816  1.00  0.00    -0.352 N 
ATOM      5  O   UNL A   1      42.114  18.366  25.932  1.00  0.00    -0.269 OA
ATOM      6  C   UNL A   1      41.329  19.297  26.080  1.00  0.00     0.251 C 
ATOM      7  H   UNL A   1      39.708  18.209  25.608  1.00  0.00     0.163 HD
BRANCH   6   8
ATOM      8  C   UNL A   1      41.827  20.621  26.514  1.00  0.00     0.039 A 
ATOM      9  C   UNL A   1      41.940  20.925  27.871  1.00  0.00     0.014 A 
ATOM     10  C   UNL A   1      42.173  21.576  25.552  1.00  0.00     0.014 A 
ATOM     11  C   UNL A   1      42.243  22.223  28.264  1.00  0.00     0.010 A 
ATOM     12  C   UNL A   1      42.573  22.856  25.952  1.00  0.00     0.010 A 
ATOM     13  C   UNL A   1      42.581  23.199  27.311  1.00  0.00    -0.014 A 
BRANCH  13  14
ATOM     14  C   UNL A   1      43.009  24.539  27.791  1.00  0.00     0.031 A 
ATOM     15  C   UNL A   1      44.451  24.962  27.774  1.00  0.00     0.074 A 
ATOM     16  C   UNL A   1      42.054  25.407  28.181  1.00  0.00     0.049 A 
ATOM     17  N   UNL A   1      44.964  26.133  28.064  1.00  0.00    -0.248 NA
ATOM     18  C   UNL A   1      45.447  23.950  27.392  1.00  0.00     0.031 C 
ATOM     19  C   UNL A   1      40.622  25.104  28.260  1.00  0.00     0.029 A 
ATOM     20  N   UNL A   1      42.135  26.727  28.542  1.00  0.00    -0.354 N 
ATOM     21  C   UNL A   1      46.338  25.997  27.910  1.00  0.00     0.074 A 
ATOM     22  C   UNL A   1      46.583  24.624  27.527  1.00  0.00     0.031 C 
ATOM     23  C   UNL A   1      39.953  26.221  28.572  1.00  0.00     0.029 A 
ATOM     24  C   UNL A   1      40.909  27.302  28.779  1.00  0.00     0.049 A 
ATOM     25  H   UNL A   1      42.986  27.214  28.624  1.00  0.00     0.167 HD
ATOM     26  C   UNL A   1      47.304  26.934  28.067  1.00  0.00     0.031 A 
ATOM     27  C   UNL A   1      40.584  28.559  29.126  1.00  0.00     0.031 A 
ATOM     28  C   UNL A   1      47.059  28.300  28.456  1.00  0.00     0.049 A 
ATOM     29  C   UNL A   1      41.676  29.572  29.295  1.00  0.00     0.074 A 
ATOM     30  C   UNL A   1      47.975  29.323  28.636  1.00  0.00     0.029 A 
ATOM     31  N   UNL A   1      45.808  28.834  28.723  1.00  0.00    -0.354 N 
ATOM     32  N   UNL A   1      42.967  29.430  29.121  1.00  0.00    -0.248 NA
ATOM     33  C   UNL A   1      41.264  30.921  29.707  1.00  0.00     0.031 C 
ATOM     34  C   UNL A   1      47.281  30.466  29.052  1.00  0.00     0.029 A 
ATOM     35  C   UNL A   1      45.929  30.168  29.082  1.00  0.00     0.049 A 
ATOM     36  H   UNL A   1      44.960  28.338  28.668  1.00  0.00     0.167 HD
ATOM     37  C   UNL A   1      43.523  30.668  29.403  1.00  0.00     0.074 A 
ATOM     38  C   UNL A   1      42.426  31.560  29.719  1.00  0.00     0.031 C 
ATOM     39  C   UNL A   1      44.828  31.033  29.410  1.00  0.00     0.031 A 
BRANCH  26  40
ATOM     40  C   UNL A   1      48.729  26.513  27.832  1.00  0.00    -0.014 A 
ATOM     41  C   UNL A   1      49.530  26.050  28.888  1.00  0.00     0.009 A 
ATOM     42  C   UNL A   1      49.257  26.520  26.532  1.00  0.00     0.009 A 
ATOM     43  C   UNL A   1      50.839  25.622  28.647  1.00  0.00     0.001 A 
ATOM     44  C   UNL A   1      50.557  26.072  26.291  1.00  0.00     0.001 A 
ATOM     45  C   UNL A   1      51.350  25.629  27.349  1.00  0.00     0.000 A 
ENDBRANCH  26  40
BRANCH  27  46
ATOM     46  C   UNL A   1      39.161  28.919  29.355  1.00  0.00    -0.014 A 
ATOM     47  C   UNL A   1      38.371  29.426  28.314  1.00  0.00     0.009 A 
ATOM     48  C   UNL A   1      38.585  28.741  30.623  1.00  0.00     0.009 A 
ATOM     49  C   UNL A   1      37.037  29.770  28.544  1.00  0.00     0.001 A 
ATOM     50  C   UNL A   1      37.243  29.056  30.842  1.00  0.00     0.001 A 
ATOM     51  C   UNL A   1      36.474  29.579  29.805  1.00  0.00     0.000 A 
ENDBRANCH  27  46
BRANCH  39  52
ATOM     52  C   UNL A   1      45.123  32.461  29.768  1.00  0.00    -0.014 A 
ATOM     53  C   UNL A   1      45.339  32.843  31.102  1.00  0.00     0.009 A 
ATOM     54  C   UNL A   1      45.184  33.436  28.761  1.00  0.00     0.009 A 
ATOM     55  C   UNL A   1      45.567  34.182  31.425  1.00  0.00     0.001 A 
ATOM     56  C   UNL A   1      45.439  34.769  29.084  1.00  0.00     0.001 A 
ATOM     57  C   UNL A   1      45.618  35.143  30.416  1.00  0.00     0.000 A 
ENDBRANCH  39  52
ENDBRANCH  13  14
ENDBRANCH   6   8
ENDBRANCH   3   4
ENDBRANCH   2   3
ENDBRANCH   1   2
BRANCH   1  58
ATOM     58  C   UNL A   1      36.672  21.950  25.723  1.00  0.00     0.002 C 
BRANCH  58  59
ATOM     59  C   UNL A   1      36.726  23.184  24.814  1.00  0.00     0.021 C 
BRANCH  59  60
ATOM     60  C   UNL A   1      35.722  24.286  25.140  1.00  0.00     0.116 C 
BRANCH  60  61
ATOM     61  N   UNL A   1      35.097  24.829  23.947  1.00  0.00    -0.352 N 
ATOM     62  C   UNL A   1      33.932  24.450  23.331  1.00  0.00     0.251 C 
ATOM     63  H   UNL A   1      35.578  25.574  23.521  1.00  0.00     0.163 HD
ATOM     64  O   UNL A   1      33.641  24.900  22.227  1.00  0.00    -0.269 OA
BRANCH  62  65
ATOM     65  C   UNL A   1      33.030  23.485  23.991  1.00  0.00     0.040 A 
ATOM     66  C   UNL A   1      31.945  23.971  24.721  1.00  0.00     0.014 A 
ATOM     67  C   UNL A   1      33.274  22.109  23.913  1.00  0.00     0.022 A 
ATOM     68  C   UNL A   1      31.073  23.071  25.330  1.00  0.00     0.001 A 
ATOM     69  C   UNL A   1      32.396  21.186  24.504  1.00  0.00    -0.012 A 
ATOM     70  C   UNL A   1      31.292  21.694  25.212  1.00  0.00     0.009 A 
BRANCH  69  71
ATOM     71  C   UNL A   1      32.619  19.737  24.363  1.00  0.00     0.053 A 
ATOM     72  C   UNL A   1      32.998  18.941  25.456  1.00  0.00     0.136 A 
ATOM     73  C   UNL A   1      32.435  19.076  23.136  1.00  0.00     0.136 A 
ATOM     74  F   UNL A   1      33.170  19.496  26.665  1.00  0.00    -0.206 F 
ATOM     75  C   UNL A   1      33.183  17.565  25.341  1.00  0.00     0.079 A 
ATOM     76  C   UNL A   1      32.617  17.702  23.001  1.00  0.00     0.079 A 
ATOM     77  F   UNL A   1      32.070  19.769  22.046  1.00  0.00    -0.206 F 
ATOM     78  C   UNL A   1      32.990  16.958  24.111  1.00  0.00     0.129 A 
ATOM     79  F   UNL A   1      33.159  15.636  23.992  1.00  0.00    -0.207 F 
ENDBRANCH  69  71
ENDBRANCH  62  65
ENDBRANCH  60  61
ENDBRANCH  59  60
ENDBRANCH  58  59
ENDBRANCH   1  58
TORSDOF 14
ENDMDL
MODEL 3
REMARK VINA RESULT:     -10.7      2.285      7.349
REMARK SMILES O=C(NCCCCCCNC(=O)c1cccc(-c2c(F)cc(F)cc2F)c1)c1ccc(-c2c3nc(c(-c4ccccc4)c4ccc([nH]4)c(-c4ccccc4)c4nc(c(-c5ccccc5)c5ccc2[nH]5)C=C4)C=C3)cc1
REMARK SMILES IDX 6 1 5 2 4 3 3 4 1 5 2 6 28 8 29 9 75 10 30 11 74 12 31 13
REMARK SMILES IDX 32 14 33 15 68 16 34 17 73 18 67 19 69 20 35 21 72 22 66 23
REMARK SMILES IDX 65 24 36 26 58 27 43 28 57 29 44 30 47 31 56 32 70 33 45 34
REMARK SMILES IDX 46 35 55 37 71 38 48 39 37 40 38 41 42 42 39 43 41 44 40 45
REMARK SMILES IDX 59 46 60 47 64 48 61 49 63 50 62 51 49 52 50 53 54 54 51 55
REMARK SMILES IDX 53 56 52 57 7 58 8 59 9 60 10 61 11 62 12 64 13 65 14 66
REMARK SMILES IDX 27 67 15 68 17 69 16 70 18 71 19 72 25 73 20 74 21 75 24 76
REMARK SMILES IDX 26 77 22 78 23 79
REMARK H PARENT 3 7 69 25 47 36 10 63
REMARK Flexibility Score: inf
ROOT
ATOM      1  C   UNL A   1      32.002  29.497  25.420  1.00  0.00     0.002 C 
ENDROOT
BRANCH   1   2
ATOM      2  C   UNL A   1      31.559  30.842  25.990  1.00  0.00     0.021 C 
BRANCH   2   3
ATOM      3  C   UNL A   1      32.449  31.408  27.088  1.00  0.00     0.116 C 
BRANCH   3   4
ATOM      4  N   UNL A   1      32.205  32.816  27.359  1.00  0.00    -0.352 N 
ATOM      5  O   UNL A   1      32.578  34.839  28.295  1.00  0.00    -0.269 OA
ATOM      6  C   UNL A   1      32.986  33.707  28.055  1.00  0.00     0.251 C 
ATOM      7  H   UNL A   1      31.366  33.180  26.993  1.00  0.00     0.163 HD
BRANCH   6   8
ATOM      8  C   UNL A   1      34.318  33.284  28.545  1.00  0.00     0.039 A 
ATOM      9  C   UNL A   1      35.476  33.663  27.864  1.00  0.00     0.014 A 
ATOM     10  C   UNL A   1      34.407  32.487  29.691  1.00  0.00     0.014 A 
ATOM     11  C   UNL A   1      36.700  33.119  28.233  1.00  0.00     0.010 A 
ATOM     12  C   UNL A   1      35.655  32.019  30.118  1.00  0.00     0.010 A 
ATOM     13  C   UNL A   1      36.808  32.306  29.374  1.00  0.00    -0.014 A 
BRANCH  13  14
ATOM     14  C   UNL A   1      38.159  31.846  29.790  1.00  0.00     0.031 A 
ATOM     15  C   UNL A   1      38.969  32.592  30.812  1.00  0.00     0.074 A 
ATOM     16  C   UNL A   1      38.619  30.687  29.277  1.00  0.00     0.049 A 
ATOM     17  N   UNL A   1      40.116  32.257  31.350  1.00  0.00    -0.248 NA
ATOM     18  C   UNL A   1      38.436  33.876  31.290  1.00  0.00     0.031 C 
ATOM     19  C   UNL A   1      37.931  29.884  28.261  1.00  0.00     0.029 A 
ATOM     20  N   UNL A   1      39.746  29.963  29.565  1.00  0.00    -0.354 N 
ATOM     21  C   UNL A   1      40.448  33.289  32.219  1.00  0.00     0.074 A 
ATOM     22  C   UNL A   1      39.394  34.276  32.118  1.00  0.00     0.031 C 
ATOM     23  C   UNL A   1      38.611  28.746  28.066  1.00  0.00     0.029 A 
ATOM     24  C   UNL A   1      39.813  28.768  28.891  1.00  0.00     0.049 A 
ATOM     25  H   UNL A   1      40.440  30.269  30.192  1.00  0.00     0.167 HD
ATOM     26  C   UNL A   1      41.527  33.400  33.031  1.00  0.00     0.031 A 
ATOM     27  C   UNL A   1      40.737  27.792  28.925  1.00  0.00     0.031 A 
ATOM     28  C   UNL A   1      42.580  32.420  33.125  1.00  0.00     0.049 A 
ATOM     29  C   UNL A   1      41.922  27.945  29.831  1.00  0.00     0.074 A 
ATOM     30  C   UNL A   1      43.711  32.443  33.922  1.00  0.00     0.029 A 
ATOM     31  N   UNL A   1      42.630  31.241  32.398  1.00  0.00    -0.354 N 
ATOM     32  N   UNL A   1      42.203  28.918  30.663  1.00  0.00    -0.248 NA
ATOM     33  C   UNL A   1      42.915  26.863  29.804  1.00  0.00     0.031 C 
ATOM     34  C   UNL A   1      44.467  31.297  33.648  1.00  0.00     0.029 A 
ATOM     35  C   UNL A   1      43.780  30.536  32.717  1.00  0.00     0.049 A 
ATOM     36  H   UNL A   1      41.949  30.948  31.750  1.00  0.00     0.167 HD
ATOM     37  C   UNL A   1      43.406  28.568  31.258  1.00  0.00     0.074 A 
ATOM     38  C   UNL A   1      43.778  27.274  30.722  1.00  0.00     0.031 C 
ATOM     39  C   UNL A   1      44.142  29.260  32.160  1.00  0.00     0.031 A 
BRANCH  26  40
ATOM     40  C   UNL A   1      41.638  34.637  33.879  1.00  0.00    -0.014 A 
ATOM     41  C   UNL A   1      41.035  34.704  35.145  1.00  0.00     0.009 A 
ATOM     42  C   UNL A   1      42.406  35.725  33.434  1.00  0.00     0.009 A 
ATOM     43  C   UNL A   1      41.183  35.845  35.939  1.00  0.00     0.001 A 
ATOM     44  C   UNL A   1      42.570  36.854  34.238  1.00  0.00     0.001 A 
ATOM     45  C   UNL A   1      41.954  36.916  35.488  1.00  0.00     0.000 A 
ENDBRANCH  26  40
BRANCH  27  46
ATOM     46  C   UNL A   1      40.582  26.595  28.059  1.00  0.00    -0.014 A 
ATOM     47  C   UNL A   1      39.832  25.490  28.485  1.00  0.00     0.009 A 
ATOM     48  C   UNL A   1      41.181  26.563  26.790  1.00  0.00     0.009 A 
ATOM     49  C   UNL A   1      39.703  24.367  27.665  1.00  0.00     0.001 A 
ATOM     50  C   UNL A   1      41.024  25.453  25.960  1.00  0.00     0.001 A 
ATOM     51  C   UNL A   1      40.293  24.352  26.402  1.00  0.00     0.000 A 
ENDBRANCH  27  46
BRANCH  39  52
ATOM     52  C   UNL A   1      45.420  28.617  32.617  1.00  0.00    -0.014 A 
ATOM     53  C   UNL A   1      46.631  28.859  31.951  1.00  0.00     0.009 A 
ATOM     54  C   UNL A   1      45.412  27.758  33.727  1.00  0.00     0.009 A 
ATOM     55  C   UNL A   1      47.802  28.219  32.360  1.00  0.00     0.001 A 
ATOM     56  C   UNL A   1      46.589  27.141  34.150  1.00  0.00     0.001 A 
ATOM     57  C   UNL A   1      47.780  27.362  33.459  1.00  0.00     0.000 A 
ENDBRANCH  39  52
ENDBRANCH  13  14
ENDBRANCH   6   8
ENDBRANCH   3   4
ENDBRANCH   2   3
ENDBRANCH   1   2
BRANCH   1  58
ATOM     58  C   UNL A   1      30.992  28.797  24.506  1.00  0.00     0.002 C 
BRANCH  58  59
ATOM     59  C   UNL A   1      30.740  27.313  24.795  1.00  0.00     0.021 C 
BRANCH  59  60
ATOM     60  C   UNL A   1      31.628  26.691  25.869  1.00  0.00     0.116 C 
BRANCH  60  61
ATOM     61  N   UNL A   1      30.919  25.701  26.660  1.00  0.00    -0.352 N 
ATOM     62  C   UNL A   1      30.777  24.354  26.438  1.00  0.00     0.251 C 
ATOM     63  H   UNL A   1      30.478  26.044  27.470  1.00  0.00     0.163 HD
ATOM     64  O   UNL A   1      29.993  23.695  27.115  1.00  0.00    -0.269 OA
BRANCH  62  65
ATOM     65  C   UNL A   1      31.558  23.698  25.371  1.00  0.00     0.040 A 
ATOM     66  C   UNL A   1      30.971  23.526  24.117  1.00  0.00     0.014 A 
ATOM     67  C   UNL A   1      32.854  23.229  25.619  1.00  0.00     0.022 A 
ATOM     68  C   UNL A   1      31.705  22.929  23.095  1.00  0.00     0.001 A 
ATOM     69  C   UNL A   1      33.616  22.642  24.595  1.00  0.00    -0.012 A 
ATOM     70  C   UNL A   1      33.017  22.502  23.331  1.00  0.00     0.009 A 
BRANCH  69  71
ATOM     71  C   UNL A   1      35.003  22.211  24.842  1.00  0.00     0.053 A 
ATOM     72  C   UNL A   1      35.360  20.853  24.850  1.00  0.00     0.136 A 
ATOM     73  C   UNL A   1      36.039  23.137  25.050  1.00  0.00     0.136 A 
ATOM     74  F   UNL A   1      34.430  19.910  24.636  1.00  0.00    -0.206 F 
ATOM     75  C   UNL A   1      36.673  20.434  25.053  1.00  0.00     0.079 A 
ATOM     76  C   UNL A   1      37.358  22.738  25.256  1.00  0.00     0.079 A 
ATOM     77  F   UNL A   1      35.776  24.453  25.053  1.00  0.00    -0.206 F 
ATOM     78  C   UNL A   1      37.662  21.385  25.254  1.00  0.00     0.129 A 
ATOM     79  F   UNL A   1      38.927  20.993  25.442  1.00  0.00    -0.207 F 
ENDBRANCH  69  71
ENDBRANCH  62  65
ENDBRANCH  60  61
ENDBRANCH  59  60
ENDBRANCH  58  59
ENDBRANCH   1  58
TORSDOF 14
ENDMDL
