MODEL 1
REMARK VINA RESULT:     -11.2      0.000      0.000
REMARK SMILES Cc1ccc(S(=O)(=O)n2cc(C(=O)C(=O)NCC(=O)N[C@H](Cc3c[nH]c4ccccc34)C(=O)NCCCCCCNC(=O)c3ccc(-c4c5nc(c(-c6ccccc6)c6ccc([nH]6)c(-c6ccccc6)c6nc(c(-c7ccccc7)c7ccc4[nH]7)C=C6)C=C5)cc3)c3ccccc32)cc1
REMARK SMILES IDX 35 1 34 2 32 3 33 4 21 6 20 7 18 8 19 9 17 11 16 12 14 13
REMARK SMILES IDX 15 14 12 16 13 17 11 18 9 19 10 20 97 21 92 22 96 23 93 24
REMARK SMILES IDX 95 25 94 26 6 27 7 28 8 29 5 30 1 31 2 32 3 33 99 34 4 35
REMARK SMILES IDX 98 36 22 37 23 38 24 39 31 40 25 41 26 42 30 43 27 45 29 46
REMARK SMILES IDX 28 47 36 48 37 49 38 50 39 51 40 52 41 53 42 54 43 56 44 57
REMARK SMILES IDX 45 58 91 59 46 60 90 61 47 62 48 63 49 64 84 65 50 66 89 67
REMARK SMILES IDX 83 68 85 69 51 70 88 71 82 72 81 73 52 75 74 76 59 77 73 78
REMARK SMILES IDX 60 79 63 80 72 81 86 82 61 83 62 84 71 86 87 87 64 88 53 89
REMARK SMILES IDX 54 90 58 91 55 92 57 93 56 94 75 95 76 96 80 97 77 98 79 99
REMARK SMILES IDX 78 100 65 101 66 102 70 103 67 104 69 105 68 106
REMARK H PARENT 34 5 20 10 16 15 25 44 41 55 85 74 63 85
REMARK Flexibility Score: inf
ROOT
ATOM      1  C   UNL A   1      37.867  33.190  28.940  1.00  0.00     0.116 C 
ENDROOT
BRANCH   1   2
ATOM      2  N   UNL A   1      36.652  33.846  28.502  1.00  0.00    -0.354 N 
ATOM      3  C   UNL A   1      35.470  33.379  28.030  1.00  0.00     0.242 C 
ATOM      4  O   UNL A   1      34.724  34.225  27.523  1.00  0.00    -0.273 OA
ATOM      5  H   UNL A   1      36.693  34.829  28.559  1.00  0.00     0.163 HD
BRANCH   3   6
ATOM      6  C   UNL A   1      35.038  31.903  28.072  1.00  0.00     0.175 C 
BRANCH   6   7
ATOM      7  N   UNL A   1      33.607  31.858  27.727  1.00  0.00    -0.342 N 
ATOM      8  C   UNL A   1      32.906  30.891  27.067  1.00  0.00     0.240 C 
ATOM      9  O   UNL A   1      31.736  31.161  26.776  1.00  0.00    -0.273 OA
ATOM     10  H   UNL A   1      33.079  32.637  28.016  1.00  0.00     0.164 HD
BRANCH   8  11
ATOM     11  C   UNL A   1      33.461  29.464  26.872  1.00  0.00     0.216 C 
BRANCH  11  12
ATOM     12  N   UNL A   1      34.167  29.161  25.630  1.00  0.00    -0.340 N 
ATOM     13  C   UNL A   1      33.659  28.633  24.453  1.00  0.00     0.292 C 
ATOM     14  O   UNL A   1      34.343  28.506  23.444  1.00  0.00    -0.265 OA
ATOM     15  H   UNL A   1      35.132  29.356  25.629  1.00  0.00     0.164 HD
BRANCH  13  16
ATOM     16  C   UNL A   1      32.190  28.228  24.402  1.00  0.00     0.252 C 
ATOM     17  O   UNL A   1      31.378  29.151  24.350  1.00  0.00    -0.283 OA
BRANCH  16  18
ATOM     18  C   UNL A   1      31.773  26.834  24.607  1.00  0.00     0.054 A 
ATOM     19  N   UNL A   1      30.936  24.872  25.362  1.00  0.00    -0.240 N 
ATOM     20  C   UNL A   1      31.070  26.229  25.656  1.00  0.00     0.117 A 
ATOM     21  C   UNL A   1      31.338  24.691  24.026  1.00  0.00     0.065 A 
ATOM     22  C   UNL A   1      32.148  25.780  23.722  1.00  0.00     0.012 A 
ATOM     23  C   UNL A   1      31.307  23.548  23.202  1.00  0.00     0.028 A 
ATOM     24  C   UNL A   1      33.083  25.657  22.673  1.00  0.00     0.011 A 
ATOM     25  C   UNL A   1      32.294  23.418  22.226  1.00  0.00     0.002 A 
ATOM     26  C   UNL A   1      33.197  24.443  21.989  1.00  0.00     0.001 A 
BRANCH  19  27
ATOM     27  S   UNL A   1      31.480  23.547  26.364  1.00  0.00     0.268 S 
ATOM     28  O   UNL A   1      30.389  22.591  26.259  1.00  0.00    -0.201 OA
ATOM     29  O   UNL A   1      31.775  24.214  27.626  1.00  0.00    -0.201 OA
BRANCH  27  30
ATOM     30  C   UNL A   1      32.939  22.598  26.138  1.00  0.00     0.088 A 
ATOM     31  C   UNL A   1      36.932  21.226  25.212  1.00  0.00     0.044 C 
ATOM     32  C   UNL A   1      35.541  21.657  25.582  1.00  0.00    -0.051 A 
ATOM     33  C   UNL A   1      35.344  23.005  25.848  1.00  0.00     0.005 A 
ATOM     34  C   UNL A   1      34.430  20.785  25.617  1.00  0.00     0.005 A 
ATOM     35  C   UNL A   1      34.068  23.456  26.132  1.00  0.00     0.022 A 
ATOM     36  C   UNL A   1      33.115  21.248  25.890  1.00  0.00     0.022 A 
ENDBRANCH  27  30
ENDBRANCH  19  27
ENDBRANCH  16  18
ENDBRANCH  13  16
ENDBRANCH  11  12
ENDBRANCH   8  11
ENDBRANCH   6   7
BRANCH   6  37
ATOM     37  C   UNL A   1      35.360  31.087  29.345  1.00  0.00     0.072 C 
BRANCH  37  38
ATOM     38  C   UNL A   1      36.386  29.978  29.338  1.00  0.00    -0.020 A 
ATOM     39  C   UNL A   1      36.945  29.286  28.281  1.00  0.00     0.087 A 
ATOM     40  C   UNL A   1      37.017  29.432  30.519  1.00  0.00     0.003 A 
ATOM     41  N   UNL A   1      38.015  28.564  28.735  1.00  0.00    -0.361 N 
ATOM     42  C   UNL A   1      38.072  28.621  30.100  1.00  0.00     0.046 A 
ATOM     43  C   UNL A   1      36.811  29.572  31.908  1.00  0.00     0.010 A 
ATOM     44  H   UNL A   1      38.650  28.074  28.162  1.00  0.00     0.166 HD
ATOM     45  C   UNL A   1      38.972  28.008  30.976  1.00  0.00     0.026 A 
ATOM     46  C   UNL A   1      37.663  28.908  32.806  1.00  0.00     0.001 A 
ATOM     47  C   UNL A   1      38.741  28.157  32.343  1.00  0.00     0.002 A 
ENDBRANCH  37  38
ENDBRANCH   6  37
ENDBRANCH   3   6
ENDBRANCH   1   2
BRANCH   1  48
ATOM     48  C   UNL A   1      38.147  33.426  30.423  1.00  0.00     0.021 C 
BRANCH  48  49
ATOM     49  C   UNL A   1      36.900  33.609  31.300  1.00  0.00     0.002 C 
BRANCH  49  50
ATOM     50  C   UNL A   1      37.142  34.179  32.706  1.00  0.00     0.002 C 
BRANCH  50  51
ATOM     51  C   UNL A   1      36.776  33.253  33.866  1.00  0.00     0.021 C 
BRANCH  51  52
ATOM     52  C   UNL A   1      37.686  33.384  35.079  1.00  0.00     0.116 C 
BRANCH  52  53
ATOM     53  N   UNL A   1      37.840  32.157  35.836  1.00  0.00    -0.352 N 
ATOM     54  C   UNL A   1      38.761  31.128  35.711  1.00  0.00     0.251 C 
ATOM     55  H   UNL A   1      37.181  32.033  36.557  1.00  0.00     0.163 HD
ATOM     56  O   UNL A   1      38.596  30.110  36.346  1.00  0.00    -0.269 OA
BRANCH  54  57
ATOM     57  C   UNL A   1      40.032  31.330  34.948  1.00  0.00     0.039 A 
ATOM     58  C   UNL A   1      41.195  31.512  35.713  1.00  0.00     0.014 A 
ATOM     59  C   UNL A   1      40.073  31.566  33.579  1.00  0.00     0.014 A 
ATOM     60  C   UNL A   1      42.282  32.188  35.168  1.00  0.00     0.010 A 
ATOM     61  C   UNL A   1      41.106  32.317  33.056  1.00  0.00     0.010 A 
ATOM     62  C   UNL A   1      42.167  32.694  33.876  1.00  0.00    -0.014 A 
BRANCH  62  63
ATOM     63  C   UNL A   1      43.045  33.720  33.336  1.00  0.00     0.031 A 
ATOM     64  C   UNL A   1      42.788  35.139  33.633  1.00  0.00     0.074 A 
ATOM     65  C   UNL A   1      44.130  33.345  32.619  1.00  0.00     0.049 A 
ATOM     66  N   UNL A   1      43.152  36.113  32.870  1.00  0.00    -0.248 NA
ATOM     67  C   UNL A   1      42.048  35.571  34.816  1.00  0.00     0.031 C 
ATOM     68  C   UNL A   1      45.239  34.190  32.189  1.00  0.00     0.029 A 
ATOM     69  N   UNL A   1      44.335  32.146  31.932  1.00  0.00    -0.354 N 
ATOM     70  C   UNL A   1      42.968  37.273  33.582  1.00  0.00     0.074 A 
ATOM     71  C   UNL A   1      42.205  36.897  34.750  1.00  0.00     0.031 C 
ATOM     72  C   UNL A   1      45.808  33.629  31.109  1.00  0.00     0.029 A 
ATOM     73  C   UNL A   1      44.981  32.492  30.735  1.00  0.00     0.049 A 
ATOM     74  H   UNL A   1      44.079  31.242  32.226  1.00  0.00     0.167 HD
ATOM     75  C   UNL A   1      43.604  38.412  33.197  1.00  0.00     0.031 A 
ATOM     76  C   UNL A   1      44.435  32.290  29.500  1.00  0.00     0.031 A 
ATOM     77  C   UNL A   1      44.389  38.213  31.987  1.00  0.00     0.049 A 
ATOM     78  C   UNL A   1      44.302  33.572  28.703  1.00  0.00     0.074 A 
ATOM     79  C   UNL A   1      45.727  37.928  31.773  1.00  0.00     0.029 A 
ATOM     80  N   UNL A   1      43.731  37.957  30.792  1.00  0.00    -0.354 N 
ATOM     81  N   UNL A   1      44.316  34.761  29.238  1.00  0.00    -0.248 NA
ATOM     82  C   UNL A   1      44.091  33.617  27.258  1.00  0.00     0.031 C 
ATOM     83  C   UNL A   1      45.857  37.409  30.459  1.00  0.00     0.029 A 
ATOM     84  C   UNL A   1      44.605  37.416  29.869  1.00  0.00     0.049 A 
ATOM     85  H   UNL A   1      42.778  38.136  30.625  1.00  0.00     0.167 HD
ATOM     86  C   UNL A   1      44.146  35.707  28.263  1.00  0.00     0.074 A 
ATOM     87  C   UNL A   1      44.006  34.942  27.039  1.00  0.00     0.031 C 
ATOM     88  C   UNL A   1      44.131  37.042  28.547  1.00  0.00     0.031 A 
BRANCH  75  89
ATOM     89  C   UNL A   1      43.740  39.604  34.103  1.00  0.00    -0.014 A 
ATOM     90  C   UNL A   1      43.119  40.817  33.753  1.00  0.00     0.009 A 
ATOM     91  C   UNL A   1      44.498  39.603  35.284  1.00  0.00     0.009 A 
ATOM     92  C   UNL A   1      43.317  41.988  34.494  1.00  0.00     0.001 A 
ATOM     93  C   UNL A   1      44.731  40.781  36.009  1.00  0.00     0.001 A 
ATOM     94  C   UNL A   1      44.146  41.976  35.607  1.00  0.00     0.000 A 
ENDBRANCH  75  89
BRANCH  76  95
ATOM     95  C   UNL A   1      43.471  31.158  29.430  1.00  0.00    -0.014 A 
ATOM     96  C   UNL A   1      42.137  31.388  29.823  1.00  0.00     0.009 A 
ATOM     97  C   UNL A   1      43.752  30.026  28.650  1.00  0.00     0.009 A 
ATOM     98  C   UNL A   1      41.101  30.575  29.353  1.00  0.00     0.001 A 
ATOM     99  C   UNL A   1      42.711  29.210  28.190  1.00  0.00     0.001 A 
ATOM    100  C   UNL A   1      41.386  29.505  28.510  1.00  0.00     0.000 A 
ENDBRANCH  76  95
BRANCH  88 101
ATOM    101  C   UNL A   1      43.729  38.146  27.604  1.00  0.00    -0.014 A 
ATOM    102  C   UNL A   1      42.403  38.512  27.345  1.00  0.00     0.009 A 
ATOM    103  C   UNL A   1      44.736  38.977  27.061  1.00  0.00     0.009 A 
ATOM    104  C   UNL A   1      42.100  39.629  26.553  1.00  0.00     0.001 A 
ATOM    105  C   UNL A   1      44.439  40.115  26.310  1.00  0.00     0.001 A 
ATOM    106  C   UNL A   1      43.116  40.435  26.048  1.00  0.00     0.000 A 
ENDBRANCH  88 101
ENDBRANCH  62  63
ENDBRANCH  54  57
ENDBRANCH  52  53
ENDBRANCH  51  52
ENDBRANCH  50  51
ENDBRANCH  49  50
ENDBRANCH  48  49
ENDBRANCH   1  48
TORSDOF 22
ENDMDL
MODEL 2
REMARK VINA RESULT:     -10.9      3.441      7.841
REMARK SMILES Cc1ccc(S(=O)(=O)n2cc(C(=O)C(=O)NCC(=O)N[C@H](Cc3c[nH]c4ccccc34)C(=O)NCCCCCCNC(=O)c3ccc(-c4c5nc(c(-c6ccccc6)c6ccc([nH]6)c(-c6ccccc6)c6nc(c(-c7ccccc7)c7ccc4[nH]7)C=C6)C=C5)cc3)c3ccccc32)cc1
REMARK SMILES IDX 35 1 34 2 32 3 33 4 21 6 20 7 18 8 19 9 17 11 16 12 14 13
REMARK SMILES IDX 15 14 12 16 13 17 11 18 9 19 10 20 97 21 92 22 96 23 93 24
REMARK SMILES IDX 95 25 94 26 6 27 7 28 8 29 5 30 1 31 2 32 3 33 99 34 4 35
REMARK SMILES IDX 98 36 22 37 23 38 24 39 31 40 25 41 26 42 30 43 27 45 29 46
REMARK SMILES IDX 28 47 36 48 37 49 38 50 39 51 40 52 41 53 42 54 43 56 44 57
REMARK SMILES IDX 45 58 91 59 46 60 90 61 47 62 48 63 49 64 84 65 50 66 89 67
REMARK SMILES IDX 83 68 85 69 51 70 88 71 82 72 81 73 52 75 74 76 59 77 73 78
REMARK SMILES IDX 60 79 63 80 72 81 86 82 61 83 62 84 71 86 87 87 64 88 53 89
REMARK SMILES IDX 54 90 58 91 55 92 57 93 56 94 75 95 76 96 80 97 77 98 79 99
REMARK SMILES IDX 78 100 65 101 66 102 70 103 67 104 69 105 68 106
REMARK H PARENT 34 5 20 10 16 15 25 44 41 55 85 74 63 85
REMARK Flexibility Score: inf
ROOT
ATOM      1  C   UNL A   1      37.855  33.408  29.128  1.00  0.00     0.116 C 
ENDROOT
BRANCH   1   2
ATOM      2  N   UNL A   1      36.641  33.990  28.594  1.00  0.00    -0.354 N 
ATOM      3  C   UNL A   1      35.521  33.451  28.052  1.00  0.00     0.242 C 
ATOM      4  O   UNL A   1      34.768  34.248  27.478  1.00  0.00    -0.273 OA
ATOM      5  H   UNL A   1      36.625  34.975  28.633  1.00  0.00     0.163 HD
BRANCH   3   6
ATOM      6  C   UNL A   1      35.165  31.956  28.094  1.00  0.00     0.175 C 
BRANCH   6   7
ATOM      7  N   UNL A   1      33.720  31.843  27.831  1.00  0.00    -0.342 N 
ATOM      8  C   UNL A   1      33.049  30.935  27.065  1.00  0.00     0.240 C 
ATOM      9  O   UNL A   1      31.844  31.147  26.890  1.00  0.00    -0.273 OA
ATOM     10  H   UNL A   1      33.158  32.521  28.271  1.00  0.00     0.164 HD
BRANCH   8  11
ATOM     11  C   UNL A   1      33.693  29.608  26.611  1.00  0.00     0.216 C 
BRANCH  11  12
ATOM     12  N   UNL A   1      33.960  29.421  25.188  1.00  0.00    -0.340 N 
ATOM     13  C   UNL A   1      33.451  28.455  24.332  1.00  0.00     0.292 C 
ATOM     14  O   UNL A   1      33.685  28.457  23.130  1.00  0.00    -0.265 OA
ATOM     15  H   UNL A   1      34.583  30.065  24.782  1.00  0.00     0.164 HD
BRANCH  13  16
ATOM     16  C   UNL A   1      32.543  27.372  24.903  1.00  0.00     0.252 C 
ATOM     17  O   UNL A   1      31.379  27.707  25.128  1.00  0.00    -0.283 OA
BRANCH  16  18
ATOM     18  C   UNL A   1      33.079  26.077  25.343  1.00  0.00     0.054 A 
ATOM     19  N   UNL A   1      34.355  24.285  25.878  1.00  0.00    -0.240 N 
ATOM     20  C   UNL A   1      34.389  25.583  25.366  1.00  0.00     0.117 A 
ATOM     21  C   UNL A   1      33.064  24.073  26.396  1.00  0.00     0.065 A 
ATOM     22  C   UNL A   1      32.242  24.998  25.760  1.00  0.00     0.012 A 
ATOM     23  C   UNL A   1      32.525  22.983  27.107  1.00  0.00     0.028 A 
ATOM     24  C   UNL A   1      30.859  24.734  25.678  1.00  0.00     0.011 A 
ATOM     25  C   UNL A   1      31.170  22.699  26.943  1.00  0.00     0.002 A 
ATOM     26  C   UNL A   1      30.353  23.542  26.205  1.00  0.00     0.001 A 
BRANCH  19  27
ATOM     27  S   UNL A   1      34.951  22.851  25.076  1.00  0.00     0.268 S 
ATOM     28  O   UNL A   1      35.907  22.318  26.034  1.00  0.00    -0.201 OA
ATOM     29  O   UNL A   1      35.390  23.376  23.789  1.00  0.00    -0.201 OA
BRANCH  27  30
ATOM     30  C   UNL A   1      33.999  21.468  24.567  1.00  0.00     0.088 A 
ATOM     31  C   UNL A   1      32.633  17.546  23.367  1.00  0.00     0.044 C 
ATOM     32  C   UNL A   1      33.048  18.920  23.811  1.00  0.00    -0.051 A 
ATOM     33  C   UNL A   1      34.206  19.020  24.568  1.00  0.00     0.005 A 
ATOM     34  C   UNL A   1      32.362  20.103  23.454  1.00  0.00     0.005 A 
ATOM     35  C   UNL A   1      34.659  20.270  24.946  1.00  0.00     0.022 A 
ATOM     36  C   UNL A   1      32.834  21.391  23.825  1.00  0.00     0.022 A 
ENDBRANCH  27  30
ENDBRANCH  19  27
ENDBRANCH  16  18
ENDBRANCH  13  16
ENDBRANCH  11  12
ENDBRANCH   8  11
ENDBRANCH   6   7
BRANCH   6  37
ATOM     37  C   UNL A   1      35.599  31.140  29.335  1.00  0.00     0.072 C 
BRANCH  37  38
ATOM     38  C   UNL A   1      36.572  29.989  29.226  1.00  0.00    -0.020 A 
ATOM     39  C   UNL A   1      37.107  29.376  28.111  1.00  0.00     0.087 A 
ATOM     40  C   UNL A   1      37.166  29.304  30.353  1.00  0.00     0.003 A 
ATOM     41  N   UNL A   1      38.138  28.563  28.498  1.00  0.00    -0.361 N 
ATOM     42  C   UNL A   1      38.186  28.487  29.862  1.00  0.00     0.046 A 
ATOM     43  C   UNL A   1      36.954  29.320  31.748  1.00  0.00     0.010 A 
ATOM     44  H   UNL A   1      38.755  28.101  27.884  1.00  0.00     0.166 HD
ATOM     45  C   UNL A   1      39.048  27.751  30.680  1.00  0.00     0.026 A 
ATOM     46  C   UNL A   1      37.766  28.535  32.581  1.00  0.00     0.001 A 
ATOM     47  C   UNL A   1      38.812  27.781  32.054  1.00  0.00     0.002 A 
ENDBRANCH  37  38
ENDBRANCH   6  37
ENDBRANCH   3   6
ENDBRANCH   1   2
BRANCH   1  48
ATOM     48  C   UNL A   1      38.077  33.781  30.593  1.00  0.00     0.021 C 
BRANCH  48  49
ATOM     49  C   UNL A   1      36.812  34.192  31.360  1.00  0.00     0.002 C 
BRANCH  49  50
ATOM     50  C   UNL A   1      36.703  33.684  32.804  1.00  0.00     0.002 C 
BRANCH  50  51
ATOM     51  C   UNL A   1      37.532  32.441  33.131  1.00  0.00     0.021 C 
BRANCH  51  52
ATOM     52  C   UNL A   1      38.853  32.738  33.826  1.00  0.00     0.116 C 
BRANCH  52  53
ATOM     53  N   UNL A   1      39.475  31.576  34.432  1.00  0.00    -0.352 N 
ATOM     54  C   UNL A   1      40.379  30.662  33.912  1.00  0.00     0.251 C 
ATOM     55  H   UNL A   1      39.211  31.407  35.365  1.00  0.00     0.163 HD
ATOM     56  O   UNL A   1      40.636  29.663  34.547  1.00  0.00    -0.269 OA
BRANCH  54  57
ATOM     57  C   UNL A   1      41.162  30.980  32.678  1.00  0.00     0.039 A 
ATOM     58  C   UNL A   1      40.427  31.104  31.489  1.00  0.00     0.014 A 
ATOM     59  C   UNL A   1      42.550  30.929  32.618  1.00  0.00     0.014 A 
ATOM     60  C   UNL A   1      41.053  30.893  30.263  1.00  0.00     0.010 A 
ATOM     61  C   UNL A   1      43.163  30.627  31.419  1.00  0.00     0.010 A 
ATOM     62  C   UNL A   1      42.396  30.529  30.260  1.00  0.00    -0.014 A 
BRANCH  62  63
ATOM     63  C   UNL A   1      43.058  29.920  29.118  1.00  0.00     0.031 A 
ATOM     64  C   UNL A   1      43.158  28.454  29.021  1.00  0.00     0.074 A 
ATOM     65  C   UNL A   1      43.518  30.715  28.124  1.00  0.00     0.049 A 
ATOM     66  N   UNL A   1      44.086  27.835  28.374  1.00  0.00    -0.248 NA
ATOM     67  C   UNL A   1      42.222  27.559  29.696  1.00  0.00     0.031 C 
ATOM     68  C   UNL A   1      44.000  30.298  26.811  1.00  0.00     0.029 A 
ATOM     69  N   UNL A   1      43.855  32.070  28.191  1.00  0.00    -0.354 N 
ATOM     70  C   UNL A   1      43.713  26.515  28.298  1.00  0.00     0.074 A 
ATOM     71  C   UNL A   1      42.594  26.374  29.201  1.00  0.00     0.031 C 
ATOM     72  C   UNL A   1      44.828  31.247  26.340  1.00  0.00     0.029 A 
ATOM     73  C   UNL A   1      45.009  32.220  27.407  1.00  0.00     0.049 A 
ATOM     74  H   UNL A   1      43.380  32.775  28.687  1.00  0.00     0.167 HD
ATOM     75  C   UNL A   1      44.285  25.702  27.370  1.00  0.00     0.031 A 
ATOM     76  C   UNL A   1      46.213  32.618  27.911  1.00  0.00     0.031 A 
ATOM     77  C   UNL A   1      45.300  26.398  26.591  1.00  0.00     0.049 A 
ATOM     78  C   UNL A   1      47.314  31.606  27.663  1.00  0.00     0.074 A 
ATOM     79  C   UNL A   1      45.266  27.031  25.359  1.00  0.00     0.029 A 
ATOM     80  N   UNL A   1      46.467  26.810  27.218  1.00  0.00    -0.354 N 
ATOM     81  N   UNL A   1      47.093  30.353  27.377  1.00  0.00    -0.248 NA
ATOM     82  C   UNL A   1      48.740  31.908  27.768  1.00  0.00     0.031 C 
ATOM     83  C   UNL A   1      46.383  27.903  25.287  1.00  0.00     0.029 A 
ATOM     84  C   UNL A   1      47.108  27.768  26.458  1.00  0.00     0.049 A 
ATOM     85  H   UNL A   1      46.792  26.468  28.082  1.00  0.00     0.167 HD
ATOM     86  C   UNL A   1      48.285  29.695  27.240  1.00  0.00     0.074 A 
ATOM     87  C   UNL A   1      49.290  30.709  27.498  1.00  0.00     0.031 C 
ATOM     88  C   UNL A   1      48.346  28.367  26.931  1.00  0.00     0.031 A 
BRANCH  75  89
ATOM     89  C   UNL A   1      43.694  24.375  26.989  1.00  0.00    -0.014 A 
ATOM     90  C   UNL A   1      43.340  24.130  25.649  1.00  0.00     0.009 A 
ATOM     91  C   UNL A   1      43.423  23.349  27.908  1.00  0.00     0.009 A 
ATOM     92  C   UNL A   1      42.670  22.963  25.263  1.00  0.00     0.001 A 
ATOM     93  C   UNL A   1      42.720  22.194  27.535  1.00  0.00     0.001 A 
ATOM     94  C   UNL A   1      42.336  22.006  26.212  1.00  0.00     0.000 A 
ENDBRANCH  75  89
BRANCH  76  95
ATOM     95  C   UNL A   1      46.122  33.473  29.126  1.00  0.00    -0.014 A 
ATOM     96  C   UNL A   1      45.760  34.825  28.969  1.00  0.00     0.009 A 
ATOM     97  C   UNL A   1      46.012  32.895  30.400  1.00  0.00     0.009 A 
ATOM     98  C   UNL A   1      45.195  35.544  30.027  1.00  0.00     0.001 A 
ATOM     99  C   UNL A   1      45.454  33.623  31.459  1.00  0.00     0.001 A 
ATOM    100  C   UNL A   1      45.013  34.931  31.263  1.00  0.00     0.000 A 
ENDBRANCH  76  95
BRANCH  88 101
ATOM    101  C   UNL A   1      49.576  27.498  26.979  1.00  0.00    -0.014 A 
ATOM    102  C   UNL A   1      50.131  26.990  28.160  1.00  0.00     0.009 A 
ATOM    103  C   UNL A   1      50.123  27.027  25.764  1.00  0.00     0.009 A 
ATOM    104  C   UNL A   1      51.204  26.088  28.127  1.00  0.00     0.001 A 
ATOM    105  C   UNL A   1      51.161  26.094  25.726  1.00  0.00     0.001 A 
ATOM    106  C   UNL A   1      51.708  25.631  26.912  1.00  0.00     0.000 A 
ENDBRANCH  88 101
ENDBRANCH  62  63
ENDBRANCH  54  57
ENDBRANCH  52  53
ENDBRANCH  51  52
ENDBRANCH  50  51
ENDBRANCH  49  50
ENDBRANCH  48  49
ENDBRANCH   1  48
TORSDOF 22
ENDMDL
MODEL 3
REMARK VINA RESULT:     -10.4      6.054     10.353
REMARK SMILES Cc1ccc(S(=O)(=O)n2cc(C(=O)C(=O)NCC(=O)N[C@H](Cc3c[nH]c4ccccc34)C(=O)NCCCCCCNC(=O)c3ccc(-c4c5nc(c(-c6ccccc6)c6ccc([nH]6)c(-c6ccccc6)c6nc(c(-c7ccccc7)c7ccc4[nH]7)C=C6)C=C5)cc3)c3ccccc32)cc1
REMARK SMILES IDX 35 1 34 2 32 3 33 4 21 6 20 7 18 8 19 9 17 11 16 12 14 13
REMARK SMILES IDX 15 14 12 16 13 17 11 18 9 19 10 20 97 21 92 22 96 23 93 24
REMARK SMILES IDX 95 25 94 26 6 27 7 28 8 29 5 30 1 31 2 32 3 33 99 34 4 35
REMARK SMILES IDX 98 36 22 37 23 38 24 39 31 40 25 41 26 42 30 43 27 45 29 46
REMARK SMILES IDX 28 47 36 48 37 49 38 50 39 51 40 52 41 53 42 54 43 56 44 57
REMARK SMILES IDX 45 58 91 59 46 60 90 61 47 62 48 63 49 64 84 65 50 66 89 67
REMARK SMILES IDX 83 68 85 69 51 70 88 71 82 72 81 73 52 75 74 76 59 77 73 78
REMARK SMILES IDX 60 79 63 80 72 81 86 82 61 83 62 84 71 86 87 87 64 88 53 89
REMARK SMILES IDX 54 90 58 91 55 92 57 93 56 94 75 95 76 96 80 97 77 98 79 99
REMARK SMILES IDX 78 100 65 101 66 102 70 103 67 104 69 105 68 106
REMARK H PARENT 34 5 20 10 16 15 25 44 41 55 85 74 63 85
REMARK Flexibility Score: inf
ROOT
ATOM      1  C   UNL A   1      37.872  30.079  29.929  1.00  0.00     0.116 C 
ENDROOT
BRANCH   1   2
ATOM      2  N   UNL A   1      38.076  31.422  30.433  1.00  0.00    -0.354 N 
ATOM      3  C   UNL A   1      37.253  32.491  30.570  1.00  0.00     0.242 C 
ATOM      4  O   UNL A   1      37.811  33.566  30.820  1.00  0.00    -0.273 OA
ATOM      5  H   UNL A   1      38.998  31.592  30.738  1.00  0.00     0.163 HD
BRANCH   3   6
ATOM      6  C   UNL A   1      35.724  32.438  30.416  1.00  0.00     0.175 C 
BRANCH   6   7
ATOM      7  N   UNL A   1      35.330  33.585  29.580  1.00  0.00    -0.342 N 
ATOM      8  C   UNL A   1      34.632  33.602  28.408  1.00  0.00     0.240 C 
ATOM      9  O   UNL A   1      34.557  34.690  27.827  1.00  0.00    -0.273 OA
ATOM     10  H   UNL A   1      35.610  34.467  29.916  1.00  0.00     0.164 HD
BRANCH   8  11
ATOM     11  C   UNL A   1      33.805  32.390  27.927  1.00  0.00     0.216 C 
BRANCH  11  12
ATOM     12  N   UNL A   1      34.421  31.067  27.982  1.00  0.00    -0.340 N 
ATOM     13  C   UNL A   1      33.983  29.884  27.406  1.00  0.00     0.292 C 
ATOM     14  O   UNL A   1      34.639  28.851  27.452  1.00  0.00    -0.265 OA
ATOM     15  H   UNL A   1      35.258  31.007  28.496  1.00  0.00     0.164 HD
BRANCH  13  16
ATOM     16  C   UNL A   1      32.652  29.878  26.663  1.00  0.00     0.252 C 
ATOM     17  O   UNL A   1      31.962  30.891  26.783  1.00  0.00    -0.283 OA
BRANCH  16  18
ATOM     18  C   UNL A   1      32.143  28.662  26.015  1.00  0.00     0.054 A 
ATOM     19  N   UNL A   1      31.114  26.722  25.464  1.00  0.00    -0.240 N 
ATOM     20  C   UNL A   1      31.272  27.668  26.478  1.00  0.00     0.117 A 
ATOM     21  C   UNL A   1      31.688  27.259  24.297  1.00  0.00     0.065 A 
ATOM     22  C   UNL A   1      32.585  28.232  24.728  1.00  0.00     0.012 A 
ATOM     23  C   UNL A   1      31.716  26.770  22.976  1.00  0.00     0.028 A 
ATOM     24  C   UNL A   1      33.650  28.597  23.878  1.00  0.00     0.011 A 
ATOM     25  C   UNL A   1      32.822  27.083  22.186  1.00  0.00     0.002 A 
ATOM     26  C   UNL A   1      33.798  27.955  22.644  1.00  0.00     0.001 A 
BRANCH  19  27
ATOM     27  S   UNL A   1      31.448  25.012  25.596  1.00  0.00     0.268 S 
ATOM     28  O   UNL A   1      30.274  24.404  24.990  1.00  0.00    -0.201 OA
ATOM     29  O   UNL A   1      31.725  24.859  27.019  1.00  0.00    -0.201 OA
BRANCH  27  30
ATOM     30  C   UNL A   1      32.813  24.158  24.896  1.00  0.00     0.088 A 
ATOM     31  C   UNL A   1      36.705  22.996  23.417  1.00  0.00     0.044 C 
ATOM     32  C   UNL A   1      35.340  23.337  23.945  1.00  0.00    -0.051 A 
ATOM     33  C   UNL A   1      35.264  24.321  24.920  1.00  0.00     0.005 A 
ATOM     34  C   UNL A   1      34.144  22.755  23.467  1.00  0.00     0.005 A 
ATOM     35  C   UNL A   1      34.023  24.709  25.390  1.00  0.00     0.022 A 
ATOM     36  C   UNL A   1      32.866  23.165  23.934  1.00  0.00     0.022 A 
ENDBRANCH  27  30
ENDBRANCH  19  27
ENDBRANCH  16  18
ENDBRANCH  13  16
ENDBRANCH  11  12
ENDBRANCH   8  11
ENDBRANCH   6   7
BRANCH   6  37
ATOM     37  C   UNL A   1      34.867  32.326  31.699  1.00  0.00     0.072 C 
BRANCH  37  38
ATOM     38  C   UNL A   1      35.126  33.198  32.905  1.00  0.00    -0.020 A 
ATOM     39  C   UNL A   1      34.502  34.359  33.317  1.00  0.00     0.087 A 
ATOM     40  C   UNL A   1      36.127  32.931  33.914  1.00  0.00     0.003 A 
ATOM     41  N   UNL A   1      34.892  34.647  34.596  1.00  0.00    -0.361 N 
ATOM     42  C   UNL A   1      35.896  33.802  34.980  1.00  0.00     0.046 A 
ATOM     43  C   UNL A   1      37.192  32.014  34.037  1.00  0.00     0.010 A 
ATOM     44  H   UNL A   1      34.506  35.359  35.158  1.00  0.00     0.166 HD
ATOM     45  C   UNL A   1      36.609  33.760  36.181  1.00  0.00     0.026 A 
ATOM     46  C   UNL A   1      37.964  32.001  35.210  1.00  0.00     0.001 A 
ATOM     47  C   UNL A   1      37.660  32.848  36.273  1.00  0.00     0.002 A 
ENDBRANCH  37  38
ENDBRANCH   6  37
ENDBRANCH   3   6
ENDBRANCH   1   2
BRANCH   1  48
ATOM     48  C   UNL A   1      39.130  29.512  29.274  1.00  0.00     0.021 C 
BRANCH  48  49
ATOM     49  C   UNL A   1      39.101  29.467  27.739  1.00  0.00     0.002 C 
BRANCH  49  50
ATOM     50  C   UNL A   1      39.647  28.186  27.092  1.00  0.00     0.002 C 
BRANCH  50  51
ATOM     51  C   UNL A   1      41.005  28.321  26.403  1.00  0.00     0.021 C 
BRANCH  51  52
ATOM     52  C   UNL A   1      41.565  27.010  25.868  1.00  0.00     0.116 C 
BRANCH  52  53
ATOM     53  N   UNL A   1      40.732  25.856  26.145  1.00  0.00    -0.352 N 
ATOM     54  C   UNL A   1      40.940  24.773  26.985  1.00  0.00     0.251 C 
ATOM     55  H   UNL A   1      39.879  25.838  25.654  1.00  0.00     0.163 HD
ATOM     56  O   UNL A   1      40.180  23.832  26.931  1.00  0.00    -0.269 OA
BRANCH  54  57
ATOM     57  C   UNL A   1      41.973  24.832  28.065  1.00  0.00     0.039 A 
ATOM     58  C   UNL A   1      42.089  26.052  28.749  1.00  0.00     0.014 A 
ATOM     59  C   UNL A   1      42.938  23.850  28.256  1.00  0.00     0.014 A 
ATOM     60  C   UNL A   1      43.287  26.382  29.377  1.00  0.00     0.010 A 
ATOM     61  C   UNL A   1      44.159  24.201  28.794  1.00  0.00     0.010 A 
ATOM     62  C   UNL A   1      44.353  25.494  29.278  1.00  0.00    -0.014 A 
BRANCH  62  63
ATOM     63  C   UNL A   1      45.733  25.865  29.543  1.00  0.00     0.031 A 
ATOM     64  C   UNL A   1      46.793  25.483  28.594  1.00  0.00     0.074 A 
ATOM     65  C   UNL A   1      46.013  26.617  30.632  1.00  0.00     0.049 A 
ATOM     66  N   UNL A   1      48.029  25.315  28.922  1.00  0.00    -0.248 NA
ATOM     67  C   UNL A   1      46.523  25.217  27.184  1.00  0.00     0.031 C 
ATOM     68  C   UNL A   1      47.277  27.275  30.950  1.00  0.00     0.029 A 
ATOM     69  N   UNL A   1      45.261  26.752  31.802  1.00  0.00    -0.354 N 
ATOM     70  C   UNL A   1      48.746  25.217  27.755  1.00  0.00     0.074 A 
ATOM     71  C   UNL A   1      47.764  25.078  26.704  1.00  0.00     0.031 C 
ATOM     72  C   UNL A   1      47.341  27.454  32.281  1.00  0.00     0.029 A 
ATOM     73  C   UNL A   1      46.187  26.780  32.856  1.00  0.00     0.049 A 
ATOM     74  H   UNL A   1      44.281  26.814  31.873  1.00  0.00     0.167 HD
ATOM     75  C   UNL A   1      50.092  25.413  27.768  1.00  0.00     0.031 A 
ATOM     76  C   UNL A   1      46.239  25.831  33.836  1.00  0.00     0.031 A 
ATOM     77  C   UNL A   1      50.591  25.663  29.113  1.00  0.00     0.049 A 
ATOM     78  C   UNL A   1      47.588  25.145  33.914  1.00  0.00     0.074 A 
ATOM     79  C   UNL A   1      50.866  26.829  29.808  1.00  0.00     0.029 A 
ATOM     80  N   UNL A   1      50.544  24.642  30.051  1.00  0.00    -0.354 N 
ATOM     81  N   UNL A   1      48.458  25.147  32.942  1.00  0.00    -0.248 NA
ATOM     82  C   UNL A   1      48.042  24.364  35.063  1.00  0.00     0.031 C 
ATOM     83  C   UNL A   1      50.896  26.513  31.192  1.00  0.00     0.029 A 
ATOM     84  C   UNL A   1      50.675  25.154  31.326  1.00  0.00     0.049 A 
ATOM     85  H   UNL A   1      50.435  23.687  29.837  1.00  0.00     0.167 HD
ATOM     86  C   UNL A   1      49.559  24.421  33.308  1.00  0.00     0.074 A 
ATOM     87  C   UNL A   1      49.251  23.946  34.644  1.00  0.00     0.031 C 
ATOM     88  C   UNL A   1      50.631  24.267  32.478  1.00  0.00     0.031 A 
BRANCH  75  89
ATOM     89  C   UNL A   1      50.880  25.673  26.515  1.00  0.00    -0.014 A 
ATOM     90  C   UNL A   1      52.066  24.954  26.278  1.00  0.00     0.009 A 
ATOM     91  C   UNL A   1      50.529  26.638  25.559  1.00  0.00     0.009 A 
ATOM     92  C   UNL A   1      52.902  25.245  25.194  1.00  0.00     0.001 A 
ATOM     93  C   UNL A   1      51.379  26.960  24.492  1.00  0.00     0.001 A 
ATOM     94  C   UNL A   1      52.572  26.268  24.316  1.00  0.00     0.000 A 
ENDBRANCH  75  89
BRANCH  76  95
ATOM     95  C   UNL A   1      44.941  25.157  34.112  1.00  0.00    -0.014 A 
ATOM     96  C   UNL A   1      44.600  24.024  33.347  1.00  0.00     0.009 A 
ATOM     97  C   UNL A   1      44.262  25.378  35.319  1.00  0.00     0.009 A 
ATOM     98  C   UNL A   1      43.689  23.079  33.832  1.00  0.00     0.001 A 
ATOM     99  C   UNL A   1      43.344  24.433  35.796  1.00  0.00     0.001 A 
ATOM    100  C   UNL A   1      43.087  23.270  35.071  1.00  0.00     0.000 A 
ENDBRANCH  76  95
BRANCH  88 101
ATOM    101  C   UNL A   1      51.782  23.315  32.679  1.00  0.00    -0.014 A 
ATOM    102  C   UNL A   1      53.080  23.715  33.019  1.00  0.00     0.009 A 
ATOM    103  C   UNL A   1      51.521  21.925  32.683  1.00  0.00     0.009 A 
ATOM    104  C   UNL A   1      54.075  22.772  33.312  1.00  0.00     0.001 A 
ATOM    105  C   UNL A   1      52.497  20.985  33.018  1.00  0.00     0.001 A 
ATOM    106  C   UNL A   1      53.781  21.411  33.324  1.00  0.00     0.000 A 
ENDBRANCH  88 101
ENDBRANCH  62  63
ENDBRANCH  54  57
ENDBRANCH  52  53
ENDBRANCH  51  52
ENDBRANCH  50  51
ENDBRANCH  49  50
ENDBRANCH  48  49
ENDBRANCH   1  48
TORSDOF 22
ENDMDL
