MODEL 1
REMARK VINA RESULT:     -10.9      0.000      0.000
REMARK SMILES C[C@@H]1CN(C(=O)N2CCC(CC(=O)NCCCCCCNC(=O)c3ccc(-c4c5nc(c(-c6ccccc6)c6ccc([nH]6)c(-c6ccccc6)c6nc(c(-c7ccccc7)c7ccc4[nH]7)C=C6)C=C5)cc3)CC2)C[C@@H](C)S1
REMARK SMILES IDX 18 1 17 2 16 3 15 4 14 5 12 6 13 7 11 9 10 10 1 11 2 12 3 13
REMARK SMILES IDX 77 14 4 15 75 16 5 17 74 18 76 19 6 20 7 21 8 22 73 23 9 24
REMARK SMILES IDX 72 25 19 26 20 27 21 28 22 29 23 31 24 32 25 33 71 34 26 35
REMARK SMILES IDX 70 36 27 37 28 38 29 39 64 40 30 41 69 42 63 43 65 44 31 45
REMARK SMILES IDX 68 46 62 47 61 48 32 50 54 51 39 52 53 53 40 54 43 55 52 56
REMARK SMILES IDX 66 57 41 58 42 59 51 61 67 62 44 63 33 64 34 65 38 66 35 67
REMARK SMILES IDX 37 68 36 69 55 70 56 71 60 72 57 73 59 74 58 75 45 76 46 77
REMARK SMILES IDX 50 78 47 79 49 80 48 81
REMARK H PARENT 14 8 21 30 65 49 43 60
REMARK Flexibility Score: inf
ROOT
ATOM      1  C   UNL A   1      32.569  30.421  27.271  1.00  0.00     0.002 C 
ENDROOT
BRANCH   1   2
ATOM      2  C   UNL A   1      34.094  30.448  27.384  1.00  0.00     0.002 C 
BRANCH   2   3
ATOM      3  C   UNL A   1      34.800  29.187  26.886  1.00  0.00     0.021 C 
BRANCH   3   4
ATOM      4  C   UNL A   1      33.914  28.233  26.074  1.00  0.00     0.116 C 
BRANCH   4   5
ATOM      5  N   UNL A   1      34.014  28.519  24.652  1.00  0.00    -0.356 N 
ATOM      6  C   UNL A   1      33.054  28.805  23.725  1.00  0.00     0.220 C 
ATOM      7  O   UNL A   1      33.391  28.887  22.543  1.00  0.00    -0.275 OA
ATOM      8  H   UNL A   1      34.932  28.502  24.296  1.00  0.00     0.163 HD
BRANCH   6   9
ATOM      9  C   UNL A   1      31.608  29.027  24.136  1.00  0.00     0.103 C 
BRANCH   9  10
ATOM     10  C   UNL A   1      30.739  27.750  24.147  1.00  0.00     0.002 C 
ATOM     11  C   UNL A   1      34.752  24.455  25.845  1.00  0.00     0.021 C 
ATOM     12  C   UNL A   1      34.930  23.989  24.400  1.00  0.00     0.063 C 
ATOM     13  C   UNL A   1      33.642  24.129  23.564  1.00  0.00     0.135 C 
ATOM     14  S   UNL A   1      35.582  22.280  24.350  1.00  0.00    -0.152 SA
ATOM     15  N   UNL A   1      32.567  23.219  23.974  1.00  0.00    -0.322 N 
ATOM     16  C   UNL A   1      34.047  21.382  24.817  1.00  0.00     0.063 C 
ATOM     17  C   UNL A   1      31.501  23.627  24.764  1.00  0.00     0.320 C 
ATOM     18  C   UNL A   1      32.882  21.792  23.902  1.00  0.00     0.135 C 
ATOM     19  C   UNL A   1      34.325  19.885  24.714  1.00  0.00     0.021 C 
ATOM     20  O   UNL A   1      31.056  22.917  25.664  1.00  0.00    -0.248 OA
ATOM     21  N   UNL A   1      30.992  24.884  24.506  1.00  0.00    -0.325 N 
ATOM     22  C   UNL A   1      30.326  25.637  25.554  1.00  0.00     0.121 C 
ATOM     23  C   UNL A   1      30.707  25.361  23.164  1.00  0.00     0.121 C 
ATOM     24  C   UNL A   1      30.845  27.075  25.535  1.00  0.00     0.026 C 
ATOM     25  C   UNL A   1      31.148  26.805  23.007  1.00  0.00     0.026 C 
ENDBRANCH   9  10
ENDBRANCH   6   9
ENDBRANCH   4   5
ENDBRANCH   3   4
ENDBRANCH   2   3
ENDBRANCH   1   2
BRANCH   1  26
ATOM     26  C   UNL A   1      31.882  31.784  27.121  1.00  0.00     0.021 C 
BRANCH  26  27
ATOM     27  C   UNL A   1      32.811  32.977  26.895  1.00  0.00     0.116 C 
BRANCH  27  28
ATOM     28  N   UNL A   1      32.514  34.087  27.782  1.00  0.00    -0.352 N 
ATOM     29  C   UNL A   1      33.156  34.510  28.919  1.00  0.00     0.251 C 
ATOM     30  H   UNL A   1      31.726  34.620  27.528  1.00  0.00     0.163 HD
ATOM     31  O   UNL A   1      32.632  35.360  29.633  1.00  0.00    -0.269 OA
BRANCH  29  32
ATOM     32  C   UNL A   1      34.466  33.941  29.306  1.00  0.00     0.039 A 
ATOM     33  C   UNL A   1      34.520  33.074  30.401  1.00  0.00     0.014 A 
ATOM     34  C   UNL A   1      35.641  34.294  28.636  1.00  0.00     0.014 A 
ATOM     35  C   UNL A   1      35.740  32.516  30.788  1.00  0.00     0.010 A 
ATOM     36  C   UNL A   1      36.851  33.693  28.988  1.00  0.00     0.010 A 
ATOM     37  C   UNL A   1      36.912  32.798  30.068  1.00  0.00    -0.014 A 
BRANCH  37  38
ATOM     38  C   UNL A   1      38.198  32.147  30.426  1.00  0.00     0.031 A 
ATOM     39  C   UNL A   1      39.163  32.816  31.366  1.00  0.00     0.074 A 
ATOM     40  C   UNL A   1      38.521  30.968  29.860  1.00  0.00     0.049 A 
ATOM     41  N   UNL A   1      40.336  32.400  31.776  1.00  0.00    -0.248 NA
ATOM     42  C   UNL A   1      38.772  34.130  31.899  1.00  0.00     0.031 C 
ATOM     43  C   UNL A   1      37.699  30.240  28.891  1.00  0.00     0.029 A 
ATOM     44  N   UNL A   1      39.633  30.178  30.014  1.00  0.00    -0.354 N 
ATOM     45  C   UNL A   1      40.829  33.406  32.596  1.00  0.00     0.074 A 
ATOM     46  C   UNL A   1      39.846  34.468  32.601  1.00  0.00     0.031 C 
ATOM     47  C   UNL A   1      38.326  29.102  28.550  1.00  0.00     0.029 A 
ATOM     48  C   UNL A   1      39.603  29.034  29.253  1.00  0.00     0.049 A 
ATOM     49  H   UNL A   1      40.380  30.409  30.610  1.00  0.00     0.167 HD
ATOM     50  C   UNL A   1      41.989  33.438  33.295  1.00  0.00     0.031 A 
ATOM     51  C   UNL A   1      40.504  28.041  29.131  1.00  0.00     0.031 A 
ATOM     52  C   UNL A   1      42.959  32.375  33.310  1.00  0.00     0.049 A 
ATOM     53  C   UNL A   1      41.772  28.092  29.935  1.00  0.00     0.074 A 
ATOM     54  C   UNL A   1      44.125  32.284  34.052  1.00  0.00     0.029 A 
ATOM     55  N   UNL A   1      42.879  31.222  32.548  1.00  0.00    -0.354 N 
ATOM     56  N   UNL A   1      42.179  29.009  30.777  1.00  0.00    -0.248 NA
ATOM     57  C   UNL A   1      42.697  26.960  29.780  1.00  0.00     0.031 C 
ATOM     58  C   UNL A   1      44.774  31.095  33.704  1.00  0.00     0.029 A 
ATOM     59  C   UNL A   1      43.988  30.425  32.782  1.00  0.00     0.049 A 
ATOM     60  H   UNL A   1      42.144  31.000  31.932  1.00  0.00     0.167 HD
ATOM     61  C   UNL A   1      43.397  28.558  31.267  1.00  0.00     0.074 A 
ATOM     62  C   UNL A   1      43.651  27.275  30.645  1.00  0.00     0.031 C 
ATOM     63  C   UNL A   1      44.231  29.154  32.152  1.00  0.00     0.031 A 
BRANCH  50  64
ATOM     64  C   UNL A   1      42.281  34.670  34.104  1.00  0.00    -0.014 A 
ATOM     65  C   UNL A   1      42.910  35.784  33.529  1.00  0.00     0.009 A 
ATOM     66  C   UNL A   1      41.866  34.738  35.443  1.00  0.00     0.009 A 
ATOM     67  C   UNL A   1      43.143  36.934  34.288  1.00  0.00     0.001 A 
ATOM     68  C   UNL A   1      42.078  35.897  36.192  1.00  0.00     0.001 A 
ATOM     69  C   UNL A   1      42.722  36.991  35.615  1.00  0.00     0.000 A 
ENDBRANCH  50  64
BRANCH  51  70
ATOM     70  C   UNL A   1      40.236  26.903  28.216  1.00  0.00    -0.014 A 
ATOM     71  C   UNL A   1      39.466  25.809  28.644  1.00  0.00     0.009 A 
ATOM     72  C   UNL A   1      40.759  26.897  26.914  1.00  0.00     0.009 A 
ATOM     73  C   UNL A   1      39.251  24.721  27.795  1.00  0.00     0.001 A 
ATOM     74  C   UNL A   1      40.519  25.820  26.058  1.00  0.00     0.001 A 
ATOM     75  C   UNL A   1      39.774  24.729  26.503  1.00  0.00     0.000 A 
ENDBRANCH  51  70
BRANCH  63  76
ATOM     76  C   UNL A   1      45.486  28.414  32.514  1.00  0.00    -0.014 A 
ATOM     77  C   UNL A   1      45.506  27.495  33.575  1.00  0.00     0.009 A 
ATOM     78  C   UNL A   1      46.656  28.618  31.766  1.00  0.00     0.009 A 
ATOM     79  C   UNL A   1      46.684  26.820  33.901  1.00  0.00     0.001 A 
ATOM     80  C   UNL A   1      47.825  27.923  32.078  1.00  0.00     0.001 A 
ATOM     81  C   UNL A   1      47.841  27.032  33.151  1.00  0.00     0.000 A 
ENDBRANCH  63  76
ENDBRANCH  37  38
ENDBRANCH  29  32
ENDBRANCH  27  28
ENDBRANCH  26  27
ENDBRANCH   1  26
TORSDOF 14
ENDMDL
MODEL 2
REMARK VINA RESULT:     -10.8      2.081      7.708
REMARK SMILES C[C@@H]1CN(C(=O)N2CCC(CC(=O)NCCCCCCNC(=O)c3ccc(-c4c5nc(c(-c6ccccc6)c6ccc([nH]6)c(-c6ccccc6)c6nc(c(-c7ccccc7)c7ccc4[nH]7)C=C6)C=C5)cc3)CC2)C[C@@H](C)S1
REMARK SMILES IDX 18 1 17 2 16 3 15 4 14 5 12 6 13 7 11 9 10 10 1 11 2 12 3 13
REMARK SMILES IDX 77 14 4 15 75 16 5 17 74 18 76 19 6 20 7 21 8 22 73 23 9 24
REMARK SMILES IDX 72 25 19 26 20 27 21 28 22 29 23 31 24 32 25 33 71 34 26 35
REMARK SMILES IDX 70 36 27 37 28 38 29 39 64 40 30 41 69 42 63 43 65 44 31 45
REMARK SMILES IDX 68 46 62 47 61 48 32 50 54 51 39 52 53 53 40 54 43 55 52 56
REMARK SMILES IDX 66 57 41 58 42 59 51 61 67 62 44 63 33 64 34 65 38 66 35 67
REMARK SMILES IDX 37 68 36 69 55 70 56 71 60 72 57 73 59 74 58 75 45 76 46 77
REMARK SMILES IDX 50 78 47 79 49 80 48 81
REMARK H PARENT 14 8 21 30 65 49 43 60
REMARK Flexibility Score: inf
ROOT
ATOM      1  C   UNL A   1      34.798  23.330  26.096  1.00  0.00     0.002 C 
ENDROOT
BRANCH   1   2
ATOM      2  C   UNL A   1      34.745  22.012  26.871  1.00  0.00     0.002 C 
BRANCH   2   3
ATOM      3  C   UNL A   1      33.597  21.081  26.480  1.00  0.00     0.021 C 
BRANCH   3   4
ATOM      4  C   UNL A   1      32.388  21.782  25.847  1.00  0.00     0.116 C 
BRANCH   4   5
ATOM      5  N   UNL A   1      32.081  21.208  24.546  1.00  0.00    -0.356 N 
ATOM      6  C   UNL A   1      32.432  21.600  23.287  1.00  0.00     0.220 C 
ATOM      7  O   UNL A   1      31.934  21.006  22.331  1.00  0.00    -0.275 OA
ATOM      8  H   UNL A   1      31.522  20.398  24.579  1.00  0.00     0.163 HD
BRANCH   6   9
ATOM      9  C   UNL A   1      33.421  22.734  23.066  1.00  0.00     0.103 C 
BRANCH   9  10
ATOM     10  C   UNL A   1      32.850  23.942  22.292  1.00  0.00     0.002 C 
ATOM     11  C   UNL A   1      34.025  27.598  26.177  1.00  0.00     0.021 C 
ATOM     12  C   UNL A   1      32.563  27.542  26.620  1.00  0.00     0.063 C 
ATOM     13  C   UNL A   1      31.609  27.132  25.480  1.00  0.00     0.135 C 
ATOM     14  S   UNL A   1      32.059  29.128  27.381  1.00  0.00    -0.152 SA
ATOM     15  N   UNL A   1      31.494  28.133  24.414  1.00  0.00    -0.322 N 
ATOM     16  C   UNL A   1      31.919  30.140  25.852  1.00  0.00     0.063 C 
ATOM     17  C   UNL A   1      32.174  28.025  23.208  1.00  0.00     0.320 C 
ATOM     18  C   UNL A   1      31.005  29.448  24.828  1.00  0.00     0.135 C 
ATOM     19  C   UNL A   1      31.372  31.510  26.239  1.00  0.00     0.021 C 
ATOM     20  O   UNL A   1      32.691  29.001  22.669  1.00  0.00    -0.248 OA
ATOM     21  N   UNL A   1      32.267  26.757  22.668  1.00  0.00    -0.325 N 
ATOM     22  C   UNL A   1      33.372  26.410  21.791  1.00  0.00     0.121 C 
ATOM     23  C   UNL A   1      31.134  25.853  22.577  1.00  0.00     0.121 C 
ATOM     24  C   UNL A   1      33.927  25.050  22.212  1.00  0.00     0.026 C 
ATOM     25  C   UNL A   1      31.551  24.439  22.943  1.00  0.00     0.026 C 
ENDBRANCH   9  10
ENDBRANCH   6   9
ENDBRANCH   4   5
ENDBRANCH   3   4
ENDBRANCH   2   3
ENDBRANCH   1   2
BRANCH   1  26
ATOM     26  C   UNL A   1      36.154  24.046  26.081  1.00  0.00     0.021 C 
BRANCH  26  27
ATOM     27  C   UNL A   1      37.112  23.637  24.962  1.00  0.00     0.116 C 
BRANCH  27  28
ATOM     28  N   UNL A   1      38.097  22.665  25.402  1.00  0.00    -0.352 N 
ATOM     29  C   UNL A   1      39.249  22.837  26.127  1.00  0.00     0.251 C 
ATOM     30  H   UNL A   1      37.908  21.736  25.138  1.00  0.00     0.163 HD
ATOM     31  O   UNL A   1      40.046  21.909  26.233  1.00  0.00    -0.269 OA
BRANCH  29  32
ATOM     32  C   UNL A   1      39.554  24.135  26.769  1.00  0.00     0.039 A 
ATOM     33  C   UNL A   1      39.105  24.357  28.074  1.00  0.00     0.014 A 
ATOM     34  C   UNL A   1      40.229  25.148  26.081  1.00  0.00     0.014 A 
ATOM     35  C   UNL A   1      39.382  25.569  28.710  1.00  0.00     0.010 A 
ATOM     36  C   UNL A   1      40.554  26.338  26.736  1.00  0.00     0.010 A 
ATOM     37  C   UNL A   1      40.132  26.559  28.056  1.00  0.00    -0.014 A 
BRANCH  37  38
ATOM     38  C   UNL A   1      40.497  27.819  28.755  1.00  0.00     0.031 A 
ATOM     39  C   UNL A   1      41.847  27.978  29.399  1.00  0.00     0.074 A 
ATOM     40  C   UNL A   1      39.586  28.806  28.853  1.00  0.00     0.049 A 
ATOM     41  N   UNL A   1      42.328  28.999  30.063  1.00  0.00    -0.248 NA
ATOM     42  C   UNL A   1      42.769  26.836  29.305  1.00  0.00     0.031 C 
ATOM     43  C   UNL A   1      38.223  28.758  28.320  1.00  0.00     0.029 A 
ATOM     44  N   UNL A   1      39.669  30.043  29.444  1.00  0.00    -0.354 N 
ATOM     45  C   UNL A   1      43.596  28.618  30.480  1.00  0.00     0.074 A 
ATOM     46  C   UNL A   1      43.800  27.259  30.025  1.00  0.00     0.031 C 
ATOM     47  C   UNL A   1      37.603  29.918  28.593  1.00  0.00     0.029 A 
ATOM     48  C   UNL A   1      38.513  30.779  29.342  1.00  0.00     0.049 A 
ATOM     49  H   UNL A   1      40.478  30.370  29.898  1.00  0.00     0.167 HD
ATOM     50  C   UNL A   1      44.515  29.338  31.167  1.00  0.00     0.031 A 
ATOM     51  C   UNL A   1      38.216  32.009  29.802  1.00  0.00     0.031 A 
ATOM     52  C   UNL A   1      44.325  30.696  31.603  1.00  0.00     0.049 A 
ATOM     53  C   UNL A   1      39.262  32.793  30.542  1.00  0.00     0.074 A 
ATOM     54  C   UNL A   1      45.230  31.533  32.234  1.00  0.00     0.029 A 
ATOM     55  N   UNL A   1      43.151  31.416  31.455  1.00  0.00    -0.354 N 
ATOM     56  N   UNL A   1      40.489  32.450  30.846  1.00  0.00    -0.248 NA
ATOM     57  C   UNL A   1      38.884  34.142  30.987  1.00  0.00     0.031 C 
ATOM     58  C   UNL A   1      44.588  32.745  32.509  1.00  0.00     0.029 A 
ATOM     59  C   UNL A   1      43.299  32.677  32.007  1.00  0.00     0.049 A 
ATOM     60  H   UNL A   1      42.332  31.081  31.023  1.00  0.00     0.167 HD
ATOM     61  C   UNL A   1      41.036  33.545  31.501  1.00  0.00     0.074 A 
ATOM     62  C   UNL A   1      40.015  34.571  31.530  1.00  0.00     0.031 C 
ATOM     63  C   UNL A   1      42.273  33.686  32.034  1.00  0.00     0.031 A 
BRANCH  50  64
ATOM     64  C   UNL A   1      45.818  28.668  31.499  1.00  0.00    -0.014 A 
ATOM     65  C   UNL A   1      45.983  27.954  32.695  1.00  0.00     0.009 A 
ATOM     66  C   UNL A   1      46.873  28.701  30.574  1.00  0.00     0.009 A 
ATOM     67  C   UNL A   1      47.191  27.308  32.972  1.00  0.00     0.001 A 
ATOM     68  C   UNL A   1      48.070  28.034  30.842  1.00  0.00     0.001 A 
ATOM     69  C   UNL A   1      48.230  27.344  32.043  1.00  0.00     0.000 A 
ENDBRANCH  50  64
BRANCH  51  70
ATOM     70  C   UNL A   1      36.868  32.584  29.566  1.00  0.00    -0.014 A 
ATOM     71  C   UNL A   1      35.862  32.467  30.538  1.00  0.00     0.009 A 
ATOM     72  C   UNL A   1      36.575  33.243  28.361  1.00  0.00     0.009 A 
ATOM     73  C   UNL A   1      34.583  32.973  30.295  1.00  0.00     0.001 A 
ATOM     74  C   UNL A   1      35.303  33.771  28.133  1.00  0.00     0.001 A 
ATOM     75  C   UNL A   1      34.306  33.626  29.096  1.00  0.00     0.000 A 
ENDBRANCH  51  70
BRANCH  63  76
ATOM     76  C   UNL A   1      42.595  35.006  32.674  1.00  0.00    -0.014 A 
ATOM     77  C   UNL A   1      43.318  35.990  31.982  1.00  0.00     0.009 A 
ATOM     78  C   UNL A   1      42.145  35.278  33.975  1.00  0.00     0.009 A 
ATOM     79  C   UNL A   1      43.613  37.209  32.595  1.00  0.00     0.001 A 
ATOM     80  C   UNL A   1      42.420  36.507  34.576  1.00  0.00     0.001 A 
ATOM     81  C   UNL A   1      43.162  37.468  33.889  1.00  0.00     0.000 A 
ENDBRANCH  63  76
ENDBRANCH  37  38
ENDBRANCH  29  32
ENDBRANCH  27  28
ENDBRANCH  26  27
ENDBRANCH   1  26
TORSDOF 14
ENDMDL
MODEL 3
REMARK VINA RESULT:     -10.7      5.121     10.152
REMARK SMILES C[C@@H]1CN(C(=O)N2CCC(CC(=O)NCCCCCCNC(=O)c3ccc(-c4c5nc(c(-c6ccccc6)c6ccc([nH]6)c(-c6ccccc6)c6nc(c(-c7ccccc7)c7ccc4[nH]7)C=C6)C=C5)cc3)CC2)C[C@@H](C)S1
REMARK SMILES IDX 18 1 17 2 16 3 15 4 14 5 12 6 13 7 11 9 10 10 1 11 2 12 3 13
REMARK SMILES IDX 77 14 4 15 75 16 5 17 74 18 76 19 6 20 7 21 8 22 73 23 9 24
REMARK SMILES IDX 72 25 19 26 20 27 21 28 22 29 23 31 24 32 25 33 71 34 26 35
REMARK SMILES IDX 70 36 27 37 28 38 29 39 64 40 30 41 69 42 63 43 65 44 31 45
REMARK SMILES IDX 68 46 62 47 61 48 32 50 54 51 39 52 53 53 40 54 43 55 52 56
REMARK SMILES IDX 66 57 41 58 42 59 51 61 67 62 44 63 33 64 34 65 38 66 35 67
REMARK SMILES IDX 37 68 36 69 55 70 56 71 60 72 57 73 59 74 58 75 45 76 46 77
REMARK SMILES IDX 50 78 47 79 49 80 48 81
REMARK H PARENT 14 8 21 30 65 49 43 60
REMARK Flexibility Score: inf
ROOT
ATOM      1  C   UNL A   1      41.825  20.012  27.121  1.00  0.00     0.002 C 
ENDROOT
BRANCH   1   2
ATOM      2  C   UNL A   1      41.639  21.420  26.551  1.00  0.00     0.002 C 
BRANCH   2   3
ATOM      3  C   UNL A   1      40.668  22.308  27.329  1.00  0.00     0.021 C 
BRANCH   3   4
ATOM      4  C   UNL A   1      39.457  22.795  26.523  1.00  0.00     0.116 C 
BRANCH   4   5
ATOM      5  N   UNL A   1      38.882  21.708  25.747  1.00  0.00    -0.356 N 
ATOM      6  C   UNL A   1      37.697  21.615  25.076  1.00  0.00     0.220 C 
ATOM      7  O   UNL A   1      37.384  20.526  24.593  1.00  0.00    -0.275 OA
ATOM      8  H   UNL A   1      39.442  20.900  25.697  1.00  0.00     0.163 HD
BRANCH   6   9
ATOM      9  C   UNL A   1      36.787  22.823  24.918  1.00  0.00     0.103 C 
BRANCH   9  10
ATOM     10  C   UNL A   1      35.293  22.542  25.191  1.00  0.00     0.002 C 
ATOM     11  C   UNL A   1      33.459  26.596  22.022  1.00  0.00     0.021 C 
ATOM     12  C   UNL A   1      33.247  27.435  23.281  1.00  0.00     0.063 C 
ATOM     13  C   UNL A   1      33.015  26.575  24.541  1.00  0.00     0.135 C 
ATOM     14  S   UNL A   1      31.894  28.642  23.032  1.00  0.00    -0.152 SA
ATOM     15  N   UNL A   1      31.745  25.841  24.531  1.00  0.00    -0.322 N 
ATOM     16  C   UNL A   1      30.467  27.487  23.142  1.00  0.00     0.063 C 
ATOM     17  C   UNL A   1      31.662  24.493  24.207  1.00  0.00     0.320 C 
ATOM     18  C   UNL A   1      30.538  26.662  24.436  1.00  0.00     0.135 C 
ATOM     19  C   UNL A   1      29.185  28.313  23.088  1.00  0.00     0.021 C 
ATOM     20  O   UNL A   1      30.746  24.052  23.515  1.00  0.00    -0.248 OA
ATOM     21  N   UNL A   1      32.679  23.686  24.674  1.00  0.00    -0.325 N 
ATOM     22  C   UNL A   1      33.029  22.463  23.973  1.00  0.00     0.121 C 
ATOM     23  C   UNL A   1      33.169  23.744  26.041  1.00  0.00     0.121 C 
ATOM     24  C   UNL A   1      34.551  22.387  23.843  1.00  0.00     0.026 C 
ATOM     25  C   UNL A   1      34.685  23.647  26.067  1.00  0.00     0.026 C 
ENDBRANCH   9  10
ENDBRANCH   6   9
ENDBRANCH   4   5
ENDBRANCH   3   4
ENDBRANCH   2   3
ENDBRANCH   1   2
BRANCH   1  26
ATOM     26  C   UNL A   1      42.260  18.934  26.121  1.00  0.00     0.021 C 
BRANCH  26  27
ATOM     27  C   UNL A   1      43.751  18.597  26.112  1.00  0.00     0.116 C 
BRANCH  27  28
ATOM     28  N   UNL A   1      44.309  18.584  24.771  1.00  0.00    -0.352 N 
ATOM     29  C   UNL A   1      44.695  19.623  23.962  1.00  0.00     0.251 C 
ATOM     30  H   UNL A   1      44.428  17.688  24.382  1.00  0.00     0.163 HD
ATOM     31  O   UNL A   1      44.967  19.408  22.784  1.00  0.00    -0.269 OA
BRANCH  29  32
ATOM     32  C   UNL A   1      44.771  21.005  24.486  1.00  0.00     0.039 A 
ATOM     33  C   UNL A   1      45.382  21.217  25.724  1.00  0.00     0.014 A 
ATOM     34  C   UNL A   1      44.201  22.078  23.796  1.00  0.00     0.014 A 
ATOM     35  C   UNL A   1      45.475  22.510  26.243  1.00  0.00     0.010 A 
ATOM     36  C   UNL A   1      44.343  23.377  24.288  1.00  0.00     0.010 A 
ATOM     37  C   UNL A   1      44.981  23.605  25.517  1.00  0.00    -0.014 A 
BRANCH  37  38
ATOM     38  C   UNL A   1      45.146  24.991  26.027  1.00  0.00     0.031 A 
ATOM     39  C   UNL A   1      46.491  25.664  26.001  1.00  0.00     0.074 A 
ATOM     40  C   UNL A   1      44.087  25.626  26.564  1.00  0.00     0.049 A 
ATOM     41  N   UNL A   1      46.820  26.861  26.418  1.00  0.00    -0.248 NA
ATOM     42  C   UNL A   1      47.615  24.888  25.456  1.00  0.00     0.031 C 
ATOM     43  C   UNL A   1      42.741  25.066  26.700  1.00  0.00     0.029 A 
ATOM     44  N   UNL A   1      43.980  26.884  27.104  1.00  0.00    -0.354 N 
ATOM     45  C   UNL A   1      48.187  26.974  26.204  1.00  0.00     0.074 A 
ATOM     46  C   UNL A   1      48.635  25.713  25.653  1.00  0.00     0.031 C 
ATOM     47  C   UNL A   1      41.939  25.981  27.269  1.00  0.00     0.029 A 
ATOM     48  C   UNL A   1      42.718  27.179  27.562  1.00  0.00     0.049 A 
ATOM     49  H   UNL A   1      44.734  27.514  27.158  1.00  0.00     0.167 HD
ATOM     50  C   UNL A   1      48.997  28.036  26.434  1.00  0.00     0.031 A 
ATOM     51  C   UNL A   1      42.241  28.290  28.155  1.00  0.00     0.031 A 
ATOM     52  C   UNL A   1      48.553  29.299  26.962  1.00  0.00     0.049 A 
ATOM     53  C   UNL A   1      43.156  29.460  28.377  1.00  0.00     0.074 A 
ATOM     54  C   UNL A   1      49.286  30.458  27.152  1.00  0.00     0.029 A 
ATOM     55  N   UNL A   1      47.263  29.566  27.387  1.00  0.00    -0.354 N 
ATOM     56  N   UNL A   1      44.427  29.581  28.083  1.00  0.00    -0.248 NA
ATOM     57  C   UNL A   1      42.563  30.653  28.998  1.00  0.00     0.031 C 
ATOM     58  C   UNL A   1      48.448  31.415  27.735  1.00  0.00     0.029 A 
ATOM     59  C   UNL A   1      47.184  30.865  27.864  1.00  0.00     0.049 A 
ATOM     60  H   UNL A   1      46.512  28.930  27.357  1.00  0.00     0.167 HD
ATOM     61  C   UNL A   1      44.782  30.867  28.466  1.00  0.00     0.074 A 
ATOM     62  C   UNL A   1      43.588  31.495  28.992  1.00  0.00     0.031 C 
ATOM     63  C   UNL A   1      45.991  31.474  28.390  1.00  0.00     0.031 A 
BRANCH  50  64
ATOM     64  C   UNL A   1      50.457  27.880  26.117  1.00  0.00    -0.014 A 
ATOM     65  C   UNL A   1      50.975  28.267  24.871  1.00  0.00     0.009 A 
ATOM     66  C   UNL A   1      51.335  27.397  27.099  1.00  0.00     0.009 A 
ATOM     67  C   UNL A   1      52.342  28.147  24.606  1.00  0.00     0.001 A 
ATOM     68  C   UNL A   1      52.704  27.301  26.840  1.00  0.00     0.001 A 
ATOM     69  C   UNL A   1      53.205  27.670  25.592  1.00  0.00     0.000 A 
ENDBRANCH  50  64
BRANCH  51  70
ATOM     70  C   UNL A   1      40.818  28.355  28.575  1.00  0.00    -0.014 A 
ATOM     71  C   UNL A   1      39.851  28.926  27.733  1.00  0.00     0.009 A 
ATOM     72  C   UNL A   1      40.421  27.857  29.826  1.00  0.00     0.009 A 
ATOM     73  C   UNL A   1      38.521  29.023  28.149  1.00  0.00     0.001 A 
ATOM     74  C   UNL A   1      39.086  27.931  30.227  1.00  0.00     0.001 A 
ATOM     75  C   UNL A   1      38.140  28.523  29.393  1.00  0.00     0.000 A 
ENDBRANCH  51  70
BRANCH  63  76
ATOM     76  C   UNL A   1      46.074  32.894  28.870  1.00  0.00    -0.014 A 
ATOM     77  C   UNL A   1      45.821  33.969  28.002  1.00  0.00     0.009 A 
ATOM     78  C   UNL A   1      46.382  33.160  30.213  1.00  0.00     0.009 A 
ATOM     79  C   UNL A   1      45.908  35.283  28.464  1.00  0.00     0.001 A 
ATOM     80  C   UNL A   1      46.444  34.474  30.677  1.00  0.00     0.001 A 
ATOM     81  C   UNL A   1      46.217  35.535  29.801  1.00  0.00     0.000 A 
ENDBRANCH  63  76
ENDBRANCH  37  38
ENDBRANCH  29  32
ENDBRANCH  27  28
ENDBRANCH  26  27
ENDBRANCH   1  26
TORSDOF 14
ENDMDL
