MODEL 1
REMARK VINA RESULT:      -9.9      0.000      0.000
REMARK SMILES CC(C)C[C@H](NC(=O)CNC(=O)[C@@H]([NH3+])C(C)C)C(=O)NCCCCCCNC(=O)c1ccc(-c2c3nc(c(-c4ccccc4)c4ccc([nH]4)c(-c4ccccc4)c4nc(c(-c5ccccc5)c5ccc2[nH]5)C=C4)C=C3)cc1
REMARK SMILES IDX 22 1 21 2 20 3 18 4 19 5 5 7 4 8 2 9 1 10 3 11 6 12 7 13
REMARK SMILES IDX 8 15 9 16 10 17 11 18 12 20 13 21 14 22 15 26 16 27 17 28
REMARK SMILES IDX 23 29 24 30 25 31 26 32 27 33 28 34 29 36 30 37 31 38 77 39
REMARK SMILES IDX 32 40 76 41 33 42 34 43 35 44 70 45 36 46 75 47 69 48 71 49
REMARK SMILES IDX 37 50 74 51 68 52 67 53 38 55 60 56 45 57 59 58 46 59 49 60
REMARK SMILES IDX 58 61 72 62 47 63 48 64 57 66 73 67 50 68 39 69 40 70 44 71
REMARK SMILES IDX 41 72 43 73 42 74 61 75 62 76 66 77 63 78 65 79 64 80 51 81
REMARK SMILES IDX 52 82 56 83 53 84 55 85 54 86
REMARK H PARENT 20 6 6 14 10 19 14 23 14 24 14 25 27 35 71 54 49 65
REMARK Flexibility Score: inf
ROOT
ATOM      1  C   UNL A   1      33.149  28.230  26.891  1.00  0.00     0.021 C 
ENDROOT
BRANCH   1   2
ATOM      2  C   UNL A   1      32.832  26.931  26.163  1.00  0.00     0.116 C 
BRANCH   2   3
ATOM      3  N   UNL A   1      31.572  26.379  26.609  1.00  0.00    -0.354 N 
ATOM      4  C   UNL A   1      30.500  25.944  25.898  1.00  0.00     0.242 C 
ATOM      5  O   UNL A   1      29.601  25.366  26.519  1.00  0.00    -0.273 OA
ATOM      6  H   UNL A   1      31.476  26.308  27.586  1.00  0.00     0.163 HD
BRANCH   4   7
ATOM      7  C   UNL A   1      30.461  26.031  24.360  1.00  0.00     0.171 C 
BRANCH   7   8
ATOM      8  C   UNL A   1      29.417  27.041  23.862  1.00  0.00     0.038 C 
BRANCH   8   9
ATOM      9  C   UNL A   1      29.969  28.088  22.864  1.00  0.00    -0.015 C 
ATOM     10  C   UNL A   1      29.458  29.500  23.140  1.00  0.00     0.007 C 
ATOM     11  C   UNL A   1      31.497  28.095  22.915  1.00  0.00     0.007 C 
ENDBRANCH   8   9
ENDBRANCH   7   8
BRANCH   7  12
ATOM     12  N   UNL A   1      30.334  24.722  23.718  1.00  0.00    -0.343 N 
ATOM     13  C   UNL A   1      31.211  23.683  23.665  1.00  0.00     0.240 C 
ATOM     14  H   UNL A   1      29.480  24.569  23.253  1.00  0.00     0.164 HD
ATOM     15  O   UNL A   1      30.762  22.607  23.254  1.00  0.00    -0.273 OA
BRANCH  13  16
ATOM     16  C   UNL A   1      32.644  23.765  24.212  1.00  0.00     0.216 C 
BRANCH  16  17
ATOM     17  N   UNL A   1      32.846  23.216  25.541  1.00  0.00    -0.342 N 
ATOM     18  C   UNL A   1      33.306  21.997  25.932  1.00  0.00     0.278 C 
ATOM     19  H   UNL A   1      32.612  23.825  26.279  1.00  0.00     0.164 HD
ATOM     20  O   UNL A   1      33.450  21.823  27.147  1.00  0.00    -0.268 OA
BRANCH  18  21
ATOM     21  C   UNL A   1      33.696  20.873  24.932  1.00  0.00     0.273 C 
BRANCH  21  22
ATOM     22  N   UNL A   1      34.960  20.206  25.307  1.00  0.00    -0.347 N 
ATOM     23  H   UNL A   1      35.057  19.340  24.778  1.00  0.00     0.345 HD
ATOM     24  H   UNL A   1      34.949  19.994  26.306  1.00  0.00     0.345 HD
ATOM     25  H   UNL A   1      35.745  20.823  25.100  1.00  0.00     0.345 HD
ENDBRANCH  21  22
BRANCH  21  26
ATOM     26  C   UNL A   1      32.534  19.872  24.754  1.00  0.00     0.051 C 
ATOM     27  C   UNL A   1      32.330  19.548  23.267  1.00  0.00     0.014 C 
ATOM     28  C   UNL A   1      32.784  18.561  25.511  1.00  0.00     0.014 C 
ENDBRANCH  21  26
ENDBRANCH  18  21
ENDBRANCH  16  17
ENDBRANCH  13  16
ENDBRANCH   7  12
ENDBRANCH   4   7
ENDBRANCH   2   3
ENDBRANCH   1   2
BRANCH   1  29
ATOM     29  C   UNL A   1      31.924  29.121  27.127  1.00  0.00     0.002 C 
BRANCH  29  30
ATOM     30  C   UNL A   1      31.689  30.191  26.056  1.00  0.00     0.002 C 
BRANCH  30  31
ATOM     31  C   UNL A   1      31.468  31.606  26.596  1.00  0.00     0.021 C 
BRANCH  31  32
ATOM     32  C   UNL A   1      32.711  32.247  27.200  1.00  0.00     0.116 C 
BRANCH  32  33
ATOM     33  N   UNL A   1      32.481  33.632  27.571  1.00  0.00    -0.352 N 
ATOM     34  C   UNL A   1      33.167  34.408  28.467  1.00  0.00     0.251 C 
ATOM     35  H   UNL A   1      31.729  34.075  27.115  1.00  0.00     0.163 HD
ATOM     36  O   UNL A   1      32.718  35.496  28.821  1.00  0.00    -0.269 OA
BRANCH  34  37
ATOM     37  C   UNL A   1      34.439  33.914  29.028  1.00  0.00     0.039 A 
ATOM     38  C   UNL A   1      34.401  33.029  30.106  1.00  0.00     0.014 A 
ATOM     39  C   UNL A   1      35.662  34.308  28.475  1.00  0.00     0.014 A 
ATOM     40  C   UNL A   1      35.591  32.487  30.591  1.00  0.00     0.010 A 
ATOM     41  C   UNL A   1      36.839  33.707  28.908  1.00  0.00     0.010 A 
ATOM     42  C   UNL A   1      36.815  32.791  29.970  1.00  0.00    -0.014 A 
BRANCH  42  43
ATOM     43  C   UNL A   1      38.073  32.135  30.403  1.00  0.00     0.031 A 
ATOM     44  C   UNL A   1      38.976  32.803  31.398  1.00  0.00     0.074 A 
ATOM     45  C   UNL A   1      38.429  30.962  29.847  1.00  0.00     0.049 A 
ATOM     46  N   UNL A   1      40.130  32.397  31.865  1.00  0.00    -0.248 NA
ATOM     47  C   UNL A   1      38.541  34.109  31.918  1.00  0.00     0.031 C 
ATOM     48  C   UNL A   1      37.660  30.237  28.834  1.00  0.00     0.029 A 
ATOM     49  N   UNL A   1      39.535  30.175  30.052  1.00  0.00    -0.354 N 
ATOM     50  C   UNL A   1      40.560  33.398  32.727  1.00  0.00     0.074 A 
ATOM     51  C   UNL A   1      39.575  34.456  32.669  1.00  0.00     0.031 C 
ATOM     52  C   UNL A   1      38.303  29.101  28.524  1.00  0.00     0.029 A 
ATOM     53  C   UNL A   1      39.549  29.039  29.280  1.00  0.00     0.049 A 
ATOM     54  H   UNL A   1      40.248  30.404  30.691  1.00  0.00     0.167 HD
ATOM     55  C   UNL A   1      41.664  33.425  33.512  1.00  0.00     0.031 A 
ATOM     56  C   UNL A   1      40.468  28.062  29.181  1.00  0.00     0.031 A 
ATOM     57  C   UNL A   1      42.652  32.379  33.552  1.00  0.00     0.049 A 
ATOM     58  C   UNL A   1      41.704  28.127  30.033  1.00  0.00     0.074 A 
ATOM     59  C   UNL A   1      43.781  32.288  34.347  1.00  0.00     0.029 A 
ATOM     60  N   UNL A   1      42.635  31.247  32.752  1.00  0.00    -0.354 N 
ATOM     61  N   UNL A   1      42.057  29.043  30.903  1.00  0.00    -0.248 NA
ATOM     62  C   UNL A   1      42.661  27.023  29.895  1.00  0.00     0.031 C 
ATOM     63  C   UNL A   1      44.482  31.135  33.980  1.00  0.00     0.029 A 
ATOM     64  C   UNL A   1      43.754  30.470  33.006  1.00  0.00     0.049 A 
ATOM     65  H   UNL A   1      41.931  31.026  32.099  1.00  0.00     0.167 HD
ATOM     66  C   UNL A   1      43.270  28.617  31.429  1.00  0.00     0.074 A 
ATOM     67  C   UNL A   1      43.578  27.349  30.797  1.00  0.00     0.031 C 
ATOM     68  C   UNL A   1      44.058  29.221  32.353  1.00  0.00     0.031 A 
BRANCH  55  69
ATOM     69  C   UNL A   1      41.863  34.645  34.372  1.00  0.00    -0.014 A 
ATOM     70  C   UNL A   1      42.574  35.762  33.902  1.00  0.00     0.009 A 
ATOM     71  C   UNL A   1      41.328  34.682  35.669  1.00  0.00     0.009 A 
ATOM     72  C   UNL A   1      42.790  36.865  34.731  1.00  0.00     0.001 A 
ATOM     73  C   UNL A   1      41.515  35.801  36.483  1.00  0.00     0.001 A 
ATOM     74  C   UNL A   1      42.258  36.885  36.019  1.00  0.00     0.000 A 
ENDBRANCH  55  69
BRANCH  56  75
ATOM     75  C   UNL A   1      40.246  26.939  28.233  1.00  0.00    -0.014 A 
ATOM     76  C   UNL A   1      40.776  26.980  26.935  1.00  0.00     0.009 A 
ATOM     77  C   UNL A   1      39.524  25.804  28.637  1.00  0.00     0.009 A 
ATOM     78  C   UNL A   1      40.573  25.914  26.055  1.00  0.00     0.001 A 
ATOM     79  C   UNL A   1      39.351  24.727  27.765  1.00  0.00     0.001 A 
ATOM     80  C   UNL A   1      39.869  24.786  26.473  1.00  0.00     0.000 A 
ENDBRANCH  56  75
BRANCH  68  81
ATOM     81  C   UNL A   1      45.327  28.512  32.741  1.00  0.00    -0.014 A 
ATOM     82  C   UNL A   1      46.538  28.773  32.080  1.00  0.00     0.009 A 
ATOM     83  C   UNL A   1      45.318  27.600  33.808  1.00  0.00     0.009 A 
ATOM     84  C   UNL A   1      47.706  28.109  32.459  1.00  0.00     0.001 A 
ATOM     85  C   UNL A   1      46.494  26.963  34.205  1.00  0.00     0.001 A 
ATOM     86  C   UNL A   1      47.685  27.210  33.525  1.00  0.00     0.000 A 
ENDBRANCH  68  81
ENDBRANCH  42  43
ENDBRANCH  34  37
ENDBRANCH  32  33
ENDBRANCH  31  32
ENDBRANCH  30  31
ENDBRANCH  29  30
ENDBRANCH   1  29
TORSDOF 21
ENDMDL
MODEL 2
REMARK VINA RESULT:      -9.9      3.021      8.809
REMARK SMILES CC(C)C[C@H](NC(=O)CNC(=O)[C@@H]([NH3+])C(C)C)C(=O)NCCCCCCNC(=O)c1ccc(-c2c3nc(c(-c4ccccc4)c4ccc([nH]4)c(-c4ccccc4)c4nc(c(-c5ccccc5)c5ccc2[nH]5)C=C4)C=C3)cc1
REMARK SMILES IDX 22 1 21 2 20 3 18 4 19 5 5 7 4 8 2 9 1 10 3 11 6 12 7 13
REMARK SMILES IDX 8 15 9 16 10 17 11 18 12 20 13 21 14 22 15 26 16 27 17 28
REMARK SMILES IDX 23 29 24 30 25 31 26 32 27 33 28 34 29 36 30 37 31 38 77 39
REMARK SMILES IDX 32 40 76 41 33 42 34 43 35 44 70 45 36 46 75 47 69 48 71 49
REMARK SMILES IDX 37 50 74 51 68 52 67 53 38 55 60 56 45 57 59 58 46 59 49 60
REMARK SMILES IDX 58 61 72 62 47 63 48 64 57 66 73 67 50 68 39 69 40 70 44 71
REMARK SMILES IDX 41 72 43 73 42 74 61 75 62 76 66 77 63 78 65 79 64 80 51 81
REMARK SMILES IDX 52 82 56 83 53 84 55 85 54 86
REMARK H PARENT 20 6 6 14 10 19 14 23 14 24 14 25 27 35 71 54 49 65
REMARK Flexibility Score: inf
ROOT
ATOM      1  C   UNL A   1      35.257  21.337  25.304  1.00  0.00     0.021 C 
ENDROOT
BRANCH   1   2
ATOM      2  C   UNL A   1      33.817  21.831  25.345  1.00  0.00     0.116 C 
BRANCH   2   3
ATOM      3  N   UNL A   1      33.067  21.338  24.212  1.00  0.00    -0.354 N 
ATOM      4  C   UNL A   1      32.340  22.005  23.278  1.00  0.00     0.242 C 
ATOM      5  O   UNL A   1      31.921  21.357  22.312  1.00  0.00    -0.273 OA
ATOM      6  H   UNL A   1      33.087  20.360  24.098  1.00  0.00     0.163 HD
BRANCH   4   7
ATOM      7  C   UNL A   1      32.160  23.534  23.335  1.00  0.00     0.171 C 
BRANCH   7   8
ATOM      8  C   UNL A   1      30.812  23.938  23.949  1.00  0.00     0.038 C 
BRANCH   8   9
ATOM      9  C   UNL A   1      30.918  24.588  25.349  1.00  0.00    -0.015 C 
ATOM     10  C   UNL A   1      29.908  25.714  25.560  1.00  0.00     0.007 C 
ATOM     11  C   UNL A   1      30.710  23.526  26.429  1.00  0.00     0.007 C 
ENDBRANCH   8   9
ENDBRANCH   7   8
BRANCH   7  12
ATOM     12  N   UNL A   1      32.416  24.186  22.051  1.00  0.00    -0.343 N 
ATOM     13  C   UNL A   1      32.872  25.439  21.779  1.00  0.00     0.240 C 
ATOM     14  H   UNL A   1      32.231  23.631  21.259  1.00  0.00     0.164 HD
ATOM     15  O   UNL A   1      33.217  25.656  20.612  1.00  0.00    -0.273 OA
BRANCH  13  16
ATOM     16  C   UNL A   1      33.096  26.504  22.863  1.00  0.00     0.216 C 
BRANCH  16  17
ATOM     17  N   UNL A   1      32.067  27.525  22.968  1.00  0.00    -0.342 N 
ATOM     18  C   UNL A   1      31.822  28.432  23.952  1.00  0.00     0.278 C 
ATOM     19  H   UNL A   1      31.447  27.566  22.204  1.00  0.00     0.164 HD
ATOM     20  O   UNL A   1      30.914  29.244  23.742  1.00  0.00    -0.268 OA
BRANCH  18  21
ATOM     21  C   UNL A   1      32.655  28.515  25.261  1.00  0.00     0.273 C 
BRANCH  21  22
ATOM     22  N   UNL A   1      33.920  29.256  25.072  1.00  0.00    -0.347 N 
ATOM     23  H   UNL A   1      33.715  30.239  24.895  1.00  0.00     0.345 HD
ATOM     24  H   UNL A   1      34.427  28.866  24.277  1.00  0.00     0.345 HD
ATOM     25  H   UNL A   1      34.491  29.172  25.913  1.00  0.00     0.345 HD
ENDBRANCH  21  22
BRANCH  21  26
ATOM     26  C   UNL A   1      31.804  29.091  26.414  1.00  0.00     0.051 C 
ATOM     27  C   UNL A   1      31.816  28.136  27.616  1.00  0.00     0.014 C 
ATOM     28  C   UNL A   1      32.314  30.463  26.874  1.00  0.00     0.014 C 
ENDBRANCH  21  26
ENDBRANCH  18  21
ENDBRANCH  16  17
ENDBRANCH  13  16
ENDBRANCH   7  12
ENDBRANCH   4   7
ENDBRANCH   2   3
ENDBRANCH   1   2
BRANCH   1  29
ATOM     29  C   UNL A   1      35.395  19.866  24.895  1.00  0.00     0.002 C 
BRANCH  29  30
ATOM     30  C   UNL A   1      36.834  19.339  24.861  1.00  0.00     0.002 C 
BRANCH  30  31
ATOM     31  C   UNL A   1      37.913  20.419  24.758  1.00  0.00     0.021 C 
BRANCH  31  32
ATOM     32  C   UNL A   1      38.849  20.487  25.959  1.00  0.00     0.116 C 
BRANCH  32  33
ATOM     33  N   UNL A   1      39.938  19.532  25.853  1.00  0.00    -0.352 N 
ATOM     34  C   UNL A   1      41.282  19.738  26.022  1.00  0.00     0.251 C 
ATOM     35  H   UNL A   1      39.674  18.610  25.629  1.00  0.00     0.163 HD
ATOM     36  O   UNL A   1      42.090  18.873  25.692  1.00  0.00    -0.269 OA
BRANCH  34  37
ATOM     37  C   UNL A   1      41.754  21.020  26.578  1.00  0.00     0.039 A 
ATOM     38  C   UNL A   1      42.213  22.006  25.703  1.00  0.00     0.014 A 
ATOM     39  C   UNL A   1      41.723  21.254  27.956  1.00  0.00     0.014 A 
ATOM     40  C   UNL A   1      42.581  23.253  26.206  1.00  0.00     0.010 A 
ATOM     41  C   UNL A   1      42.015  22.521  28.447  1.00  0.00     0.010 A 
ATOM     42  C   UNL A   1      42.447  23.533  27.577  1.00  0.00    -0.014 A 
BRANCH  42  43
ATOM     43  C   UNL A   1      42.728  24.888  28.109  1.00  0.00     0.031 A 
ATOM     44  C   UNL A   1      44.105  25.250  28.583  1.00  0.00     0.074 A 
ATOM     45  C   UNL A   1      41.720  25.774  28.222  1.00  0.00     0.049 A 
ATOM     46  N   UNL A   1      44.527  26.372  29.110  1.00  0.00    -0.248 NA
ATOM     47  C   UNL A   1      45.139  24.208  28.476  1.00  0.00     0.031 C 
ATOM     48  C   UNL A   1      40.329  25.524  27.841  1.00  0.00     0.029 A 
ATOM     49  N   UNL A   1      41.710  27.061  28.696  1.00  0.00    -0.354 N 
ATOM     50  C   UNL A   1      45.870  26.170  29.402  1.00  0.00     0.074 A 
ATOM     51  C   UNL A   1      46.175  24.799  29.051  1.00  0.00     0.031 C 
ATOM     52  C   UNL A   1      39.605  26.631  28.073  1.00  0.00     0.029 A 
ATOM     53  C   UNL A   1      40.470  27.649  28.660  1.00  0.00     0.049 A 
ATOM     54  H   UNL A   1      42.516  27.518  29.031  1.00  0.00     0.167 HD
ATOM     55  C   UNL A   1      46.773  27.050  29.896  1.00  0.00     0.031 A 
ATOM     56  C   UNL A   1      40.067  28.867  29.066  1.00  0.00     0.031 A 
ATOM     57  C   UNL A   1      46.461  28.407  30.261  1.00  0.00     0.049 A 
ATOM     58  C   UNL A   1      41.077  29.818  29.645  1.00  0.00     0.074 A 
ATOM     59  C   UNL A   1      47.313  29.393  30.727  1.00  0.00     0.029 A 
ATOM     60  N   UNL A   1      45.192  28.964  30.216  1.00  0.00    -0.354 N 
ATOM     61  N   UNL A   1      42.361  29.638  29.840  1.00  0.00    -0.248 NA
ATOM     62  C   UNL A   1      40.583  31.139  30.052  1.00  0.00     0.031 C 
ATOM     63  C   UNL A   1      46.547  30.525  31.025  1.00  0.00     0.029 A 
ATOM     64  C   UNL A   1      45.230  30.269  30.680  1.00  0.00     0.049 A 
ATOM     65  H   UNL A   1      44.382  28.502  29.899  1.00  0.00     0.167 HD
ATOM     66  C   UNL A   1      42.832  30.829  30.377  1.00  0.00     0.074 A 
ATOM     67  C   UNL A   1      41.700  31.730  30.453  1.00  0.00     0.031 C 
ATOM     68  C   UNL A   1      44.090  31.147  30.771  1.00  0.00     0.031 A 
BRANCH  55  69
ATOM     69  C   UNL A   1      48.181  26.552  30.089  1.00  0.00    -0.014 A 
ATOM     70  C   UNL A   1      49.149  26.692  29.081  1.00  0.00     0.009 A 
ATOM     71  C   UNL A   1      48.548  25.939  31.297  1.00  0.00     0.009 A 
ATOM     72  C   UNL A   1      50.437  26.181  29.259  1.00  0.00     0.001 A 
ATOM     73  C   UNL A   1      49.846  25.462  31.486  1.00  0.00     0.001 A 
ATOM     74  C   UNL A   1      50.785  25.570  30.461  1.00  0.00     0.000 A 
ENDBRANCH  55  69
BRANCH  56  75
ATOM     75  C   UNL A   1      38.637  29.249  28.934  1.00  0.00    -0.014 A 
ATOM     76  C   UNL A   1      38.137  29.750  27.724  1.00  0.00     0.009 A 
ATOM     77  C   UNL A   1      37.758  29.084  30.017  1.00  0.00     0.009 A 
ATOM     78  C   UNL A   1      36.788  30.094  27.605  1.00  0.00     0.001 A 
ATOM     79  C   UNL A   1      36.404  29.399  29.885  1.00  0.00     0.001 A 
ATOM     80  C   UNL A   1      35.922  29.910  28.682  1.00  0.00     0.000 A 
ENDBRANCH  56  75
BRANCH  68  81
ATOM     81  C   UNL A   1      44.309  32.533  31.314  1.00  0.00    -0.014 A 
ATOM     82  C   UNL A   1      44.616  33.609  30.465  1.00  0.00     0.009 A 
ATOM     83  C   UNL A   1      44.168  32.772  32.690  1.00  0.00     0.009 A 
ATOM     84  C   UNL A   1      44.810  34.888  30.989  1.00  0.00     0.001 A 
ATOM     85  C   UNL A   1      44.331  34.059  33.206  1.00  0.00     0.001 A 
ATOM     86  C   UNL A   1      44.661  35.114  32.356  1.00  0.00     0.000 A 
ENDBRANCH  68  81
ENDBRANCH  42  43
ENDBRANCH  34  37
ENDBRANCH  32  33
ENDBRANCH  31  32
ENDBRANCH  30  31
ENDBRANCH  29  30
ENDBRANCH   1  29
TORSDOF 21
ENDMDL
MODEL 3
REMARK VINA RESULT:      -9.9      0.747      5.911
REMARK SMILES CC(C)C[C@H](NC(=O)CNC(=O)[C@@H]([NH3+])C(C)C)C(=O)NCCCCCCNC(=O)c1ccc(-c2c3nc(c(-c4ccccc4)c4ccc([nH]4)c(-c4ccccc4)c4nc(c(-c5ccccc5)c5ccc2[nH]5)C=C4)C=C3)cc1
REMARK SMILES IDX 22 1 21 2 20 3 18 4 19 5 5 7 4 8 2 9 1 10 3 11 6 12 7 13
REMARK SMILES IDX 8 15 9 16 10 17 11 18 12 20 13 21 14 22 15 26 16 27 17 28
REMARK SMILES IDX 23 29 24 30 25 31 26 32 27 33 28 34 29 36 30 37 31 38 77 39
REMARK SMILES IDX 32 40 76 41 33 42 34 43 35 44 70 45 36 46 75 47 69 48 71 49
REMARK SMILES IDX 37 50 74 51 68 52 67 53 38 55 60 56 45 57 59 58 46 59 49 60
REMARK SMILES IDX 58 61 72 62 47 63 48 64 57 66 73 67 50 68 39 69 40 70 44 71
REMARK SMILES IDX 41 72 43 73 42 74 61 75 62 76 66 77 63 78 65 79 64 80 51 81
REMARK SMILES IDX 52 82 56 83 53 84 55 85 54 86
REMARK H PARENT 20 6 6 14 10 19 14 23 14 24 14 25 27 35 71 54 49 65
REMARK Flexibility Score: inf
ROOT
ATOM      1  C   UNL A   1      33.253  28.188  26.950  1.00  0.00     0.021 C 
ENDROOT
BRANCH   1   2
ATOM      2  C   UNL A   1      32.907  26.895  26.223  1.00  0.00     0.116 C 
BRANCH   2   3
ATOM      3  N   UNL A   1      31.619  26.391  26.644  1.00  0.00    -0.354 N 
ATOM      4  C   UNL A   1      30.545  25.994  25.913  1.00  0.00     0.242 C 
ATOM      5  O   UNL A   1      29.614  25.451  26.516  1.00  0.00    -0.273 OA
ATOM      6  H   UNL A   1      31.501  26.325  27.620  1.00  0.00     0.163 HD
BRANCH   4   7
ATOM      7  C   UNL A   1      30.540  26.080  24.375  1.00  0.00     0.171 C 
BRANCH   7   8
ATOM      8  C   UNL A   1      29.540  27.124  23.855  1.00  0.00     0.038 C 
BRANCH   8   9
ATOM      9  C   UNL A   1      30.153  28.168  22.892  1.00  0.00    -0.015 C 
ATOM     10  C   UNL A   1      29.671  29.590  23.170  1.00  0.00     0.007 C 
ATOM     11  C   UNL A   1      31.678  28.133  22.993  1.00  0.00     0.007 C 
ENDBRANCH   8   9
ENDBRANCH   7   8
BRANCH   7  12
ATOM     12  N   UNL A   1      30.382  24.776  23.732  1.00  0.00    -0.343 N 
ATOM     13  C   UNL A   1      31.236  23.716  23.678  1.00  0.00     0.240 C 
ATOM     14  H   UNL A   1      29.525  24.642  23.266  1.00  0.00     0.164 HD
ATOM     15  O   UNL A   1      30.762  22.651  23.266  1.00  0.00    -0.273 OA
BRANCH  13  16
ATOM     16  C   UNL A   1      32.670  23.765  24.225  1.00  0.00     0.216 C 
BRANCH  16  17
ATOM     17  N   UNL A   1      32.861  23.200  25.549  1.00  0.00    -0.342 N 
ATOM     18  C   UNL A   1      33.313  21.974  25.929  1.00  0.00     0.278 C 
ATOM     19  H   UNL A   1      32.624  23.801  26.293  1.00  0.00     0.164 HD
ATOM     20  O   UNL A   1      33.449  21.786  27.143  1.00  0.00    -0.268 OA
BRANCH  18  21
ATOM     21  C   UNL A   1      33.705  20.860  24.919  1.00  0.00     0.273 C 
BRANCH  21  22
ATOM     22  N   UNL A   1      34.967  20.189  25.291  1.00  0.00    -0.347 N 
ATOM     23  H   UNL A   1      35.066  19.328  24.753  1.00  0.00     0.345 HD
ATOM     24  H   UNL A   1      34.954  19.967  26.287  1.00  0.00     0.345 HD
ATOM     25  H   UNL A   1      35.753  20.807  25.091  1.00  0.00     0.345 HD
ENDBRANCH  21  22
BRANCH  21  26
ATOM     26  C   UNL A   1      32.543  19.862  24.728  1.00  0.00     0.051 C 
ATOM     27  C   UNL A   1      32.353  19.540  23.239  1.00  0.00     0.014 C 
ATOM     28  C   UNL A   1      32.783  18.549  25.486  1.00  0.00     0.014 C 
ENDBRANCH  21  26
ENDBRANCH  18  21
ENDBRANCH  16  17
ENDBRANCH  13  16
ENDBRANCH   7  12
ENDBRANCH   4   7
ENDBRANCH   2   3
ENDBRANCH   1   2
BRANCH   1  29
ATOM     29  C   UNL A   1      32.058  29.129  27.140  1.00  0.00     0.002 C 
BRANCH  29  30
ATOM     30  C   UNL A   1      31.920  30.219  26.071  1.00  0.00     0.002 C 
BRANCH  30  31
ATOM     31  C   UNL A   1      31.607  31.616  26.612  1.00  0.00     0.021 C 
BRANCH  31  32
ATOM     32  C   UNL A   1      32.782  32.300  27.299  1.00  0.00     0.116 C 
BRANCH  32  33
ATOM     33  N   UNL A   1      32.504  33.696  27.587  1.00  0.00    -0.352 N 
ATOM     34  C   UNL A   1      33.128  34.533  28.474  1.00  0.00     0.251 C 
ATOM     35  H   UNL A   1      31.765  34.097  27.074  1.00  0.00     0.163 HD
ATOM     36  O   UNL A   1      32.639  35.625  28.750  1.00  0.00    -0.269 OA
BRANCH  34  37
ATOM     37  C   UNL A   1      34.382  34.099  29.119  1.00  0.00     0.039 A 
ATOM     38  C   UNL A   1      34.311  33.374  30.310  1.00  0.00     0.014 A 
ATOM     39  C   UNL A   1      35.620  34.388  28.538  1.00  0.00     0.014 A 
ATOM     40  C   UNL A   1      35.483  32.883  30.886  1.00  0.00     0.010 A 
ATOM     41  C   UNL A   1      36.778  33.831  29.070  1.00  0.00     0.010 A 
ATOM     42  C   UNL A   1      36.721  33.074  30.248  1.00  0.00    -0.014 A 
BRANCH  42  43
ATOM     43  C   UNL A   1      37.958  32.462  30.790  1.00  0.00     0.031 A 
ATOM     44  C   UNL A   1      38.493  31.185  30.211  1.00  0.00     0.074 A 
ATOM     45  C   UNL A   1      38.565  33.030  31.850  1.00  0.00     0.049 A 
ATOM     46  N   UNL A   1      39.538  30.488  30.579  1.00  0.00    -0.248 NA
ATOM     47  C   UNL A   1      37.742  30.600  29.090  1.00  0.00     0.031 C 
ATOM     48  C   UNL A   1      38.114  34.245  32.531  1.00  0.00     0.029 A 
ATOM     49  N   UNL A   1      39.688  32.656  32.543  1.00  0.00    -0.354 N 
ATOM     50  C   UNL A   1      39.567  29.382  29.740  1.00  0.00     0.074 A 
ATOM     51  C   UNL A   1      38.401  29.469  28.888  1.00  0.00     0.031 C 
ATOM     52  C   UNL A   1      38.966  34.530  33.529  1.00  0.00     0.029 A 
ATOM     53  C   UNL A   1      39.993  33.496  33.585  1.00  0.00     0.049 A 
ATOM     54  H   UNL A   1      40.222  31.861  32.314  1.00  0.00     0.167 HD
ATOM     55  C   UNL A   1      40.491  28.394  29.670  1.00  0.00     0.031 A 
ATOM     56  C   UNL A   1      40.983  33.436  34.496  1.00  0.00     0.031 A 
ATOM     57  C   UNL A   1      41.640  28.301  30.531  1.00  0.00     0.049 A 
ATOM     58  C   UNL A   1      41.978  32.312  34.424  1.00  0.00     0.074 A 
ATOM     59  C   UNL A   1      42.661  27.366  30.511  1.00  0.00     0.029 A 
ATOM     60  N   UNL A   1      41.913  29.167  31.579  1.00  0.00    -0.354 N 
ATOM     61  N   UNL A   1      42.037  31.316  33.573  1.00  0.00    -0.248 NA
ATOM     62  C   UNL A   1      43.045  32.310  35.432  1.00  0.00     0.031 C 
ATOM     63  C   UNL A   1      43.514  27.629  31.588  1.00  0.00     0.029 A 
ATOM     64  C   UNL A   1      43.065  28.768  32.238  1.00  0.00     0.049 A 
ATOM     65  H   UNL A   1      41.368  29.952  31.821  1.00  0.00     0.167 HD
ATOM     66  C   UNL A   1      43.156  30.577  33.932  1.00  0.00     0.074 A 
ATOM     67  C   UNL A   1      43.759  31.255  35.063  1.00  0.00     0.031 C 
ATOM     68  C   UNL A   1      43.641  29.440  33.376  1.00  0.00     0.031 A 
BRANCH  55  69
ATOM     69  C   UNL A   1      40.273  27.324  28.633  1.00  0.00    -0.014 A 
ATOM     70  C   UNL A   1      39.517  26.175  28.917  1.00  0.00     0.009 A 
ATOM     71  C   UNL A   1      40.827  27.468  27.351  1.00  0.00     0.009 A 
ATOM     72  C   UNL A   1      39.365  25.170  27.958  1.00  0.00     0.001 A 
ATOM     73  C   UNL A   1      40.643  26.479  26.383  1.00  0.00     0.001 A 
ATOM     74  C   UNL A   1      39.925  25.324  26.692  1.00  0.00     0.000 A 
ENDBRANCH  55  69
BRANCH  56  75
ATOM     75  C   UNL A   1      41.072  34.477  35.552  1.00  0.00    -0.014 A 
ATOM     76  C   UNL A   1      40.425  34.307  36.784  1.00  0.00     0.009 A 
ATOM     77  C   UNL A   1      41.835  35.637  35.340  1.00  0.00     0.009 A 
ATOM     78  C   UNL A   1      40.526  35.285  37.777  1.00  0.00     0.001 A 
ATOM     79  C   UNL A   1      41.960  36.598  36.345  1.00  0.00     0.001 A 
ATOM     80  C   UNL A   1      41.299  36.424  37.560  1.00  0.00     0.000 A 
ENDBRANCH  56  75
BRANCH  68  81
ATOM     81  C   UNL A   1      44.892  28.860  33.978  1.00  0.00    -0.014 A 
ATOM     82  C   UNL A   1      44.831  27.897  34.998  1.00  0.00     0.009 A 
ATOM     83  C   UNL A   1      46.148  29.256  33.491  1.00  0.00     0.009 A 
ATOM     84  C   UNL A   1      46.003  27.368  35.540  1.00  0.00     0.001 A 
ATOM     85  C   UNL A   1      47.317  28.700  34.013  1.00  0.00     0.001 A 
ATOM     86  C   UNL A   1      47.244  27.764  35.043  1.00  0.00     0.000 A 
ENDBRANCH  68  81
ENDBRANCH  42  43
ENDBRANCH  34  37
ENDBRANCH  32  33
ENDBRANCH  31  32
ENDBRANCH  30  31
ENDBRANCH  29  30
ENDBRANCH   1  29
TORSDOF 21
ENDMDL
