MODEL 1
REMARK VINA RESULT:     -11.6      0.000      0.000
REMARK SMILES CC(=O)Oc1cc(CCC(=O)NCCCCCCNC(=O)c2ccc(-c3c4nc(c(-c5ccccc5)c5ccc([nH]5)c(-c5ccccc5)c5nc(c(-c6ccccc6)c6ccc3[nH]6)C=C5)C=C4)cc2)c(OC(C)=O)c2c1C(=O)c1ccccc1C2=O
REMARK SMILES IDX 14 1 13 2 12 3 10 4 11 5 9 7 8 8 7 9 5 10 6 11 76 12 75 13
REMARK SMILES IDX 77 14 70 15 85 16 78 17 79 18 84 19 86 20 80 21 83 22 81 23
REMARK SMILES IDX 82 24 4 25 2 26 1 27 3 28 71 29 72 30 73 31 74 32 15 33
REMARK SMILES IDX 16 34 17 35 18 36 19 37 20 38 21 40 22 41 23 42 69 43 24 44
REMARK SMILES IDX 68 45 25 46 26 47 27 48 62 49 28 50 67 51 61 52 63 53 29 54
REMARK SMILES IDX 66 55 60 56 59 57 30 59 52 60 37 61 51 62 38 63 41 64 50 65
REMARK SMILES IDX 64 66 39 67 40 68 49 70 65 71 42 72 31 73 32 74 36 75 33 76
REMARK SMILES IDX 35 77 34 78 53 79 54 80 58 81 55 82 57 83 56 84 43 85 44 86
REMARK SMILES IDX 48 87 45 88 47 89 46 90
REMARK H PARENT 12 6 19 39 63 58 41 69
REMARK Flexibility Score: inf
ROOT
ATOM      1  C   UNL A   1      31.257  28.430  23.352  1.00  0.00     0.021 C 
ENDROOT
BRANCH   1   2
ATOM      2  C   UNL A   1      32.696  28.535  22.860  1.00  0.00     0.116 C 
BRANCH   2   3
ATOM      3  N   UNL A   1      33.190  27.221  22.475  1.00  0.00    -0.356 N 
ATOM      4  C   UNL A   1      33.540  26.151  23.240  1.00  0.00     0.220 C 
ATOM      5  O   UNL A   1      34.080  25.196  22.678  1.00  0.00    -0.275 OA
ATOM      6  H   UNL A   1      33.288  27.085  21.505  1.00  0.00     0.163 HD
BRANCH   4   7
ATOM      7  C   UNL A   1      33.205  26.088  24.724  1.00  0.00     0.105 C 
BRANCH   7   8
ATOM      8  C   UNL A   1      34.236  25.482  25.687  1.00  0.00     0.049 C 
BRANCH   8   9
ATOM      9  C   UNL A   1      34.592  24.031  25.505  1.00  0.00    -0.000 A 
ATOM     10  C   UNL A   1      36.295  22.351  25.022  1.00  0.00     0.143 A 
ATOM     11  C   UNL A   1      35.919  23.690  25.216  1.00  0.00     0.055 A 
ATOM     12  C   UNL A   1      35.359  21.304  25.091  1.00  0.00     0.080 A 
ATOM     13  C   UNL A   1      34.015  21.625  25.314  1.00  0.00     0.081 A 
ATOM     14  C   UNL A   1      35.761  19.887  24.888  1.00  0.00     0.198 C 
ATOM     15  C   UNL A   1      33.674  22.974  25.587  1.00  0.00     0.146 A 
ATOM     16  C   UNL A   1      32.983  20.591  25.042  1.00  0.00     0.198 C 
ATOM     17  O   UNL A   1      36.940  19.555  24.835  1.00  0.00    -0.288 OA
ATOM     18  C   UNL A   1      34.719  18.869  24.653  1.00  0.00     0.034 A 
ATOM     19  C   UNL A   1      33.389  19.255  24.574  1.00  0.00     0.034 A 
ATOM     20  O   UNL A   1      31.788  20.828  25.131  1.00  0.00    -0.288 OA
ATOM     21  C   UNL A   1      35.077  17.550  24.346  1.00  0.00     0.013 A 
ATOM     22  C   UNL A   1      32.442  18.383  24.016  1.00  0.00     0.013 A 
ATOM     23  C   UNL A   1      34.131  16.674  23.808  1.00  0.00     0.001 A 
ATOM     24  C   UNL A   1      32.823  17.106  23.600  1.00  0.00     0.001 A 
BRANCH  10  25
ATOM     25  O   UNL A   1      37.653  22.128  24.758  1.00  0.00    -0.426 OA
BRANCH  25  26
ATOM     26  C   UNL A   1      38.451  22.218  25.895  1.00  0.00     0.308 C 
ATOM     27  C   UNL A   1      38.716  23.665  26.198  1.00  0.00     0.139 C 
ATOM     28  O   UNL A   1      38.921  21.275  26.523  1.00  0.00    -0.252 OA
ENDBRANCH  25  26
ENDBRANCH  10  25
BRANCH  15  29
ATOM     29  O   UNL A   1      32.233  23.311  25.856  1.00  0.00    -0.426 OA
BRANCH  29  30
ATOM     30  C   UNL A   1      30.884  23.719  26.163  1.00  0.00     0.308 C 
ATOM     31  C   UNL A   1      30.261  24.466  25.031  1.00  0.00     0.139 C 
ATOM     32  O   UNL A   1      30.346  23.523  27.243  1.00  0.00    -0.252 OA
ENDBRANCH  29  30
ENDBRANCH  15  29
ENDBRANCH   8   9
ENDBRANCH   7   8
ENDBRANCH   4   7
ENDBRANCH   2   3
ENDBRANCH   1   2
BRANCH   1  33
ATOM     33  C   UNL A   1      30.704  29.530  24.250  1.00  0.00     0.002 C 
BRANCH  33  34
ATOM     34  C   UNL A   1      31.587  30.042  25.394  1.00  0.00     0.002 C 
BRANCH  34  35
ATOM     35  C   UNL A   1      32.017  29.073  26.505  1.00  0.00     0.021 C 
BRANCH  35  36
ATOM     36  C   UNL A   1      33.297  29.395  27.281  1.00  0.00     0.116 C 
BRANCH  36  37
ATOM     37  N   UNL A   1      33.424  30.788  27.684  1.00  0.00    -0.352 N 
ATOM     38  C   UNL A   1      34.451  31.465  28.303  1.00  0.00     0.251 C 
ATOM     39  H   UNL A   1      32.638  31.343  27.478  1.00  0.00     0.163 HD
ATOM     40  O   UNL A   1      34.312  32.661  28.556  1.00  0.00    -0.269 OA
BRANCH  38  41
ATOM     41  C   UNL A   1      35.720  30.801  28.689  1.00  0.00     0.039 A 
ATOM     42  C   UNL A   1      36.907  31.185  28.060  1.00  0.00     0.014 A 
ATOM     43  C   UNL A   1      35.753  29.760  29.615  1.00  0.00     0.014 A 
ATOM     44  C   UNL A   1      38.115  30.571  28.407  1.00  0.00     0.010 A 
ATOM     45  C   UNL A   1      36.957  29.159  29.986  1.00  0.00     0.010 A 
ATOM     46  C   UNL A   1      38.157  29.577  29.404  1.00  0.00    -0.014 A 
BRANCH  46  47
ATOM     47  C   UNL A   1      39.456  29.101  29.950  1.00  0.00     0.031 A 
ATOM     48  C   UNL A   1      40.103  29.731  31.152  1.00  0.00     0.074 A 
ATOM     49  C   UNL A   1      40.092  28.121  29.278  1.00  0.00     0.049 A 
ATOM     50  N   UNL A   1      41.204  29.379  31.770  1.00  0.00    -0.248 NA
ATOM     51  C   UNL A   1      39.454  30.922  31.720  1.00  0.00     0.031 C 
ATOM     52  C   UNL A   1      39.613  27.508  28.036  1.00  0.00     0.029 A 
ATOM     53  N   UNL A   1      41.265  27.460  29.541  1.00  0.00    -0.354 N 
ATOM     54  C   UNL A   1      41.379  30.298  32.798  1.00  0.00     0.074 A 
ATOM     55  C   UNL A   1      40.302  31.259  32.684  1.00  0.00     0.031 C 
ATOM     56  C   UNL A   1      40.447  26.519  27.681  1.00  0.00     0.029 A 
ATOM     57  C   UNL A   1      41.543  26.459  28.641  1.00  0.00     0.049 A 
ATOM     58  H   UNL A   1      41.851  27.682  30.301  1.00  0.00     0.167 HD
ATOM     59  C   UNL A   1      42.339  30.326  33.755  1.00  0.00     0.031 A 
ATOM     60  C   UNL A   1      42.560  25.580  28.594  1.00  0.00     0.031 A 
ATOM     61  C   UNL A   1      43.418  29.373  33.843  1.00  0.00     0.049 A 
ATOM     62  C   UNL A   1      43.600  25.623  29.676  1.00  0.00     0.074 A 
ATOM     63  C   UNL A   1      44.401  29.266  34.812  1.00  0.00     0.029 A 
ATOM     64  N   UNL A   1      43.662  28.369  32.917  1.00  0.00    -0.354 N 
ATOM     65  N   UNL A   1      43.683  26.425  30.711  1.00  0.00    -0.248 NA
ATOM     66  C   UNL A   1      44.680  24.631  29.593  1.00  0.00     0.031 C 
ATOM     67  C   UNL A   1      45.278  28.243  34.437  1.00  0.00     0.029 A 
ATOM     68  C   UNL A   1      44.799  27.661  33.275  1.00  0.00     0.049 A 
ATOM     69  H   UNL A   1      43.109  28.186  32.124  1.00  0.00     0.167 HD
ATOM     70  C   UNL A   1      44.807  26.019  31.415  1.00  0.00     0.074 A 
ATOM     71  C   UNL A   1      45.357  24.882  30.703  1.00  0.00     0.031 C 
ATOM     72  C   UNL A   1      45.339  26.540  32.548  1.00  0.00     0.031 A 
BRANCH  59  73
ATOM     73  C   UNL A   1      42.271  31.418  34.794  1.00  0.00    -0.014 A 
ATOM     74  C   UNL A   1      42.861  32.674  34.569  1.00  0.00     0.009 A 
ATOM     75  C   UNL A   1      41.547  31.221  35.982  1.00  0.00     0.009 A 
ATOM     76  C   UNL A   1      42.762  33.690  35.524  1.00  0.00     0.001 A 
ATOM     77  C   UNL A   1      41.421  32.249  36.920  1.00  0.00     0.001 A 
ATOM     78  C   UNL A   1      42.036  33.479  36.696  1.00  0.00     0.000 A 
ENDBRANCH  59  73
BRANCH  60  79
ATOM     79  C   UNL A   1      42.624  24.571  27.503  1.00  0.00    -0.014 A 
ATOM     80  C   UNL A   1      43.169  24.902  26.252  1.00  0.00     0.009 A 
ATOM     81  C   UNL A   1      42.150  23.266  27.709  1.00  0.00     0.009 A 
ATOM     82  C   UNL A   1      43.206  23.958  25.222  1.00  0.00     0.001 A 
ATOM     83  C   UNL A   1      42.224  22.313  26.691  1.00  0.00     0.001 A 
ATOM     84  C   UNL A   1      42.740  22.663  25.445  1.00  0.00     0.000 A 
ENDBRANCH  60  79
BRANCH  72  85
ATOM     85  C   UNL A   1      46.565  25.864  33.098  1.00  0.00    -0.014 A 
ATOM     86  C   UNL A   1      47.855  26.244  32.693  1.00  0.00     0.009 A 
ATOM     87  C   UNL A   1      46.426  24.849  34.057  1.00  0.00     0.009 A 
ATOM     88  C   UNL A   1      48.977  25.589  33.204  1.00  0.00     0.001 A 
ATOM     89  C   UNL A   1      47.550  24.222  34.594  1.00  0.00     0.001 A 
ATOM     90  C   UNL A   1      48.824  24.583  34.159  1.00  0.00     0.000 A 
ENDBRANCH  72  85
ENDBRANCH  46  47
ENDBRANCH  38  41
ENDBRANCH  36  37
ENDBRANCH  35  36
ENDBRANCH  34  35
ENDBRANCH  33  34
ENDBRANCH   1  33
TORSDOF 19
ENDMDL
MODEL 2
REMARK VINA RESULT:     -11.4      0.990      5.640
REMARK SMILES CC(=O)Oc1cc(CCC(=O)NCCCCCCNC(=O)c2ccc(-c3c4nc(c(-c5ccccc5)c5ccc([nH]5)c(-c5ccccc5)c5nc(c(-c6ccccc6)c6ccc3[nH]6)C=C5)C=C4)cc2)c(OC(C)=O)c2c1C(=O)c1ccccc1C2=O
REMARK SMILES IDX 14 1 13 2 12 3 10 4 11 5 9 7 8 8 7 9 5 10 6 11 76 12 75 13
REMARK SMILES IDX 77 14 70 15 85 16 78 17 79 18 84 19 86 20 80 21 83 22 81 23
REMARK SMILES IDX 82 24 4 25 2 26 1 27 3 28 71 29 72 30 73 31 74 32 15 33
REMARK SMILES IDX 16 34 17 35 18 36 19 37 20 38 21 40 22 41 23 42 69 43 24 44
REMARK SMILES IDX 68 45 25 46 26 47 27 48 62 49 28 50 67 51 61 52 63 53 29 54
REMARK SMILES IDX 66 55 60 56 59 57 30 59 52 60 37 61 51 62 38 63 41 64 50 65
REMARK SMILES IDX 64 66 39 67 40 68 49 70 65 71 42 72 31 73 32 74 36 75 33 76
REMARK SMILES IDX 35 77 34 78 53 79 54 80 58 81 55 82 57 83 56 84 43 85 44 86
REMARK SMILES IDX 48 87 45 88 47 89 46 90
REMARK H PARENT 12 6 19 39 63 58 41 69
REMARK Flexibility Score: inf
ROOT
ATOM      1  C   UNL A   1      31.301  28.533  23.144  1.00  0.00     0.021 C 
ENDROOT
BRANCH   1   2
ATOM      2  C   UNL A   1      32.739  28.673  22.659  1.00  0.00     0.116 C 
BRANCH   2   3
ATOM      3  N   UNL A   1      33.197  27.418  22.082  1.00  0.00    -0.356 N 
ATOM      4  C   UNL A   1      33.466  26.222  22.672  1.00  0.00     0.220 C 
ATOM      5  O   UNL A   1      33.993  25.347  21.981  1.00  0.00    -0.275 OA
ATOM      6  H   UNL A   1      33.337  27.439  21.107  1.00  0.00     0.163 HD
BRANCH   4   7
ATOM      7  C   UNL A   1      33.057  25.932  24.109  1.00  0.00     0.105 C 
BRANCH   7   8
ATOM      8  C   UNL A   1      34.130  25.453  25.098  1.00  0.00     0.049 C 
BRANCH   8   9
ATOM      9  C   UNL A   1      34.512  23.997  25.061  1.00  0.00    -0.000 A 
ATOM     10  C   UNL A   1      36.255  22.311  24.790  1.00  0.00     0.143 A 
ATOM     11  C   UNL A   1      35.854  23.655  24.849  1.00  0.00     0.055 A 
ATOM     12  C   UNL A   1      35.333  21.258  24.923  1.00  0.00     0.080 A 
ATOM     13  C   UNL A   1      33.977  21.574  25.071  1.00  0.00     0.081 A 
ATOM     14  C   UNL A   1      35.762  19.836  24.862  1.00  0.00     0.198 C 
ATOM     15  C   UNL A   1      33.607  22.936  25.207  1.00  0.00     0.146 A 
ATOM     16  C   UNL A   1      32.971  20.502  24.859  1.00  0.00     0.198 C 
ATOM     17  O   UNL A   1      36.946  19.520  24.880  1.00  0.00    -0.288 OA
ATOM     18  C   UNL A   1      34.743  18.782  24.687  1.00  0.00     0.034 A 
ATOM     19  C   UNL A   1      33.412  19.137  24.528  1.00  0.00     0.034 A 
ATOM     20  O   UNL A   1      31.770  20.725  24.886  1.00  0.00    -0.288 OA
ATOM     21  C   UNL A   1      35.131  17.447  24.513  1.00  0.00     0.013 A 
ATOM     22  C   UNL A   1      32.497  18.201  24.021  1.00  0.00     0.013 A 
ATOM     23  C   UNL A   1      34.216  16.510  24.025  1.00  0.00     0.001 A 
ATOM     24  C   UNL A   1      32.911  16.898  23.735  1.00  0.00     0.001 A 
BRANCH  10  25
ATOM     25  O   UNL A   1      37.625  22.088  24.593  1.00  0.00    -0.426 OA
BRANCH  25  26
ATOM     26  C   UNL A   1      38.406  22.519  25.663  1.00  0.00     0.308 C 
ATOM     27  C   UNL A   1      39.272  21.385  26.129  1.00  0.00     0.139 C 
ATOM     28  O   UNL A   1      38.358  23.625  26.189  1.00  0.00    -0.252 OA
ENDBRANCH  25  26
ENDBRANCH  10  25
BRANCH  15  29
ATOM     29  O   UNL A   1      32.153  23.271  25.397  1.00  0.00    -0.426 OA
BRANCH  29  30
ATOM     30  C   UNL A   1      30.788  23.683  25.616  1.00  0.00     0.308 C 
ATOM     31  C   UNL A   1      30.205  23.040  26.831  1.00  0.00     0.139 C 
ATOM     32  O   UNL A   1      30.173  24.421  24.861  1.00  0.00    -0.252 OA
ENDBRANCH  29  30
ENDBRANCH  15  29
ENDBRANCH   8   9
ENDBRANCH   7   8
ENDBRANCH   4   7
ENDBRANCH   2   3
ENDBRANCH   1   2
BRANCH   1  33
ATOM     33  C   UNL A   1      30.824  29.410  24.294  1.00  0.00     0.002 C 
BRANCH  33  34
ATOM     34  C   UNL A   1      31.822  29.749  25.407  1.00  0.00     0.002 C 
BRANCH  34  35
ATOM     35  C   UNL A   1      32.305  28.638  26.351  1.00  0.00     0.021 C 
BRANCH  35  36
ATOM     36  C   UNL A   1      33.496  28.941  27.264  1.00  0.00     0.116 C 
BRANCH  36  37
ATOM     37  N   UNL A   1      33.578  30.324  27.711  1.00  0.00    -0.352 N 
ATOM     38  C   UNL A   1      34.595  31.025  28.319  1.00  0.00     0.251 C 
ATOM     39  H   UNL A   1      32.762  30.851  27.551  1.00  0.00     0.163 HD
ATOM     40  O   UNL A   1      34.415  32.204  28.618  1.00  0.00    -0.269 OA
BRANCH  38  41
ATOM     41  C   UNL A   1      35.904  30.404  28.639  1.00  0.00     0.039 A 
ATOM     42  C   UNL A   1      36.964  30.552  27.740  1.00  0.00     0.014 A 
ATOM     43  C   UNL A   1      36.090  29.624  29.778  1.00  0.00     0.014 A 
ATOM     44  C   UNL A   1      38.207  29.974  28.020  1.00  0.00     0.010 A 
ATOM     45  C   UNL A   1      37.333  29.065  30.078  1.00  0.00     0.010 A 
ATOM     46  C   UNL A   1      38.414  29.256  29.214  1.00  0.00    -0.014 A 
BRANCH  46  47
ATOM     47  C   UNL A   1      39.784  28.856  29.633  1.00  0.00     0.031 A 
ATOM     48  C   UNL A   1      40.473  27.641  29.079  1.00  0.00     0.074 A 
ATOM     49  C   UNL A   1      40.374  29.582  30.604  1.00  0.00     0.049 A 
ATOM     50  N   UNL A   1      41.689  27.209  29.312  1.00  0.00    -0.248 NA
ATOM     51  C   UNL A   1      39.699  26.783  28.170  1.00  0.00     0.031 C 
ATOM     52  C   UNL A   1      39.758  30.718  31.294  1.00  0.00     0.029 A 
ATOM     53  N   UNL A   1      41.619  29.486  31.173  1.00  0.00    -0.354 N 
ATOM     54  C   UNL A   1      41.827  26.035  28.580  1.00  0.00     0.074 A 
ATOM     55  C   UNL A   1      40.550  25.791  27.941  1.00  0.00     0.031 C 
ATOM     56  C   UNL A   1      40.646  31.253  32.144  1.00  0.00     0.029 A 
ATOM     57  C   UNL A   1      41.876  30.472  32.095  1.00  0.00     0.049 A 
ATOM     58  H   UNL A   1      42.265  28.779  30.943  1.00  0.00     0.167 HD
ATOM     59  C   UNL A   1      42.921  25.246  28.443  1.00  0.00     0.031 A 
ATOM     60  C   UNL A   1      42.982  30.730  32.817  1.00  0.00     0.031 A 
ATOM     61  C   UNL A   1      44.180  25.492  29.103  1.00  0.00     0.049 A 
ATOM     62  C   UNL A   1      44.185  29.850  32.633  1.00  0.00     0.074 A 
ATOM     63  C   UNL A   1      45.372  24.798  28.977  1.00  0.00     0.029 A 
ATOM     64  N   UNL A   1      44.405  26.504  30.024  1.00  0.00    -0.354 N 
ATOM     65  N   UNL A   1      44.336  28.814  31.843  1.00  0.00    -0.248 NA
ATOM     66  C   UNL A   1      45.374  30.184  33.427  1.00  0.00     0.031 C 
ATOM     67  C   UNL A   1      46.296  25.349  29.872  1.00  0.00     0.029 A 
ATOM     68  C   UNL A   1      45.704  26.433  30.499  1.00  0.00     0.049 A 
ATOM     69  H   UNL A   1      43.738  27.175  30.299  1.00  0.00     0.167 HD
ATOM     70  C   UNL A   1      45.644  28.387  32.027  1.00  0.00     0.074 A 
ATOM     71  C   UNL A   1      46.249  29.295  32.981  1.00  0.00     0.031 C 
ATOM     72  C   UNL A   1      46.286  27.337  31.459  1.00  0.00     0.031 A 
BRANCH  59  73
ATOM     73  C   UNL A   1      42.816  24.041  27.541  1.00  0.00    -0.014 A 
ATOM     74  C   UNL A   1      43.061  24.141  26.161  1.00  0.00     0.009 A 
ATOM     75  C   UNL A   1      42.541  22.774  28.083  1.00  0.00     0.009 A 
ATOM     76  C   UNL A   1      42.995  23.011  25.341  1.00  0.00     0.001 A 
ATOM     77  C   UNL A   1      42.508  21.640  27.267  1.00  0.00     0.001 A 
ATOM     78  C   UNL A   1      42.725  21.760  25.896  1.00  0.00     0.000 A 
ENDBRANCH  59  73
BRANCH  60  79
ATOM     79  C   UNL A   1      43.009  31.886  33.753  1.00  0.00    -0.014 A 
ATOM     80  C   UNL A   1      42.627  31.730  35.095  1.00  0.00     0.009 A 
ATOM     81  C   UNL A   1      43.426  33.152  33.313  1.00  0.00     0.009 A 
ATOM     82  C   UNL A   1      42.632  32.823  35.965  1.00  0.00     0.001 A 
ATOM     83  C   UNL A   1      43.467  34.234  34.193  1.00  0.00     0.001 A 
ATOM     84  C   UNL A   1      43.058  34.072  35.515  1.00  0.00     0.000 A 
ENDBRANCH  60  79
BRANCH  72  85
ATOM     85  C   UNL A   1      47.727  27.134  31.839  1.00  0.00    -0.014 A 
ATOM     86  C   UNL A   1      48.093  26.292  32.903  1.00  0.00     0.009 A 
ATOM     87  C   UNL A   1      48.736  27.776  31.104  1.00  0.00     0.009 A 
ATOM     88  C   UNL A   1      49.436  26.135  33.249  1.00  0.00     0.001 A 
ATOM     89  C   UNL A   1      50.079  27.586  31.428  1.00  0.00     0.001 A 
ATOM     90  C   UNL A   1      50.428  26.777  32.507  1.00  0.00     0.000 A 
ENDBRANCH  72  85
ENDBRANCH  46  47
ENDBRANCH  38  41
ENDBRANCH  36  37
ENDBRANCH  35  36
ENDBRANCH  34  35
ENDBRANCH  33  34
ENDBRANCH   1  33
TORSDOF 19
ENDMDL
MODEL 3
REMARK VINA RESULT:     -11.1      1.841      3.758
REMARK SMILES CC(=O)Oc1cc(CCC(=O)NCCCCCCNC(=O)c2ccc(-c3c4nc(c(-c5ccccc5)c5ccc([nH]5)c(-c5ccccc5)c5nc(c(-c6ccccc6)c6ccc3[nH]6)C=C5)C=C4)cc2)c(OC(C)=O)c2c1C(=O)c1ccccc1C2=O
REMARK SMILES IDX 14 1 13 2 12 3 10 4 11 5 9 7 8 8 7 9 5 10 6 11 76 12 75 13
REMARK SMILES IDX 77 14 70 15 85 16 78 17 79 18 84 19 86 20 80 21 83 22 81 23
REMARK SMILES IDX 82 24 4 25 2 26 1 27 3 28 71 29 72 30 73 31 74 32 15 33
REMARK SMILES IDX 16 34 17 35 18 36 19 37 20 38 21 40 22 41 23 42 69 43 24 44
REMARK SMILES IDX 68 45 25 46 26 47 27 48 62 49 28 50 67 51 61 52 63 53 29 54
REMARK SMILES IDX 66 55 60 56 59 57 30 59 52 60 37 61 51 62 38 63 41 64 50 65
REMARK SMILES IDX 64 66 39 67 40 68 49 70 65 71 42 72 31 73 32 74 36 75 33 76
REMARK SMILES IDX 35 77 34 78 53 79 54 80 58 81 55 82 57 83 56 84 43 85 44 86
REMARK SMILES IDX 48 87 45 88 47 89 46 90
REMARK H PARENT 12 6 19 39 63 58 41 69
REMARK Flexibility Score: inf
ROOT
ATOM      1  C   UNL A   1      30.806  26.980  25.645  1.00  0.00     0.021 C 
ENDROOT
BRANCH   1   2
ATOM      2  C   UNL A   1      29.747  25.912  25.399  1.00  0.00     0.116 C 
BRANCH   2   3
ATOM      3  N   UNL A   1      30.206  24.626  25.901  1.00  0.00    -0.356 N 
ATOM      4  C   UNL A   1      30.559  23.493  25.234  1.00  0.00     0.220 C 
ATOM      5  O   UNL A   1      30.769  22.477  25.900  1.00  0.00    -0.275 OA
ATOM      6  H   UNL A   1      30.270  24.565  26.882  1.00  0.00     0.163 HD
BRANCH   4   7
ATOM      7  C   UNL A   1      30.775  23.489  23.727  1.00  0.00     0.105 C 
BRANCH   7   8
ATOM      8  C   UNL A   1      31.438  22.264  23.081  1.00  0.00     0.049 C 
BRANCH   8   9
ATOM      9  C   UNL A   1      32.815  21.884  23.555  1.00  0.00    -0.000 A 
ATOM     10  C   UNL A   1      34.328  20.156  24.378  1.00  0.00     0.143 A 
ATOM     11  C   UNL A   1      33.064  20.554  23.914  1.00  0.00     0.055 A 
ATOM     12  C   UNL A   1      35.385  21.072  24.518  1.00  0.00     0.080 A 
ATOM     13  C   UNL A   1      35.143  22.419  24.228  1.00  0.00     0.081 A 
ATOM     14  C   UNL A   1      36.723  20.646  25.007  1.00  0.00     0.198 C 
ATOM     15  C   UNL A   1      33.884  22.783  23.686  1.00  0.00     0.146 A 
ATOM     16  C   UNL A   1      36.119  23.435  24.700  1.00  0.00     0.198 C 
ATOM     17  O   UNL A   1      37.015  19.462  25.133  1.00  0.00    -0.288 OA
ATOM     18  C   UNL A   1      37.693  21.672  25.439  1.00  0.00     0.034 A 
ATOM     19  C   UNL A   1      37.324  23.009  25.432  1.00  0.00     0.034 A 
ATOM     20  O   UNL A   1      35.929  24.633  24.558  1.00  0.00    -0.288 OA
ATOM     21  C   UNL A   1      38.915  21.293  26.009  1.00  0.00     0.013 A 
ATOM     22  C   UNL A   1      38.083  23.946  26.150  1.00  0.00     0.013 A 
ATOM     23  C   UNL A   1      39.681  22.229  26.710  1.00  0.00     0.001 A 
ATOM     24  C   UNL A   1      39.241  23.545  26.819  1.00  0.00     0.001 A 
BRANCH  10  25
ATOM     25  O   UNL A   1      34.467  18.796  24.689  1.00  0.00    -0.426 OA
BRANCH  25  26
ATOM     26  C   UNL A   1      33.246  18.140  24.817  1.00  0.00     0.308 C 
ATOM     27  C   UNL A   1      33.086  17.169  23.683  1.00  0.00     0.139 C 
ATOM     28  O   UNL A   1      32.400  18.354  25.678  1.00  0.00    -0.252 OA
ENDBRANCH  25  26
ENDBRANCH  10  25
BRANCH  15  29
ATOM     29  O   UNL A   1      33.636  24.227  23.346  1.00  0.00    -0.426 OA
BRANCH  29  30
ATOM     30  C   UNL A   1      33.378  25.582  22.925  1.00  0.00     0.308 C 
ATOM     31  C   UNL A   1      32.856  25.637  21.527  1.00  0.00     0.139 C 
ATOM     32  O   UNL A   1      33.618  26.563  23.614  1.00  0.00    -0.252 OA
ENDBRANCH  29  30
ENDBRANCH  15  29
ENDBRANCH   8   9
ENDBRANCH   7   8
ENDBRANCH   4   7
ENDBRANCH   2   3
ENDBRANCH   1   2
BRANCH   1  33
ATOM     33  C   UNL A   1      31.789  26.790  26.794  1.00  0.00     0.002 C 
BRANCH  33  34
ATOM     34  C   UNL A   1      32.408  28.039  27.431  1.00  0.00     0.002 C 
BRANCH  34  35
ATOM     35  C   UNL A   1      31.770  29.412  27.172  1.00  0.00     0.021 C 
BRANCH  35  36
ATOM     36  C   UNL A   1      32.546  30.413  26.312  1.00  0.00     0.116 C 
BRANCH  36  37
ATOM     37  N   UNL A   1      32.470  31.792  26.774  1.00  0.00    -0.352 N 
ATOM     38  C   UNL A   1      33.327  32.539  27.550  1.00  0.00     0.251 C 
ATOM     39  H   UNL A   1      31.664  32.274  26.481  1.00  0.00     0.163 HD
ATOM     40  O   UNL A   1      33.031  33.701  27.821  1.00  0.00    -0.269 OA
BRANCH  38  41
ATOM     41  C   UNL A   1      34.598  31.988  28.084  1.00  0.00     0.039 A 
ATOM     42  C   UNL A   1      35.657  32.859  28.349  1.00  0.00     0.014 A 
ATOM     43  C   UNL A   1      34.786  30.620  28.268  1.00  0.00     0.014 A 
ATOM     44  C   UNL A   1      36.865  32.362  28.851  1.00  0.00     0.010 A 
ATOM     45  C   UNL A   1      35.978  30.117  28.792  1.00  0.00     0.010 A 
ATOM     46  C   UNL A   1      37.023  30.987  29.115  1.00  0.00    -0.014 A 
BRANCH  46  47
ATOM     47  C   UNL A   1      38.200  30.489  29.874  1.00  0.00     0.031 A 
ATOM     48  C   UNL A   1      38.440  30.846  31.315  1.00  0.00     0.074 A 
ATOM     49  C   UNL A   1      39.111  29.757  29.201  1.00  0.00     0.049 A 
ATOM     50  N   UNL A   1      39.392  30.433  32.115  1.00  0.00    -0.248 NA
ATOM     51  C   UNL A   1      37.513  31.805  31.934  1.00  0.00     0.031 C 
ATOM     52  C   UNL A   1      39.041  29.439  27.772  1.00  0.00     0.029 A 
ATOM     53  N   UNL A   1      40.263  29.142  29.620  1.00  0.00    -0.354 N 
ATOM     54  C   UNL A   1      39.181  31.079  33.329  1.00  0.00     0.074 A 
ATOM     55  C   UNL A   1      38.043  31.954  33.142  1.00  0.00     0.031 C 
ATOM     56  C   UNL A   1      40.064  28.635  27.448  1.00  0.00     0.029 A 
ATOM     57  C   UNL A   1      40.888  28.420  28.631  1.00  0.00     0.049 A 
ATOM     58  H   UNL A   1      40.608  29.209  30.540  1.00  0.00     0.167 HD
ATOM     59  C   UNL A   1      39.863  30.938  34.492  1.00  0.00     0.031 A 
ATOM     60  C   UNL A   1      41.997  27.659  28.670  1.00  0.00     0.031 A 
ATOM     61  C   UNL A   1      41.008  30.077  34.657  1.00  0.00     0.049 A 
ATOM     62  C   UNL A   1      42.723  27.508  29.975  1.00  0.00     0.074 A 
ATOM     63  C   UNL A   1      41.728  29.805  35.809  1.00  0.00     0.029 A 
ATOM     64  N   UNL A   1      41.608  29.356  33.635  1.00  0.00    -0.354 N 
ATOM     65  N   UNL A   1      42.437  28.030  31.144  1.00  0.00    -0.248 NA
ATOM     66  C   UNL A   1      43.916  26.651  29.971  1.00  0.00     0.031 C 
ATOM     67  C   UNL A   1      42.802  28.976  35.469  1.00  0.00     0.029 A 
ATOM     68  C   UNL A   1      42.708  28.668  34.122  1.00  0.00     0.049 A 
ATOM     69  H   UNL A   1      41.298  29.336  32.701  1.00  0.00     0.167 HD
ATOM     70  C   UNL A   1      43.399  27.546  32.019  1.00  0.00     0.074 A 
ATOM     71  C   UNL A   1      44.258  26.667  31.251  1.00  0.00     0.031 C 
ATOM     72  C   UNL A   1      43.559  27.807  33.340  1.00  0.00     0.031 A 
BRANCH  59  73
ATOM     73  C   UNL A   1      39.393  31.729  35.688  1.00  0.00    -0.014 A 
ATOM     74  C   UNL A   1      39.948  32.983  35.996  1.00  0.00     0.009 A 
ATOM     75  C   UNL A   1      38.331  31.254  36.477  1.00  0.00     0.009 A 
ATOM     76  C   UNL A   1      39.479  33.722  37.086  1.00  0.00     0.001 A 
ATOM     77  C   UNL A   1      37.843  32.010  37.546  1.00  0.00     0.001 A 
ATOM     78  C   UNL A   1      38.423  33.238  37.856  1.00  0.00     0.000 A 
ENDBRANCH  59  73
BRANCH  60  79
ATOM     79  C   UNL A   1      42.466  26.961  27.442  1.00  0.00    -0.014 A 
ATOM     80  C   UNL A   1      42.020  25.664  27.141  1.00  0.00     0.009 A 
ATOM     81  C   UNL A   1      43.355  27.591  26.558  1.00  0.00     0.009 A 
ATOM     82  C   UNL A   1      42.480  25.003  26.000  1.00  0.00     0.001 A 
ATOM     83  C   UNL A   1      43.784  26.944  25.398  1.00  0.00     0.001 A 
ATOM     84  C   UNL A   1      43.356  25.646  25.126  1.00  0.00     0.000 A 
ENDBRANCH  60  79
BRANCH  72  85
ATOM     85  C   UNL A   1      44.693  27.109  34.040  1.00  0.00    -0.014 A 
ATOM     86  C   UNL A   1      44.565  25.791  34.508  1.00  0.00     0.009 A 
ATOM     87  C   UNL A   1      45.917  27.774  34.210  1.00  0.00     0.009 A 
ATOM     88  C   UNL A   1      45.625  25.171  35.171  1.00  0.00     0.001 A 
ATOM     89  C   UNL A   1      46.988  27.138  34.839  1.00  0.00     0.001 A 
ATOM     90  C   UNL A   1      46.838  25.842  35.330  1.00  0.00     0.000 A 
ENDBRANCH  72  85
ENDBRANCH  46  47
ENDBRANCH  38  41
ENDBRANCH  36  37
ENDBRANCH  35  36
ENDBRANCH  34  35
ENDBRANCH  33  34
ENDBRANCH   1  33
TORSDOF 19
ENDMDL
