MODEL 1
REMARK VINA RESULT:     -10.2      0.000      0.000
REMARK SMILES C#CCN(CC(=O)NCCCCCCNC(=O)c1ccc(-c2c3nc(c(-c4ccccc4)c4ccc([nH]4)c(-c4ccccc4)c4nc(c(-c5ccccc5)c5ccc2[nH]5)C=C4)C=C3)cc1)C(=O)[C@H](c1ccc(Cl)cc1)C(C)C
REMARK SMILES IDX 10 1 9 2 8 3 6 4 7 5 5 7 4 8 3 9 2 10 1 11 66 12 67 13 68 14
REMARK SMILES IDX 76 15 77 16 78 17 69 18 70 19 75 20 71 21 74 22 72 23 73 24
REMARK SMILES IDX 11 25 12 26 13 27 14 28 15 29 16 30 17 32 18 33 19 34 65 35
REMARK SMILES IDX 20 36 64 37 21 38 22 39 23 40 58 41 24 42 63 43 57 44 59 45
REMARK SMILES IDX 25 46 62 47 56 48 55 49 26 51 48 52 33 53 47 54 34 55 37 56
REMARK SMILES IDX 46 57 60 58 35 59 36 60 45 62 61 63 38 64 27 65 28 66 32 67
REMARK SMILES IDX 29 68 31 69 30 70 49 71 50 72 54 73 51 74 53 75 52 76 39 77
REMARK SMILES IDX 40 78 44 79 41 80 43 81 42 82
REMARK H PARENT 8 6 15 31 59 50 37 61
REMARK Flexibility Score: inf
ROOT
ATOM      1  C   UNL A   1      33.619  28.395  25.457  1.00  0.00     0.021 C 
ENDROOT
BRANCH   1   2
ATOM      2  C   UNL A   1      32.635  27.765  24.477  1.00  0.00     0.116 C 
BRANCH   2   3
ATOM      3  N   UNL A   1      33.347  27.036  23.465  1.00  0.00    -0.355 N 
ATOM      4  C   UNL A   1      33.275  25.721  23.155  1.00  0.00     0.239 C 
ATOM      5  O   UNL A   1      34.070  25.313  22.309  1.00  0.00    -0.273 OA
ATOM      6  H   UNL A   1      33.974  27.567  22.921  1.00  0.00     0.163 HD
BRANCH   4   7
ATOM      7  C   UNL A   1      32.205  24.826  23.802  1.00  0.00     0.220 C 
BRANCH   7   8
ATOM      8  N   UNL A   1      32.496  24.302  25.145  1.00  0.00    -0.322 N 
BRANCH   8   9
ATOM      9  C   UNL A   1      31.571  24.677  26.219  1.00  0.00     0.209 C 
BRANCH   9  10
ATOM     10  C   UNL A   1      30.612  23.624  26.588  1.00  0.00    -0.085 C 
ATOM     11  C   UNL A   1      29.904  22.707  26.887  1.00  0.00     0.006 C 
ENDBRANCH   9  10
ENDBRANCH   8   9
BRANCH   8  12
ATOM     12  C   UNL A   1      33.512  23.397  25.472  1.00  0.00     0.231 C 
ATOM     13  O   UNL A   1      33.814  23.226  26.659  1.00  0.00    -0.274 OA
BRANCH  12  14
ATOM     14  C   UNL A   1      34.286  22.624  24.362  1.00  0.00     0.111 C 
BRANCH  14  15
ATOM     15  C   UNL A   1      35.839  22.840  24.484  1.00  0.00    -0.000 C 
ATOM     16  C   UNL A   1      36.523  22.830  23.109  1.00  0.00     0.008 C 
ATOM     17  C   UNL A   1      36.225  24.163  25.174  1.00  0.00     0.008 C 
ENDBRANCH  14  15
BRANCH  14  18
ATOM     18  C   UNL A   1      33.915  21.134  24.403  1.00  0.00    -0.035 A 
ATOM     19  C   UNL A   1      34.842  20.185  24.864  1.00  0.00     0.006 A 
ATOM     20  C   UNL A   1      32.686  20.666  23.914  1.00  0.00     0.006 A 
ATOM     21  C   UNL A   1      34.637  18.818  24.670  1.00  0.00     0.021 A 
ATOM     22  C   UNL A   1      32.442  19.293  23.799  1.00  0.00     0.021 A 
ATOM     23  C   UNL A   1      33.438  18.377  24.128  1.00  0.00     0.041 A 
ATOM     24  Cl  UNL A   1      33.195  16.698  23.850  1.00  0.00    -0.084 Cl
ENDBRANCH  14  18
ENDBRANCH  12  14
ENDBRANCH   8  12
ENDBRANCH   7   8
ENDBRANCH   4   7
ENDBRANCH   2   3
ENDBRANCH   1   2
BRANCH   1  25
ATOM     25  C   UNL A   1      32.946  29.355  26.448  1.00  0.00     0.002 C 
BRANCH  25  26
ATOM     26  C   UNL A   1      31.864  30.248  25.829  1.00  0.00     0.002 C 
BRANCH  26  27
ATOM     27  C   UNL A   1      31.562  31.515  26.628  1.00  0.00     0.021 C 
BRANCH  27  28
ATOM     28  C   UNL A   1      32.804  32.177  27.197  1.00  0.00     0.116 C 
BRANCH  28  29
ATOM     29  N   UNL A   1      32.539  33.554  27.569  1.00  0.00    -0.352 N 
ATOM     30  C   UNL A   1      33.182  34.319  28.506  1.00  0.00     0.251 C 
ATOM     31  H   UNL A   1      31.803  33.996  27.086  1.00  0.00     0.163 HD
ATOM     32  O   UNL A   1      32.682  35.363  28.911  1.00  0.00    -0.269 OA
BRANCH  30  33
ATOM     33  C   UNL A   1      34.479  33.855  29.035  1.00  0.00     0.039 A 
ATOM     34  C   UNL A   1      34.497  33.068  30.186  1.00  0.00     0.014 A 
ATOM     35  C   UNL A   1      35.668  34.181  28.375  1.00  0.00     0.014 A 
ATOM     36  C   UNL A   1      35.712  32.568  30.650  1.00  0.00     0.010 A 
ATOM     37  C   UNL A   1      36.863  33.600  28.783  1.00  0.00     0.010 A 
ATOM     38  C   UNL A   1      36.899  32.801  29.934  1.00  0.00    -0.014 A 
BRANCH  38  39
ATOM     39  C   UNL A   1      38.188  32.223  30.382  1.00  0.00     0.031 A 
ATOM     40  C   UNL A   1      38.661  30.909  29.822  1.00  0.00     0.074 A 
ATOM     41  C   UNL A   1      38.911  32.859  31.323  1.00  0.00     0.049 A 
ATOM     42  N   UNL A   1      39.744  30.234  30.109  1.00  0.00    -0.248 NA
ATOM     43  C   UNL A   1      37.794  30.257  28.826  1.00  0.00     0.031 C 
ATOM     44  C   UNL A   1      38.542  34.122  31.966  1.00  0.00     0.029 A 
ATOM     45  N   UNL A   1      40.110  32.529  31.902  1.00  0.00    -0.354 N 
ATOM     46  C   UNL A   1      39.682  29.078  29.341  1.00  0.00     0.074 A 
ATOM     47  C   UNL A   1      38.428  29.113  28.623  1.00  0.00     0.031 C 
ATOM     48  C   UNL A   1      39.514  34.481  32.819  1.00  0.00     0.029 A 
ATOM     49  C   UNL A   1      40.546  33.449  32.825  1.00  0.00     0.049 A 
ATOM     50  H   UNL A   1      40.611  31.712  31.677  1.00  0.00     0.167 HD
ATOM     51  C   UNL A   1      40.598  28.088  29.224  1.00  0.00     0.031 A 
ATOM     52  C   UNL A   1      41.649  33.456  33.597  1.00  0.00     0.031 A 
ATOM     53  C   UNL A   1      41.842  28.053  29.946  1.00  0.00     0.049 A 
ATOM     54  C   UNL A   1      42.625  32.318  33.485  1.00  0.00     0.074 A 
ATOM     55  C   UNL A   1      42.857  27.116  29.867  1.00  0.00     0.029 A 
ATOM     56  N   UNL A   1      42.236  28.992  30.887  1.00  0.00    -0.354 N 
ATOM     57  N   UNL A   1      42.587  31.268  32.701  1.00  0.00    -0.248 NA
ATOM     58  C   UNL A   1      43.804  32.372  34.361  1.00  0.00     0.031 C 
ATOM     59  C   UNL A   1      43.830  27.446  30.814  1.00  0.00     0.029 A 
ATOM     60  C   UNL A   1      43.462  28.635  31.423  1.00  0.00     0.049 A 
ATOM     61  H   UNL A   1      41.721  29.793  31.138  1.00  0.00     0.167 HD
ATOM     62  C   UNL A   1      43.751  30.556  32.963  1.00  0.00     0.074 A 
ATOM     63  C   UNL A   1      44.482  31.305  33.965  1.00  0.00     0.031 C 
ATOM     64  C   UNL A   1      44.177  29.389  32.422  1.00  0.00     0.031 A 
BRANCH  51  65
ATOM     65  C   UNL A   1      40.275  26.948  28.296  1.00  0.00    -0.014 A 
ATOM     66  C   UNL A   1      40.790  26.898  26.990  1.00  0.00     0.009 A 
ATOM     67  C   UNL A   1      39.471  25.889  28.746  1.00  0.00     0.009 A 
ATOM     68  C   UNL A   1      40.472  25.835  26.142  1.00  0.00     0.001 A 
ATOM     69  C   UNL A   1      39.185  24.808  27.910  1.00  0.00     0.001 A 
ATOM     70  C   UNL A   1      39.675  24.788  26.605  1.00  0.00     0.000 A 
ENDBRANCH  51  65
BRANCH  52  71
ATOM     71  C   UNL A   1      41.893  34.577  34.545  1.00  0.00    -0.014 A 
ATOM     72  C   UNL A   1      41.461  34.495  35.878  1.00  0.00     0.009 A 
ATOM     73  C   UNL A   1      42.546  35.745  34.116  1.00  0.00     0.009 A 
ATOM     74  C   UNL A   1      41.642  35.572  36.749  1.00  0.00     0.001 A 
ATOM     75  C   UNL A   1      42.759  36.804  34.999  1.00  0.00     0.001 A 
ATOM     76  C   UNL A   1      42.295  36.723  36.311  1.00  0.00     0.000 A 
ENDBRANCH  52  71
BRANCH  64  77
ATOM     77  C   UNL A   1      45.519  28.871  32.867  1.00  0.00    -0.014 A 
ATOM     78  C   UNL A   1      46.710  29.287  32.250  1.00  0.00     0.009 A 
ATOM     79  C   UNL A   1      45.592  27.982  33.951  1.00  0.00     0.009 A 
ATOM     80  C   UNL A   1      47.941  28.789  32.685  1.00  0.00     0.001 A 
ATOM     81  C   UNL A   1      46.825  27.518  34.409  1.00  0.00     0.001 A 
ATOM     82  C   UNL A   1      47.998  27.911  33.768  1.00  0.00     0.000 A 
ENDBRANCH  64  77
ENDBRANCH  38  39
ENDBRANCH  30  33
ENDBRANCH  28  29
ENDBRANCH  27  28
ENDBRANCH  26  27
ENDBRANCH  25  26
ENDBRANCH   1  25
TORSDOF 20
ENDMDL
MODEL 2
REMARK VINA RESULT:      -9.9      1.454      2.456
REMARK SMILES C#CCN(CC(=O)NCCCCCCNC(=O)c1ccc(-c2c3nc(c(-c4ccccc4)c4ccc([nH]4)c(-c4ccccc4)c4nc(c(-c5ccccc5)c5ccc2[nH]5)C=C4)C=C3)cc1)C(=O)[C@H](c1ccc(Cl)cc1)C(C)C
REMARK SMILES IDX 10 1 9 2 8 3 6 4 7 5 5 7 4 8 3 9 2 10 1 11 66 12 67 13 68 14
REMARK SMILES IDX 76 15 77 16 78 17 69 18 70 19 75 20 71 21 74 22 72 23 73 24
REMARK SMILES IDX 11 25 12 26 13 27 14 28 15 29 16 30 17 32 18 33 19 34 65 35
REMARK SMILES IDX 20 36 64 37 21 38 22 39 23 40 58 41 24 42 63 43 57 44 59 45
REMARK SMILES IDX 25 46 62 47 56 48 55 49 26 51 48 52 33 53 47 54 34 55 37 56
REMARK SMILES IDX 46 57 60 58 35 59 36 60 45 62 61 63 38 64 27 65 28 66 32 67
REMARK SMILES IDX 29 68 31 69 30 70 49 71 50 72 54 73 51 74 53 75 52 76 39 77
REMARK SMILES IDX 40 78 44 79 41 80 43 81 42 82
REMARK H PARENT 8 6 15 31 59 50 37 61
REMARK Flexibility Score: inf
ROOT
ATOM      1  C   UNL A   1      32.712  28.938  25.374  1.00  0.00     0.021 C 
ENDROOT
BRANCH   1   2
ATOM      2  C   UNL A   1      32.659  27.791  26.377  1.00  0.00     0.116 C 
BRANCH   2   3
ATOM      3  N   UNL A   1      31.333  27.245  26.432  1.00  0.00    -0.355 N 
ATOM      4  C   UNL A   1      30.939  25.955  26.323  1.00  0.00     0.239 C 
ATOM      5  O   UNL A   1      29.725  25.753  26.299  1.00  0.00    -0.273 OA
ATOM      6  H   UNL A   1      30.609  27.900  26.567  1.00  0.00     0.163 HD
BRANCH   4   7
ATOM      7  C   UNL A   1      31.979  24.824  26.297  1.00  0.00     0.220 C 
BRANCH   7   8
ATOM      8  N   UNL A   1      31.771  23.749  25.314  1.00  0.00    -0.322 N 
BRANCH   8   9
ATOM      9  C   UNL A   1      31.553  22.399  25.843  1.00  0.00     0.209 C 
BRANCH   9  10
ATOM     10  C   UNL A   1      32.746  21.539  25.822  1.00  0.00    -0.085 C 
ATOM     11  C   UNL A   1      33.672  20.780  25.862  1.00  0.00     0.006 C 
ENDBRANCH   9  10
ENDBRANCH   8   9
BRANCH   8  12
ATOM     12  C   UNL A   1      31.659  23.912  23.929  1.00  0.00     0.231 C 
ATOM     13  O   UNL A   1      30.653  23.491  23.347  1.00  0.00    -0.274 OA
BRANCH  12  14
ATOM     14  C   UNL A   1      32.796  24.591  23.106  1.00  0.00     0.111 C 
BRANCH  14  15
ATOM     15  C   UNL A   1      32.647  26.156  23.100  1.00  0.00    -0.000 C 
ATOM     16  C   UNL A   1      33.609  26.814  22.100  1.00  0.00     0.008 C 
ATOM     17  C   UNL A   1      31.226  26.640  22.749  1.00  0.00     0.008 C 
ENDBRANCH  14  15
BRANCH  14  18
ATOM     18  C   UNL A   1      34.167  24.153  23.642  1.00  0.00    -0.035 A 
ATOM     19  C   UNL A   1      34.870  23.107  23.021  1.00  0.00     0.006 A 
ATOM     20  C   UNL A   1      34.722  24.718  24.799  1.00  0.00     0.006 A 
ATOM     21  C   UNL A   1      35.977  22.515  23.630  1.00  0.00     0.021 A 
ATOM     22  C   UNL A   1      35.884  24.182  25.366  1.00  0.00     0.021 A 
ATOM     23  C   UNL A   1      36.475  23.052  24.809  1.00  0.00     0.041 A 
ATOM     24  Cl  UNL A   1      37.816  22.306  25.585  1.00  0.00    -0.084 Cl
ENDBRANCH  14  18
ENDBRANCH  12  14
ENDBRANCH   8  12
ENDBRANCH   7   8
ENDBRANCH   4   7
ENDBRANCH   2   3
ENDBRANCH   1   2
BRANCH   1  25
ATOM     25  C   UNL A   1      31.331  29.542  25.080  1.00  0.00     0.002 C 
BRANCH  25  26
ATOM     26  C   UNL A   1      31.198  31.025  25.450  1.00  0.00     0.002 C 
BRANCH  26  27
ATOM     27  C   UNL A   1      31.482  31.332  26.920  1.00  0.00     0.021 C 
BRANCH  27  28
ATOM     28  C   UNL A   1      32.775  32.099  27.134  1.00  0.00     0.116 C 
BRANCH  28  29
ATOM     29  N   UNL A   1      32.512  33.488  27.461  1.00  0.00    -0.352 N 
ATOM     30  C   UNL A   1      33.140  34.276  28.388  1.00  0.00     0.251 C 
ATOM     31  H   UNL A   1      31.789  33.920  26.950  1.00  0.00     0.163 HD
ATOM     32  O   UNL A   1      32.639  35.334  28.752  1.00  0.00    -0.269 OA
BRANCH  30  33
ATOM     33  C   UNL A   1      34.423  33.819  28.958  1.00  0.00     0.039 A 
ATOM     34  C   UNL A   1      34.411  33.059  30.127  1.00  0.00     0.014 A 
ATOM     35  C   UNL A   1      35.629  34.125  28.319  1.00  0.00     0.014 A 
ATOM     36  C   UNL A   1      35.613  32.565  30.631  1.00  0.00     0.010 A 
ATOM     37  C   UNL A   1      36.811  33.549  28.768  1.00  0.00     0.010 A 
ATOM     38  C   UNL A   1      36.816  32.777  29.938  1.00  0.00    -0.014 A 
BRANCH  38  39
ATOM     39  C   UNL A   1      38.093  32.204  30.428  1.00  0.00     0.031 A 
ATOM     40  C   UNL A   1      38.610  30.913  29.856  1.00  0.00     0.074 A 
ATOM     41  C   UNL A   1      38.762  32.824  31.419  1.00  0.00     0.049 A 
ATOM     42  N   UNL A   1      39.689  30.245  30.174  1.00  0.00    -0.248 NA
ATOM     43  C   UNL A   1      37.799  30.277  28.804  1.00  0.00     0.031 C 
ATOM     44  C   UNL A   1      38.345  34.064  32.079  1.00  0.00     0.029 A 
ATOM     45  N   UNL A   1      39.938  32.495  32.044  1.00  0.00    -0.354 N 
ATOM     46  C   UNL A   1      39.680  29.111  29.373  1.00  0.00     0.074 A 
ATOM     47  C   UNL A   1      38.459  29.148  28.599  1.00  0.00     0.031 C 
ATOM     48  C   UNL A   1      39.272  34.411  32.985  1.00  0.00     0.029 A 
ATOM     49  C   UNL A   1      40.317  33.394  33.010  1.00  0.00     0.049 A 
ATOM     50  H   UNL A   1      40.461  31.691  31.820  1.00  0.00     0.167 HD
ATOM     51  C   UNL A   1      40.615  28.137  29.272  1.00  0.00     0.031 A 
ATOM     52  C   UNL A   1      41.384  33.395  33.832  1.00  0.00     0.031 A 
ATOM     53  C   UNL A   1      41.825  28.099  30.048  1.00  0.00     0.049 A 
ATOM     54  C   UNL A   1      42.381  32.274  33.735  1.00  0.00     0.074 A 
ATOM     55  C   UNL A   1      42.857  27.179  29.991  1.00  0.00     0.029 A 
ATOM     56  N   UNL A   1      42.161  29.017  31.032  1.00  0.00    -0.354 N 
ATOM     57  N   UNL A   1      42.395  31.246  32.922  1.00  0.00    -0.248 NA
ATOM     58  C   UNL A   1      43.518  32.320  34.665  1.00  0.00     0.031 C 
ATOM     59  C   UNL A   1      43.780  27.495  30.991  1.00  0.00     0.029 A 
ATOM     60  C   UNL A   1      43.367  28.662  31.614  1.00  0.00     0.049 A 
ATOM     61  H   UNL A   1      41.623  29.803  31.281  1.00  0.00     0.167 HD
ATOM     62  C   UNL A   1      43.556  30.543  33.217  1.00  0.00     0.074 A 
ATOM     63  C   UNL A   1      44.229  31.274  34.272  1.00  0.00     0.031 C 
ATOM     64  C   UNL A   1      44.024  29.397  32.665  1.00  0.00     0.031 A 
BRANCH  51  65
ATOM     65  C   UNL A   1      40.351  27.019  28.299  1.00  0.00    -0.014 A 
ATOM     66  C   UNL A   1      40.865  27.049  26.991  1.00  0.00     0.009 A 
ATOM     67  C   UNL A   1      39.608  25.900  28.707  1.00  0.00     0.009 A 
ATOM     68  C   UNL A   1      40.603  26.004  26.102  1.00  0.00     0.001 A 
ATOM     69  C   UNL A   1      39.379  24.840  27.829  1.00  0.00     0.001 A 
ATOM     70  C   UNL A   1      39.866  24.898  26.523  1.00  0.00     0.000 A 
ENDBRANCH  51  65
BRANCH  52  71
ATOM     71  C   UNL A   1      41.567  34.493  34.820  1.00  0.00    -0.014 A 
ATOM     72  C   UNL A   1      42.149  35.712  34.437  1.00  0.00     0.009 A 
ATOM     73  C   UNL A   1      41.176  34.321  36.158  1.00  0.00     0.009 A 
ATOM     74  C   UNL A   1      42.369  36.719  35.379  1.00  0.00     0.001 A 
ATOM     75  C   UNL A   1      41.363  35.344  37.089  1.00  0.00     0.001 A 
ATOM     76  C   UNL A   1      41.972  36.537  36.703  1.00  0.00     0.000 A 
ENDBRANCH  52  71
BRANCH  64  77
ATOM     77  C   UNL A   1      45.352  28.886  33.157  1.00  0.00    -0.014 A 
ATOM     78  C   UNL A   1      45.447  28.027  34.263  1.00  0.00     0.009 A 
ATOM     79  C   UNL A   1      46.525  29.239  32.470  1.00  0.00     0.009 A 
ATOM     80  C   UNL A   1      46.693  27.569  34.696  1.00  0.00     0.001 A 
ATOM     81  C   UNL A   1      47.765  28.748  32.880  1.00  0.00     0.001 A 
ATOM     82  C   UNL A   1      47.849  27.923  34.001  1.00  0.00     0.000 A 
ENDBRANCH  64  77
ENDBRANCH  38  39
ENDBRANCH  30  33
ENDBRANCH  28  29
ENDBRANCH  27  28
ENDBRANCH  26  27
ENDBRANCH  25  26
ENDBRANCH   1  25
TORSDOF 20
ENDMDL
MODEL 3
REMARK VINA RESULT:      -9.7      3.162      8.718
REMARK SMILES C#CCN(CC(=O)NCCCCCCNC(=O)c1ccc(-c2c3nc(c(-c4ccccc4)c4ccc([nH]4)c(-c4ccccc4)c4nc(c(-c5ccccc5)c5ccc2[nH]5)C=C4)C=C3)cc1)C(=O)[C@H](c1ccc(Cl)cc1)C(C)C
REMARK SMILES IDX 10 1 9 2 8 3 6 4 7 5 5 7 4 8 3 9 2 10 1 11 66 12 67 13 68 14
REMARK SMILES IDX 76 15 77 16 78 17 69 18 70 19 75 20 71 21 74 22 72 23 73 24
REMARK SMILES IDX 11 25 12 26 13 27 14 28 15 29 16 30 17 32 18 33 19 34 65 35
REMARK SMILES IDX 20 36 64 37 21 38 22 39 23 40 58 41 24 42 63 43 57 44 59 45
REMARK SMILES IDX 25 46 62 47 56 48 55 49 26 51 48 52 33 53 47 54 34 55 37 56
REMARK SMILES IDX 46 57 60 58 35 59 36 60 45 62 61 63 38 64 27 65 28 66 32 67
REMARK SMILES IDX 29 68 31 69 30 70 49 71 50 72 54 73 51 74 53 75 52 76 39 77
REMARK SMILES IDX 40 78 44 79 41 80 43 81 42 82
REMARK H PARENT 8 6 15 31 59 50 37 61
REMARK Flexibility Score: inf
ROOT
ATOM      1  C   UNL A   1      38.484  24.113  27.074  1.00  0.00     0.021 C 
ENDROOT
BRANCH   1   2
ATOM      2  C   UNL A   1      37.603  23.796  25.871  1.00  0.00     0.116 C 
BRANCH   2   3
ATOM      3  N   UNL A   1      36.913  22.554  26.079  1.00  0.00    -0.355 N 
ATOM      4  C   UNL A   1      35.849  22.050  25.410  1.00  0.00     0.239 C 
ATOM      5  O   UNL A   1      35.372  21.005  25.850  1.00  0.00    -0.273 OA
ATOM      6  H   UNL A   1      37.261  21.992  26.809  1.00  0.00     0.163 HD
BRANCH   4   7
ATOM      7  C   UNL A   1      35.332  22.740  24.138  1.00  0.00     0.220 C 
BRANCH   7   8
ATOM      8  N   UNL A   1      34.000  23.359  24.209  1.00  0.00    -0.322 N 
BRANCH   8   9
ATOM      9  C   UNL A   1      32.949  22.774  23.370  1.00  0.00     0.209 C 
BRANCH   9  10
ATOM     10  C   UNL A   1      32.662  21.360  23.656  1.00  0.00    -0.085 C 
ATOM     11  C   UNL A   1      32.407  20.235  23.977  1.00  0.00     0.006 C 
ENDBRANCH   9  10
ENDBRANCH   8   9
BRANCH   8  12
ATOM     12  C   UNL A   1      33.616  24.386  25.078  1.00  0.00     0.231 C 
ATOM     13  O   UNL A   1      34.481  25.113  25.580  1.00  0.00    -0.274 OA
BRANCH  12  14
ATOM     14  C   UNL A   1      32.117  24.610  25.444  1.00  0.00     0.111 C 
BRANCH  14  15
ATOM     15  C   UNL A   1      31.714  23.810  26.736  1.00  0.00    -0.000 C 
ATOM     16  C   UNL A   1      30.538  22.858  26.470  1.00  0.00     0.008 C 
ATOM     17  C   UNL A   1      32.860  22.962  27.320  1.00  0.00     0.008 C 
ENDBRANCH  14  15
BRANCH  14  18
ATOM     18  C   UNL A   1      31.830  26.111  25.593  1.00  0.00    -0.035 A 
ATOM     19  C   UNL A   1      31.732  26.930  24.456  1.00  0.00     0.006 A 
ATOM     20  C   UNL A   1      31.738  26.723  26.851  1.00  0.00     0.006 A 
ATOM     21  C   UNL A   1      31.736  28.322  24.563  1.00  0.00     0.021 A 
ATOM     22  C   UNL A   1      31.653  28.116  26.961  1.00  0.00     0.021 A 
ATOM     23  C   UNL A   1      31.705  28.910  25.819  1.00  0.00     0.041 A 
ATOM     24  Cl  UNL A   1      31.748  30.623  25.958  1.00  0.00    -0.084 Cl
ENDBRANCH  14  18
ENDBRANCH  12  14
ENDBRANCH   8  12
ENDBRANCH   7   8
ENDBRANCH   4   7
ENDBRANCH   2   3
ENDBRANCH   1   2
BRANCH   1  25
ATOM     25  C   UNL A   1      39.972  23.832  26.819  1.00  0.00     0.002 C 
BRANCH  25  26
ATOM     26  C   UNL A   1      40.375  22.362  26.988  1.00  0.00     0.002 C 
BRANCH  26  27
ATOM     27  C   UNL A   1      41.325  21.844  25.909  1.00  0.00     0.021 C 
BRANCH  27  28
ATOM     28  C   UNL A   1      42.754  21.678  26.395  1.00  0.00     0.116 C 
BRANCH  28  29
ATOM     29  N   UNL A   1      43.693  22.295  25.478  1.00  0.00    -0.352 N 
ATOM     30  C   UNL A   1      44.018  23.621  25.358  1.00  0.00     0.251 C 
ATOM     31  H   UNL A   1      44.159  21.683  24.862  1.00  0.00     0.163 HD
ATOM     32  O   UNL A   1      44.610  24.033  24.368  1.00  0.00    -0.269 OA
BRANCH  30  33
ATOM     33  C   UNL A   1      43.622  24.550  26.435  1.00  0.00     0.039 A 
ATOM     34  C   UNL A   1      43.299  25.866  26.107  1.00  0.00     0.014 A 
ATOM     35  C   UNL A   1      43.548  24.106  27.759  1.00  0.00     0.014 A 
ATOM     36  C   UNL A   1      42.856  26.728  27.109  1.00  0.00     0.010 A 
ATOM     37  C   UNL A   1      43.014  24.937  28.735  1.00  0.00     0.010 A 
ATOM     38  C   UNL A   1      42.678  26.262  28.423  1.00  0.00    -0.014 A 
BRANCH  38  39
ATOM     39  C   UNL A   1      42.148  27.151  29.484  1.00  0.00     0.031 A 
ATOM     40  C   UNL A   1      42.851  27.244  30.811  1.00  0.00     0.074 A 
ATOM     41  C   UNL A   1      41.011  27.840  29.268  1.00  0.00     0.049 A 
ATOM     42  N   UNL A   1      42.525  27.943  31.868  1.00  0.00    -0.248 NA
ATOM     43  C   UNL A   1      44.065  26.428  30.982  1.00  0.00     0.031 C 
ATOM     44  C   UNL A   1      40.220  27.807  28.036  1.00  0.00     0.029 A 
ATOM     45  N   UNL A   1      40.323  28.704  30.081  1.00  0.00    -0.354 N 
ATOM     46  C   UNL A   1      43.484  27.644  32.827  1.00  0.00     0.074 A 
ATOM     47  C   UNL A   1      44.366  26.655  32.251  1.00  0.00     0.031 C 
ATOM     48  C   UNL A   1      39.181  28.646  28.160  1.00  0.00     0.029 A 
ATOM     49  C   UNL A   1      39.199  29.232  29.495  1.00  0.00     0.049 A 
ATOM     50  H   UNL A   1      40.609  28.926  30.997  1.00  0.00     0.167 HD
ATOM     51  C   UNL A   1      43.631  28.164  34.069  1.00  0.00     0.031 A 
ATOM     52  C   UNL A   1      38.279  30.087  29.983  1.00  0.00     0.031 A 
ATOM     53  C   UNL A   1      42.747  29.143  34.642  1.00  0.00     0.049 A 
ATOM     54  C   UNL A   1      38.439  30.610  31.383  1.00  0.00     0.074 A 
ATOM     55  C   UNL A   1      42.834  29.765  35.875  1.00  0.00     0.029 A 
ATOM     56  N   UNL A   1      41.607  29.636  34.024  1.00  0.00    -0.354 N 
ATOM     57  N   UNL A   1      39.391  30.372  32.253  1.00  0.00    -0.248 NA
ATOM     58  C   UNL A   1      37.398  31.529  31.866  1.00  0.00     0.031 C 
ATOM     59  C   UNL A   1      41.707  30.575  36.035  1.00  0.00     0.029 A 
ATOM     60  C   UNL A   1      40.962  30.525  34.867  1.00  0.00     0.049 A 
ATOM     61  H   UNL A   1      41.301  29.389  33.121  1.00  0.00     0.167 HD
ATOM     62  C   UNL A   1      39.084  31.138  33.370  1.00  0.00     0.074 A 
ATOM     63  C   UNL A   1      37.868  31.861  33.060  1.00  0.00     0.031 C 
ATOM     64  C   UNL A   1      39.750  31.236  34.547  1.00  0.00     0.031 A 
BRANCH  51  65
ATOM     65  C   UNL A   1      44.783  27.664  34.899  1.00  0.00    -0.014 A 
ATOM     66  C   UNL A   1      46.095  28.117  34.681  1.00  0.00     0.009 A 
ATOM     67  C   UNL A   1      44.548  26.752  35.940  1.00  0.00     0.009 A 
ATOM     68  C   UNL A   1      47.150  27.635  35.458  1.00  0.00     0.001 A 
ATOM     69  C   UNL A   1      45.598  26.300  36.740  1.00  0.00     0.001 A 
ATOM     70  C   UNL A   1      46.900  26.732  36.491  1.00  0.00     0.000 A 
ENDBRANCH  51  65
BRANCH  52  71
ATOM     71  C   UNL A   1      37.124  30.504  29.142  1.00  0.00    -0.014 A 
ATOM     72  C   UNL A   1      36.995  31.833  28.710  1.00  0.00     0.009 A 
ATOM     73  C   UNL A   1      36.135  29.576  28.779  1.00  0.00     0.009 A 
ATOM     74  C   UNL A   1      35.881  32.232  27.968  1.00  0.00     0.001 A 
ATOM     75  C   UNL A   1      35.042  29.970  28.005  1.00  0.00     0.001 A 
ATOM     76  C   UNL A   1      34.908  31.300  27.611  1.00  0.00     0.000 A 
ENDBRANCH  52  71
BRANCH  64  77
ATOM     77  C   UNL A   1      39.205  32.194  35.572  1.00  0.00    -0.014 A 
ATOM     78  C   UNL A   1      39.599  33.541  35.604  1.00  0.00     0.009 A 
ATOM     79  C   UNL A   1      38.246  31.746  36.495  1.00  0.00     0.009 A 
ATOM     80  C   UNL A   1      39.075  34.407  36.566  1.00  0.00     0.001 A 
ATOM     81  C   UNL A   1      37.695  32.622  37.430  1.00  0.00     0.001 A 
ATOM     82  C   UNL A   1      38.119  33.949  37.473  1.00  0.00     0.000 A 
ENDBRANCH  64  77
ENDBRANCH  38  39
ENDBRANCH  30  33
ENDBRANCH  28  29
ENDBRANCH  27  28
ENDBRANCH  26  27
ENDBRANCH  25  26
ENDBRANCH   1  25
TORSDOF 20
ENDMDL
