MODEL 1
REMARK VINA RESULT:     -11.7      0.000      0.000
REMARK SMILES Cc1cc(Cl)cc2c1O[C@H](C(F)(F)F)C(C(=O)NCCCCCCNC(=O)c1ccc(-c3c4nc(c(-c5ccccc5)c5ccc([nH]5)c(-c5ccccc5)c5nc(c(-c6ccccc6)c6ccc3[nH]6)C=C5)C=C4)cc1)=C2
REMARK SMILES IDX 22 1 21 2 20 3 19 4 18 5 16 6 17 7 15 9 1 10 2 11 3 12 8 13
REMARK SMILES IDX 4 14 7 15 9 16 5 17 6 18 76 19 10 20 11 21 12 22 13 23 14 24
REMARK SMILES IDX 23 25 24 26 25 27 26 28 27 30 28 31 29 32 75 33 30 34 74 35
REMARK SMILES IDX 31 36 32 37 33 38 68 39 34 40 73 41 67 42 69 43 35 44 72 45
REMARK SMILES IDX 66 46 65 47 36 49 58 50 43 51 57 52 44 53 47 54 56 55 70 56
REMARK SMILES IDX 45 57 46 58 55 60 71 61 48 62 37 63 38 64 42 65 39 66 41 67
REMARK SMILES IDX 40 68 59 69 60 70 64 71 61 72 63 73 62 74 49 75 50 76 54 77
REMARK SMILES IDX 51 78 53 79 52 80
REMARK H PARENT 18 8 25 29 69 48 47 59
REMARK Flexibility Score: inf
ROOT
ATOM      1  C   UNL A   1      31.419  27.371  26.450  1.00  0.00     0.002 C 
ENDROOT
BRANCH   1   2
ATOM      2  C   UNL A   1      31.585  28.117  25.118  1.00  0.00     0.002 C 
BRANCH   2   3
ATOM      3  C   UNL A   1      30.629  27.682  24.004  1.00  0.00     0.021 C 
BRANCH   3   4
ATOM      4  C   UNL A   1      30.818  26.233  23.566  1.00  0.00     0.116 C 
BRANCH   4   5
ATOM      5  N   UNL A   1      31.674  26.129  22.398  1.00  0.00    -0.352 N 
ATOM      6  C   UNL A   1      32.695  25.343  21.981  1.00  0.00     0.251 C 
ATOM      7  O   UNL A   1      33.124  25.597  20.851  1.00  0.00    -0.270 OA
ATOM      8  H   UNL A   1      31.453  26.815  21.728  1.00  0.00     0.163 HD
BRANCH   6   9
ATOM      9  C   UNL A   1      33.311  24.236  22.772  1.00  0.00     0.067 C 
ATOM     10  C   UNL A   1      36.428  21.022  25.335  1.00  0.00     0.048 C 
ATOM     11  C   UNL A   1      35.044  20.949  24.754  1.00  0.00    -0.007 A 
ATOM     12  C   UNL A   1      34.315  19.757  24.856  1.00  0.00     0.027 A 
ATOM     13  C   UNL A   1      34.476  22.026  24.060  1.00  0.00     0.131 A 
ATOM     14  C   UNL A   1      33.045  19.659  24.289  1.00  0.00     0.042 A 
ATOM     15  C   UNL A   1      33.204  21.928  23.483  1.00  0.00     0.019 A 
ATOM     16  O   UNL A   1      35.240  23.150  23.926  1.00  0.00    -0.475 OA
ATOM     17  Cl  UNL A   1      32.166  18.186  24.423  1.00  0.00    -0.084 Cl
ATOM     18  C   UNL A   1      32.486  20.736  23.602  1.00  0.00     0.032 A 
ATOM     19  C   UNL A   1      32.670  23.055  22.725  1.00  0.00     0.025 C 
ATOM     20  C   UNL A   1      34.549  24.383  23.607  1.00  0.00     0.314 C 
BRANCH  20  21
ATOM     21  C   UNL A   1      34.302  25.178  24.902  1.00  0.00     0.429 C 
ATOM     22  F   UNL A   1      35.306  24.961  25.789  1.00  0.00    -0.167 F 
ATOM     23  F   UNL A   1      34.262  26.515  24.695  1.00  0.00    -0.167 F 
ATOM     24  F   UNL A   1      33.144  24.839  25.510  1.00  0.00    -0.167 F 
ENDBRANCH  20  21
ENDBRANCH   6   9
ENDBRANCH   4   5
ENDBRANCH   3   4
ENDBRANCH   2   3
ENDBRANCH   1   2
BRANCH   1  25
ATOM     25  C   UNL A   1      32.255  27.911  27.614  1.00  0.00     0.021 C 
BRANCH  25  26
ATOM     26  C   UNL A   1      33.545  28.609  27.199  1.00  0.00     0.116 C 
BRANCH  26  27
ATOM     27  N   UNL A   1      33.515  30.029  27.509  1.00  0.00    -0.352 N 
ATOM     28  C   UNL A   1      34.450  30.798  28.146  1.00  0.00     0.251 C 
ATOM     29  H   UNL A   1      32.704  30.506  27.219  1.00  0.00     0.163 HD
ATOM     30  O   UNL A   1      34.164  31.939  28.517  1.00  0.00    -0.269 OA
BRANCH  28  31
ATOM     31  C   UNL A   1      35.801  30.263  28.397  1.00  0.00     0.039 A 
ATOM     32  C   UNL A   1      36.745  30.296  27.367  1.00  0.00     0.014 A 
ATOM     33  C   UNL A   1      36.126  29.701  29.635  1.00  0.00     0.014 A 
ATOM     34  C   UNL A   1      38.031  29.805  27.592  1.00  0.00     0.010 A 
ATOM     35  C   UNL A   1      37.426  29.265  29.877  1.00  0.00     0.010 A 
ATOM     36  C   UNL A   1      38.387  29.307  28.856  1.00  0.00    -0.014 A 
BRANCH  36  37
ATOM     37  C   UNL A   1      39.755  28.809  29.132  1.00  0.00     0.031 A 
ATOM     38  C   UNL A   1      40.767  29.718  29.770  1.00  0.00     0.074 A 
ATOM     39  C   UNL A   1      40.100  27.565  28.752  1.00  0.00     0.049 A 
ATOM     40  N   UNL A   1      42.037  29.504  29.999  1.00  0.00    -0.248 NA
ATOM     41  C   UNL A   1      40.294  31.047  30.190  1.00  0.00     0.031 C 
ATOM     42  C   UNL A   1      39.208  26.593  28.117  1.00  0.00     0.029 A 
ATOM     43  N   UNL A   1      41.301  26.908  28.840  1.00  0.00    -0.354 N 
ATOM     44  C   UNL A   1      42.516  30.672  30.577  1.00  0.00     0.074 A 
ATOM     45  C   UNL A   1      41.414  31.607  30.625  1.00  0.00     0.031 C 
ATOM     46  C   UNL A   1      39.887  25.457  27.891  1.00  0.00     0.029 A 
ATOM     47  C   UNL A   1      41.271  25.636  28.323  1.00  0.00     0.049 A 
ATOM     48  H   UNL A   1      42.108  27.309  29.237  1.00  0.00     0.167 HD
ATOM     49  C   UNL A   1      43.761  30.936  31.040  1.00  0.00     0.031 A 
ATOM     50  C   UNL A   1      42.250  24.721  28.198  1.00  0.00     0.031 A 
ATOM     51  C   UNL A   1      44.855  30.004  30.996  1.00  0.00     0.049 A 
ATOM     52  C   UNL A   1      43.632  25.053  28.685  1.00  0.00     0.074 A 
ATOM     53  C   UNL A   1      46.146  30.169  31.466  1.00  0.00     0.029 A 
ATOM     54  N   UNL A   1      44.785  28.731  30.453  1.00  0.00    -0.354 N 
ATOM     55  N   UNL A   1      44.065  26.154  29.251  1.00  0.00    -0.248 NA
ATOM     56  C   UNL A   1      44.659  24.015  28.522  1.00  0.00     0.031 C 
ATOM     57  C   UNL A   1      46.871  29.014  31.164  1.00  0.00     0.029 A 
ATOM     58  C   UNL A   1      46.016  28.105  30.560  1.00  0.00     0.049 A 
ATOM     59  H   UNL A   1      43.980  28.330  30.052  1.00  0.00     0.167 HD
ATOM     60  C   UNL A   1      45.405  25.932  29.535  1.00  0.00     0.074 A 
ATOM     61  C   UNL A   1      45.710  24.587  29.093  1.00  0.00     0.031 C 
ATOM     62  C   UNL A   1      46.303  26.768  30.111  1.00  0.00     0.031 A 
BRANCH  49  63
ATOM     63  C   UNL A   1      44.010  32.294  31.637  1.00  0.00    -0.014 A 
ATOM     64  C   UNL A   1      44.419  33.372  30.837  1.00  0.00     0.009 A 
ATOM     65  C   UNL A   1      43.773  32.513  33.002  1.00  0.00     0.009 A 
ATOM     66  C   UNL A   1      44.606  34.637  31.396  1.00  0.00     0.001 A 
ATOM     67  C   UNL A   1      43.936  33.784  33.554  1.00  0.00     0.001 A 
ATOM     68  C   UNL A   1      44.358  34.844  32.752  1.00  0.00     0.000 A 
ENDBRANCH  49  63
BRANCH  50  69
ATOM     69  C   UNL A   1      41.952  23.394  27.599  1.00  0.00    -0.014 A 
ATOM     70  C   UNL A   1      42.251  23.141  26.251  1.00  0.00     0.009 A 
ATOM     71  C   UNL A   1      41.383  22.369  28.371  1.00  0.00     0.009 A 
ATOM     72  C   UNL A   1      41.969  21.897  25.685  1.00  0.00     0.001 A 
ATOM     73  C   UNL A   1      41.128  21.116  27.810  1.00  0.00     0.001 A 
ATOM     74  C   UNL A   1      41.414  20.883  26.465  1.00  0.00     0.000 A 
ENDBRANCH  50  69
BRANCH  62  75
ATOM     75  C   UNL A   1      47.695  26.243  30.327  1.00  0.00    -0.014 A 
ATOM     76  C   UNL A   1      48.652  26.275  29.302  1.00  0.00     0.009 A 
ATOM     77  C   UNL A   1      48.067  25.763  31.592  1.00  0.00     0.009 A 
ATOM     78  C   UNL A   1      49.947  25.806  29.532  1.00  0.00     0.001 A 
ATOM     79  C   UNL A   1      49.370  25.323  31.828  1.00  0.00     0.001 A 
ATOM     80  C   UNL A   1      50.306  25.337  30.795  1.00  0.00     0.000 A 
ENDBRANCH  62  75
ENDBRANCH  36  37
ENDBRANCH  28  31
ENDBRANCH  26  27
ENDBRANCH  25  26
ENDBRANCH   1  25
TORSDOF 14
ENDMDL
MODEL 2
REMARK VINA RESULT:     -11.5      1.621      2.040
REMARK SMILES Cc1cc(Cl)cc2c1O[C@H](C(F)(F)F)C(C(=O)NCCCCCCNC(=O)c1ccc(-c3c4nc(c(-c5ccccc5)c5ccc([nH]5)c(-c5ccccc5)c5nc(c(-c6ccccc6)c6ccc3[nH]6)C=C5)C=C4)cc1)=C2
REMARK SMILES IDX 22 1 21 2 20 3 19 4 18 5 16 6 17 7 15 9 1 10 2 11 3 12 8 13
REMARK SMILES IDX 4 14 7 15 9 16 5 17 6 18 76 19 10 20 11 21 12 22 13 23 14 24
REMARK SMILES IDX 23 25 24 26 25 27 26 28 27 30 28 31 29 32 75 33 30 34 74 35
REMARK SMILES IDX 31 36 32 37 33 38 68 39 34 40 73 41 67 42 69 43 35 44 72 45
REMARK SMILES IDX 66 46 65 47 36 49 58 50 43 51 57 52 44 53 47 54 56 55 70 56
REMARK SMILES IDX 45 57 46 58 55 60 71 61 48 62 37 63 38 64 42 65 39 66 41 67
REMARK SMILES IDX 40 68 59 69 60 70 64 71 61 72 63 73 62 74 49 75 50 76 54 77
REMARK SMILES IDX 51 78 53 79 52 80
REMARK H PARENT 18 8 25 29 69 48 47 59
REMARK Flexibility Score: inf
ROOT
ATOM      1  C   UNL A   1      33.720  28.574  24.671  1.00  0.00     0.002 C 
ENDROOT
BRANCH   1   2
ATOM      2  C   UNL A   1      32.747  28.956  23.547  1.00  0.00     0.002 C 
BRANCH   2   3
ATOM      3  C   UNL A   1      31.279  28.614  23.812  1.00  0.00     0.021 C 
BRANCH   3   4
ATOM      4  C   UNL A   1      30.728  27.527  22.895  1.00  0.00     0.116 C 
BRANCH   4   5
ATOM      5  N   UNL A   1      31.737  27.032  21.975  1.00  0.00    -0.352 N 
ATOM      6  C   UNL A   1      32.706  26.088  21.978  1.00  0.00     0.251 C 
ATOM      7  O   UNL A   1      33.334  25.978  20.920  1.00  0.00    -0.270 OA
ATOM      8  H   UNL A   1      31.709  27.515  21.118  1.00  0.00     0.163 HD
BRANCH   6   9
ATOM      9  C   UNL A   1      33.052  25.208  23.134  1.00  0.00     0.067 C 
ATOM     10  C   UNL A   1      33.332  22.700  27.634  1.00  0.00     0.048 C 
ATOM     11  C   UNL A   1      34.246  22.916  26.460  1.00  0.00    -0.007 A 
ATOM     12  C   UNL A   1      35.532  22.361  26.475  1.00  0.00     0.027 A 
ATOM     13  C   UNL A   1      33.870  23.710  25.367  1.00  0.00     0.131 A 
ATOM     14  C   UNL A   1      36.407  22.585  25.413  1.00  0.00     0.042 A 
ATOM     15  C   UNL A   1      34.748  23.942  24.303  1.00  0.00     0.019 A 
ATOM     16  O   UNL A   1      32.633  24.285  25.416  1.00  0.00    -0.475 OA
ATOM     17  Cl  UNL A   1      37.983  21.896  25.450  1.00  0.00    -0.084 Cl
ATOM     18  C   UNL A   1      36.023  23.372  24.327  1.00  0.00     0.032 A 
ATOM     19  C   UNL A   1      34.337  24.815  23.208  1.00  0.00     0.025 C 
ATOM     20  C   UNL A   1      32.065  24.736  24.160  1.00  0.00     0.314 C 
BRANCH  20  21
ATOM     21  C   UNL A   1      31.111  23.657  23.618  1.00  0.00     0.429 C 
ATOM     22  F   UNL A   1      30.693  22.845  24.622  1.00  0.00    -0.167 F 
ATOM     23  F   UNL A   1      29.992  24.180  23.064  1.00  0.00    -0.167 F 
ATOM     24  F   UNL A   1      31.687  22.875  22.678  1.00  0.00    -0.167 F 
ENDBRANCH  20  21
ENDBRANCH   6   9
ENDBRANCH   4   5
ENDBRANCH   3   4
ENDBRANCH   2   3
ENDBRANCH   1   2
BRANCH   1  25
ATOM     25  C   UNL A   1      33.090  27.854  25.869  1.00  0.00     0.021 C 
BRANCH  25  26
ATOM     26  C   UNL A   1      33.666  28.252  27.223  1.00  0.00     0.116 C 
BRANCH  26  27
ATOM     27  N   UNL A   1      33.549  29.681  27.460  1.00  0.00    -0.352 N 
ATOM     28  C   UNL A   1      34.440  30.538  28.047  1.00  0.00     0.251 C 
ATOM     29  H   UNL A   1      32.709  30.093  27.154  1.00  0.00     0.163 HD
ATOM     30  O   UNL A   1      34.087  31.677  28.362  1.00  0.00    -0.269 OA
BRANCH  28  31
ATOM     31  C   UNL A   1      35.823  30.101  28.313  1.00  0.00     0.039 A 
ATOM     32  C   UNL A   1      36.148  29.618  29.583  1.00  0.00     0.014 A 
ATOM     33  C   UNL A   1      36.804  30.197  27.321  1.00  0.00     0.014 A 
ATOM     34  C   UNL A   1      37.450  29.188  29.846  1.00  0.00     0.010 A 
ATOM     35  C   UNL A   1      38.086  29.715  27.567  1.00  0.00     0.010 A 
ATOM     36  C   UNL A   1      38.421  29.213  28.833  1.00  0.00    -0.014 A 
BRANCH  36  37
ATOM     37  C   UNL A   1      39.802  28.734  29.077  1.00  0.00     0.031 A 
ATOM     38  C   UNL A   1      40.823  29.663  29.671  1.00  0.00     0.074 A 
ATOM     39  C   UNL A   1      40.149  27.487  28.707  1.00  0.00     0.049 A 
ATOM     40  N   UNL A   1      42.101  29.466  29.866  1.00  0.00    -0.248 NA
ATOM     41  C   UNL A   1      40.348  30.994  30.083  1.00  0.00     0.031 C 
ATOM     42  C   UNL A   1      39.250  26.497  28.114  1.00  0.00     0.029 A 
ATOM     43  N   UNL A   1      41.360  26.845  28.771  1.00  0.00    -0.354 N 
ATOM     44  C   UNL A   1      42.584  30.649  30.411  1.00  0.00     0.074 A 
ATOM     45  C   UNL A   1      41.474  31.573  30.477  1.00  0.00     0.031 C 
ATOM     46  C   UNL A   1      39.934  25.364  27.886  1.00  0.00     0.029 A 
ATOM     47  C   UNL A   1      41.328  25.564  28.275  1.00  0.00     0.049 A 
ATOM     48  H   UNL A   1      42.173  27.260  29.137  1.00  0.00     0.167 HD
ATOM     49  C   UNL A   1      43.838  30.933  30.834  1.00  0.00     0.031 A 
ATOM     50  C   UNL A   1      42.312  24.657  28.136  1.00  0.00     0.031 A 
ATOM     51  C   UNL A   1      44.941  30.012  30.772  1.00  0.00     0.049 A 
ATOM     52  C   UNL A   1      43.705  25.012  28.576  1.00  0.00     0.074 A 
ATOM     53  C   UNL A   1      46.243  30.197  31.202  1.00  0.00     0.029 A 
ATOM     54  N   UNL A   1      44.869  28.729  30.251  1.00  0.00    -0.354 N 
ATOM     55  N   UNL A   1      44.142  26.126  29.111  1.00  0.00    -0.248 NA
ATOM     56  C   UNL A   1      44.737  23.982  28.400  1.00  0.00     0.031 C 
ATOM     57  C   UNL A   1      46.972  29.044  30.896  1.00  0.00     0.029 A 
ATOM     58  C   UNL A   1      46.109  28.118  30.332  1.00  0.00     0.049 A 
ATOM     59  H   UNL A   1      44.057  28.313  29.880  1.00  0.00     0.167 HD
ATOM     60  C   UNL A   1      45.492  25.923  29.360  1.00  0.00     0.074 A 
ATOM     61  C   UNL A   1      45.799  24.573  28.931  1.00  0.00     0.031 C 
ATOM     62  C   UNL A   1      46.397  26.776  29.897  1.00  0.00     0.031 A 
BRANCH  49  63
ATOM     63  C   UNL A   1      44.090  32.302  31.401  1.00  0.00    -0.014 A 
ATOM     64  C   UNL A   1      44.459  33.373  30.571  1.00  0.00     0.009 A 
ATOM     65  C   UNL A   1      43.897  32.539  32.770  1.00  0.00     0.009 A 
ATOM     66  C   UNL A   1      44.648  34.649  31.105  1.00  0.00     0.001 A 
ATOM     67  C   UNL A   1      44.062  33.821  33.297  1.00  0.00     0.001 A 
ATOM     68  C   UNL A   1      44.443  34.874  32.466  1.00  0.00     0.000 A 
ENDBRANCH  49  63
BRANCH  50  69
ATOM     69  C   UNL A   1      42.011  23.318  27.566  1.00  0.00    -0.014 A 
ATOM     70  C   UNL A   1      41.464  22.310  28.374  1.00  0.00     0.009 A 
ATOM     71  C   UNL A   1      42.254  23.044  26.211  1.00  0.00     0.009 A 
ATOM     72  C   UNL A   1      41.184  21.050  27.842  1.00  0.00     0.001 A 
ATOM     73  C   UNL A   1      41.946  21.792  25.674  1.00  0.00     0.001 A 
ATOM     74  C   UNL A   1      41.419  20.794  26.491  1.00  0.00     0.000 A 
ENDBRANCH  50  69
BRANCH  62  75
ATOM     75  C   UNL A   1      47.800  26.270  30.080  1.00  0.00    -0.014 A 
ATOM     76  C   UNL A   1      48.728  26.298  29.027  1.00  0.00     0.009 A 
ATOM     77  C   UNL A   1      48.214  25.810  31.340  1.00  0.00     0.009 A 
ATOM     78  C   UNL A   1      50.034  25.846  29.226  1.00  0.00     0.001 A 
ATOM     79  C   UNL A   1      49.527  25.388  31.544  1.00  0.00     0.001 A 
ATOM     80  C   UNL A   1      50.433  25.398  30.486  1.00  0.00     0.000 A 
ENDBRANCH  62  75
ENDBRANCH  36  37
ENDBRANCH  28  31
ENDBRANCH  26  27
ENDBRANCH  25  26
ENDBRANCH   1  25
TORSDOF 14
ENDMDL
MODEL 3
REMARK VINA RESULT:     -11.5      2.857      7.818
REMARK SMILES Cc1cc(Cl)cc2c1O[C@H](C(F)(F)F)C(C(=O)NCCCCCCNC(=O)c1ccc(-c3c4nc(c(-c5ccccc5)c5ccc([nH]5)c(-c5ccccc5)c5nc(c(-c6ccccc6)c6ccc3[nH]6)C=C5)C=C4)cc1)=C2
REMARK SMILES IDX 22 1 21 2 20 3 19 4 18 5 16 6 17 7 15 9 1 10 2 11 3 12 8 13
REMARK SMILES IDX 4 14 7 15 9 16 5 17 6 18 76 19 10 20 11 21 12 22 13 23 14 24
REMARK SMILES IDX 23 25 24 26 25 27 26 28 27 30 28 31 29 32 75 33 30 34 74 35
REMARK SMILES IDX 31 36 32 37 33 38 68 39 34 40 73 41 67 42 69 43 35 44 72 45
REMARK SMILES IDX 66 46 65 47 36 49 58 50 43 51 57 52 44 53 47 54 56 55 70 56
REMARK SMILES IDX 45 57 46 58 55 60 71 61 48 62 37 63 38 64 42 65 39 66 41 67
REMARK SMILES IDX 40 68 59 69 60 70 64 71 61 72 63 73 62 74 49 75 50 76 54 77
REMARK SMILES IDX 51 78 53 79 52 80
REMARK H PARENT 18 8 25 29 69 48 47 59
REMARK Flexibility Score: inf
ROOT
ATOM      1  C   UNL A   1      35.408  22.219  26.496  1.00  0.00     0.002 C 
ENDROOT
BRANCH   1   2
ATOM      2  C   UNL A   1      33.960  22.098  26.991  1.00  0.00     0.002 C 
BRANCH   2   3
ATOM      3  C   UNL A   1      32.950  23.000  26.277  1.00  0.00     0.021 C 
BRANCH   3   4
ATOM      4  C   UNL A   1      32.422  22.415  24.971  1.00  0.00     0.116 C 
BRANCH   4   5
ATOM      5  N   UNL A   1      33.190  22.870  23.825  1.00  0.00    -0.352 N 
ATOM      6  C   UNL A   1      33.442  24.043  23.200  1.00  0.00     0.251 C 
ATOM      7  O   UNL A   1      34.216  23.971  22.241  1.00  0.00    -0.270 OA
ATOM      8  H   UNL A   1      33.653  22.121  23.384  1.00  0.00     0.163 HD
BRANCH   6   9
ATOM      9  C   UNL A   1      32.861  25.366  23.579  1.00  0.00     0.067 C 
ATOM     10  C   UNL A   1      30.323  29.849  23.851  1.00  0.00     0.048 C 
ATOM     11  C   UNL A   1      31.483  29.220  24.571  1.00  0.00    -0.007 A 
ATOM     12  C   UNL A   1      32.137  29.935  25.583  1.00  0.00     0.027 A 
ATOM     13  C   UNL A   1      31.972  27.954  24.220  1.00  0.00     0.131 A 
ATOM     14  C   UNL A   1      33.240  29.383  26.234  1.00  0.00     0.042 A 
ATOM     15  C   UNL A   1      33.083  27.400  24.867  1.00  0.00     0.019 A 
ATOM     16  O   UNL A   1      31.350  27.314  23.187  1.00  0.00    -0.475 OA
ATOM     17  Cl  UNL A   1      34.030  30.277  27.474  1.00  0.00    -0.084 Cl
ATOM     18  C   UNL A   1      33.717  28.121  25.881  1.00  0.00     0.032 A 
ATOM     19  C   UNL A   1      33.591  26.101  24.438  1.00  0.00     0.025 C 
ATOM     20  C   UNL A   1      31.540  25.880  23.090  1.00  0.00     0.314 C 
BRANCH  20  21
ATOM     21  C   UNL A   1      30.344  25.163  23.740  1.00  0.00     0.429 C 
ATOM     22  F   UNL A   1      29.213  25.900  23.596  1.00  0.00    -0.167 F 
ATOM     23  F   UNL A   1      30.085  23.960  23.175  1.00  0.00    -0.167 F 
ATOM     24  F   UNL A   1      30.521  24.946  25.062  1.00  0.00    -0.167 F 
ENDBRANCH  20  21
ENDBRANCH   6   9
ENDBRANCH   4   5
ENDBRANCH   3   4
ENDBRANCH   2   3
ENDBRANCH   1   2
BRANCH   1  25
ATOM     25  C   UNL A   1      35.854  23.633  26.111  1.00  0.00     0.021 C 
BRANCH  25  26
ATOM     26  C   UNL A   1      37.028  23.686  25.139  1.00  0.00     0.116 C 
BRANCH  26  27
ATOM     27  N   UNL A   1      38.052  22.712  25.476  1.00  0.00    -0.352 N 
ATOM     28  C   UNL A   1      39.255  22.899  26.101  1.00  0.00     0.251 C 
ATOM     29  H   UNL A   1      37.853  21.783  25.218  1.00  0.00     0.163 HD
ATOM     30  O   UNL A   1      40.094  21.995  26.111  1.00  0.00    -0.269 OA
BRANCH  28  31
ATOM     31  C   UNL A   1      39.555  24.184  26.759  1.00  0.00     0.039 A 
ATOM     32  C   UNL A   1      39.098  24.400  28.062  1.00  0.00     0.014 A 
ATOM     33  C   UNL A   1      40.256  25.186  26.081  1.00  0.00     0.014 A 
ATOM     34  C   UNL A   1      39.384  25.606  28.703  1.00  0.00     0.010 A 
ATOM     35  C   UNL A   1      40.590  26.364  26.741  1.00  0.00     0.010 A 
ATOM     36  C   UNL A   1      40.151  26.587  28.055  1.00  0.00    -0.014 A 
BRANCH  36  37
ATOM     37  C   UNL A   1      40.496  27.864  28.724  1.00  0.00     0.031 A 
ATOM     38  C   UNL A   1      41.848  28.034  29.358  1.00  0.00     0.074 A 
ATOM     39  C   UNL A   1      39.574  28.840  28.813  1.00  0.00     0.049 A 
ATOM     40  N   UNL A   1      42.302  29.030  30.074  1.00  0.00    -0.248 NA
ATOM     41  C   UNL A   1      42.809  26.934  29.178  1.00  0.00     0.031 C 
ATOM     42  C   UNL A   1      38.226  28.787  28.245  1.00  0.00     0.029 A 
ATOM     43  N   UNL A   1      39.632  30.066  29.425  1.00  0.00    -0.354 N 
ATOM     44  C   UNL A   1      43.593  28.673  30.439  1.00  0.00     0.074 A 
ATOM     45  C   UNL A   1      43.837  27.351  29.904  1.00  0.00     0.031 C 
ATOM     46  C   UNL A   1      37.591  29.939  28.518  1.00  0.00     0.029 A 
ATOM     47  C   UNL A   1      38.469  30.789  29.317  1.00  0.00     0.049 A 
ATOM     48  H   UNL A   1      40.430  30.398  29.897  1.00  0.00     0.167 HD
ATOM     49  C   UNL A   1      44.500  29.388  31.145  1.00  0.00     0.031 A 
ATOM     50  C   UNL A   1      38.142  31.996  29.815  1.00  0.00     0.031 A 
ATOM     51  C   UNL A   1      44.258  30.704  31.673  1.00  0.00     0.049 A 
ATOM     52  C   UNL A   1      39.153  32.753  30.629  1.00  0.00     0.074 A 
ATOM     53  C   UNL A   1      45.125  31.522  32.377  1.00  0.00     0.029 A 
ATOM     54  N   UNL A   1      43.063  31.396  31.551  1.00  0.00    -0.354 N 
ATOM     55  N   UNL A   1      40.379  32.412  30.946  1.00  0.00    -0.248 NA
ATOM     56  C   UNL A   1      38.739  34.064  31.147  1.00  0.00     0.031 C 
ATOM     57  C   UNL A   1      44.438  32.688  32.723  1.00  0.00     0.029 A 
ATOM     58  C   UNL A   1      43.164  32.624  32.183  1.00  0.00     0.049 A 
ATOM     59  H   UNL A   1      42.262  31.064  31.083  1.00  0.00     0.167 HD
ATOM     60  C   UNL A   1      40.891  33.475  31.678  1.00  0.00     0.074 A 
ATOM     61  C   UNL A   1      39.848  34.479  31.744  1.00  0.00     0.031 C 
ATOM     62  C   UNL A   1      42.115  33.609  32.242  1.00  0.00     0.031 A 
BRANCH  49  63
ATOM     63  C   UNL A   1      45.844  28.762  31.391  1.00  0.00    -0.014 A 
ATOM     64  C   UNL A   1      46.899  28.928  30.478  1.00  0.00     0.009 A 
ATOM     65  C   UNL A   1      46.079  28.051  32.577  1.00  0.00     0.009 A 
ATOM     66  C   UNL A   1      48.154  28.377  30.740  1.00  0.00     0.001 A 
ATOM     67  C   UNL A   1      47.342  27.523  32.849  1.00  0.00     0.001 A 
ATOM     68  C   UNL A   1      48.377  27.681  31.927  1.00  0.00     0.000 A 
ENDBRANCH  49  63
BRANCH  50  69
ATOM     69  C   UNL A   1      36.797  32.569  29.546  1.00  0.00    -0.014 A 
ATOM     70  C   UNL A   1      36.544  33.245  28.342  1.00  0.00     0.009 A 
ATOM     71  C   UNL A   1      35.758  32.432  30.479  1.00  0.00     0.009 A 
ATOM     72  C   UNL A   1      35.282  33.789  28.088  1.00  0.00     0.001 A 
ATOM     73  C   UNL A   1      34.490  32.951  30.210  1.00  0.00     0.001 A 
ATOM     74  C   UNL A   1      34.255  33.635  29.019  1.00  0.00     0.000 A 
ENDBRANCH  50  69
BRANCH  62  75
ATOM     75  C   UNL A   1      42.409  34.898  32.957  1.00  0.00    -0.014 A 
ATOM     76  C   UNL A   1      43.147  35.920  32.342  1.00  0.00     0.009 A 
ATOM     77  C   UNL A   1      41.889  35.112  34.244  1.00  0.00     0.009 A 
ATOM     78  C   UNL A   1      43.386  37.120  33.014  1.00  0.00     0.001 A 
ATOM     79  C   UNL A   1      42.104  36.323  34.902  1.00  0.00     0.001 A 
ATOM     80  C   UNL A   1      42.859  37.322  34.290  1.00  0.00     0.000 A 
ENDBRANCH  62  75
ENDBRANCH  36  37
ENDBRANCH  28  31
ENDBRANCH  26  27
ENDBRANCH  25  26
ENDBRANCH   1  25
TORSDOF 14
ENDMDL
