MODEL 1
REMARK VINA RESULT:     -10.6      0.000      0.000
REMARK SMILES CC[C@](C)(NC(=O)[C@](C)([NH3+])c1ccccc1)C(=O)NCCCCCCNC(=O)c1ccc(-c2c3nc(c(-c4ccccc4)c4ccc([nH]4)c(-c4ccccc4)c4nc(c(-c5ccccc5)c5ccc2[nH]5)C=C4)C=C3)cc1
REMARK SMILES IDX 22 1 21 2 20 3 19 4 17 5 18 6 3 8 4 9 2 10 1 11 5 12 6 13
REMARK SMILES IDX 7 15 8 16 9 17 10 18 11 22 12 23 16 24 13 25 15 26 14 27
REMARK SMILES IDX 23 28 24 29 25 30 26 31 27 32 28 34 29 35 30 36 76 37 31 38
REMARK SMILES IDX 75 39 32 40 33 41 34 42 69 43 35 44 74 45 68 46 70 47 36 48
REMARK SMILES IDX 73 49 67 50 66 51 37 53 59 54 44 55 58 56 45 57 48 58 57 59
REMARK SMILES IDX 71 60 46 61 47 62 56 64 72 65 49 66 38 67 39 68 43 69 40 70
REMARK SMILES IDX 42 71 41 72 60 73 61 74 65 75 62 76 64 77 63 78 50 79 51 80
REMARK SMILES IDX 55 81 52 82 54 83 53 84
REMARK H PARENT 19 7 5 14 10 19 10 20 10 21 26 33 70 52 48 63
REMARK Flexibility Score: inf
ROOT
ATOM      1  C   UNL A   1      37.672  22.739  25.326  1.00  0.00     0.002 C 
ENDROOT
BRANCH   1   2
ATOM      2  C   UNL A   1      36.555  23.652  25.824  1.00  0.00     0.021 C 
BRANCH   2   3
ATOM      3  C   UNL A   1      35.473  24.172  24.873  1.00  0.00     0.116 C 
BRANCH   3   4
ATOM      4  N   UNL A   1      34.215  24.661  25.411  1.00  0.00    -0.354 N 
ATOM      5  C   UNL A   1      32.907  24.422  25.054  1.00  0.00     0.245 C 
ATOM      6  O   UNL A   1      32.068  24.459  25.961  1.00  0.00    -0.272 OA
ATOM      7  H   UNL A   1      34.315  25.277  26.173  1.00  0.00     0.163 HD
BRANCH   5   8
ATOM      8  C   UNL A   1      32.499  23.979  23.620  1.00  0.00     0.116 C 
ATOM      9  C   UNL A   1      30.971  23.939  23.416  1.00  0.00     0.045 C 
BRANCH   8  10
ATOM     10  C   UNL A   1      32.897  22.472  23.420  1.00  0.00     0.035 C 
ATOM     11  C   UNL A   1      32.316  21.400  24.324  1.00  0.00     0.007 C 
ENDBRANCH   8  10
BRANCH   8  12
ATOM     12  N   UNL A   1      33.088  24.860  22.606  1.00  0.00    -0.336 N 
ATOM     13  C   UNL A   1      32.996  26.178  22.308  1.00  0.00     0.286 C 
ATOM     14  H   UNL A   1      33.696  24.379  21.999  1.00  0.00     0.164 HD
ATOM     15  O   UNL A   1      33.639  26.464  21.275  1.00  0.00    -0.267 OA
BRANCH  13  16
ATOM     16  C   UNL A   1      32.213  27.372  23.027  1.00  0.00     0.196 C 
ATOM     17  C   UNL A   1      30.724  27.165  22.672  1.00  0.00     0.096 C 
BRANCH  16  18
ATOM     18  N   UNL A   1      32.585  28.602  22.238  1.00  0.00    -0.341 N 
ATOM     19  H   UNL A   1      32.076  29.406  22.603  1.00  0.00     0.345 HD
ATOM     20  H   UNL A   1      32.342  28.461  21.256  1.00  0.00     0.345 HD
ATOM     21  H   UNL A   1      33.587  28.768  22.319  1.00  0.00     0.345 HD
ENDBRANCH  16  18
BRANCH  16  22
ATOM     22  C   UNL A   1      32.417  27.680  24.526  1.00  0.00     0.022 A 
ATOM     23  C   UNL A   1      31.354  27.750  25.446  1.00  0.00     0.011 A 
ATOM     24  C   UNL A   1      33.673  28.030  25.047  1.00  0.00     0.011 A 
ATOM     25  C   UNL A   1      31.559  28.031  26.805  1.00  0.00     0.001 A 
ATOM     26  C   UNL A   1      33.894  28.322  26.400  1.00  0.00     0.001 A 
ATOM     27  C   UNL A   1      32.832  28.302  27.287  1.00  0.00     0.000 A 
ENDBRANCH  16  22
ENDBRANCH  13  16
ENDBRANCH   8  12
ENDBRANCH   5   8
ENDBRANCH   3   4
ENDBRANCH   2   3
ENDBRANCH   1   2
BRANCH   1  28
ATOM     28  C   UNL A   1      37.269  21.508  24.525  1.00  0.00     0.002 C 
BRANCH  28  29
ATOM     29  C   UNL A   1      37.921  20.214  24.997  1.00  0.00     0.021 C 
BRANCH  29  30
ATOM     30  C   UNL A   1      39.102  20.409  25.937  1.00  0.00     0.116 C 
BRANCH  30  31
ATOM     31  N   UNL A   1      40.132  19.388  25.804  1.00  0.00    -0.352 N 
ATOM     32  C   UNL A   1      41.474  19.530  26.057  1.00  0.00     0.251 C 
ATOM     33  H   UNL A   1      39.834  18.500  25.499  1.00  0.00     0.163 HD
ATOM     34  O   UNL A   1      42.275  18.631  25.832  1.00  0.00    -0.269 OA
BRANCH  32  35
ATOM     35  C   UNL A   1      41.930  20.828  26.582  1.00  0.00     0.039 A 
ATOM     36  C   UNL A   1      42.280  21.836  25.683  1.00  0.00     0.014 A 
ATOM     37  C   UNL A   1      41.891  21.068  27.958  1.00  0.00     0.014 A 
ATOM     38  C   UNL A   1      42.543  23.115  26.167  1.00  0.00     0.010 A 
ATOM     39  C   UNL A   1      42.079  22.359  28.429  1.00  0.00     0.010 A 
ATOM     40  C   UNL A   1      42.417  23.391  27.540  1.00  0.00    -0.014 A 
BRANCH  40  41
ATOM     41  C   UNL A   1      42.682  24.747  28.073  1.00  0.00     0.031 A 
ATOM     42  C   UNL A   1      44.084  25.124  28.465  1.00  0.00     0.074 A 
ATOM     43  C   UNL A   1      41.667  25.614  28.246  1.00  0.00     0.049 A 
ATOM     44  N   UNL A   1      44.523  26.237  28.992  1.00  0.00    -0.248 NA
ATOM     45  C   UNL A   1      45.125  24.100  28.266  1.00  0.00     0.031 C 
ATOM     46  C   UNL A   1      40.258  25.347  27.950  1.00  0.00     0.029 A 
ATOM     47  N   UNL A   1      41.668  26.902  28.720  1.00  0.00    -0.354 N 
ATOM     48  C   UNL A   1      45.882  26.042  29.197  1.00  0.00     0.074 A 
ATOM     49  C   UNL A   1      46.185  24.686  28.800  1.00  0.00     0.031 C 
ATOM     50  C   UNL A   1      39.536  26.448  28.222  1.00  0.00     0.029 A 
ATOM     51  C   UNL A   1      40.425  27.484  28.735  1.00  0.00     0.049 A 
ATOM     52  H   UNL A   1      42.484  27.365  29.019  1.00  0.00     0.167 HD
ATOM     53  C   UNL A   1      46.807  26.925  29.644  1.00  0.00     0.031 A 
ATOM     54  C   UNL A   1      40.050  28.720  29.116  1.00  0.00     0.031 A 
ATOM     55  C   UNL A   1      46.509  28.278  30.022  1.00  0.00     0.049 A 
ATOM     56  C   UNL A   1      41.098  29.688  29.591  1.00  0.00     0.074 A 
ATOM     57  C   UNL A   1      47.375  29.261  30.467  1.00  0.00     0.029 A 
ATOM     58  N   UNL A   1      45.244  28.842  29.984  1.00  0.00    -0.354 N 
ATOM     59  N   UNL A   1      42.389  29.504  29.732  1.00  0.00    -0.248 NA
ATOM     60  C   UNL A   1      40.641  31.041  29.935  1.00  0.00     0.031 C 
ATOM     61  C   UNL A   1      46.626  30.416  30.722  1.00  0.00     0.029 A 
ATOM     62  C   UNL A   1      45.305  30.161  30.393  1.00  0.00     0.049 A 
ATOM     63  H   UNL A   1      44.424  28.373  29.707  1.00  0.00     0.167 HD
ATOM     64  C   UNL A   1      42.902  30.726  30.148  1.00  0.00     0.074 A 
ATOM     65  C   UNL A   1      41.786  31.646  30.221  1.00  0.00     0.031 C 
ATOM     66  C   UNL A   1      44.182  31.060  30.443  1.00  0.00     0.031 A 
BRANCH  53  67
ATOM     67  C   UNL A   1      48.227  26.442  29.729  1.00  0.00    -0.014 A 
ATOM     68  C   UNL A   1      48.705  25.815  30.891  1.00  0.00     0.009 A 
ATOM     69  C   UNL A   1      49.093  26.603  28.638  1.00  0.00     0.009 A 
ATOM     70  C   UNL A   1      50.033  25.395  30.974  1.00  0.00     0.001 A 
ATOM     71  C   UNL A   1      50.413  26.154  28.712  1.00  0.00     0.001 A 
ATOM     72  C   UNL A   1      50.885  25.561  29.882  1.00  0.00     0.000 A 
ENDBRANCH  53  67
BRANCH  54  73
ATOM     73  C   UNL A   1      38.624  29.131  29.036  1.00  0.00    -0.014 A 
ATOM     74  C   UNL A   1      38.099  29.658  27.846  1.00  0.00     0.009 A 
ATOM     75  C   UNL A   1      37.786  29.023  30.156  1.00  0.00     0.009 A 
ATOM     76  C   UNL A   1      36.777  30.105  27.790  1.00  0.00     0.001 A 
ATOM     77  C   UNL A   1      36.456  29.443  30.090  1.00  0.00     0.001 A 
ATOM     78  C   UNL A   1      35.956  29.995  28.911  1.00  0.00     0.000 A 
ENDBRANCH  54  73
BRANCH  66  79
ATOM     79  C   UNL A   1      44.446  32.488  30.820  1.00  0.00    -0.014 A 
ATOM     80  C   UNL A   1      44.414  32.909  32.157  1.00  0.00     0.009 A 
ATOM     81  C   UNL A   1      44.766  33.418  29.818  1.00  0.00     0.009 A 
ATOM     82  C   UNL A   1      44.660  34.245  32.481  1.00  0.00     0.001 A 
ATOM     83  C   UNL A   1      45.038  34.747  30.147  1.00  0.00     0.001 A 
ATOM     84  C   UNL A   1      44.974  35.161  31.476  1.00  0.00     0.000 A 
ENDBRANCH  66  79
ENDBRANCH  40  41
ENDBRANCH  32  35
ENDBRANCH  30  31
ENDBRANCH  29  30
ENDBRANCH  28  29
ENDBRANCH   1  28
TORSDOF 18
ENDMDL
MODEL 2
REMARK VINA RESULT:     -10.4      3.027      8.424
REMARK SMILES CC[C@](C)(NC(=O)[C@](C)([NH3+])c1ccccc1)C(=O)NCCCCCCNC(=O)c1ccc(-c2c3nc(c(-c4ccccc4)c4ccc([nH]4)c(-c4ccccc4)c4nc(c(-c5ccccc5)c5ccc2[nH]5)C=C4)C=C3)cc1
REMARK SMILES IDX 22 1 21 2 20 3 19 4 17 5 18 6 3 8 4 9 2 10 1 11 5 12 6 13
REMARK SMILES IDX 7 15 8 16 9 17 10 18 11 22 12 23 16 24 13 25 15 26 14 27
REMARK SMILES IDX 23 28 24 29 25 30 26 31 27 32 28 34 29 35 30 36 76 37 31 38
REMARK SMILES IDX 75 39 32 40 33 41 34 42 69 43 35 44 74 45 68 46 70 47 36 48
REMARK SMILES IDX 73 49 67 50 66 51 37 53 59 54 44 55 58 56 45 57 48 58 57 59
REMARK SMILES IDX 71 60 46 61 47 62 56 64 72 65 49 66 38 67 39 68 43 69 40 70
REMARK SMILES IDX 42 71 41 72 60 73 61 74 65 75 62 76 64 77 63 78 50 79 51 80
REMARK SMILES IDX 55 81 52 82 54 83 53 84
REMARK H PARENT 19 7 5 14 10 19 10 20 10 21 26 33 70 52 48 63
REMARK Flexibility Score: inf
ROOT
ATOM      1  C   UNL A   1      33.477  28.638  26.903  1.00  0.00     0.002 C 
ENDROOT
BRANCH   1   2
ATOM      2  C   UNL A   1      33.678  27.308  26.181  1.00  0.00     0.021 C 
BRANCH   2   3
ATOM      3  C   UNL A   1      33.574  27.211  24.656  1.00  0.00     0.116 C 
BRANCH   3   4
ATOM      4  N   UNL A   1      33.865  25.951  23.992  1.00  0.00    -0.354 N 
ATOM      5  C   UNL A   1      33.050  25.017  23.394  1.00  0.00     0.245 C 
ATOM      6  O   UNL A   1      33.530  24.389  22.444  1.00  0.00    -0.272 OA
ATOM      7  H   UNL A   1      34.823  25.724  23.965  1.00  0.00     0.163 HD
BRANCH   5   8
ATOM      8  C   UNL A   1      31.552  24.847  23.776  1.00  0.00     0.116 C 
ATOM      9  C   UNL A   1      30.894  23.630  23.094  1.00  0.00     0.045 C 
BRANCH   8  10
ATOM     10  C   UNL A   1      30.734  26.045  23.172  1.00  0.00     0.035 C 
ATOM     11  C   UNL A   1      29.882  26.921  24.072  1.00  0.00     0.007 C 
ENDBRANCH   8  10
BRANCH   8  12
ATOM     12  N   UNL A   1      31.387  24.721  25.228  1.00  0.00    -0.336 N 
ATOM     13  C   UNL A   1      31.819  23.853  26.172  1.00  0.00     0.286 C 
ATOM     14  H   UNL A   1      30.830  25.440  25.605  1.00  0.00     0.164 HD
ATOM     15  O   UNL A   1      31.340  24.117  27.297  1.00  0.00    -0.267 OA
BRANCH  13  16
ATOM     16  C   UNL A   1      32.790  22.586  26.078  1.00  0.00     0.196 C 
ATOM     17  C   UNL A   1      31.996  21.511  25.304  1.00  0.00     0.096 C 
BRANCH  16  18
ATOM     18  N   UNL A   1      32.834  22.034  27.481  1.00  0.00    -0.341 N 
ATOM     19  H   UNL A   1      33.527  21.287  27.531  1.00  0.00     0.345 HD
ATOM     20  H   UNL A   1      31.916  21.664  27.729  1.00  0.00     0.345 HD
ATOM     21  H   UNL A   1      33.088  22.777  28.131  1.00  0.00     0.345 HD
ENDBRANCH  16  18
BRANCH  16  22
ATOM     22  C   UNL A   1      34.240  22.720  25.566  1.00  0.00     0.022 A 
ATOM     23  C   UNL A   1      34.784  21.880  24.576  1.00  0.00     0.011 A 
ATOM     24  C   UNL A   1      35.152  23.618  26.145  1.00  0.00     0.011 A 
ATOM     25  C   UNL A   1      36.105  22.017  24.123  1.00  0.00     0.001 A 
ATOM     26  C   UNL A   1      36.476  23.762  25.711  1.00  0.00     0.001 A 
ATOM     27  C   UNL A   1      36.948  22.969  24.679  1.00  0.00     0.000 A 
ENDBRANCH  16  22
ENDBRANCH  13  16
ENDBRANCH   8  12
ENDBRANCH   5   8
ENDBRANCH   3   4
ENDBRANCH   2   3
ENDBRANCH   1   2
BRANCH   1  28
ATOM     28  C   UNL A   1      32.052  29.161  27.028  1.00  0.00     0.002 C 
BRANCH  28  29
ATOM     29  C   UNL A   1      31.895  30.636  26.677  1.00  0.00     0.021 C 
BRANCH  29  30
ATOM     30  C   UNL A   1      32.960  31.544  27.277  1.00  0.00     0.116 C 
BRANCH  30  31
ATOM     31  N   UNL A   1      32.499  32.903  27.523  1.00  0.00    -0.352 N 
ATOM     32  C   UNL A   1      33.134  33.869  28.266  1.00  0.00     0.251 C 
ATOM     33  H   UNL A   1      31.640  33.158  27.114  1.00  0.00     0.163 HD
ATOM     34  O   UNL A   1      32.620  34.959  28.485  1.00  0.00    -0.269 OA
BRANCH  32  35
ATOM     35  C   UNL A   1      34.453  33.534  28.827  1.00  0.00     0.039 A 
ATOM     36  C   UNL A   1      34.517  32.820  30.025  1.00  0.00     0.014 A 
ATOM     37  C   UNL A   1      35.608  33.826  28.096  1.00  0.00     0.014 A 
ATOM     38  C   UNL A   1      35.751  32.350  30.468  1.00  0.00     0.010 A 
ATOM     39  C   UNL A   1      36.822  33.292  28.501  1.00  0.00     0.010 A 
ATOM     40  C   UNL A   1      36.907  32.559  29.695  1.00  0.00    -0.014 A 
BRANCH  40  41
ATOM     41  C   UNL A   1      38.226  32.058  30.145  1.00  0.00     0.031 A 
ATOM     42  C   UNL A   1      38.735  30.746  29.616  1.00  0.00     0.074 A 
ATOM     43  C   UNL A   1      38.937  32.752  31.053  1.00  0.00     0.049 A 
ATOM     44  N   UNL A   1      39.836  30.107  29.914  1.00  0.00    -0.248 NA
ATOM     45  C   UNL A   1      37.875  30.044  28.647  1.00  0.00     0.031 C 
ATOM     46  C   UNL A   1      38.526  34.012  31.677  1.00  0.00     0.029 A 
ATOM     47  N   UNL A   1      40.161  32.488  31.614  1.00  0.00    -0.354 N 
ATOM     48  C   UNL A   1      39.795  28.930  29.180  1.00  0.00     0.074 A 
ATOM     49  C   UNL A   1      38.534  28.909  28.475  1.00  0.00     0.031 C 
ATOM     50  C   UNL A   1      39.495  34.425  32.511  1.00  0.00     0.029 A 
ATOM     51  C   UNL A   1      40.579  33.449  32.502  1.00  0.00     0.049 A 
ATOM     52  H   UNL A   1      40.691  31.686  31.399  1.00  0.00     0.167 HD
ATOM     53  C   UNL A   1      40.738  27.963  29.074  1.00  0.00     0.031 A 
ATOM     54  C   UNL A   1      41.714  33.531  33.222  1.00  0.00     0.031 A 
ATOM     55  C   UNL A   1      41.998  27.992  29.761  1.00  0.00     0.049 A 
ATOM     56  C   UNL A   1      42.753  32.455  33.072  1.00  0.00     0.074 A 
ATOM     57  C   UNL A   1      43.033  27.075  29.706  1.00  0.00     0.029 A 
ATOM     58  N   UNL A   1      42.400  29.003  30.620  1.00  0.00    -0.354 N 
ATOM     59  N   UNL A   1      42.720  31.371  32.335  1.00  0.00    -0.248 NA
ATOM     60  C   UNL A   1      43.998  32.628  33.834  1.00  0.00     0.031 C 
ATOM     61  C   UNL A   1      44.054  27.522  30.554  1.00  0.00     0.029 A 
ATOM     62  C   UNL A   1      43.669  28.736  31.099  1.00  0.00     0.049 A 
ATOM     63  H   UNL A   1      41.861  29.794  30.853  1.00  0.00     0.167 HD
ATOM     64  C   UNL A   1      43.949  30.751  32.519  1.00  0.00     0.074 A 
ATOM     65  C   UNL A   1      44.710  31.588  33.424  1.00  0.00     0.031 C 
ATOM     66  C   UNL A   1      44.410  29.593  31.987  1.00  0.00     0.031 A 
BRANCH  53  67
ATOM     67  C   UNL A   1      40.431  26.807  28.166  1.00  0.00    -0.014 A 
ATOM     68  C   UNL A   1      40.904  26.785  26.844  1.00  0.00     0.009 A 
ATOM     69  C   UNL A   1      39.675  25.723  28.635  1.00  0.00     0.009 A 
ATOM     70  C   UNL A   1      40.592  25.720  25.997  1.00  0.00     0.001 A 
ATOM     71  C   UNL A   1      39.389  24.645  27.795  1.00  0.00     0.001 A 
ATOM     72  C   UNL A   1      39.839  24.649  26.475  1.00  0.00     0.000 A 
ENDBRANCH  53  67
BRANCH  54  73
ATOM     73  C   UNL A   1      41.948  34.687  34.127  1.00  0.00    -0.014 A 
ATOM     74  C   UNL A   1      41.565  34.626  35.476  1.00  0.00     0.009 A 
ATOM     75  C   UNL A   1      42.533  35.866  33.641  1.00  0.00     0.009 A 
ATOM     76  C   UNL A   1      41.725  35.735  36.309  1.00  0.00     0.001 A 
ATOM     77  C   UNL A   1      42.719  36.964  34.484  1.00  0.00     0.001 A 
ATOM     78  C   UNL A   1      42.305  36.902  35.813  1.00  0.00     0.000 A 
ENDBRANCH  54  73
BRANCH  66  79
ATOM     79  C   UNL A   1      45.816  29.195  32.330  1.00  0.00    -0.014 A 
ATOM     80  C   UNL A   1      46.905  29.617  31.553  1.00  0.00     0.009 A 
ATOM     81  C   UNL A   1      46.053  28.412  33.471  1.00  0.00     0.009 A 
ATOM     82  C   UNL A   1      48.203  29.230  31.892  1.00  0.00     0.001 A 
ATOM     83  C   UNL A   1      47.354  28.049  33.822  1.00  0.00     0.001 A 
ATOM     84  C   UNL A   1      48.426  28.450  33.027  1.00  0.00     0.000 A 
ENDBRANCH  66  79
ENDBRANCH  40  41
ENDBRANCH  32  35
ENDBRANCH  30  31
ENDBRANCH  29  30
ENDBRANCH  28  29
ENDBRANCH   1  28
TORSDOF 18
ENDMDL
MODEL 3
REMARK VINA RESULT:     -10.4      2.982      8.526
REMARK SMILES CC[C@](C)(NC(=O)[C@](C)([NH3+])c1ccccc1)C(=O)NCCCCCCNC(=O)c1ccc(-c2c3nc(c(-c4ccccc4)c4ccc([nH]4)c(-c4ccccc4)c4nc(c(-c5ccccc5)c5ccc2[nH]5)C=C4)C=C3)cc1
REMARK SMILES IDX 22 1 21 2 20 3 19 4 17 5 18 6 3 8 4 9 2 10 1 11 5 12 6 13
REMARK SMILES IDX 7 15 8 16 9 17 10 18 11 22 12 23 16 24 13 25 15 26 14 27
REMARK SMILES IDX 23 28 24 29 25 30 26 31 27 32 28 34 29 35 30 36 76 37 31 38
REMARK SMILES IDX 75 39 32 40 33 41 34 42 69 43 35 44 74 45 68 46 70 47 36 48
REMARK SMILES IDX 73 49 67 50 66 51 37 53 59 54 44 55 58 56 45 57 48 58 57 59
REMARK SMILES IDX 71 60 46 61 47 62 56 64 72 65 49 66 38 67 39 68 43 69 40 70
REMARK SMILES IDX 42 71 41 72 60 73 61 74 65 75 62 76 64 77 63 78 50 79 51 80
REMARK SMILES IDX 55 81 52 82 54 83 53 84
REMARK H PARENT 19 7 5 14 10 19 10 20 10 21 26 33 70 52 48 63
REMARK Flexibility Score: inf
ROOT
ATOM      1  C   UNL A   1      33.387  29.167  26.725  1.00  0.00     0.002 C 
ENDROOT
BRANCH   1   2
ATOM      2  C   UNL A   1      33.589  27.789  26.101  1.00  0.00     0.021 C 
BRANCH   2   3
ATOM      3  C   UNL A   1      33.630  27.606  24.581  1.00  0.00     0.116 C 
BRANCH   3   4
ATOM      4  N   UNL A   1      33.963  26.307  24.020  1.00  0.00    -0.354 N 
ATOM      5  C   UNL A   1      33.184  25.323  23.454  1.00  0.00     0.245 C 
ATOM      6  O   UNL A   1      33.712  24.637  22.572  1.00  0.00    -0.272 OA
ATOM      7  H   UNL A   1      34.923  26.090  24.050  1.00  0.00     0.163 HD
BRANCH   5   8
ATOM      8  C   UNL A   1      31.673  25.161  23.781  1.00  0.00     0.116 C 
ATOM      9  C   UNL A   1      31.032  23.950  23.073  1.00  0.00     0.045 C 
BRANCH   8  10
ATOM     10  C   UNL A   1      30.883  26.365  23.152  1.00  0.00     0.035 C 
ATOM     11  C   UNL A   1      30.079  27.300  24.038  1.00  0.00     0.007 C 
ENDBRANCH   8  10
BRANCH   8  12
ATOM     12  N   UNL A   1      31.455  25.032  25.226  1.00  0.00    -0.336 N 
ATOM     13  C   UNL A   1      31.803  24.129  26.173  1.00  0.00     0.286 C 
ATOM     14  H   UNL A   1      30.932  25.781  25.595  1.00  0.00     0.164 HD
ATOM     15  O   UNL A   1      31.306  24.413  27.286  1.00  0.00    -0.267 OA
BRANCH  13  16
ATOM     16  C   UNL A   1      32.695  22.806  26.095  1.00  0.00     0.196 C 
ATOM     17  C   UNL A   1      31.868  21.796  25.268  1.00  0.00     0.096 C 
BRANCH  16  18
ATOM     18  N   UNL A   1      32.645  22.228  27.487  1.00  0.00    -0.341 N 
ATOM     19  H   UNL A   1      33.518  21.740  27.684  1.00  0.00     0.345 HD
ATOM     20  H   UNL A   1      31.865  21.574  27.555  1.00  0.00     0.345 HD
ATOM     21  H   UNL A   1      32.517  22.981  28.163  1.00  0.00     0.345 HD
ENDBRANCH  16  18
BRANCH  16  22
ATOM     22  C   UNL A   1      34.170  22.855  25.645  1.00  0.00     0.022 A 
ATOM     23  C   UNL A   1      35.078  23.832  26.095  1.00  0.00     0.011 A 
ATOM     24  C   UNL A   1      34.673  21.993  24.655  1.00  0.00     0.011 A 
ATOM     25  C   UNL A   1      36.416  23.861  25.675  1.00  0.00     0.001 A 
ATOM     26  C   UNL A   1      36.004  22.014  24.218  1.00  0.00     0.001 A 
ATOM     27  C   UNL A   1      36.885  22.941  24.747  1.00  0.00     0.000 A 
ENDBRANCH  16  22
ENDBRANCH  13  16
ENDBRANCH   8  12
ENDBRANCH   5   8
ENDBRANCH   3   4
ENDBRANCH   2   3
ENDBRANCH   1   2
BRANCH   1  28
ATOM     28  C   UNL A   1      31.955  29.636  26.946  1.00  0.00     0.002 C 
BRANCH  28  29
ATOM     29  C   UNL A   1      31.740  31.125  26.698  1.00  0.00     0.021 C 
BRANCH  29  30
ATOM     30  C   UNL A   1      32.902  32.010  27.126  1.00  0.00     0.116 C 
BRANCH  30  31
ATOM     31  N   UNL A   1      32.500  33.347  27.538  1.00  0.00    -0.352 N 
ATOM     32  C   UNL A   1      33.171  34.185  28.395  1.00  0.00     0.251 C 
ATOM     33  H   UNL A   1      31.655  33.688  27.162  1.00  0.00     0.163 HD
ATOM     34  O   UNL A   1      32.704  35.261  28.747  1.00  0.00    -0.269 OA
BRANCH  32  35
ATOM     35  C   UNL A   1      34.470  33.724  28.913  1.00  0.00     0.039 A 
ATOM     36  C   UNL A   1      34.494  32.855  30.004  1.00  0.00     0.014 A 
ATOM     37  C   UNL A   1      35.643  34.065  28.233  1.00  0.00     0.014 A 
ATOM     38  C   UNL A   1      35.704  32.281  30.386  1.00  0.00     0.010 A 
ATOM     39  C   UNL A   1      36.831  33.434  28.569  1.00  0.00     0.010 A 
ATOM     40  C   UNL A   1      36.875  32.545  29.654  1.00  0.00    -0.014 A 
BRANCH  40  41
ATOM     41  C   UNL A   1      38.169  31.936  30.039  1.00  0.00     0.031 A 
ATOM     42  C   UNL A   1      39.078  32.671  30.983  1.00  0.00     0.074 A 
ATOM     43  C   UNL A   1      38.543  30.757  29.508  1.00  0.00     0.049 A 
ATOM     44  N   UNL A   1      40.268  32.338  31.411  1.00  0.00    -0.248 NA
ATOM     45  C   UNL A   1      38.596  33.968  31.491  1.00  0.00     0.031 C 
ATOM     46  C   UNL A   1      37.770  29.972  28.542  1.00  0.00     0.029 A 
ATOM     47  N   UNL A   1      39.678  30.012  29.707  1.00  0.00    -0.354 N 
ATOM     48  C   UNL A   1      40.679  33.386  32.224  1.00  0.00     0.074 A 
ATOM     49  C   UNL A   1      39.644  34.393  32.179  1.00  0.00     0.031 C 
ATOM     50  C   UNL A   1      38.440  28.843  28.257  1.00  0.00     0.029 A 
ATOM     51  C   UNL A   1      39.698  28.837  28.995  1.00  0.00     0.049 A 
ATOM     52  H   UNL A   1      40.408  30.292  30.305  1.00  0.00     0.167 HD
ATOM     53  C   UNL A   1      41.804  33.489  32.970  1.00  0.00     0.031 A 
ATOM     54  C   UNL A   1      40.629  27.865  28.951  1.00  0.00     0.031 A 
ATOM     55  C   UNL A   1      42.825  32.480  33.028  1.00  0.00     0.049 A 
ATOM     56  C   UNL A   1      41.860  27.993  29.804  1.00  0.00     0.074 A 
ATOM     57  C   UNL A   1      43.993  32.475  33.769  1.00  0.00     0.029 A 
ATOM     58  N   UNL A   1      42.788  31.287  32.323  1.00  0.00    -0.354 N 
ATOM     59  N   UNL A   1      42.212  28.969  30.607  1.00  0.00    -0.248 NA
ATOM     60  C   UNL A   1      42.812  26.875  29.764  1.00  0.00     0.031 C 
ATOM     61  C   UNL A   1      44.677  31.285  33.492  1.00  0.00     0.029 A 
ATOM     62  C   UNL A   1      43.911  30.535  32.615  1.00  0.00     0.049 A 
ATOM     63  H   UNL A   1      42.069  31.016  31.707  1.00  0.00     0.167 HD
ATOM     64  C   UNL A   1      43.405  28.567  31.191  1.00  0.00     0.074 A 
ATOM     65  C   UNL A   1      43.710  27.253  30.663  1.00  0.00     0.031 C 
ATOM     66  C   UNL A   1      44.183  29.224  32.087  1.00  0.00     0.031 A 
BRANCH  53  67
ATOM     67  C   UNL A   1      41.968  34.736  33.791  1.00  0.00    -0.014 A 
ATOM     68  C   UNL A   1      41.448  34.813  35.094  1.00  0.00     0.009 A 
ATOM     69  C   UNL A   1      42.656  35.840  33.268  1.00  0.00     0.009 A 
ATOM     70  C   UNL A   1      41.579  35.985  35.840  1.00  0.00     0.001 A 
ATOM     71  C   UNL A   1      42.813  37.000  34.029  1.00  0.00     0.001 A 
ATOM     72  C   UNL A   1      42.265  37.076  35.309  1.00  0.00     0.000 A 
ENDBRANCH  53  67
BRANCH  54  73
ATOM     73  C   UNL A   1      40.424  26.666  28.097  1.00  0.00    -0.014 A 
ATOM     74  C   UNL A   1      40.950  26.619  26.796  1.00  0.00     0.009 A 
ATOM     75  C   UNL A   1      39.680  25.574  28.566  1.00  0.00     0.009 A 
ATOM     76  C   UNL A   1      40.702  25.521  25.970  1.00  0.00     0.001 A 
ATOM     77  C   UNL A   1      39.458  24.464  27.749  1.00  0.00     0.001 A 
ATOM     78  C   UNL A   1      39.958  24.443  26.448  1.00  0.00     0.000 A 
ENDBRANCH  54  73
BRANCH  66  79
ATOM     79  C   UNL A   1      45.404  28.509  32.586  1.00  0.00    -0.014 A 
ATOM     80  C   UNL A   1      45.352  27.671  33.710  1.00  0.00     0.009 A 
ATOM     81  C   UNL A   1      46.618  28.652  31.897  1.00  0.00     0.009 A 
ATOM     82  C   UNL A   1      46.503  27.019  34.156  1.00  0.00     0.001 A 
ATOM     83  C   UNL A   1      47.761  27.979  32.329  1.00  0.00     0.001 A 
ATOM     84  C   UNL A   1      47.705  27.172  33.464  1.00  0.00     0.000 A 
ENDBRANCH  66  79
ENDBRANCH  40  41
ENDBRANCH  32  35
ENDBRANCH  30  31
ENDBRANCH  29  30
ENDBRANCH  28  29
ENDBRANCH   1  28
TORSDOF 18
ENDMDL
