MODEL 1
REMARK VINA RESULT:     -11.2      0.000      0.000
REMARK SMILES C[C@H](NC(=O)[C@@H]1CCCN(S(=O)(=O)c2ccc(Cl)cc2)C1)C(=O)NCCCCCCNC(=O)c1ccc(-c2c3nc(c(-c4ccccc4)c4ccc([nH]4)c(-c4ccccc4)c4nc(c(-c5ccccc5)c5ccc2[nH]5)C=C4)C=C3)cc1
REMARK SMILES IDX 26 1 25 2 24 3 22 4 23 5 2 7 1 8 3 9 4 10 5 12 6 13 7 14
REMARK SMILES IDX 21 15 8 16 10 17 9 18 11 19 12 20 13 21 14 22 15 23 20 24
REMARK SMILES IDX 16 25 19 26 17 27 18 28 27 29 28 30 29 31 30 32 31 33 32 34
REMARK SMILES IDX 33 36 34 37 35 38 81 39 36 40 80 41 37 42 38 43 39 44 74 45
REMARK SMILES IDX 40 46 79 47 73 48 75 49 41 50 78 51 72 52 71 53 42 55 64 56
REMARK SMILES IDX 49 57 63 58 50 59 53 60 62 61 76 62 51 63 52 64 61 66 77 67
REMARK SMILES IDX 54 68 43 69 44 70 48 71 45 72 47 73 46 74 65 75 66 76 70 77
REMARK SMILES IDX 67 78 69 79 68 80 55 81 56 82 60 83 57 84 59 85 58 86
REMARK H PARENT 24 6 3 11 31 35 75 54 53 65
REMARK Flexibility Score: inf
ROOT
ATOM      1  C   UNL A   1      32.421  28.532  27.197  1.00  0.00     0.021 C 
ENDROOT
BRANCH   1   2
ATOM      2  C   UNL A   1      31.446  28.002  26.150  1.00  0.00     0.116 C 
BRANCH   2   3
ATOM      3  N   UNL A   1      30.760  26.834  26.660  1.00  0.00    -0.354 N 
ATOM      4  C   UNL A   1      30.112  25.825  26.034  1.00  0.00     0.242 C 
ATOM      5  O   UNL A   1      29.590  24.959  26.742  1.00  0.00    -0.273 OA
ATOM      6  H   UNL A   1      30.764  26.761  27.642  1.00  0.00     0.163 HD
BRANCH   4   7
ATOM      7  C   UNL A   1      30.129  25.681  24.513  1.00  0.00     0.168 C 
ATOM      8  C   UNL A   1      28.876  26.306  23.897  1.00  0.00     0.041 C 
BRANCH   7   9
ATOM      9  N   UNL A   1      30.317  24.318  24.025  1.00  0.00    -0.344 N 
ATOM     10  C   UNL A   1      31.498  23.760  23.618  1.00  0.00     0.225 C 
ATOM     11  H   UNL A   1      29.517  23.747  23.983  1.00  0.00     0.164 HD
ATOM     12  O   UNL A   1      31.461  22.730  22.948  1.00  0.00    -0.275 OA
BRANCH  10  13
ATOM     13  C   UNL A   1      32.799  24.424  24.065  1.00  0.00     0.094 C 
ATOM     14  C   UNL A   1      33.715  24.801  22.907  1.00  0.00     0.016 C 
ATOM     15  C   UNL A   1      33.454  23.550  25.135  1.00  0.00     0.116 C 
ATOM     16  C   UNL A   1      34.536  23.630  22.409  1.00  0.00     0.018 C 
ATOM     17  N   UNL A   1      34.252  22.424  24.555  1.00  0.00    -0.197 NA
ATOM     18  C   UNL A   1      35.237  22.919  23.555  1.00  0.00     0.102 C 
BRANCH  17  19
ATOM     19  S   UNL A   1      34.907  21.426  25.802  1.00  0.00     0.243 S 
ATOM     20  O   UNL A   1      36.352  21.452  25.660  1.00  0.00    -0.207 OA
ATOM     21  O   UNL A   1      34.281  21.810  27.046  1.00  0.00    -0.207 OA
BRANCH  19  22
ATOM     22  C   UNL A   1      34.354  19.786  25.394  1.00  0.00     0.082 A 
ATOM     23  C   UNL A   1      33.056  19.393  25.742  1.00  0.00     0.023 A 
ATOM     24  C   UNL A   1      35.189  18.917  24.686  1.00  0.00     0.023 A 
ATOM     25  C   UNL A   1      32.634  18.088  25.488  1.00  0.00     0.022 A 
ATOM     26  C   UNL A   1      34.744  17.625  24.392  1.00  0.00     0.022 A 
ATOM     27  C   UNL A   1      33.482  17.209  24.818  1.00  0.00     0.041 A 
ATOM     28  Cl  UNL A   1      32.960  15.599  24.511  1.00  0.00    -0.084 Cl
ENDBRANCH  19  22
ENDBRANCH  17  19
ENDBRANCH  10  13
ENDBRANCH   7   9
ENDBRANCH   4   7
ENDBRANCH   2   3
ENDBRANCH   1   2
BRANCH   1  29
ATOM     29  C   UNL A   1      32.589  30.058  27.164  1.00  0.00     0.002 C 
BRANCH  29  30
ATOM     30  C   UNL A   1      31.505  30.801  26.375  1.00  0.00     0.002 C 
BRANCH  30  31
ATOM     31  C   UNL A   1      31.429  32.299  26.669  1.00  0.00     0.021 C 
BRANCH  31  32
ATOM     32  C   UNL A   1      32.728  32.885  27.202  1.00  0.00     0.116 C 
BRANCH  32  33
ATOM     33  N   UNL A   1      32.524  34.197  27.794  1.00  0.00    -0.352 N 
ATOM     34  C   UNL A   1      33.208  34.786  28.823  1.00  0.00     0.251 C 
ATOM     35  H   UNL A   1      31.797  34.733  27.402  1.00  0.00     0.163 HD
ATOM     36  O   UNL A   1      32.783  35.807  29.352  1.00  0.00    -0.269 OA
BRANCH  34  37
ATOM     37  C   UNL A   1      34.460  34.167  29.300  1.00  0.00     0.039 A 
ATOM     38  C   UNL A   1      34.413  33.313  30.403  1.00  0.00     0.014 A 
ATOM     39  C   UNL A   1      35.674  34.426  28.656  1.00  0.00     0.014 A 
ATOM     40  C   UNL A   1      35.581  32.691  30.839  1.00  0.00     0.010 A 
ATOM     41  C   UNL A   1      36.818  33.736  29.034  1.00  0.00     0.010 A 
ATOM     42  C   UNL A   1      36.789  32.880  30.145  1.00  0.00    -0.014 A 
BRANCH  42  43
ATOM     43  C   UNL A   1      38.038  32.222  30.596  1.00  0.00     0.031 A 
ATOM     44  C   UNL A   1      38.853  32.838  31.702  1.00  0.00     0.074 A 
ATOM     45  C   UNL A   1      38.454  31.090  29.995  1.00  0.00     0.049 A 
ATOM     46  N   UNL A   1      39.985  32.431  32.217  1.00  0.00    -0.248 NA
ATOM     47  C   UNL A   1      38.342  34.087  32.291  1.00  0.00     0.031 C 
ATOM     48  C   UNL A   1      37.772  30.416  28.888  1.00  0.00     0.029 A 
ATOM     49  N   UNL A   1      39.554  30.305  30.236  1.00  0.00    -0.354 N 
ATOM     50  C   UNL A   1      40.317  33.370  33.186  1.00  0.00     0.074 A 
ATOM     51  C   UNL A   1      39.310  34.406  33.136  1.00  0.00     0.031 C 
ATOM     52  C   UNL A   1      38.452  29.303  28.567  1.00  0.00     0.029 A 
ATOM     53  C   UNL A   1      39.636  29.208  29.414  1.00  0.00     0.049 A 
ATOM     54  H   UNL A   1      40.219  30.509  30.930  1.00  0.00     0.167 HD
ATOM     55  C   UNL A   1      41.349  33.359  34.061  1.00  0.00     0.031 A 
ATOM     56  C   UNL A   1      40.567  28.237  29.347  1.00  0.00     0.031 A 
ATOM     57  C   UNL A   1      42.354  32.330  34.110  1.00  0.00     0.049 A 
ATOM     58  C   UNL A   1      41.723  28.268  30.310  1.00  0.00     0.074 A 
ATOM     59  C   UNL A   1      43.430  32.218  34.971  1.00  0.00     0.029 A 
ATOM     60  N   UNL A   1      42.399  31.235  33.262  1.00  0.00    -0.354 N 
ATOM     61  N   UNL A   1      41.994  29.137  31.255  1.00  0.00    -0.248 NA
ATOM     62  C   UNL A   1      42.694  27.169  30.209  1.00  0.00     0.031 C 
ATOM     63  C   UNL A   1      44.157  31.078  34.612  1.00  0.00     0.029 A 
ATOM     64  C   UNL A   1      43.494  30.446  33.573  1.00  0.00     0.049 A 
ATOM     65  H   UNL A   1      41.751  31.047  32.547  1.00  0.00     0.167 HD
ATOM     66  C   UNL A   1      43.139  28.667  31.885  1.00  0.00     0.074 A 
ATOM     67  C   UNL A   1      43.500  27.428  31.228  1.00  0.00     0.031 C 
ATOM     68  C   UNL A   1      43.831  29.210  32.915  1.00  0.00     0.031 A 
BRANCH  55  69
ATOM     69  C   UNL A   1      41.433  34.493  35.045  1.00  0.00    -0.014 A 
ATOM     70  C   UNL A   1      42.151  35.662  34.742  1.00  0.00     0.009 A 
ATOM     71  C   UNL A   1      40.760  34.411  36.274  1.00  0.00     0.009 A 
ATOM     72  C   UNL A   1      42.222  36.710  35.662  1.00  0.00     0.001 A 
ATOM     73  C   UNL A   1      40.805  35.475  37.178  1.00  0.00     0.001 A 
ATOM     74  C   UNL A   1      41.542  36.619  36.876  1.00  0.00     0.000 A 
ENDBRANCH  55  69
BRANCH  56  75
ATOM     75  C   UNL A   1      40.452  27.150  28.339  1.00  0.00    -0.014 A 
ATOM     76  C   UNL A   1      41.019  27.288  27.063  1.00  0.00     0.009 A 
ATOM     77  C   UNL A   1      39.734  25.979  28.635  1.00  0.00     0.009 A 
ATOM     78  C   UNL A   1      40.828  26.303  26.091  1.00  0.00     0.001 A 
ATOM     79  C   UNL A   1      39.577  24.979  27.674  1.00  0.00     0.001 A 
ATOM     80  C   UNL A   1      40.109  25.150  26.398  1.00  0.00     0.000 A 
ENDBRANCH  56  75
BRANCH  68  81
ATOM     81  C   UNL A   1      45.010  28.433  33.437  1.00  0.00    -0.014 A 
ATOM     82  C   UNL A   1      44.865  27.448  34.425  1.00  0.00     0.009 A 
ATOM     83  C   UNL A   1      46.287  28.684  32.909  1.00  0.00     0.009 A 
ATOM     84  C   UNL A   1      45.982  26.763  34.907  1.00  0.00     0.001 A 
ATOM     85  C   UNL A   1      47.396  27.972  33.367  1.00  0.00     0.001 A 
ATOM     86  C   UNL A   1      47.245  27.023  34.375  1.00  0.00     0.000 A 
ENDBRANCH  68  81
ENDBRANCH  42  43
ENDBRANCH  34  37
ENDBRANCH  32  33
ENDBRANCH  31  32
ENDBRANCH  30  31
ENDBRANCH  29  30
ENDBRANCH   1  29
TORSDOF 17
ENDMDL
MODEL 2
REMARK VINA RESULT:     -11.2      5.195     10.394
REMARK SMILES C[C@H](NC(=O)[C@@H]1CCCN(S(=O)(=O)c2ccc(Cl)cc2)C1)C(=O)NCCCCCCNC(=O)c1ccc(-c2c3nc(c(-c4ccccc4)c4ccc([nH]4)c(-c4ccccc4)c4nc(c(-c5ccccc5)c5ccc2[nH]5)C=C4)C=C3)cc1
REMARK SMILES IDX 26 1 25 2 24 3 22 4 23 5 2 7 1 8 3 9 4 10 5 12 6 13 7 14
REMARK SMILES IDX 21 15 8 16 10 17 9 18 11 19 12 20 13 21 14 22 15 23 20 24
REMARK SMILES IDX 16 25 19 26 17 27 18 28 27 29 28 30 29 31 30 32 31 33 32 34
REMARK SMILES IDX 33 36 34 37 35 38 81 39 36 40 80 41 37 42 38 43 39 44 74 45
REMARK SMILES IDX 40 46 79 47 73 48 75 49 41 50 78 51 72 52 71 53 42 55 64 56
REMARK SMILES IDX 49 57 63 58 50 59 53 60 62 61 76 62 51 63 52 64 61 66 77 67
REMARK SMILES IDX 54 68 43 69 44 70 48 71 45 72 47 73 46 74 65 75 66 76 70 77
REMARK SMILES IDX 67 78 69 79 68 80 55 81 56 82 60 83 57 84 59 85 58 86
REMARK H PARENT 24 6 3 11 31 35 75 54 53 65
REMARK Flexibility Score: inf
ROOT
ATOM      1  C   UNL A   1      39.239  23.240  26.401  1.00  0.00     0.021 C 
ENDROOT
BRANCH   1   2
ATOM      2  C   UNL A   1      37.808  23.694  26.128  1.00  0.00     0.116 C 
BRANCH   2   3
ATOM      3  N   UNL A   1      37.524  23.604  24.711  1.00  0.00    -0.354 N 
ATOM      4  C   UNL A   1      36.664  22.828  24.013  1.00  0.00     0.242 C 
ATOM      5  O   UNL A   1      36.654  22.954  22.785  1.00  0.00    -0.273 OA
ATOM      6  H   UNL A   1      38.054  24.220  24.154  1.00  0.00     0.163 HD
BRANCH   4   7
ATOM      7  C   UNL A   1      35.650  21.924  24.711  1.00  0.00     0.168 C 
ATOM      8  C   UNL A   1      36.261  20.550  25.001  1.00  0.00     0.041 C 
BRANCH   7   9
ATOM      9  N   UNL A   1      34.372  21.781  24.021  1.00  0.00    -0.344 N 
ATOM     10  C   UNL A   1      33.144  22.132  24.512  1.00  0.00     0.225 C 
ATOM     11  H   UNL A   1      34.396  21.395  23.116  1.00  0.00     0.164 HD
ATOM     12  O   UNL A   1      32.141  21.678  23.966  1.00  0.00    -0.275 OA
BRANCH  10  13
ATOM     13  C   UNL A   1      33.090  23.113  25.683  1.00  0.00     0.094 C 
ATOM     14  C   UNL A   1      32.185  22.651  26.817  1.00  0.00     0.016 C 
ATOM     15  C   UNL A   1      32.772  24.507  25.142  1.00  0.00     0.116 C 
ATOM     16  C   UNL A   1      30.725  22.953  26.556  1.00  0.00     0.018 C 
ATOM     17  N   UNL A   1      31.307  24.722  24.922  1.00  0.00    -0.197 NA
ATOM     18  C   UNL A   1      30.524  24.403  26.147  1.00  0.00     0.102 C 
BRANCH  17  19
ATOM     19  S   UNL A   1      31.007  26.280  24.242  1.00  0.00     0.243 S 
ATOM     20  O   UNL A   1      31.535  26.269  22.890  1.00  0.00    -0.207 OA
ATOM     21  O   UNL A   1      29.622  26.608  24.490  1.00  0.00    -0.207 OA
BRANCH  19  22
ATOM     22  C   UNL A   1      32.012  27.386  25.205  1.00  0.00     0.082 A 
ATOM     23  C   UNL A   1      33.160  27.945  24.632  1.00  0.00     0.023 A 
ATOM     24  C   UNL A   1      31.628  27.735  26.503  1.00  0.00     0.023 A 
ATOM     25  C   UNL A   1      33.992  28.760  25.399  1.00  0.00     0.022 A 
ATOM     26  C   UNL A   1      32.441  28.591  27.253  1.00  0.00     0.022 A 
ATOM     27  C   UNL A   1      33.631  29.076  26.707  1.00  0.00     0.041 A 
ATOM     28  Cl  UNL A   1      34.662  30.078  27.651  1.00  0.00    -0.084 Cl
ENDBRANCH  19  22
ENDBRANCH  17  19
ENDBRANCH  10  13
ENDBRANCH   7   9
ENDBRANCH   4   7
ENDBRANCH   2   3
ENDBRANCH   1   2
BRANCH   1  29
ATOM     29  C   UNL A   1      39.457  21.735  26.190  1.00  0.00     0.002 C 
BRANCH  29  30
ATOM     30  C   UNL A   1      40.897  21.262  26.419  1.00  0.00     0.002 C 
BRANCH  30  31
ATOM     31  C   UNL A   1      41.127  19.781  26.120  1.00  0.00     0.021 C 
BRANCH  31  32
ATOM     32  C   UNL A   1      42.501  19.279  26.535  1.00  0.00     0.116 C 
BRANCH  32  33
ATOM     33  N   UNL A   1      43.322  18.943  25.383  1.00  0.00    -0.352 N 
ATOM     34  C   UNL A   1      44.072  19.776  24.597  1.00  0.00     0.251 C 
ATOM     35  H   UNL A   1      43.342  17.991  25.137  1.00  0.00     0.163 HD
ATOM     36  O   UNL A   1      44.539  19.379  23.534  1.00  0.00    -0.269 OA
BRANCH  34  37
ATOM     37  C   UNL A   1      44.300  21.167  25.036  1.00  0.00     0.039 A 
ATOM     38  C   UNL A   1      43.893  22.211  24.205  1.00  0.00     0.014 A 
ATOM     39  C   UNL A   1      44.908  21.434  26.266  1.00  0.00     0.014 A 
ATOM     40  C   UNL A   1      44.067  23.528  24.625  1.00  0.00     0.010 A 
ATOM     41  C   UNL A   1      44.997  22.743  26.722  1.00  0.00     0.010 A 
ATOM     42  C   UNL A   1      44.599  23.805  25.897  1.00  0.00    -0.014 A 
BRANCH  42  43
ATOM     43  C   UNL A   1      44.786  25.202  26.358  1.00  0.00     0.031 A 
ATOM     44  C   UNL A   1      46.154  25.830  26.311  1.00  0.00     0.074 A 
ATOM     45  C   UNL A   1      43.737  25.893  26.842  1.00  0.00     0.049 A 
ATOM     46  N   UNL A   1      46.525  27.026  26.693  1.00  0.00    -0.248 NA
ATOM     47  C   UNL A   1      47.252  25.000  25.789  1.00  0.00     0.031 C 
ATOM     48  C   UNL A   1      42.370  25.383  26.973  1.00  0.00     0.029 A 
ATOM     49  N   UNL A   1      43.658  27.179  27.315  1.00  0.00    -0.354 N 
ATOM     50  C   UNL A   1      47.893  27.088  26.457  1.00  0.00     0.074 A 
ATOM     51  C   UNL A   1      48.300  25.789  25.970  1.00  0.00     0.031 C 
ATOM     52  C   UNL A   1      41.584  26.356  27.462  1.00  0.00     0.029 A 
ATOM     53  C   UNL A   1      42.396  27.540  27.718  1.00  0.00     0.049 A 
ATOM     54  H   UNL A   1      44.432  27.785  27.360  1.00  0.00     0.167 HD
ATOM     55  C   UNL A   1      48.733  28.139  26.600  1.00  0.00     0.031 A 
ATOM     56  C   UNL A   1      41.945  28.696  28.240  1.00  0.00     0.031 A 
ATOM     57  C   UNL A   1      48.330  29.432  27.087  1.00  0.00     0.049 A 
ATOM     58  C   UNL A   1      42.908  29.839  28.422  1.00  0.00     0.074 A 
ATOM     59  C   UNL A   1      49.100  30.568  27.253  1.00  0.00     0.029 A 
ATOM     60  N   UNL A   1      47.042  29.757  27.482  1.00  0.00    -0.354 N 
ATOM     61  N   UNL A   1      44.189  29.897  28.144  1.00  0.00    -0.248 NA
ATOM     62  C   UNL A   1      42.356  31.085  28.972  1.00  0.00     0.031 C 
ATOM     63  C   UNL A   1      48.288  31.569  27.795  1.00  0.00     0.029 A 
ATOM     64  C   UNL A   1      46.998  31.075  27.902  1.00  0.00     0.049 A 
ATOM     65  H   UNL A   1      46.274  29.143  27.466  1.00  0.00     0.167 HD
ATOM     66  C   UNL A   1      44.583  31.194  28.446  1.00  0.00     0.074 A 
ATOM     67  C   UNL A   1      43.403  31.893  28.910  1.00  0.00     0.031 C 
ATOM     68  C   UNL A   1      45.812  31.758  28.350  1.00  0.00     0.031 A 
BRANCH  55  69
ATOM     69  C   UNL A   1      50.171  27.933  26.214  1.00  0.00    -0.014 A 
ATOM     70  C   UNL A   1      50.609  28.169  24.900  1.00  0.00     0.009 A 
ATOM     71  C   UNL A   1      51.110  27.536  27.179  1.00  0.00     0.009 A 
ATOM     72  C   UNL A   1      51.947  27.977  24.551  1.00  0.00     0.001 A 
ATOM     73  C   UNL A   1      52.454  27.377  26.835  1.00  0.00     0.001 A 
ATOM     74  C   UNL A   1      52.870  27.588  25.521  1.00  0.00     0.000 A 
ENDBRANCH  55  69
BRANCH  56  75
ATOM     75  C   UNL A   1      40.517  28.843  28.629  1.00  0.00    -0.014 A 
ATOM     76  C   UNL A   1      39.566  29.318  27.713  1.00  0.00     0.009 A 
ATOM     77  C   UNL A   1      40.104  28.547  29.938  1.00  0.00     0.009 A 
ATOM     78  C   UNL A   1      38.246  29.540  28.111  1.00  0.00     0.001 A 
ATOM     79  C   UNL A   1      38.775  28.735  30.324  1.00  0.00     0.001 A 
ATOM     80  C   UNL A   1      37.852  29.247  29.415  1.00  0.00     0.000 A 
ENDBRANCH  56  75
BRANCH  68  81
ATOM     81  C   UNL A   1      45.926  33.220  28.690  1.00  0.00    -0.014 A 
ATOM     82  C   UNL A   1      46.234  33.652  29.988  1.00  0.00     0.009 A 
ATOM     83  C   UNL A   1      45.742  34.178  27.680  1.00  0.00     0.009 A 
ATOM     84  C   UNL A   1      46.307  35.017  30.278  1.00  0.00     0.001 A 
ATOM     85  C   UNL A   1      45.852  35.538  27.964  1.00  0.00     0.001 A 
ATOM     86  C   UNL A   1      46.119  35.957  29.266  1.00  0.00     0.000 A 
ENDBRANCH  68  81
ENDBRANCH  42  43
ENDBRANCH  34  37
ENDBRANCH  32  33
ENDBRANCH  31  32
ENDBRANCH  30  31
ENDBRANCH  29  30
ENDBRANCH   1  29
TORSDOF 17
ENDMDL
MODEL 3
REMARK VINA RESULT:     -11.1      3.423      8.664
REMARK SMILES C[C@H](NC(=O)[C@@H]1CCCN(S(=O)(=O)c2ccc(Cl)cc2)C1)C(=O)NCCCCCCNC(=O)c1ccc(-c2c3nc(c(-c4ccccc4)c4ccc([nH]4)c(-c4ccccc4)c4nc(c(-c5ccccc5)c5ccc2[nH]5)C=C4)C=C3)cc1
REMARK SMILES IDX 26 1 25 2 24 3 22 4 23 5 2 7 1 8 3 9 4 10 5 12 6 13 7 14
REMARK SMILES IDX 21 15 8 16 10 17 9 18 11 19 12 20 13 21 14 22 15 23 20 24
REMARK SMILES IDX 16 25 19 26 17 27 18 28 27 29 28 30 29 31 30 32 31 33 32 34
REMARK SMILES IDX 33 36 34 37 35 38 81 39 36 40 80 41 37 42 38 43 39 44 74 45
REMARK SMILES IDX 40 46 79 47 73 48 75 49 41 50 78 51 72 52 71 53 42 55 64 56
REMARK SMILES IDX 49 57 63 58 50 59 53 60 62 61 76 62 51 63 52 64 61 66 77 67
REMARK SMILES IDX 54 68 43 69 44 70 48 71 45 72 47 73 46 74 65 75 66 76 70 77
REMARK SMILES IDX 67 78 69 79 68 80 55 81 56 82 60 83 57 84 59 85 58 86
REMARK H PARENT 24 6 3 11 31 35 75 54 53 65
REMARK Flexibility Score: inf
ROOT
ATOM      1  C   UNL A   1      39.247  24.690  26.610  1.00  0.00     0.021 C 
ENDROOT
BRANCH   1   2
ATOM      2  C   UNL A   1      38.175  23.634  26.358  1.00  0.00     0.116 C 
BRANCH   2   3
ATOM      3  N   UNL A   1      37.776  23.658  24.966  1.00  0.00    -0.354 N 
ATOM      4  C   UNL A   1      36.995  22.826  24.239  1.00  0.00     0.242 C 
ATOM      5  O   UNL A   1      36.847  23.087  23.042  1.00  0.00    -0.273 OA
ATOM      6  H   UNL A   1      38.140  24.417  24.456  1.00  0.00     0.163 HD
BRANCH   4   7
ATOM      7  C   UNL A   1      36.218  21.683  24.889  1.00  0.00     0.168 C 
ATOM      8  C   UNL A   1      37.090  20.431  25.000  1.00  0.00     0.041 C 
BRANCH   7   9
ATOM      9  N   UNL A   1      34.943  21.364  24.253  1.00  0.00    -0.344 N 
ATOM     10  C   UNL A   1      33.717  21.860  24.606  1.00  0.00     0.225 C 
ATOM     11  H   UNL A   1      34.967  20.732  23.499  1.00  0.00     0.164 HD
ATOM     12  O   UNL A   1      32.711  21.281  24.201  1.00  0.00    -0.275 OA
BRANCH  10  13
ATOM     13  C   UNL A   1      33.670  23.138  25.440  1.00  0.00     0.094 C 
ATOM     14  C   UNL A   1      32.516  23.170  26.434  1.00  0.00     0.016 C 
ATOM     15  C   UNL A   1      33.733  24.342  24.500  1.00  0.00     0.116 C 
ATOM     16  C   UNL A   1      31.210  23.593  25.796  1.00  0.00     0.018 C 
ATOM     17  N   UNL A   1      32.398  24.696  23.923  1.00  0.00    -0.197 NA
ATOM     18  C   UNL A   1      31.376  24.871  24.991  1.00  0.00     0.102 C 
BRANCH  17  19
ATOM     19  S   UNL A   1      32.535  26.011  22.813  1.00  0.00     0.243 S 
ATOM     20  O   UNL A   1      33.892  25.998  22.294  1.00  0.00    -0.207 OA
ATOM     21  O   UNL A   1      31.403  25.950  21.917  1.00  0.00    -0.207 OA
BRANCH  19  22
ATOM     22  C   UNL A   1      32.357  27.464  23.821  1.00  0.00     0.082 A 
ATOM     23  C   UNL A   1      33.438  27.898  24.598  1.00  0.00     0.023 A 
ATOM     24  C   UNL A   1      31.167  28.197  23.797  1.00  0.00     0.023 A 
ATOM     25  C   UNL A   1      33.290  28.996  25.444  1.00  0.00     0.022 A 
ATOM     26  C   UNL A   1      31.038  29.325  24.611  1.00  0.00     0.022 A 
ATOM     27  C   UNL A   1      32.089  29.703  25.450  1.00  0.00     0.041 A 
ATOM     28  Cl  UNL A   1      31.907  31.054  26.498  1.00  0.00    -0.084 Cl
ENDBRANCH  19  22
ENDBRANCH  17  19
ENDBRANCH  10  13
ENDBRANCH   7   9
ENDBRANCH   4   7
ENDBRANCH   2   3
ENDBRANCH   1   2
BRANCH   1  29
ATOM     29  C   UNL A   1      40.645  24.102  26.850  1.00  0.00     0.002 C 
BRANCH  29  30
ATOM     30  C   UNL A   1      40.680  22.576  26.983  1.00  0.00     0.002 C 
BRANCH  30  31
ATOM     31  C   UNL A   1      41.745  21.894  26.126  1.00  0.00     0.021 C 
BRANCH  31  32
ATOM     32  C   UNL A   1      42.642  22.867  25.375  1.00  0.00     0.116 C 
BRANCH  32  33
ATOM     33  N   UNL A   1      44.050  22.592  25.608  1.00  0.00    -0.352 N 
ATOM     34  C   UNL A   1      44.914  23.223  26.462  1.00  0.00     0.251 C 
ATOM     35  H   UNL A   1      44.432  21.853  25.083  1.00  0.00     0.163 HD
ATOM     36  O   UNL A   1      46.121  23.019  26.392  1.00  0.00    -0.269 OA
BRANCH  34  37
ATOM     37  C   UNL A   1      44.376  24.168  27.460  1.00  0.00     0.039 A 
ATOM     38  C   UNL A   1      44.454  25.537  27.205  1.00  0.00     0.014 A 
ATOM     39  C   UNL A   1      43.791  23.699  28.641  1.00  0.00     0.014 A 
ATOM     40  C   UNL A   1      43.914  26.437  28.121  1.00  0.00     0.010 A 
ATOM     41  C   UNL A   1      43.174  24.592  29.508  1.00  0.00     0.010 A 
ATOM     42  C   UNL A   1      43.250  25.971  29.269  1.00  0.00    -0.014 A 
BRANCH  42  43
ATOM     43  C   UNL A   1      42.668  26.918  30.250  1.00  0.00     0.031 A 
ATOM     44  C   UNL A   1      43.317  27.095  31.597  1.00  0.00     0.074 A 
ATOM     45  C   UNL A   1      41.545  27.595  29.943  1.00  0.00     0.049 A 
ATOM     46  N   UNL A   1      42.946  27.852  32.598  1.00  0.00    -0.248 NA
ATOM     47  C   UNL A   1      44.529  26.302  31.863  1.00  0.00     0.031 C 
ATOM     48  C   UNL A   1      40.802  27.483  28.686  1.00  0.00     0.029 A 
ATOM     49  N   UNL A   1      40.833  28.517  30.669  1.00  0.00    -0.354 N 
ATOM     50  C   UNL A   1      43.875  27.626  33.606  1.00  0.00     0.074 A 
ATOM     51  C   UNL A   1      44.783  26.608  33.126  1.00  0.00     0.031 C 
ATOM     52  C   UNL A   1      39.757  28.326  28.717  1.00  0.00     0.029 A 
ATOM     53  C   UNL A   1      39.732  29.005  30.008  1.00  0.00     0.049 A 
ATOM     54  H   UNL A   1      41.086  28.800  31.576  1.00  0.00     0.167 HD
ATOM     55  C   UNL A   1      43.986  28.231  34.811  1.00  0.00     0.031 A 
ATOM     56  C   UNL A   1      38.804  29.897  30.402  1.00  0.00     0.031 A 
ATOM     57  C   UNL A   1      43.082  29.242  35.291  1.00  0.00     0.049 A 
ATOM     58  C   UNL A   1      38.931  30.530  31.762  1.00  0.00     0.074 A 
ATOM     59  C   UNL A   1      43.117  29.931  36.490  1.00  0.00     0.029 A 
ATOM     60  N   UNL A   1      41.982  29.711  34.590  1.00  0.00    -0.354 N 
ATOM     61  N   UNL A   1      39.846  30.342  32.682  1.00  0.00    -0.248 NA
ATOM     62  C   UNL A   1      37.904  31.515  32.129  1.00  0.00     0.031 C 
ATOM     63  C   UNL A   1      42.009  30.782  36.536  1.00  0.00     0.029 A 
ATOM     64  C   UNL A   1      41.324  30.673  35.337  1.00  0.00     0.049 A 
ATOM     65  H   UNL A   1      41.710  29.405  33.695  1.00  0.00     0.167 HD
ATOM     66  C   UNL A   1      39.529  31.213  33.716  1.00  0.00     0.074 A 
ATOM     67  C   UNL A   1      38.349  31.943  33.301  1.00  0.00     0.031 C 
ATOM     68  C   UNL A   1      40.157  31.397  34.903  1.00  0.00     0.031 A 
BRANCH  55  69
ATOM     69  C   UNL A   1      45.135  27.820  35.689  1.00  0.00    -0.014 A 
ATOM     70  C   UNL A   1      46.370  28.487  35.625  1.00  0.00     0.009 A 
ATOM     71  C   UNL A   1      44.975  26.779  36.618  1.00  0.00     0.009 A 
ATOM     72  C   UNL A   1      47.430  28.099  36.446  1.00  0.00     0.001 A 
ATOM     73  C   UNL A   1      46.027  26.416  37.461  1.00  0.00     0.001 A 
ATOM     74  C   UNL A   1      47.255  27.068  37.368  1.00  0.00     0.000 A 
ENDBRANCH  55  69
BRANCH  56  75
ATOM     75  C   UNL A   1      37.671  30.253  29.506  1.00  0.00    -0.014 A 
ATOM     76  C   UNL A   1      36.653  29.328  29.230  1.00  0.00     0.009 A 
ATOM     77  C   UNL A   1      37.625  31.512  28.885  1.00  0.00     0.009 A 
ATOM     78  C   UNL A   1      35.643  29.636  28.317  1.00  0.00     0.001 A 
ATOM     79  C   UNL A   1      36.593  31.831  28.001  1.00  0.00     0.001 A 
ATOM     80  C   UNL A   1      35.613  30.887  27.704  1.00  0.00     0.000 A 
ENDBRANCH  56  75
BRANCH  68  81
ATOM     81  C   UNL A   1      39.617  32.471  35.808  1.00  0.00    -0.014 A 
ATOM     82  C   UNL A   1      38.625  32.202  36.762  1.00  0.00     0.009 A 
ATOM     83  C   UNL A   1      40.133  33.774  35.712  1.00  0.00     0.009 A 
ATOM     84  C   UNL A   1      38.126  33.227  37.569  1.00  0.00     0.001 A 
ATOM     85  C   UNL A   1      39.659  34.787  36.544  1.00  0.00     0.001 A 
ATOM     86  C   UNL A   1      38.646  34.517  37.462  1.00  0.00     0.000 A 
ENDBRANCH  68  81
ENDBRANCH  42  43
ENDBRANCH  34  37
ENDBRANCH  32  33
ENDBRANCH  31  32
ENDBRANCH  30  31
ENDBRANCH  29  30
ENDBRANCH   1  29
TORSDOF 17
ENDMDL
