MODEL 1
REMARK VINA RESULT:     -11.8      0.000      0.000
REMARK SMILES CC[NH+]1CCC2(CC1)OC[C@@H](C(=O)NCCCCCCNC(=O)c1ccc(-c3c4nc(c(-c5ccccc5)c5ccc([nH]5)c(-c5ccccc5)c5nc(c(-c6ccccc6)c6ccc3[nH]6)C=C5)C=C4)cc1)N2C(=O)c1ccc(Cl)c([N+](=O)[O-])c1
REMARK SMILES IDX 17 1 16 2 15 3 14 4 12 5 13 6 11 8 3 9 4 10 8 11 5 13 7 14
REMARK SMILES IDX 6 15 9 16 72 17 10 18 2 19 1 20 73 21 74 22 75 23 76 24
REMARK SMILES IDX 84 25 77 26 80 27 78 28 79 29 81 30 82 31 83 32 18 33 19 34
REMARK SMILES IDX 20 35 21 36 22 37 23 39 24 40 25 41 71 42 26 43 70 44 27 45
REMARK SMILES IDX 28 46 29 47 64 48 30 49 69 50 63 51 65 52 31 53 68 54 62 55
REMARK SMILES IDX 61 56 32 58 54 59 39 60 53 61 40 62 43 63 52 64 66 65 41 66
REMARK SMILES IDX 42 67 51 69 67 70 44 71 33 72 34 73 38 74 35 75 37 76 36 77
REMARK SMILES IDX 55 78 56 79 60 80 57 81 59 82 58 83 45 84 46 85 50 86 47 87
REMARK SMILES IDX 49 88 48 89
REMARK H PARENT 14 7 3 12 21 38 65 57 43 68
REMARK Flexibility Score: inf
ROOT
ATOM      1  C   UNL A   1      31.368  30.133  25.593  1.00  0.00     0.002 C 
ENDROOT
BRANCH   1   2
ATOM      2  C   UNL A   1      31.880  29.413  26.843  1.00  0.00     0.021 C 
BRANCH   2   3
ATOM      3  C   UNL A   1      33.379  29.152  26.848  1.00  0.00     0.116 C 
BRANCH   3   4
ATOM      4  N   UNL A   1      33.906  29.188  25.506  1.00  0.00    -0.354 N 
ATOM      5  C   UNL A   1      33.966  28.210  24.561  1.00  0.00     0.245 C 
ATOM      6  O   UNL A   1      34.373  28.546  23.443  1.00  0.00    -0.273 OA
ATOM      7  H   UNL A   1      34.283  30.054  25.231  1.00  0.00     0.163 HD
BRANCH   5   8
ATOM      8  C   UNL A   1      33.307  26.833  24.761  1.00  0.00     0.203 C 
ATOM      9  N   UNL A   1      32.030  22.308  22.672  1.00  0.00    -0.335 N 
ATOM     10  C   UNL A   1      31.423  23.009  23.802  1.00  0.00     0.267 C 
ATOM     11  C   UNL A   1      33.262  22.858  22.114  1.00  0.00     0.267 C 
ATOM     12  H   UNL A   1      31.368  22.506  21.921  1.00  0.00     0.348 HD
ATOM     13  C   UNL A   1      32.358  23.737  24.743  1.00  0.00     0.120 C 
ATOM     14  C   UNL A   1      34.157  23.675  23.023  1.00  0.00     0.120 C 
ATOM     15  C   UNL A   1      33.435  24.560  24.026  1.00  0.00     0.155 C 
ATOM     16  O   UNL A   1      34.453  24.783  25.046  1.00  0.00    -0.352 OA
ATOM     17  N   UNL A   1      33.040  25.931  23.638  1.00  0.00    -0.295 N 
ATOM     18  C   UNL A   1      34.232  26.047  25.672  1.00  0.00     0.198 C 
BRANCH   9  19
ATOM     19  C   UNL A   1      32.064  20.854  22.851  1.00  0.00     0.258 C 
ATOM     20  C   UNL A   1      32.906  20.443  24.058  1.00  0.00     0.071 C 
ENDBRANCH   9  19
BRANCH  17  21
ATOM     21  C   UNL A   1      32.241  26.469  22.628  1.00  0.00     0.257 C 
ATOM     22  O   UNL A   1      32.608  26.517  21.454  1.00  0.00    -0.269 OA
BRANCH  21  23
ATOM     23  C   UNL A   1      30.876  26.972  22.850  1.00  0.00     0.047 A 
ATOM     24  C   UNL A   1      29.922  26.189  23.501  1.00  0.00     0.016 A 
ATOM     25  C   UNL A   1      30.484  28.182  22.280  1.00  0.00     0.101 A 
ATOM     26  C   UNL A   1      28.631  26.691  23.714  1.00  0.00     0.028 A 
ATOM     27  C   UNL A   1      29.230  28.745  22.595  1.00  0.00     0.288 A 
ATOM     28  C   UNL A   1      28.288  27.992  23.308  1.00  0.00     0.118 A 
ATOM     29  Cl  UNL A   1      26.694  28.502  23.734  1.00  0.00    -0.077 Cl
BRANCH  27  30
ATOM     30  N   UNL A   1      29.026  30.156  22.233  1.00  0.00     0.064 N 
ATOM     31  O   UNL A   1      28.942  31.004  23.126  1.00  0.00    -0.258 OA
ATOM     32  O   UNL A   1      28.993  30.428  21.023  1.00  0.00    -0.258 OA
ENDBRANCH  27  30
ENDBRANCH  21  23
ENDBRANCH  17  21
ENDBRANCH   5   8
ENDBRANCH   3   4
ENDBRANCH   2   3
ENDBRANCH   1   2
BRANCH   1  33
ATOM     33  C   UNL A   1      31.065  31.620  25.783  1.00  0.00     0.002 C 
BRANCH  33  34
ATOM     34  C   UNL A   1      31.417  32.176  27.162  1.00  0.00     0.021 C 
BRANCH  34  35
ATOM     35  C   UNL A   1      32.703  32.993  27.203  1.00  0.00     0.116 C 
BRANCH  35  36
ATOM     36  N   UNL A   1      32.471  34.357  27.646  1.00  0.00    -0.352 N 
ATOM     37  C   UNL A   1      33.066  35.043  28.677  1.00  0.00     0.251 C 
ATOM     38  H   UNL A   1      31.794  34.860  27.137  1.00  0.00     0.163 HD
ATOM     39  O   UNL A   1      32.625  36.120  29.049  1.00  0.00    -0.269 OA
BRANCH  37  40
ATOM     40  C   UNL A   1      34.239  34.446  29.350  1.00  0.00     0.039 A 
ATOM     41  C   UNL A   1      34.048  33.716  30.524  1.00  0.00     0.014 A 
ATOM     42  C   UNL A   1      35.517  34.595  28.805  1.00  0.00     0.014 A 
ATOM     43  C   UNL A   1      35.137  33.080  31.121  1.00  0.00     0.010 A 
ATOM     44  C   UNL A   1      36.583  33.895  29.354  1.00  0.00     0.010 A 
ATOM     45  C   UNL A   1      36.406  33.136  30.522  1.00  0.00    -0.014 A 
BRANCH  45  46
ATOM     46  C   UNL A   1      37.566  32.411  31.095  1.00  0.00     0.031 A 
ATOM     47  C   UNL A   1      38.212  32.905  32.360  1.00  0.00     0.074 A 
ATOM     48  C   UNL A   1      38.088  31.357  30.437  1.00  0.00     0.049 A 
ATOM     49  N   UNL A   1      39.283  32.463  32.968  1.00  0.00    -0.248 NA
ATOM     50  C   UNL A   1      37.586  34.068  33.009  1.00  0.00     0.031 C 
ATOM     51  C   UNL A   1      37.578  30.803  29.182  1.00  0.00     0.029 A 
ATOM     52  N   UNL A   1      39.175  30.573  30.730  1.00  0.00    -0.354 N 
ATOM     53  C   UNL A   1      39.470  33.304  34.057  1.00  0.00     0.074 A 
ATOM     54  C   UNL A   1      38.438  34.315  33.993  1.00  0.00     0.031 C 
ATOM     55  C   UNL A   1      38.336  29.755  28.826  1.00  0.00     0.029 A 
ATOM     56  C   UNL A   1      39.412  29.593  29.799  1.00  0.00     0.049 A 
ATOM     57  H   UNL A   1      39.732  30.701  31.533  1.00  0.00     0.167 HD
ATOM     58  C   UNL A   1      40.404  33.232  35.035  1.00  0.00     0.031 A 
ATOM     59  C   UNL A   1      40.392  28.673  29.728  1.00  0.00     0.031 A 
ATOM     60  C   UNL A   1      41.431  32.226  35.096  1.00  0.00     0.049 A 
ATOM     61  C   UNL A   1      41.435  28.626  30.809  1.00  0.00     0.074 A 
ATOM     62  C   UNL A   1      42.394  32.035  36.071  1.00  0.00     0.029 A 
ATOM     63  N   UNL A   1      41.633  31.246  34.135  1.00  0.00    -0.354 N 
ATOM     64  N   UNL A   1      41.561  29.388  31.868  1.00  0.00    -0.248 NA
ATOM     65  C   UNL A   1      42.464  27.583  30.689  1.00  0.00     0.031 C 
ATOM     66  C   UNL A   1      43.217  30.978  35.669  1.00  0.00     0.029 A 
ATOM     67  C   UNL A   1      42.724  30.465  34.480  1.00  0.00     0.049 A 
ATOM     68  H   UNL A   1      41.082  31.123  33.329  1.00  0.00     0.167 HD
ATOM     69  C   UNL A   1      42.665  28.900  32.557  1.00  0.00     0.074 A 
ATOM     70  C   UNL A   1      43.162  27.768  31.801  1.00  0.00     0.031 C 
ATOM     71  C   UNL A   1      43.214  29.347  33.713  1.00  0.00     0.031 A 
BRANCH  58  72
ATOM     72  C   UNL A   1      40.361  34.289  36.106  1.00  0.00    -0.014 A 
ATOM     73  C   UNL A   1      39.654  34.090  37.304  1.00  0.00     0.009 A 
ATOM     74  C   UNL A   1      41.044  35.500  35.919  1.00  0.00     0.009 A 
ATOM     75  C   UNL A   1      39.588  35.101  38.265  1.00  0.00     0.001 A 
ATOM     76  C   UNL A   1      41.007  36.496  36.897  1.00  0.00     0.001 A 
ATOM     77  C   UNL A   1      40.267  36.302  38.062  1.00  0.00     0.000 A 
ENDBRANCH  58  72
BRANCH  59  78
ATOM     78  C   UNL A   1      40.423  27.714  28.593  1.00  0.00    -0.014 A 
ATOM     79  C   UNL A   1      41.066  28.051  27.392  1.00  0.00     0.009 A 
ATOM     80  C   UNL A   1      39.825  26.449  28.708  1.00  0.00     0.009 A 
ATOM     81  C   UNL A   1      41.091  27.150  26.324  1.00  0.00     0.001 A 
ATOM     82  C   UNL A   1      39.878  25.538  27.651  1.00  0.00     0.001 A 
ATOM     83  C   UNL A   1      40.503  25.893  26.456  1.00  0.00     0.000 A 
ENDBRANCH  59  78
BRANCH  71  84
ATOM     84  C   UNL A   1      44.394  28.588  34.255  1.00  0.00    -0.014 A 
ATOM     85  C   UNL A   1      45.711  28.954  33.935  1.00  0.00     0.009 A 
ATOM     86  C   UNL A   1      44.182  27.516  35.136  1.00  0.00     0.009 A 
ATOM     87  C   UNL A   1      46.789  28.239  34.461  1.00  0.00     0.001 A 
ATOM     88  C   UNL A   1      45.261  26.824  35.686  1.00  0.00     0.001 A 
ATOM     89  C   UNL A   1      46.564  27.179  35.340  1.00  0.00     0.000 A 
ENDBRANCH  71  84
ENDBRANCH  45  46
ENDBRANCH  37  40
ENDBRANCH  35  36
ENDBRANCH  34  35
ENDBRANCH  33  34
ENDBRANCH   1  33
TORSDOF 17
ENDMDL
MODEL 2
REMARK VINA RESULT:     -11.7      0.555      5.636
REMARK SMILES CC[NH+]1CCC2(CC1)OC[C@@H](C(=O)NCCCCCCNC(=O)c1ccc(-c3c4nc(c(-c5ccccc5)c5ccc([nH]5)c(-c5ccccc5)c5nc(c(-c6ccccc6)c6ccc3[nH]6)C=C5)C=C4)cc1)N2C(=O)c1ccc(Cl)c([N+](=O)[O-])c1
REMARK SMILES IDX 17 1 16 2 15 3 14 4 12 5 13 6 11 8 3 9 4 10 8 11 5 13 7 14
REMARK SMILES IDX 6 15 9 16 72 17 10 18 2 19 1 20 73 21 74 22 75 23 76 24
REMARK SMILES IDX 84 25 77 26 80 27 78 28 79 29 81 30 82 31 83 32 18 33 19 34
REMARK SMILES IDX 20 35 21 36 22 37 23 39 24 40 25 41 71 42 26 43 70 44 27 45
REMARK SMILES IDX 28 46 29 47 64 48 30 49 69 50 63 51 65 52 31 53 68 54 62 55
REMARK SMILES IDX 61 56 32 58 54 59 39 60 53 61 40 62 43 63 52 64 66 65 41 66
REMARK SMILES IDX 42 67 51 69 67 70 44 71 33 72 34 73 38 74 35 75 37 76 36 77
REMARK SMILES IDX 55 78 56 79 60 80 57 81 59 82 58 83 45 84 46 85 50 86 47 87
REMARK SMILES IDX 49 88 48 89
REMARK H PARENT 14 7 3 12 21 38 65 57 43 68
REMARK Flexibility Score: inf
ROOT
ATOM      1  C   UNL A   1      31.397  29.897  25.702  1.00  0.00     0.002 C 
ENDROOT
BRANCH   1   2
ATOM      2  C   UNL A   1      31.949  29.319  27.007  1.00  0.00     0.021 C 
BRANCH   2   3
ATOM      3  C   UNL A   1      33.433  28.986  26.969  1.00  0.00     0.116 C 
BRANCH   3   4
ATOM      4  N   UNL A   1      33.941  29.074  25.622  1.00  0.00    -0.354 N 
ATOM      5  C   UNL A   1      33.978  28.137  24.636  1.00  0.00     0.245 C 
ATOM      6  O   UNL A   1      34.371  28.517  23.526  1.00  0.00    -0.273 OA
ATOM      7  H   UNL A   1      34.320  29.950  25.377  1.00  0.00     0.163 HD
BRANCH   5   8
ATOM      8  C   UNL A   1      33.312  26.757  24.788  1.00  0.00     0.203 C 
ATOM      9  N   UNL A   1      32.012  22.314  22.543  1.00  0.00    -0.335 N 
ATOM     10  C   UNL A   1      31.408  22.979  23.697  1.00  0.00     0.267 C 
ATOM     11  C   UNL A   1      33.247  22.877  22.005  1.00  0.00     0.267 C 
ATOM     12  H   UNL A   1      31.351  22.542  21.800  1.00  0.00     0.348 HD
ATOM     13  C   UNL A   1      32.347  23.669  24.662  1.00  0.00     0.120 C 
ATOM     14  C   UNL A   1      34.146  23.657  22.941  1.00  0.00     0.120 C 
ATOM     15  C   UNL A   1      33.428  24.511  23.975  1.00  0.00     0.155 C 
ATOM     16  O   UNL A   1      34.447  24.693  25.001  1.00  0.00    -0.352 OA
ATOM     17  N   UNL A   1      33.041  25.896  23.634  1.00  0.00    -0.295 N 
ATOM     18  C   UNL A   1      34.233  25.935  25.671  1.00  0.00     0.198 C 
BRANCH   9  19
ATOM     19  C   UNL A   1      32.039  20.855  22.672  1.00  0.00     0.258 C 
ATOM     20  C   UNL A   1      32.453  20.409  24.073  1.00  0.00     0.071 C 
ENDBRANCH   9  19
BRANCH  17  21
ATOM     21  C   UNL A   1      32.245  26.474  22.644  1.00  0.00     0.257 C 
ATOM     22  O   UNL A   1      32.626  26.590  21.479  1.00  0.00    -0.269 OA
BRANCH  21  23
ATOM     23  C   UNL A   1      30.868  26.939  22.874  1.00  0.00     0.047 A 
ATOM     24  C   UNL A   1      29.959  26.161  23.591  1.00  0.00     0.016 A 
ATOM     25  C   UNL A   1      30.419  28.101  22.248  1.00  0.00     0.101 A 
ATOM     26  C   UNL A   1      28.656  26.628  23.809  1.00  0.00     0.028 A 
ATOM     27  C   UNL A   1      29.152  28.637  22.566  1.00  0.00     0.288 A 
ATOM     28  C   UNL A   1      28.257  27.891  23.343  1.00  0.00     0.118 A 
ATOM     29  Cl  UNL A   1      26.656  28.368  23.782  1.00  0.00    -0.077 Cl
BRANCH  27  30
ATOM     30  N   UNL A   1      28.888  30.017  22.133  1.00  0.00     0.064 N 
ATOM     31  O   UNL A   1      29.159  30.952  22.892  1.00  0.00    -0.258 OA
ATOM     32  O   UNL A   1      28.440  30.172  20.986  1.00  0.00    -0.258 OA
ENDBRANCH  27  30
ENDBRANCH  21  23
ENDBRANCH  17  21
ENDBRANCH   5   8
ENDBRANCH   3   4
ENDBRANCH   2   3
ENDBRANCH   1   2
BRANCH   1  33
ATOM     33  C   UNL A   1      31.061  31.388  25.747  1.00  0.00     0.002 C 
BRANCH  33  34
ATOM     34  C   UNL A   1      31.409  32.085  27.062  1.00  0.00     0.021 C 
BRANCH  34  35
ATOM     35  C   UNL A   1      32.682  32.921  27.014  1.00  0.00     0.116 C 
BRANCH  35  36
ATOM     36  N   UNL A   1      32.529  34.192  27.701  1.00  0.00    -0.352 N 
ATOM     37  C   UNL A   1      33.219  34.675  28.786  1.00  0.00     0.251 C 
ATOM     38  H   UNL A   1      31.836  34.790  27.338  1.00  0.00     0.163 HD
ATOM     39  O   UNL A   1      32.843  35.681  29.369  1.00  0.00    -0.269 OA
BRANCH  37  40
ATOM     40  C   UNL A   1      34.416  33.946  29.255  1.00  0.00     0.039 A 
ATOM     41  C   UNL A   1      35.674  34.349  28.805  1.00  0.00     0.014 A 
ATOM     42  C   UNL A   1      34.290  32.883  30.154  1.00  0.00     0.014 A 
ATOM     43  C   UNL A   1      36.815  33.722  29.306  1.00  0.00     0.010 A 
ATOM     44  C   UNL A   1      35.428  32.316  30.711  1.00  0.00     0.010 A 
ATOM     45  C   UNL A   1      36.703  32.724  30.288  1.00  0.00    -0.014 A 
BRANCH  45  46
ATOM     46  C   UNL A   1      37.901  32.091  30.890  1.00  0.00     0.031 A 
ATOM     47  C   UNL A   1      38.599  30.969  30.173  1.00  0.00     0.074 A 
ATOM     48  C   UNL A   1      38.313  32.469  32.116  1.00  0.00     0.049 A 
ATOM     49  N   UNL A   1      39.604  30.232  30.573  1.00  0.00    -0.248 NA
ATOM     50  C   UNL A   1      38.078  30.610  28.845  1.00  0.00     0.031 C 
ATOM     51  C   UNL A   1      37.699  33.519  32.931  1.00  0.00     0.029 A 
ATOM     52  N   UNL A   1      39.342  32.002  32.894  1.00  0.00    -0.354 N 
ATOM     53  C   UNL A   1      39.822  29.312  29.555  1.00  0.00     0.074 A 
ATOM     54  C   UNL A   1      38.809  29.546  28.549  1.00  0.00     0.031 C 
ATOM     55  C   UNL A   1      38.377  33.631  34.084  1.00  0.00     0.029 A 
ATOM     56  C   UNL A   1      39.441  32.632  34.110  1.00  0.00     0.049 A 
ATOM     57  H   UNL A   1      39.951  31.282  32.608  1.00  0.00     0.167 HD
ATOM     58  C   UNL A   1      40.789  28.369  29.455  1.00  0.00     0.031 A 
ATOM     59  C   UNL A   1      40.286  32.422  35.137  1.00  0.00     0.031 A 
ATOM     60  C   UNL A   1      41.795  28.137  30.458  1.00  0.00     0.049 A 
ATOM     61  C   UNL A   1      41.335  31.353  35.018  1.00  0.00     0.074 A 
ATOM     62  C   UNL A   1      42.849  27.241  30.431  1.00  0.00     0.029 A 
ATOM     63  N   UNL A   1      41.864  28.802  31.674  1.00  0.00    -0.354 N 
ATOM     64  N   UNL A   1      41.570  30.533  34.022  1.00  0.00    -0.248 NA
ATOM     65  C   UNL A   1      42.244  31.189  36.162  1.00  0.00     0.031 C 
ATOM     66  C   UNL A   1      43.519  27.320  31.657  1.00  0.00     0.029 A 
ATOM     67  C   UNL A   1      42.926  28.315  32.418  1.00  0.00     0.049 A 
ATOM     68  H   UNL A   1      41.250  29.514  31.964  1.00  0.00     0.167 HD
ATOM     69  C   UNL A   1      42.670  29.776  34.406  1.00  0.00     0.074 A 
ATOM     70  C   UNL A   1      43.062  30.245  35.719  1.00  0.00     0.031 C 
ATOM     71  C   UNL A   1      43.300  28.785  33.728  1.00  0.00     0.031 A 
BRANCH  58  72
ATOM     72  C   UNL A   1      40.785  27.508  28.221  1.00  0.00    -0.014 A 
ATOM     73  C   UNL A   1      40.087  26.288  28.181  1.00  0.00     0.009 A 
ATOM     74  C   UNL A   1      41.483  27.923  27.077  1.00  0.00     0.009 A 
ATOM     75  C   UNL A   1      40.135  25.481  27.043  1.00  0.00     0.001 A 
ATOM     76  C   UNL A   1      41.499  27.132  25.927  1.00  0.00     0.001 A 
ATOM     77  C   UNL A   1      40.838  25.905  25.916  1.00  0.00     0.000 A 
ENDBRANCH  58  72
BRANCH  59  78
ATOM     78  C   UNL A   1      40.176  33.253  36.364  1.00  0.00    -0.014 A 
ATOM     79  C   UNL A   1      39.362  32.845  37.432  1.00  0.00     0.009 A 
ATOM     80  C   UNL A   1      40.897  34.452  36.482  1.00  0.00     0.009 A 
ATOM     81  C   UNL A   1      39.257  33.629  38.583  1.00  0.00     0.001 A 
ATOM     82  C   UNL A   1      40.814  35.219  37.646  1.00  0.00     0.001 A 
ATOM     83  C   UNL A   1      39.987  34.811  38.692  1.00  0.00     0.000 A 
ENDBRANCH  59  78
BRANCH  71  84
ATOM     84  C   UNL A   1      44.506  28.163  34.378  1.00  0.00    -0.014 A 
ATOM     85  C   UNL A   1      44.412  26.964  35.102  1.00  0.00     0.009 A 
ATOM     86  C   UNL A   1      45.763  28.769  34.226  1.00  0.00     0.009 A 
ATOM     87  C   UNL A   1      45.550  26.403  35.687  1.00  0.00     0.001 A 
ATOM     88  C   UNL A   1      46.903  28.188  34.783  1.00  0.00     0.001 A 
ATOM     89  C   UNL A   1      46.795  27.012  35.522  1.00  0.00     0.000 A 
ENDBRANCH  71  84
ENDBRANCH  45  46
ENDBRANCH  37  40
ENDBRANCH  35  36
ENDBRANCH  34  35
ENDBRANCH  33  34
ENDBRANCH   1  33
TORSDOF 17
ENDMDL
MODEL 3
REMARK VINA RESULT:     -11.6      2.947      8.359
REMARK SMILES CC[NH+]1CCC2(CC1)OC[C@@H](C(=O)NCCCCCCNC(=O)c1ccc(-c3c4nc(c(-c5ccccc5)c5ccc([nH]5)c(-c5ccccc5)c5nc(c(-c6ccccc6)c6ccc3[nH]6)C=C5)C=C4)cc1)N2C(=O)c1ccc(Cl)c([N+](=O)[O-])c1
REMARK SMILES IDX 17 1 16 2 15 3 14 4 12 5 13 6 11 8 3 9 4 10 8 11 5 13 7 14
REMARK SMILES IDX 6 15 9 16 72 17 10 18 2 19 1 20 73 21 74 22 75 23 76 24
REMARK SMILES IDX 84 25 77 26 80 27 78 28 79 29 81 30 82 31 83 32 18 33 19 34
REMARK SMILES IDX 20 35 21 36 22 37 23 39 24 40 25 41 71 42 26 43 70 44 27 45
REMARK SMILES IDX 28 46 29 47 64 48 30 49 69 50 63 51 65 52 31 53 68 54 62 55
REMARK SMILES IDX 61 56 32 58 54 59 39 60 53 61 40 62 43 63 52 64 66 65 41 66
REMARK SMILES IDX 42 67 51 69 67 70 44 71 33 72 34 73 38 74 35 75 37 76 36 77
REMARK SMILES IDX 55 78 56 79 60 80 57 81 59 82 58 83 45 84 46 85 50 86 47 87
REMARK SMILES IDX 49 88 48 89
REMARK H PARENT 14 7 3 12 21 38 65 57 43 68
REMARK Flexibility Score: inf
ROOT
ATOM      1  C   UNL A   1      38.201  21.970  25.734  1.00  0.00     0.002 C 
ENDROOT
BRANCH   1   2
ATOM      2  C   UNL A   1      37.545  20.813  24.977  1.00  0.00     0.021 C 
BRANCH   2   3
ATOM      3  C   UNL A   1      36.027  20.775  25.082  1.00  0.00     0.116 C 
BRANCH   3   4
ATOM      4  N   UNL A   1      35.585  21.408  26.300  1.00  0.00    -0.354 N 
ATOM      5  C   UNL A   1      34.963  22.604  26.490  1.00  0.00     0.245 C 
ATOM      6  O   UNL A   1      34.591  22.857  27.642  1.00  0.00    -0.273 OA
ATOM      7  H   UNL A   1      35.761  20.896  27.122  1.00  0.00     0.163 HD
BRANCH   5   8
ATOM      8  C   UNL A   1      34.486  23.478  25.316  1.00  0.00     0.203 C 
ATOM      9  N   UNL A   1      30.765  26.455  23.375  1.00  0.00    -0.335 N 
ATOM     10  C   UNL A   1      31.797  25.690  22.676  1.00  0.00     0.267 C 
ATOM     11  C   UNL A   1      30.847  26.533  24.831  1.00  0.00     0.267 C 
ATOM     12  H   UNL A   1      29.945  25.861  23.255  1.00  0.00     0.348 HD
ATOM     13  C   UNL A   1      33.171  25.652  23.308  1.00  0.00     0.120 C 
ATOM     14  C   UNL A   1      32.208  26.393  25.481  1.00  0.00     0.120 C 
ATOM     15  C   UNL A   1      33.148  25.398  24.820  1.00  0.00     0.155 C 
ATOM     16  O   UNL A   1      34.458  25.843  25.278  1.00  0.00    -0.352 OA
ATOM     17  N   UNL A   1      33.112  23.978  25.230  1.00  0.00    -0.295 N 
ATOM     18  C   UNL A   1      35.347  24.728  25.338  1.00  0.00     0.198 C 
BRANCH   9  19
ATOM     19  C   UNL A   1      30.472  27.740  22.735  1.00  0.00     0.258 C 
ATOM     20  C   UNL A   1      29.074  28.249  23.081  1.00  0.00     0.071 C 
ENDBRANCH   9  19
BRANCH  17  21
ATOM     21  C   UNL A   1      32.125  22.991  25.252  1.00  0.00     0.257 C 
ATOM     22  O   UNL A   1      31.120  23.082  25.956  1.00  0.00    -0.269 OA
BRANCH  21  23
ATOM     23  C   UNL A   1      32.155  21.790  24.402  1.00  0.00     0.047 A 
ATOM     24  C   UNL A   1      31.917  21.876  23.030  1.00  0.00     0.016 A 
ATOM     25  C   UNL A   1      32.278  20.532  24.990  1.00  0.00     0.101 A 
ATOM     26  C   UNL A   1      31.962  20.722  22.237  1.00  0.00     0.028 A 
ATOM     27  C   UNL A   1      32.448  19.384  24.187  1.00  0.00     0.288 A 
ATOM     28  C   UNL A   1      32.278  19.474  22.800  1.00  0.00     0.118 A 
ATOM     29  Cl  UNL A   1      32.397  18.168  21.677  1.00  0.00    -0.077 Cl
BRANCH  27  30
ATOM     30  N   UNL A   1      32.902  18.161  24.866  1.00  0.00     0.064 N 
ATOM     31  O   UNL A   1      34.068  17.781  24.714  1.00  0.00    -0.258 OA
ATOM     32  O   UNL A   1      32.085  17.590  25.605  1.00  0.00    -0.258 OA
ENDBRANCH  27  30
ENDBRANCH  21  23
ENDBRANCH  17  21
ENDBRANCH   5   8
ENDBRANCH   3   4
ENDBRANCH   2   3
ENDBRANCH   1   2
BRANCH   1  33
ATOM     33  C   UNL A   1      39.646  21.719  26.171  1.00  0.00     0.002 C 
BRANCH  33  34
ATOM     34  C   UNL A   1      40.093  22.515  27.396  1.00  0.00     0.021 C 
BRANCH  34  35
ATOM     35  C   UNL A   1      41.491  23.112  27.283  1.00  0.00     0.116 C 
BRANCH  35  36
ATOM     36  N   UNL A   1      41.630  23.963  26.113  1.00  0.00    -0.352 N 
ATOM     37  C   UNL A   1      41.464  25.323  26.011  1.00  0.00     0.251 C 
ATOM     38  H   UNL A   1      41.878  23.501  25.280  1.00  0.00     0.163 HD
ATOM     39  O   UNL A   1      41.426  25.868  24.918  1.00  0.00    -0.269 OA
BRANCH  37  40
ATOM     40  C   UNL A   1      41.310  26.120  27.246  1.00  0.00     0.039 A 
ATOM     41  C   UNL A   1      42.309  27.032  27.592  1.00  0.00     0.014 A 
ATOM     42  C   UNL A   1      40.171  25.977  28.042  1.00  0.00     0.014 A 
ATOM     43  C   UNL A   1      42.134  27.848  28.710  1.00  0.00     0.010 A 
ATOM     44  C   UNL A   1      39.963  26.845  29.106  1.00  0.00     0.010 A 
ATOM     45  C   UNL A   1      40.945  27.785  29.455  1.00  0.00    -0.014 A 
BRANCH  45  46
ATOM     46  C   UNL A   1      40.703  28.690  30.605  1.00  0.00     0.031 A 
ATOM     47  C   UNL A   1      39.621  29.730  30.529  1.00  0.00     0.074 A 
ATOM     48  C   UNL A   1      41.507  28.630  31.684  1.00  0.00     0.049 A 
ATOM     49  N   UNL A   1      39.313  30.667  31.390  1.00  0.00    -0.248 NA
ATOM     50  C   UNL A   1      38.795  29.736  29.311  1.00  0.00     0.031 C 
ATOM     51  C   UNL A   1      42.616  27.691  31.865  1.00  0.00     0.029 A 
ATOM     52  N   UNL A   1      41.521  29.385  32.830  1.00  0.00    -0.354 N 
ATOM     53  C   UNL A   1      38.274  31.383  30.809  1.00  0.00     0.074 A 
ATOM     54  C   UNL A   1      38.045  30.810  29.501  1.00  0.00     0.031 C 
ATOM     55  C   UNL A   1      43.186  27.911  33.059  1.00  0.00     0.029 A 
ATOM     56  C   UNL A   1      42.516  29.035  33.707  1.00  0.00     0.049 A 
ATOM     57  H   UNL A   1      40.877  30.110  33.005  1.00  0.00     0.167 HD
ATOM     58  C   UNL A   1      37.561  32.413  31.324  1.00  0.00     0.031 A 
ATOM     59  C   UNL A   1      42.861  29.566  34.896  1.00  0.00     0.031 A 
ATOM     60  C   UNL A   1      37.792  32.983  32.625  1.00  0.00     0.049 A 
ATOM     61  C   UNL A   1      42.075  30.725  35.438  1.00  0.00     0.074 A 
ATOM     62  C   UNL A   1      37.093  33.994  33.260  1.00  0.00     0.029 A 
ATOM     63  N   UNL A   1      38.808  32.594  33.486  1.00  0.00    -0.354 N 
ATOM     64  N   UNL A   1      41.053  31.351  34.906  1.00  0.00    -0.248 NA
ATOM     65  C   UNL A   1      42.482  31.244  36.751  1.00  0.00     0.031 C 
ATOM     66  C   UNL A   1      37.725  34.260  34.480  1.00  0.00     0.029 A 
ATOM     67  C   UNL A   1      38.772  33.367  34.636  1.00  0.00     0.049 A 
ATOM     68  H   UNL A   1      39.457  31.876  33.308  1.00  0.00     0.167 HD
ATOM     69  C   UNL A   1      40.676  32.317  35.831  1.00  0.00     0.074 A 
ATOM     70  C   UNL A   1      41.572  32.185  36.961  1.00  0.00     0.031 C 
ATOM     71  C   UNL A   1      39.676  33.229  35.750  1.00  0.00     0.031 A 
BRANCH  58  72
ATOM     72  C   UNL A   1      36.475  32.997  30.461  1.00  0.00    -0.014 A 
ATOM     73  C   UNL A   1      36.752  33.997  29.512  1.00  0.00     0.009 A 
ATOM     74  C   UNL A   1      35.156  32.538  30.591  1.00  0.00     0.009 A 
ATOM     75  C   UNL A   1      35.723  34.560  28.754  1.00  0.00     0.001 A 
ATOM     76  C   UNL A   1      34.135  33.076  29.806  1.00  0.00     0.001 A 
ATOM     77  C   UNL A   1      34.416  34.097  28.899  1.00  0.00     0.000 A 
ENDBRANCH  58  72
BRANCH  59  78
ATOM     78  C   UNL A   1      44.003  28.993  35.656  1.00  0.00    -0.014 A 
ATOM     79  C   UNL A   1      45.308  29.464  35.446  1.00  0.00     0.009 A 
ATOM     80  C   UNL A   1      43.793  27.983  36.608  1.00  0.00     0.009 A 
ATOM     81  C   UNL A   1      46.380  28.922  36.159  1.00  0.00     0.001 A 
ATOM     82  C   UNL A   1      44.862  27.464  37.341  1.00  0.00     0.001 A 
ATOM     83  C   UNL A   1      46.156  27.929  37.110  1.00  0.00     0.000 A 
ENDBRANCH  59  78
BRANCH  71  84
ATOM     84  C   UNL A   1      39.471  34.133  36.935  1.00  0.00    -0.014 A 
ATOM     85  C   UNL A   1      38.833  33.680  38.101  1.00  0.00     0.009 A 
ATOM     86  C   UNL A   1      39.964  35.447  36.897  1.00  0.00     0.009 A 
ATOM     87  C   UNL A   1      38.666  34.537  39.192  1.00  0.00     0.001 A 
ATOM     88  C   UNL A   1      39.824  36.290  37.999  1.00  0.00     0.001 A 
ATOM     89  C   UNL A   1      39.166  35.839  39.142  1.00  0.00     0.000 A 
ENDBRANCH  71  84
ENDBRANCH  45  46
ENDBRANCH  37  40
ENDBRANCH  35  36
ENDBRANCH  34  35
ENDBRANCH  33  34
ENDBRANCH   1  33
TORSDOF 17
ENDMDL
