MODEL 1
REMARK VINA RESULT:     -11.9      0.000      0.000
REMARK SMILES Cc1cc2c(=O)c3ccccc3oc2c(C(=O)NCCCCCCNC(=O)c2ccc(-c3c4nc(c(-c5ccccc5)c5ccc([nH]5)c(-c5ccccc5)c5nc(c(-c6ccccc6)c6ccc3[nH]6)C=C5)C=C4)cc2)c1C
REMARK SMILES IDX 22 1 21 2 20 3 19 4 18 5 16 6 17 7 15 9 1 10 2 11 3 12 76 13
REMARK SMILES IDX 4 14 77 15 5 16 14 17 6 18 7 19 13 20 8 21 12 22 9 23 11 24
REMARK SMILES IDX 10 25 23 26 24 27 25 28 26 29 27 31 28 32 29 33 75 34 30 35
REMARK SMILES IDX 74 36 31 37 32 38 33 39 68 40 34 41 73 42 67 43 69 44 35 45
REMARK SMILES IDX 72 46 66 47 65 48 36 50 58 51 43 52 57 53 44 54 47 55 56 56
REMARK SMILES IDX 70 57 45 58 46 59 55 61 71 62 48 63 37 64 38 65 42 66 39 67
REMARK SMILES IDX 41 68 40 69 59 70 60 71 64 72 61 73 63 74 62 75 49 76 50 77
REMARK SMILES IDX 54 78 51 79 53 80 52 81
REMARK H PARENT 18 8 25 30 69 49 47 60
REMARK Flexibility Score: inf
ROOT
ATOM      1  C   UNL A   1      34.093  33.081  28.724  1.00  0.00     0.002 C 
ENDROOT
BRANCH   1   2
ATOM      2  C   UNL A   1      34.063  31.983  27.655  1.00  0.00     0.002 C 
BRANCH   2   3
ATOM      3  C   UNL A   1      34.966  30.760  27.840  1.00  0.00     0.021 C 
BRANCH   3   4
ATOM      4  C   UNL A   1      34.520  29.423  27.259  1.00  0.00     0.116 C 
BRANCH   4   5
ATOM      5  N   UNL A   1      33.268  28.865  27.704  1.00  0.00    -0.352 N 
ATOM      6  C   UNL A   1      32.336  28.076  27.049  1.00  0.00     0.255 C 
ATOM      7  O   UNL A   1      31.550  27.490  27.800  1.00  0.00    -0.269 OA
ATOM      8  H   UNL A   1      33.035  29.082  28.635  1.00  0.00     0.163 HD
BRANCH   6   9
ATOM      9  C   UNL A   1      32.161  27.930  25.539  1.00  0.00     0.086 A 
ATOM     10  C   UNL A   1      30.533  29.361  22.322  1.00  0.00     0.044 C 
ATOM     11  C   UNL A   1      31.351  28.521  23.272  1.00  0.00    -0.046 A 
ATOM     12  C   UNL A   1      32.001  27.411  22.740  1.00  0.00     0.019 A 
ATOM     13  C   UNL A   1      31.517  28.852  24.652  1.00  0.00    -0.032 A 
ATOM     14  C   UNL A   1      32.749  26.583  23.564  1.00  0.00     0.066 A 
ATOM     15  C   UNL A   1      31.054  30.234  25.035  1.00  0.00     0.045 C 
ATOM     16  C   UNL A   1      33.511  25.489  22.942  1.00  0.00     0.200 A 
ATOM     17  C   UNL A   1      32.801  26.791  24.948  1.00  0.00     0.151 A 
ATOM     18  O   UNL A   1      33.493  25.298  21.732  1.00  0.00    -0.288 OA
ATOM     19  C   UNL A   1      34.315  24.658  23.830  1.00  0.00     0.065 A 
ATOM     20  O   UNL A   1      33.471  25.890  25.761  1.00  0.00    -0.455 OA
ATOM     21  C   UNL A   1      35.128  23.641  23.313  1.00  0.00     0.016 A 
ATOM     22  C   UNL A   1      34.247  24.906  25.195  1.00  0.00     0.138 A 
ATOM     23  C   UNL A   1      35.880  22.856  24.183  1.00  0.00     0.001 A 
ATOM     24  C   UNL A   1      35.002  24.114  26.062  1.00  0.00     0.048 A 
ATOM     25  C   UNL A   1      35.815  23.091  25.557  1.00  0.00     0.004 A 
ENDBRANCH   6   9
ENDBRANCH   4   5
ENDBRANCH   3   4
ENDBRANCH   2   3
ENDBRANCH   1   2
BRANCH   1  26
ATOM     26  C   UNL A   1      33.136  34.262  28.552  1.00  0.00     0.021 C 
BRANCH  26  27
ATOM     27  C   UNL A   1      33.557  35.578  29.196  1.00  0.00     0.116 C 
BRANCH  27  28
ATOM     28  N   UNL A   1      32.648  36.038  30.234  1.00  0.00    -0.352 N 
ATOM     29  C   UNL A   1      32.671  35.823  31.596  1.00  0.00     0.251 C 
ATOM     30  H   UNL A   1      31.899  36.591  29.915  1.00  0.00     0.163 HD
ATOM     31  O   UNL A   1      31.744  36.203  32.292  1.00  0.00    -0.269 OA
BRANCH  29  32
ATOM     32  C   UNL A   1      33.806  35.096  32.214  1.00  0.00     0.039 A 
ATOM     33  C   UNL A   1      35.083  35.652  32.247  1.00  0.00     0.014 A 
ATOM     34  C   UNL A   1      33.585  33.826  32.759  1.00  0.00     0.014 A 
ATOM     35  C   UNL A   1      36.165  34.873  32.639  1.00  0.00     0.010 A 
ATOM     36  C   UNL A   1      34.664  33.080  33.249  1.00  0.00     0.010 A 
ATOM     37  C   UNL A   1      35.973  33.572  33.136  1.00  0.00    -0.014 A 
BRANCH  37  38
ATOM     38  C   UNL A   1      37.161  32.758  33.510  1.00  0.00     0.031 A 
ATOM     39  C   UNL A   1      37.760  31.772  32.541  1.00  0.00     0.074 A 
ATOM     40  C   UNL A   1      37.758  32.976  34.699  1.00  0.00     0.049 A 
ATOM     41  N   UNL A   1      38.857  31.064  32.661  1.00  0.00    -0.248 NA
ATOM     42  C   UNL A   1      37.043  31.544  31.275  1.00  0.00     0.031 C 
ATOM     43  C   UNL A   1      37.280  33.911  35.719  1.00  0.00     0.029 A 
ATOM     44  N   UNL A   1      38.916  32.466  35.233  1.00  0.00    -0.354 N 
ATOM     45  C   UNL A   1      38.953  30.306  31.501  1.00  0.00     0.074 A 
ATOM     46  C   UNL A   1      37.785  30.605  30.703  1.00  0.00     0.031 C 
ATOM     47  C   UNL A   1      38.173  33.967  36.716  1.00  0.00     0.029 A 
ATOM     48  C   UNL A   1      39.252  33.023  36.444  1.00  0.00     0.049 A 
ATOM     49  H   UNL A   1      39.454  31.770  34.791  1.00  0.00     0.167 HD
ATOM     50  C   UNL A   1      39.934  29.452  31.125  1.00  0.00     0.031 A 
ATOM     51  C   UNL A   1      40.310  32.807  37.251  1.00  0.00     0.031 A 
ATOM     52  C   UNL A   1      41.100  29.160  31.919  1.00  0.00     0.049 A 
ATOM     53  C   UNL A   1      41.368  31.830  36.824  1.00  0.00     0.074 A 
ATOM     54  C   UNL A   1      42.154  28.314  31.614  1.00  0.00     0.029 A 
ATOM     55  N   UNL A   1      41.371  29.703  33.165  1.00  0.00    -0.354 N 
ATOM     56  N   UNL A   1      41.453  31.141  35.713  1.00  0.00    -0.248 NA
ATOM     57  C   UNL A   1      42.485  31.612  37.755  1.00  0.00     0.031 C 
ATOM     58  C   UNL A   1      43.025  28.294  32.704  1.00  0.00     0.029 A 
ATOM     59  C   UNL A   1      42.564  29.195  33.650  1.00  0.00     0.049 A 
ATOM     60  H   UNL A   1      40.799  30.353  33.636  1.00  0.00     0.167 HD
ATOM     61  C   UNL A   1      42.643  30.429  35.796  1.00  0.00     0.074 A 
ATOM     62  C   UNL A   1      43.256  30.785  37.059  1.00  0.00     0.031 C 
ATOM     63  C   UNL A   1      43.176  29.561  34.902  1.00  0.00     0.031 A 
BRANCH  50  64
ATOM     64  C   UNL A   1      39.802  28.754  29.796  1.00  0.00    -0.014 A 
ATOM     65  C   UNL A   1      39.288  27.448  29.742  1.00  0.00     0.009 A 
ATOM     66  C   UNL A   1      40.283  29.340  28.615  1.00  0.00     0.009 A 
ATOM     67  C   UNL A   1      39.278  26.736  28.541  1.00  0.00     0.001 A 
ATOM     68  C   UNL A   1      40.240  28.638  27.407  1.00  0.00     0.001 A 
ATOM     69  C   UNL A   1      39.749  27.333  27.374  1.00  0.00     0.000 A 
ENDBRANCH  50  64
BRANCH  51  70
ATOM     70  C   UNL A   1      40.419  33.566  38.527  1.00  0.00    -0.014 A 
ATOM     71  C   UNL A   1      41.140  34.772  38.581  1.00  0.00     0.009 A 
ATOM     72  C   UNL A   1      39.857  33.064  39.710  1.00  0.00     0.009 A 
ATOM     73  C   UNL A   1      41.325  35.438  39.793  1.00  0.00     0.001 A 
ATOM     74  C   UNL A   1      40.012  33.754  40.916  1.00  0.00     0.001 A 
ATOM     75  C   UNL A   1      40.757  34.931  40.959  1.00  0.00     0.000 A 
ENDBRANCH  51  70
BRANCH  63  76
ATOM     76  C   UNL A   1      44.515  28.951  35.220  1.00  0.00    -0.014 A 
ATOM     77  C   UNL A   1      45.688  29.605  34.805  1.00  0.00     0.009 A 
ATOM     78  C   UNL A   1      44.623  27.690  35.826  1.00  0.00     0.009 A 
ATOM     79  C   UNL A   1      46.936  29.006  34.976  1.00  0.00     0.001 A 
ATOM     80  C   UNL A   1      45.877  27.109  36.030  1.00  0.00     0.001 A 
ATOM     81  C   UNL A   1      47.030  27.762  35.595  1.00  0.00     0.000 A 
ENDBRANCH  63  76
ENDBRANCH  37  38
ENDBRANCH  29  32
ENDBRANCH  27  28
ENDBRANCH  26  27
ENDBRANCH   1  26
TORSDOF 13
ENDMDL
MODEL 2
REMARK VINA RESULT:     -11.9      5.206      9.840
REMARK SMILES Cc1cc2c(=O)c3ccccc3oc2c(C(=O)NCCCCCCNC(=O)c2ccc(-c3c4nc(c(-c5ccccc5)c5ccc([nH]5)c(-c5ccccc5)c5nc(c(-c6ccccc6)c6ccc3[nH]6)C=C5)C=C4)cc2)c1C
REMARK SMILES IDX 22 1 21 2 20 3 19 4 18 5 16 6 17 7 15 9 1 10 2 11 3 12 76 13
REMARK SMILES IDX 4 14 77 15 5 16 14 17 6 18 7 19 13 20 8 21 12 22 9 23 11 24
REMARK SMILES IDX 10 25 23 26 24 27 25 28 26 29 27 31 28 32 29 33 75 34 30 35
REMARK SMILES IDX 74 36 31 37 32 38 33 39 68 40 34 41 73 42 67 43 69 44 35 45
REMARK SMILES IDX 72 46 66 47 65 48 36 50 58 51 43 52 57 53 44 54 47 55 56 56
REMARK SMILES IDX 70 57 45 58 46 59 55 61 71 62 48 63 37 64 38 65 42 66 39 67
REMARK SMILES IDX 41 68 40 69 59 70 60 71 64 72 61 73 63 74 62 75 49 76 50 77
REMARK SMILES IDX 54 78 51 79 53 80 52 81
REMARK H PARENT 18 8 25 30 69 49 47 60
REMARK Flexibility Score: inf
ROOT
ATOM      1  C   UNL A   1      36.973  21.718  24.052  1.00  0.00     0.002 C 
ENDROOT
BRANCH   1   2
ATOM      2  C   UNL A   1      35.731  22.446  24.577  1.00  0.00     0.002 C 
BRANCH   2   3
ATOM      3  C   UNL A   1      35.718  22.906  26.038  1.00  0.00     0.021 C 
BRANCH   3   4
ATOM      4  C   UNL A   1      34.817  22.178  27.029  1.00  0.00     0.116 C 
BRANCH   4   5
ATOM      5  N   UNL A   1      33.649  22.861  27.524  1.00  0.00    -0.352 N 
ATOM      6  C   UNL A   1      32.454  23.193  26.906  1.00  0.00     0.255 C 
ATOM      7  O   UNL A   1      31.537  23.468  27.687  1.00  0.00    -0.269 OA
ATOM      8  H   UNL A   1      33.711  23.140  28.466  1.00  0.00     0.163 HD
BRANCH   6   9
ATOM      9  C   UNL A   1      32.204  23.311  25.404  1.00  0.00     0.086 A 
ATOM     10  C   UNL A   1      31.480  25.688  22.426  1.00  0.00     0.044 C 
ATOM     11  C   UNL A   1      31.770  24.458  23.250  1.00  0.00    -0.046 A 
ATOM     12  C   UNL A   1      31.753  23.232  22.590  1.00  0.00     0.019 A 
ATOM     13  C   UNL A   1      32.105  24.516  24.638  1.00  0.00    -0.032 A 
ATOM     14  C   UNL A   1      31.987  22.061  23.294  1.00  0.00     0.066 A 
ATOM     15  C   UNL A   1      32.419  25.895  25.159  1.00  0.00     0.045 C 
ATOM     16  C   UNL A   1      32.074  20.802  22.539  1.00  0.00     0.200 A 
ATOM     17  C   UNL A   1      32.162  22.071  24.684  1.00  0.00     0.151 A 
ATOM     18  O   UNL A   1      31.940  20.771  21.321  1.00  0.00    -0.288 OA
ATOM     19  C   UNL A   1      32.356  19.592  23.302  1.00  0.00     0.065 A 
ATOM     20  O   UNL A   1      32.292  20.878  25.376  1.00  0.00    -0.455 OA
ATOM     21  C   UNL A   1      32.528  18.362  22.653  1.00  0.00     0.016 A 
ATOM     22  C   UNL A   1      32.448  19.700  24.684  1.00  0.00     0.138 A 
ATOM     23  C   UNL A   1      32.788  17.221  23.407  1.00  0.00     0.001 A 
ATOM     24  C   UNL A   1      32.707  18.551  25.433  1.00  0.00     0.048 A 
ATOM     25  C   UNL A   1      32.876  17.315  24.797  1.00  0.00     0.004 A 
ENDBRANCH   6   9
ENDBRANCH   4   5
ENDBRANCH   3   4
ENDBRANCH   2   3
ENDBRANCH   1   2
BRANCH   1  26
ATOM     26  C   UNL A   1      37.513  20.552  24.882  1.00  0.00     0.021 C 
BRANCH  26  27
ATOM     27  C   UNL A   1      38.730  20.843  25.753  1.00  0.00     0.116 C 
BRANCH  27  28
ATOM     28  N   UNL A   1      39.772  19.832  25.658  1.00  0.00    -0.352 N 
ATOM     29  C   UNL A   1      41.114  19.906  25.964  1.00  0.00     0.251 C 
ATOM     30  H   UNL A   1      39.471  18.957  25.323  1.00  0.00     0.163 HD
ATOM     31  O   UNL A   1      41.854  18.971  25.704  1.00  0.00    -0.269 OA
BRANCH  29  32
ATOM     32  C   UNL A   1      41.668  21.137  26.577  1.00  0.00     0.039 A 
ATOM     33  C   UNL A   1      41.737  21.283  27.962  1.00  0.00     0.014 A 
ATOM     34  C   UNL A   1      42.118  22.169  25.745  1.00  0.00     0.014 A 
ATOM     35  C   UNL A   1      42.063  22.518  28.510  1.00  0.00     0.010 A 
ATOM     36  C   UNL A   1      42.544  23.379  26.304  1.00  0.00     0.010 A 
ATOM     37  C   UNL A   1      42.462  23.587  27.689  1.00  0.00    -0.014 A 
BRANCH  37  38
ATOM     38  C   UNL A   1      42.766  24.903  28.314  1.00  0.00     0.031 A 
ATOM     39  C   UNL A   1      44.185  25.301  28.629  1.00  0.00     0.074 A 
ATOM     40  C   UNL A   1      41.763  25.781  28.516  1.00  0.00     0.049 A 
ATOM     41  N   UNL A   1      44.637  26.450  29.069  1.00  0.00    -0.248 NA
ATOM     42  C   UNL A   1      45.234  24.288  28.428  1.00  0.00     0.031 C 
ATOM     43  C   UNL A   1      40.350  25.517  28.242  1.00  0.00     0.029 A 
ATOM     44  N   UNL A   1      41.780  27.084  28.950  1.00  0.00    -0.354 N 
ATOM     45  C   UNL A   1      46.011  26.293  29.208  1.00  0.00     0.074 A 
ATOM     46  C   UNL A   1      46.318  24.928  28.844  1.00  0.00     0.031 C 
ATOM     47  C   UNL A   1      39.647  26.641  28.439  1.00  0.00     0.029 A 
ATOM     48  C   UNL A   1      40.545  27.686  28.919  1.00  0.00     0.049 A 
ATOM     49  H   UNL A   1      42.597  27.541  29.254  1.00  0.00     0.167 HD
ATOM     50  C   UNL A   1      46.935  27.208  29.585  1.00  0.00     0.031 A 
ATOM     51  C   UNL A   1      40.167  28.941  29.237  1.00  0.00     0.031 A 
ATOM     52  C   UNL A   1      46.627  28.569  29.940  1.00  0.00     0.049 A 
ATOM     53  C   UNL A   1      41.208  29.927  29.683  1.00  0.00     0.074 A 
ATOM     54  C   UNL A   1      47.500  29.573  30.325  1.00  0.00     0.029 A 
ATOM     55  N   UNL A   1      45.355  29.121  29.950  1.00  0.00    -0.354 N 
ATOM     56  N   UNL A   1      42.505  29.767  29.785  1.00  0.00    -0.248 NA
ATOM     57  C   UNL A   1      40.738  31.273  30.044  1.00  0.00     0.031 C 
ATOM     58  C   UNL A   1      46.750  30.708  30.634  1.00  0.00     0.029 A 
ATOM     59  C   UNL A   1      45.419  30.444  30.355  1.00  0.00     0.049 A 
ATOM     60  H   UNL A   1      44.529  28.643  29.707  1.00  0.00     0.167 HD
ATOM     61  C   UNL A   1      43.010  30.995  30.193  1.00  0.00     0.074 A 
ATOM     62  C   UNL A   1      41.881  31.896  30.302  1.00  0.00     0.031 C 
ATOM     63  C   UNL A   1      44.295  31.340  30.451  1.00  0.00     0.031 A 
BRANCH  50  64
ATOM     64  C   UNL A   1      48.379  26.781  29.644  1.00  0.00    -0.014 A 
ATOM     65  C   UNL A   1      49.189  26.898  28.503  1.00  0.00     0.009 A 
ATOM     66  C   UNL A   1      48.909  26.167  30.789  1.00  0.00     0.009 A 
ATOM     67  C   UNL A   1      50.489  26.389  28.498  1.00  0.00     0.001 A 
ATOM     68  C   UNL A   1      50.223  25.689  30.793  1.00  0.00     0.001 A 
ATOM     69  C   UNL A   1      51.007  25.790  29.644  1.00  0.00     0.000 A 
ENDBRANCH  50  64
BRANCH  51  70
ATOM     70  C   UNL A   1      38.736  29.326  29.106  1.00  0.00    -0.014 A 
ATOM     71  C   UNL A   1      37.863  29.214  30.202  1.00  0.00     0.009 A 
ATOM     72  C   UNL A   1      38.217  29.751  27.873  1.00  0.00     0.009 A 
ATOM     73  C   UNL A   1      36.501  29.483  30.060  1.00  0.00     0.001 A 
ATOM     74  C   UNL A   1      36.859  30.057  27.743  1.00  0.00     0.001 A 
ATOM     75  C   UNL A   1      36.001  29.909  28.831  1.00  0.00     0.000 A 
ENDBRANCH  51  70
BRANCH  63  76
ATOM     76  C   UNL A   1      44.581  32.766  30.841  1.00  0.00    -0.014 A 
ATOM     77  C   UNL A   1      44.911  33.701  29.845  1.00  0.00     0.009 A 
ATOM     78  C   UNL A   1      44.631  33.163  32.185  1.00  0.00     0.009 A 
ATOM     79  C   UNL A   1      45.300  34.997  30.186  1.00  0.00     0.001 A 
ATOM     80  C   UNL A   1      44.984  34.472  32.522  1.00  0.00     0.001 A 
ATOM     81  C   UNL A   1      45.329  35.383  31.524  1.00  0.00     0.000 A 
ENDBRANCH  63  76
ENDBRANCH  37  38
ENDBRANCH  29  32
ENDBRANCH  27  28
ENDBRANCH  26  27
ENDBRANCH   1  26
TORSDOF 13
ENDMDL
MODEL 3
REMARK VINA RESULT:     -11.6      3.254      8.672
REMARK SMILES Cc1cc2c(=O)c3ccccc3oc2c(C(=O)NCCCCCCNC(=O)c2ccc(-c3c4nc(c(-c5ccccc5)c5ccc([nH]5)c(-c5ccccc5)c5nc(c(-c6ccccc6)c6ccc3[nH]6)C=C5)C=C4)cc2)c1C
REMARK SMILES IDX 22 1 21 2 20 3 19 4 18 5 16 6 17 7 15 9 1 10 2 11 3 12 76 13
REMARK SMILES IDX 4 14 77 15 5 16 14 17 6 18 7 19 13 20 8 21 12 22 9 23 11 24
REMARK SMILES IDX 10 25 23 26 24 27 25 28 26 29 27 31 28 32 29 33 75 34 30 35
REMARK SMILES IDX 74 36 31 37 32 38 33 39 68 40 34 41 73 42 67 43 69 44 35 45
REMARK SMILES IDX 72 46 66 47 65 48 36 50 58 51 43 52 57 53 44 54 47 55 56 56
REMARK SMILES IDX 70 57 45 58 46 59 55 61 71 62 48 63 37 64 38 65 42 66 39 67
REMARK SMILES IDX 41 68 40 69 59 70 60 71 64 72 61 73 63 74 62 75 49 76 50 77
REMARK SMILES IDX 54 78 51 79 53 80 52 81
REMARK H PARENT 18 8 25 30 69 49 47 60
REMARK Flexibility Score: inf
ROOT
ATOM      1  C   UNL A   1      40.718  21.380  27.048  1.00  0.00     0.002 C 
ENDROOT
BRANCH   1   2
ATOM      2  C   UNL A   1      39.449  21.871  26.343  1.00  0.00     0.002 C 
BRANCH   2   3
ATOM      3  C   UNL A   1      39.005  23.319  26.566  1.00  0.00     0.021 C 
BRANCH   3   4
ATOM      4  C   UNL A   1      37.712  23.800  25.918  1.00  0.00     0.116 C 
BRANCH   4   5
ATOM      5  N   UNL A   1      37.442  23.413  24.557  1.00  0.00    -0.352 N 
ATOM      6  C   UNL A   1      36.262  23.050  23.927  1.00  0.00     0.255 C 
ATOM      7  O   UNL A   1      36.306  23.106  22.693  1.00  0.00    -0.269 OA
ATOM      8  H   UNL A   1      38.234  23.406  23.972  1.00  0.00     0.163 HD
BRANCH   6   9
ATOM      9  C   UNL A   1      34.987  22.542  24.596  1.00  0.00     0.086 A 
ATOM     10  C   UNL A   1      32.914  19.442  25.664  1.00  0.00     0.044 C 
ATOM     11  C   UNL A   1      33.383  20.862  25.462  1.00  0.00    -0.046 A 
ATOM     12  C   UNL A   1      32.528  21.879  25.878  1.00  0.00     0.019 A 
ATOM     13  C   UNL A   1      34.665  21.185  24.921  1.00  0.00    -0.032 A 
ATOM     14  C   UNL A   1      32.888  23.206  25.698  1.00  0.00     0.066 A 
ATOM     15  C   UNL A   1      35.624  20.026  24.822  1.00  0.00     0.045 C 
ATOM     16  C   UNL A   1      32.009  24.245  26.254  1.00  0.00     0.200 A 
ATOM     17  C   UNL A   1      34.067  23.554  25.027  1.00  0.00     0.151 A 
ATOM     18  O   UNL A   1      30.980  23.964  26.858  1.00  0.00    -0.288 OA
ATOM     19  C   UNL A   1      32.431  25.630  26.081  1.00  0.00     0.065 A 
ATOM     20  O   UNL A   1      34.353  24.886  24.771  1.00  0.00    -0.455 OA
ATOM     21  C   UNL A   1      31.691  26.678  26.642  1.00  0.00     0.016 A 
ATOM     22  C   UNL A   1      33.584  25.872  25.344  1.00  0.00     0.138 A 
ATOM     23  C   UNL A   1      32.112  27.992  26.454  1.00  0.00     0.001 A 
ATOM     24  C   UNL A   1      33.999  27.191  25.157  1.00  0.00     0.048 A 
ATOM     25  C   UNL A   1      33.265  28.248  25.710  1.00  0.00     0.004 A 
ENDBRANCH   6   9
ENDBRANCH   4   5
ENDBRANCH   3   4
ENDBRANCH   2   3
ENDBRANCH   1   2
BRANCH   1  26
ATOM     26  C   UNL A   1      41.965  21.160  26.188  1.00  0.00     0.021 C 
BRANCH  26  27
ATOM     27  C   UNL A   1      42.479  22.367  25.414  1.00  0.00     0.116 C 
BRANCH  27  28
ATOM     28  N   UNL A   1      43.916  22.564  25.524  1.00  0.00    -0.352 N 
ATOM     29  C   UNL A   1      44.633  23.533  26.194  1.00  0.00     0.251 C 
ATOM     30  H   UNL A   1      44.463  21.901  25.045  1.00  0.00     0.163 HD
ATOM     31  O   UNL A   1      45.845  23.594  26.069  1.00  0.00    -0.269 OA
BRANCH  29  32
ATOM     32  C   UNL A   1      43.927  24.526  27.040  1.00  0.00     0.039 A 
ATOM     33  C   UNL A   1      44.063  25.893  26.809  1.00  0.00     0.014 A 
ATOM     34  C   UNL A   1      43.123  24.074  28.093  1.00  0.00     0.014 A 
ATOM     35  C   UNL A   1      43.564  26.802  27.734  1.00  0.00     0.010 A 
ATOM     36  C   UNL A   1      42.535  24.996  28.966  1.00  0.00     0.010 A 
ATOM     37  C   UNL A   1      42.802  26.367  28.832  1.00  0.00    -0.014 A 
BRANCH  37  38
ATOM     38  C   UNL A   1      42.319  27.370  29.819  1.00  0.00     0.031 A 
ATOM     39  C   UNL A   1      41.035  28.126  29.591  1.00  0.00     0.074 A 
ATOM     40  C   UNL A   1      42.997  27.535  30.972  1.00  0.00     0.049 A 
ATOM     41  N   UNL A   1      40.413  28.951  30.398  1.00  0.00    -0.248 NA
ATOM     42  C   UNL A   1      40.358  27.938  28.297  1.00  0.00     0.031 C 
ATOM     43  C   UNL A   1      44.248  26.855  31.314  1.00  0.00     0.029 A 
ATOM     44  N   UNL A   1      42.712  28.285  32.087  1.00  0.00    -0.354 N 
ATOM     45  C   UNL A   1      39.287  29.385  29.709  1.00  0.00     0.074 A 
ATOM     46  C   UNL A   1      39.328  28.767  28.402  1.00  0.00     0.031 C 
ATOM     47  C   UNL A   1      44.579  27.155  32.577  1.00  0.00     0.029 A 
ATOM     48  C   UNL A   1      43.607  28.103  33.114  1.00  0.00     0.049 A 
ATOM     49  H   UNL A   1      41.940  28.894  32.145  1.00  0.00     0.167 HD
ATOM     50  C   UNL A   1      38.300  30.209  30.131  1.00  0.00     0.031 A 
ATOM     51  C   UNL A   1      43.649  28.632  34.353  1.00  0.00     0.031 A 
ATOM     52  C   UNL A   1      38.258  30.818  31.435  1.00  0.00     0.049 A 
ATOM     53  C   UNL A   1      42.557  29.568  34.785  1.00  0.00     0.074 A 
ATOM     54  C   UNL A   1      37.290  31.660  31.957  1.00  0.00     0.029 A 
ATOM     55  N   UNL A   1      39.216  30.651  32.423  1.00  0.00    -0.354 N 
ATOM     56  N   UNL A   1      41.489  29.948  34.127  1.00  0.00    -0.248 NA
ATOM     57  C   UNL A   1      42.666  30.137  36.136  1.00  0.00     0.031 C 
ATOM     58  C   UNL A   1      37.697  32.056  33.231  1.00  0.00     0.029 A 
ATOM     59  C   UNL A   1      38.872  31.391  33.542  1.00  0.00     0.049 A 
ATOM     60  H   UNL A   1      40.022  30.091  32.341  1.00  0.00     0.167 HD
ATOM     61  C   UNL A   1      40.784  30.776  34.991  1.00  0.00     0.074 A 
ATOM     62  C   UNL A   1      41.537  30.829  36.227  1.00  0.00     0.031 C 
ATOM     63  C   UNL A   1      39.618  31.431  34.774  1.00  0.00     0.031 A 
BRANCH  50  64
ATOM     64  C   UNL A   1      37.172  30.517  29.181  1.00  0.00    -0.014 A 
ATOM     65  C   UNL A   1      36.990  31.830  28.716  1.00  0.00     0.009 A 
ATOM     66  C   UNL A   1      36.228  29.540  28.829  1.00  0.00     0.009 A 
ATOM     67  C   UNL A   1      35.878  32.163  27.941  1.00  0.00     0.001 A 
ATOM     68  C   UNL A   1      35.134  29.867  28.024  1.00  0.00     0.001 A 
ATOM     69  C   UNL A   1      34.953  31.181  27.591  1.00  0.00     0.000 A 
ENDBRANCH  50  64
BRANCH  51  70
ATOM     70  C   UNL A   1      44.755  28.249  35.272  1.00  0.00    -0.014 A 
ATOM     71  C   UNL A   1      45.953  28.984  35.291  1.00  0.00     0.009 A 
ATOM     72  C   UNL A   1      44.648  27.115  36.091  1.00  0.00     0.009 A 
ATOM     73  C   UNL A   1      47.029  28.574  36.081  1.00  0.00     0.001 A 
ATOM     74  C   UNL A   1      45.713  26.729  36.910  1.00  0.00     0.001 A 
ATOM     75  C   UNL A   1      46.906  27.450  36.893  1.00  0.00     0.000 A 
ENDBRANCH  51  70
BRANCH  63  76
ATOM     76  C   UNL A   1      39.039  32.240  35.905  1.00  0.00    -0.014 A 
ATOM     77  C   UNL A   1      39.461  33.567  36.090  1.00  0.00     0.009 A 
ATOM     78  C   UNL A   1      38.166  31.670  36.844  1.00  0.00     0.009 A 
ATOM     79  C   UNL A   1      39.036  34.301  37.199  1.00  0.00     0.001 A 
ATOM     80  C   UNL A   1      37.712  32.419  37.932  1.00  0.00     0.001 A 
ATOM     81  C   UNL A   1      38.156  33.729  38.114  1.00  0.00     0.000 A 
ENDBRANCH  63  76
ENDBRANCH  37  38
ENDBRANCH  29  32
ENDBRANCH  27  28
ENDBRANCH  26  27
ENDBRANCH   1  26
TORSDOF 13
ENDMDL
