MODEL 1
REMARK VINA RESULT:     -10.5      0.000      0.000
REMARK SMILES Cc1ccc(NC(=O)C[NH+]2CCC(C(=O)NCCCCCCNC(=O)c3ccc(-c4c5nc(c(-c6ccccc6)c6ccc([nH]6)c(-c6ccccc6)c6nc(c(-c7ccccc7)c7ccc4[nH]7)C=C6)C=C5)cc3)CC2)cc1Cl
REMARK SMILES IDX 19 1 18 2 17 3 16 4 14 5 15 6 13 8 10 9 11 10 75 11 12 13
REMARK SMILES IDX 74 14 9 15 7 16 6 17 8 19 5 20 1 21 2 22 3 23 77 24 4 25
REMARK SMILES IDX 76 26 78 27 20 28 21 29 22 30 23 31 24 32 25 34 26 35 27 36
REMARK SMILES IDX 73 37 28 38 72 39 29 40 30 41 31 42 66 43 32 44 71 45 65 46
REMARK SMILES IDX 67 47 33 48 70 49 64 50 63 51 34 53 56 54 41 55 55 56 42 57
REMARK SMILES IDX 45 58 54 59 68 60 43 61 44 62 53 64 69 65 46 66 35 67 36 68
REMARK SMILES IDX 40 69 37 70 39 71 38 72 57 73 58 74 62 75 59 76 61 77 60 78
REMARK SMILES IDX 47 79 48 80 52 81 49 82 51 83 50 84
REMARK H PARENT 16 7 10 12 6 18 23 33 67 52 45 63
REMARK Flexibility Score: inf
ROOT
ATOM      1  C   UNL A   1      41.871  21.780  27.042  1.00  0.00     0.002 C 
ENDROOT
BRANCH   1   2
ATOM      2  C   UNL A   1      40.834  22.701  27.691  1.00  0.00     0.021 C 
BRANCH   2   3
ATOM      3  C   UNL A   1      39.671  23.055  26.773  1.00  0.00     0.116 C 
BRANCH   3   4
ATOM      4  N   UNL A   1      39.083  21.857  26.195  1.00  0.00    -0.356 N 
ATOM      5  C   UNL A   1      37.984  21.692  25.410  1.00  0.00     0.223 C 
ATOM      6  O   UNL A   1      37.673  20.545  25.087  1.00  0.00    -0.275 OA
ATOM      7  H   UNL A   1      39.561  21.023  26.408  1.00  0.00     0.163 HD
BRANCH   5   8
ATOM      8  C   UNL A   1      37.196  22.883  24.892  1.00  0.00     0.089 C 
ATOM      9  N   UNL A   1      34.516  23.914  24.432  1.00  0.00    -0.327 N 
ATOM     10  C   UNL A   1      35.386  23.685  23.277  1.00  0.00     0.263 C 
ATOM     11  C   UNL A   1      35.294  24.406  25.563  1.00  0.00     0.263 C 
ATOM     12  H   UNL A   1      34.114  23.014  24.691  1.00  0.00     0.348 HD
ATOM     13  C   UNL A   1      36.407  22.588  23.609  1.00  0.00     0.075 C 
ATOM     14  C   UNL A   1      36.373  23.463  26.036  1.00  0.00     0.075 C 
BRANCH   9  15
ATOM     15  C   UNL A   1      33.343  24.777  24.126  1.00  0.00     0.363 C 
BRANCH  15  16
ATOM     16  C   UNL A   1      32.038  24.428  24.865  1.00  0.00     0.279 C 
ATOM     17  N   UNL A   1      31.514  23.156  24.907  1.00  0.00    -0.321 N 
ATOM     18  H   UNL A   1      30.649  23.080  25.372  1.00  0.00     0.170 HD
ATOM     19  O   UNL A   1      31.451  25.297  25.524  1.00  0.00    -0.268 OA
BRANCH  17  20
ATOM     20  C   UNL A   1      32.015  21.947  24.393  1.00  0.00     0.042 A 
ATOM     21  C   UNL A   1      32.309  18.051  22.580  1.00  0.00     0.046 C 
ATOM     22  C   UNL A   1      32.370  19.412  23.217  1.00  0.00    -0.032 A 
ATOM     23  C   UNL A   1      32.168  20.549  22.420  1.00  0.00     0.007 A 
ATOM     24  C   UNL A   1      32.513  19.587  24.602  1.00  0.00     0.046 A 
ATOM     25  C   UNL A   1      32.023  21.811  23.002  1.00  0.00     0.026 A 
ATOM     26  C   UNL A   1      32.359  20.853  25.185  1.00  0.00     0.047 A 
ATOM     27  Cl  UNL A   1      32.767  18.246  25.660  1.00  0.00    -0.084 Cl
ENDBRANCH  17  20
ENDBRANCH  15  16
ENDBRANCH   9  15
ENDBRANCH   5   8
ENDBRANCH   3   4
ENDBRANCH   2   3
ENDBRANCH   1   2
BRANCH   1  28
ATOM     28  C   UNL A   1      42.087  20.444  27.761  1.00  0.00     0.002 C 
BRANCH  28  29
ATOM     29  C   UNL A   1      42.381  19.251  26.847  1.00  0.00     0.021 C 
BRANCH  29  30
ATOM     30  C   UNL A   1      42.450  19.584  25.358  1.00  0.00     0.116 C 
BRANCH  30  31
ATOM     31  N   UNL A   1      43.647  19.054  24.728  1.00  0.00    -0.352 N 
ATOM     32  C   UNL A   1      44.816  19.685  24.408  1.00  0.00     0.251 C 
ATOM     33  H   UNL A   1      43.611  18.097  24.497  1.00  0.00     0.163 HD
ATOM     34  O   UNL A   1      45.667  19.099  23.736  1.00  0.00    -0.269 OA
BRANCH  32  35
ATOM     35  C   UNL A   1      45.060  21.075  24.843  1.00  0.00     0.039 A 
ATOM     36  C   UNL A   1      44.869  22.104  23.916  1.00  0.00     0.014 A 
ATOM     37  C   UNL A   1      45.503  21.370  26.136  1.00  0.00     0.014 A 
ATOM     38  C   UNL A   1      45.082  23.427  24.297  1.00  0.00     0.010 A 
ATOM     39  C   UNL A   1      45.654  22.697  26.535  1.00  0.00     0.010 A 
ATOM     40  C   UNL A   1      45.453  23.737  25.616  1.00  0.00    -0.014 A 
BRANCH  40  41
ATOM     41  C   UNL A   1      45.633  25.150  26.029  1.00  0.00     0.031 A 
ATOM     42  C   UNL A   1      44.470  25.949  26.546  1.00  0.00     0.074 A 
ATOM     43  C   UNL A   1      46.849  25.718  25.923  1.00  0.00     0.049 A 
ATOM     44  N   UNL A   1      44.450  27.182  26.986  1.00  0.00    -0.248 NA
ATOM     45  C   UNL A   1      43.156  25.288  26.551  1.00  0.00     0.031 C 
ATOM     46  C   UNL A   1      48.046  25.066  25.388  1.00  0.00     0.029 A 
ATOM     47  N   UNL A   1      47.282  26.974  26.268  1.00  0.00    -0.354 N 
ATOM     48  C   UNL A   1      43.126  27.442  27.321  1.00  0.00     0.074 A 
ATOM     49  C   UNL A   1      42.365  26.261  26.979  1.00  0.00     0.031 C 
ATOM     50  C   UNL A   1      49.083  25.914  25.470  1.00  0.00     0.029 A 
ATOM     51  C   UNL A   1      48.620  27.177  26.040  1.00  0.00     0.049 A 
ATOM     52  H   UNL A   1      46.688  27.664  26.642  1.00  0.00     0.167 HD
ATOM     53  C   UNL A   1      42.596  28.553  27.885  1.00  0.00     0.031 A 
ATOM     54  C   UNL A   1      49.391  28.254  26.269  1.00  0.00     0.031 A 
ATOM     55  C   UNL A   1      43.351  29.729  28.226  1.00  0.00     0.049 A 
ATOM     56  C   UNL A   1      48.780  29.471  26.904  1.00  0.00     0.074 A 
ATOM     57  C   UNL A   1      42.911  30.894  28.831  1.00  0.00     0.029 A 
ATOM     58  N   UNL A   1      44.707  29.890  27.990  1.00  0.00    -0.354 N 
ATOM     59  N   UNL A   1      47.540  29.675  27.276  1.00  0.00    -0.248 NA
ATOM     60  C   UNL A   1      49.685  30.600  27.170  1.00  0.00     0.031 C 
ATOM     61  C   UNL A   1      43.994  31.774  28.927  1.00  0.00     0.029 A 
ATOM     62  C   UNL A   1      45.118  31.139  28.425  1.00  0.00     0.049 A 
ATOM     63  H   UNL A   1      45.292  29.216  27.574  1.00  0.00     0.167 HD
ATOM     64  C   UNL A   1      47.517  30.945  27.837  1.00  0.00     0.074 A 
ATOM     65  C   UNL A   1      48.873  31.452  27.780  1.00  0.00     0.031 C 
ATOM     66  C   UNL A   1      46.469  31.631  28.351  1.00  0.00     0.031 A 
BRANCH  53  67
ATOM     67  C   UNL A   1      41.121  28.541  28.175  1.00  0.00    -0.014 A 
ATOM     68  C   UNL A   1      40.199  29.047  27.244  1.00  0.00     0.009 A 
ATOM     69  C   UNL A   1      40.644  27.990  29.373  1.00  0.00     0.009 A 
ATOM     70  C   UNL A   1      38.831  29.032  27.523  1.00  0.00     0.001 A 
ATOM     71  C   UNL A   1      39.272  27.951  29.637  1.00  0.00     0.001 A 
ATOM     72  C   UNL A   1      38.368  28.480  28.717  1.00  0.00     0.000 A 
ENDBRANCH  53  67
BRANCH  54  73
ATOM     73  C   UNL A   1      50.834  28.223  25.920  1.00  0.00    -0.014 A 
ATOM     74  C   UNL A   1      51.275  28.646  24.658  1.00  0.00     0.009 A 
ATOM     75  C   UNL A   1      51.779  27.763  26.851  1.00  0.00     0.009 A 
ATOM     76  C   UNL A   1      52.629  28.580  24.323  1.00  0.00     0.001 A 
ATOM     77  C   UNL A   1      53.136  27.725  26.522  1.00  0.00     0.001 A 
ATOM     78  C   UNL A   1      53.558  28.123  25.256  1.00  0.00     0.000 A 
ENDBRANCH  54  73
BRANCH  66  79
ATOM     79  C   UNL A   1      46.757  32.996  28.908  1.00  0.00    -0.014 A 
ATOM     80  C   UNL A   1      46.664  34.144  28.106  1.00  0.00     0.009 A 
ATOM     81  C   UNL A   1      47.110  33.137  30.259  1.00  0.00     0.009 A 
ATOM     82  C   UNL A   1      46.959  35.400  28.634  1.00  0.00     0.001 A 
ATOM     83  C   UNL A   1      47.377  34.398  30.793  1.00  0.00     0.001 A 
ATOM     84  C   UNL A   1      47.313  35.527  29.978  1.00  0.00     0.000 A 
ENDBRANCH  66  79
ENDBRANCH  40  41
ENDBRANCH  32  35
ENDBRANCH  30  31
ENDBRANCH  29  30
ENDBRANCH  28  29
ENDBRANCH   1  28
TORSDOF 16
ENDMDL
MODEL 2
REMARK VINA RESULT:     -10.4      6.851     11.609
REMARK SMILES Cc1ccc(NC(=O)C[NH+]2CCC(C(=O)NCCCCCCNC(=O)c3ccc(-c4c5nc(c(-c6ccccc6)c6ccc([nH]6)c(-c6ccccc6)c6nc(c(-c7ccccc7)c7ccc4[nH]7)C=C6)C=C5)cc3)CC2)cc1Cl
REMARK SMILES IDX 19 1 18 2 17 3 16 4 14 5 15 6 13 8 10 9 11 10 75 11 12 13
REMARK SMILES IDX 74 14 9 15 7 16 6 17 8 19 5 20 1 21 2 22 3 23 77 24 4 25
REMARK SMILES IDX 76 26 78 27 20 28 21 29 22 30 23 31 24 32 25 34 26 35 27 36
REMARK SMILES IDX 73 37 28 38 72 39 29 40 30 41 31 42 66 43 32 44 71 45 65 46
REMARK SMILES IDX 67 47 33 48 70 49 64 50 63 51 34 53 56 54 41 55 55 56 42 57
REMARK SMILES IDX 45 58 54 59 68 60 43 61 44 62 53 64 69 65 46 66 35 67 36 68
REMARK SMILES IDX 40 69 37 70 39 71 38 72 57 73 58 74 62 75 59 76 61 77 60 78
REMARK SMILES IDX 47 79 48 80 52 81 49 82 51 83 50 84
REMARK H PARENT 16 7 10 12 6 18 23 33 67 52 45 63
REMARK Flexibility Score: inf
ROOT
ATOM      1  C   UNL A   1      33.791  32.639  27.701  1.00  0.00     0.002 C 
ENDROOT
BRANCH   1   2
ATOM      2  C   UNL A   1      35.149  32.000  28.001  1.00  0.00     0.021 C 
BRANCH   2   3
ATOM      3  C   UNL A   1      35.165  30.487  27.822  1.00  0.00     0.116 C 
BRANCH   3   4
ATOM      4  N   UNL A   1      33.829  29.933  27.972  1.00  0.00    -0.356 N 
ATOM      5  C   UNL A   1      33.148  29.029  27.215  1.00  0.00     0.223 C 
ATOM      6  O   UNL A   1      31.991  28.758  27.543  1.00  0.00    -0.275 OA
ATOM      7  H   UNL A   1      33.333  30.268  28.753  1.00  0.00     0.163 HD
BRANCH   5   8
ATOM      8  C   UNL A   1      33.804  28.326  26.040  1.00  0.00     0.089 C 
ATOM      9  N   UNL A   1      33.287  26.767  23.640  1.00  0.00    -0.327 N 
ATOM     10  C   UNL A   1      34.029  26.141  24.735  1.00  0.00     0.263 C 
ATOM     11  C   UNL A   1      33.649  28.176  23.521  1.00  0.00     0.263 C 
ATOM     12  H   UNL A   1      32.297  26.714  23.876  1.00  0.00     0.348 HD
ATOM     13  C   UNL A   1      33.641  26.801  26.066  1.00  0.00     0.075 C 
ATOM     14  C   UNL A   1      33.353  29.001  24.750  1.00  0.00     0.075 C 
BRANCH   9  15
ATOM     15  C   UNL A   1      33.408  26.035  22.349  1.00  0.00     0.363 C 
BRANCH  15  16
ATOM     16  C   UNL A   1      32.094  25.496  21.755  1.00  0.00     0.279 C 
ATOM     17  N   UNL A   1      31.431  24.402  22.264  1.00  0.00    -0.321 N 
ATOM     18  H   UNL A   1      30.629  24.134  21.759  1.00  0.00     0.170 HD
ATOM     19  O   UNL A   1      31.546  26.098  20.822  1.00  0.00    -0.268 OA
BRANCH  17  20
ATOM     20  C   UNL A   1      31.713  23.608  23.389  1.00  0.00     0.042 A 
ATOM     21  C   UNL A   1      33.167  22.250  27.210  1.00  0.00     0.046 C 
ATOM     22  C   UNL A   1      32.582  22.580  25.863  1.00  0.00    -0.032 A 
ATOM     23  C   UNL A   1      31.464  23.424  25.793  1.00  0.00     0.007 A 
ATOM     24  C   UNL A   1      33.179  22.164  24.663  1.00  0.00     0.046 A 
ATOM     25  C   UNL A   1      31.014  23.910  24.562  1.00  0.00     0.026 A 
ATOM     26  C   UNL A   1      32.732  22.658  23.430  1.00  0.00     0.047 A 
ATOM     27  Cl  UNL A   1      34.558  21.123  24.654  1.00  0.00    -0.084 Cl
ENDBRANCH  17  20
ENDBRANCH  15  16
ENDBRANCH   9  15
ENDBRANCH   5   8
ENDBRANCH   3   4
ENDBRANCH   2   3
ENDBRANCH   1   2
BRANCH   1  28
ATOM     28  C   UNL A   1      33.703  34.139  28.003  1.00  0.00     0.002 C 
BRANCH  28  29
ATOM     29  C   UNL A   1      33.444  34.494  29.470  1.00  0.00     0.021 C 
BRANCH  29  30
ATOM     30  C   UNL A   1      33.136  35.966  29.731  1.00  0.00     0.116 C 
BRANCH  30  31
ATOM     31  N   UNL A   1      32.370  36.164  30.950  1.00  0.00    -0.352 N 
ATOM     32  C   UNL A   1      32.616  35.716  32.217  1.00  0.00     0.251 C 
ATOM     33  H   UNL A   1      31.550  36.703  30.847  1.00  0.00     0.163 HD
ATOM     34  O   UNL A   1      31.764  35.861  33.096  1.00  0.00    -0.269 OA
BRANCH  32  35
ATOM     35  C   UNL A   1      33.886  35.035  32.537  1.00  0.00     0.039 A 
ATOM     36  C   UNL A   1      33.838  33.706  32.966  1.00  0.00     0.014 A 
ATOM     37  C   UNL A   1      35.114  35.699  32.449  1.00  0.00     0.014 A 
ATOM     38  C   UNL A   1      35.020  33.032  33.267  1.00  0.00     0.010 A 
ATOM     39  C   UNL A   1      36.299  35.007  32.689  1.00  0.00     0.010 A 
ATOM     40  C   UNL A   1      36.262  33.670  33.109  1.00  0.00    -0.014 A 
BRANCH  40  41
ATOM     41  C   UNL A   1      37.520  32.934  33.386  1.00  0.00     0.031 A 
ATOM     42  C   UNL A   1      38.284  33.177  34.658  1.00  0.00     0.074 A 
ATOM     43  C   UNL A   1      37.984  32.055  32.478  1.00  0.00     0.049 A 
ATOM     44  N   UNL A   1      39.380  32.599  35.083  1.00  0.00    -0.248 NA
ATOM     45  C   UNL A   1      37.762  34.215  35.561  1.00  0.00     0.031 C 
ATOM     46  C   UNL A   1      37.363  31.769  31.182  1.00  0.00     0.029 A 
ATOM     47  N   UNL A   1      39.082  31.233  32.509  1.00  0.00    -0.354 N 
ATOM     48  C   UNL A   1      39.676  33.201  36.299  1.00  0.00     0.074 A 
ATOM     49  C   UNL A   1      38.680  34.227  36.517  1.00  0.00     0.031 C 
ATOM     50  C   UNL A   1      38.072  30.815  30.557  1.00  0.00     0.029 A 
ATOM     51  C   UNL A   1      39.207  30.440  31.395  1.00  0.00     0.049 A 
ATOM     52  H   UNL A   1      39.719  31.215  33.259  1.00  0.00     0.167 HD
ATOM     53  C   UNL A   1      40.673  32.911  37.169  1.00  0.00     0.031 A 
ATOM     54  C   UNL A   1      40.128  29.510  31.085  1.00  0.00     0.031 A 
ATOM     55  C   UNL A   1      41.665  31.892  36.955  1.00  0.00     0.049 A 
ATOM     56  C   UNL A   1      41.218  29.200  32.072  1.00  0.00     0.074 A 
ATOM     57  C   UNL A   1      42.696  31.499  37.792  1.00  0.00     0.029 A 
ATOM     58  N   UNL A   1      41.750  31.102  35.820  1.00  0.00    -0.354 N 
ATOM     59  N   UNL A   1      41.444  29.733  33.247  1.00  0.00    -0.248 NA
ATOM     60  C   UNL A   1      42.167  28.143  31.693  1.00  0.00     0.031 C 
ATOM     61  C   UNL A   1      43.427  30.497  37.145  1.00  0.00     0.029 A 
ATOM     62  C   UNL A   1      42.823  30.232  35.927  1.00  0.00     0.049 A 
ATOM     63  H   UNL A   1      41.138  31.151  35.050  1.00  0.00     0.167 HD
ATOM     64  C   UNL A   1      42.549  29.064  33.759  1.00  0.00     0.074 A 
ATOM     65  C   UNL A   1      42.928  28.070  32.776  1.00  0.00     0.031 C 
ATOM     66  C   UNL A   1      43.192  29.257  34.935  1.00  0.00     0.031 A 
BRANCH  53  67
ATOM     67  C   UNL A   1      40.730  33.709  38.441  1.00  0.00    -0.014 A 
ATOM     68  C   UNL A   1      41.455  34.910  38.507  1.00  0.00     0.009 A 
ATOM     69  C   UNL A   1      40.028  33.276  39.576  1.00  0.00     0.009 A 
ATOM     70  C   UNL A   1      41.503  35.644  39.694  1.00  0.00     0.001 A 
ATOM     71  C   UNL A   1      40.055  34.027  40.754  1.00  0.00     0.001 A 
ATOM     72  C   UNL A   1      40.800  35.205  40.815  1.00  0.00     0.000 A 
ENDBRANCH  53  67
BRANCH  54  73
ATOM     73  C   UNL A   1      40.045  28.785  29.792  1.00  0.00    -0.014 A 
ATOM     74  C   UNL A   1      40.573  29.347  28.620  1.00  0.00     0.009 A 
ATOM     75  C   UNL A   1      39.429  27.525  29.724  1.00  0.00     0.009 A 
ATOM     76  C   UNL A   1      40.460  28.676  27.401  1.00  0.00     0.001 A 
ATOM     77  C   UNL A   1      39.342  26.844  28.507  1.00  0.00     0.001 A 
ATOM     78  C   UNL A   1      39.848  27.425  27.346  1.00  0.00     0.000 A 
ENDBRANCH  54  73
BRANCH  66  79
ATOM     79  C   UNL A   1      44.361  28.359  35.225  1.00  0.00    -0.014 A 
ATOM     80  C   UNL A   1      44.182  27.102  35.825  1.00  0.00     0.009 A 
ATOM     81  C   UNL A   1      45.658  28.770  34.878  1.00  0.00     0.009 A 
ATOM     82  C   UNL A   1      45.282  26.294  36.109  1.00  0.00     0.001 A 
ATOM     83  C   UNL A   1      46.754  27.946  35.139  1.00  0.00     0.001 A 
ATOM     84  C   UNL A   1      46.567  26.714  35.763  1.00  0.00     0.000 A 
ENDBRANCH  66  79
ENDBRANCH  40  41
ENDBRANCH  32  35
ENDBRANCH  30  31
ENDBRANCH  29  30
ENDBRANCH  28  29
ENDBRANCH   1  28
TORSDOF 16
ENDMDL
MODEL 3
REMARK VINA RESULT:     -10.4      6.891     11.877
REMARK SMILES Cc1ccc(NC(=O)C[NH+]2CCC(C(=O)NCCCCCCNC(=O)c3ccc(-c4c5nc(c(-c6ccccc6)c6ccc([nH]6)c(-c6ccccc6)c6nc(c(-c7ccccc7)c7ccc4[nH]7)C=C6)C=C5)cc3)CC2)cc1Cl
REMARK SMILES IDX 19 1 18 2 17 3 16 4 14 5 15 6 13 8 10 9 11 10 75 11 12 13
REMARK SMILES IDX 74 14 9 15 7 16 6 17 8 19 5 20 1 21 2 22 3 23 77 24 4 25
REMARK SMILES IDX 76 26 78 27 20 28 21 29 22 30 23 31 24 32 25 34 26 35 27 36
REMARK SMILES IDX 73 37 28 38 72 39 29 40 30 41 31 42 66 43 32 44 71 45 65 46
REMARK SMILES IDX 67 47 33 48 70 49 64 50 63 51 34 53 56 54 41 55 55 56 42 57
REMARK SMILES IDX 45 58 54 59 68 60 43 61 44 62 53 64 69 65 46 66 35 67 36 68
REMARK SMILES IDX 40 69 37 70 39 71 38 72 57 73 58 74 62 75 59 76 61 77 60 78
REMARK SMILES IDX 47 79 48 80 52 81 49 82 51 83 50 84
REMARK H PARENT 16 7 10 12 6 18 23 33 67 52 45 63
REMARK Flexibility Score: inf
ROOT
ATOM      1  C   UNL A   1      33.825  32.620  27.689  1.00  0.00     0.002 C 
ENDROOT
BRANCH   1   2
ATOM      2  C   UNL A   1      35.177  31.975  28.008  1.00  0.00     0.021 C 
BRANCH   2   3
ATOM      3  C   UNL A   1      35.193  30.464  27.818  1.00  0.00     0.116 C 
BRANCH   3   4
ATOM      4  N   UNL A   1      33.858  29.907  27.971  1.00  0.00    -0.356 N 
ATOM      5  C   UNL A   1      33.176  29.005  27.214  1.00  0.00     0.223 C 
ATOM      6  O   UNL A   1      32.021  28.731  27.545  1.00  0.00    -0.275 OA
ATOM      7  H   UNL A   1      33.364  30.239  28.755  1.00  0.00     0.163 HD
BRANCH   5   8
ATOM      8  C   UNL A   1      33.829  28.305  26.035  1.00  0.00     0.089 C 
ATOM      9  N   UNL A   1      33.306  26.766  23.624  1.00  0.00    -0.327 N 
ATOM     10  C   UNL A   1      34.042  26.128  24.716  1.00  0.00     0.263 C 
ATOM     11  C   UNL A   1      33.677  28.173  23.515  1.00  0.00     0.263 C 
ATOM     12  H   UNL A   1      32.314  26.717  23.858  1.00  0.00     0.348 HD
ATOM     13  C   UNL A   1      33.656  26.781  26.050  1.00  0.00     0.075 C 
ATOM     14  C   UNL A   1      33.384  28.992  24.749  1.00  0.00     0.075 C 
BRANCH   9  15
ATOM     15  C   UNL A   1      33.424  26.042  22.328  1.00  0.00     0.363 C 
BRANCH  15  16
ATOM     16  C   UNL A   1      32.109  25.501  21.736  1.00  0.00     0.279 C 
ATOM     17  N   UNL A   1      31.442  24.414  22.253  1.00  0.00    -0.321 N 
ATOM     18  H   UNL A   1      30.641  24.143  21.750  1.00  0.00     0.170 HD
ATOM     19  O   UNL A   1      31.564  26.098  20.798  1.00  0.00    -0.268 OA
BRANCH  17  20
ATOM     20  C   UNL A   1      31.721  23.629  23.385  1.00  0.00     0.042 A 
ATOM     21  C   UNL A   1      33.172  22.295  27.216  1.00  0.00     0.046 C 
ATOM     22  C   UNL A   1      32.587  22.617  25.867  1.00  0.00    -0.032 A 
ATOM     23  C   UNL A   1      31.476  23.470  25.792  1.00  0.00     0.007 A 
ATOM     24  C   UNL A   1      33.178  22.184  24.670  1.00  0.00     0.046 A 
ATOM     25  C   UNL A   1      31.027  23.948  24.557  1.00  0.00     0.026 A 
ATOM     26  C   UNL A   1      32.731  22.670  23.433  1.00  0.00     0.047 A 
ATOM     27  Cl  UNL A   1      34.548  21.131  24.668  1.00  0.00    -0.084 Cl
ENDBRANCH  17  20
ENDBRANCH  15  16
ENDBRANCH   9  15
ENDBRANCH   5   8
ENDBRANCH   3   4
ENDBRANCH   2   3
ENDBRANCH   1   2
BRANCH   1  28
ATOM     28  C   UNL A   1      33.747  34.125  27.965  1.00  0.00     0.002 C 
BRANCH  28  29
ATOM     29  C   UNL A   1      33.349  34.506  29.394  1.00  0.00     0.021 C 
BRANCH  29  30
ATOM     30  C   UNL A   1      33.247  36.007  29.654  1.00  0.00     0.116 C 
BRANCH  30  31
ATOM     31  N   UNL A   1      32.498  36.309  30.862  1.00  0.00    -0.352 N 
ATOM     32  C   UNL A   1      32.693  35.870  32.141  1.00  0.00     0.251 C 
ATOM     33  H   UNL A   1      31.737  36.923  30.742  1.00  0.00     0.163 HD
ATOM     34  O   UNL A   1      31.857  36.120  33.011  1.00  0.00    -0.269 OA
BRANCH  32  35
ATOM     35  C   UNL A   1      33.889  35.075  32.487  1.00  0.00     0.039 A 
ATOM     36  C   UNL A   1      35.145  35.669  32.342  1.00  0.00     0.014 A 
ATOM     37  C   UNL A   1      33.785  33.749  32.919  1.00  0.00     0.014 A 
ATOM     38  C   UNL A   1      36.294  34.949  32.668  1.00  0.00     0.010 A 
ATOM     39  C   UNL A   1      34.928  33.052  33.306  1.00  0.00     0.010 A 
ATOM     40  C   UNL A   1      36.193  33.642  33.174  1.00  0.00    -0.014 A 
BRANCH  40  41
ATOM     41  C   UNL A   1      37.414  32.896  33.564  1.00  0.00     0.031 A 
ATOM     42  C   UNL A   1      38.019  31.879  32.637  1.00  0.00     0.074 A 
ATOM     43  C   UNL A   1      37.972  33.126  34.768  1.00  0.00     0.049 A 
ATOM     44  N   UNL A   1      39.102  31.162  32.796  1.00  0.00    -0.248 NA
ATOM     45  C   UNL A   1      37.305  31.619  31.376  1.00  0.00     0.031 C 
ATOM     46  C   UNL A   1      37.451  34.049  35.780  1.00  0.00     0.029 A 
ATOM     47  N   UNL A   1      39.104  32.607  35.343  1.00  0.00    -0.354 N 
ATOM     48  C   UNL A   1      39.200  30.369  31.659  1.00  0.00     0.074 A 
ATOM     49  C   UNL A   1      38.037  30.651  30.846  1.00  0.00     0.031 C 
ATOM     50  C   UNL A   1      38.280  34.054  36.837  1.00  0.00     0.029 A 
ATOM     51  C   UNL A   1      39.373  33.119  36.588  1.00  0.00     0.049 A 
ATOM     52  H   UNL A   1      39.669  31.931  34.904  1.00  0.00     0.167 HD
ATOM     53  C   UNL A   1      40.181  29.503  31.310  1.00  0.00     0.031 A 
ATOM     54  C   UNL A   1      40.390  32.871  37.433  1.00  0.00     0.031 A 
ATOM     55  C   UNL A   1      41.338  29.220  32.116  1.00  0.00     0.049 A 
ATOM     56  C   UNL A   1      41.471  31.913  37.017  1.00  0.00     0.074 A 
ATOM     57  C   UNL A   1      42.405  28.383  31.835  1.00  0.00     0.029 A 
ATOM     58  N   UNL A   1      41.581  29.770  33.365  1.00  0.00    -0.354 N 
ATOM     59  N   UNL A   1      41.582  31.223  35.909  1.00  0.00    -0.248 NA
ATOM     60  C   UNL A   1      42.578  31.718  37.965  1.00  0.00     0.031 C 
ATOM     61  C   UNL A   1      43.273  28.398  32.931  1.00  0.00     0.029 A 
ATOM     62  C   UNL A   1      42.772  29.280  33.874  1.00  0.00     0.049 A 
ATOM     63  H   UNL A   1      40.993  30.413  33.823  1.00  0.00     0.167 HD
ATOM     64  C   UNL A   1      42.779  30.526  36.016  1.00  0.00     0.074 A 
ATOM     65  C   UNL A   1      43.368  30.899  37.286  1.00  0.00     0.031 C 
ATOM     66  C   UNL A   1      43.338  29.654  35.144  1.00  0.00     0.031 A 
BRANCH  53  67
ATOM     67  C   UNL A   1      40.043  28.802  29.987  1.00  0.00    -0.014 A 
ATOM     68  C   UNL A   1      39.515  27.503  29.911  1.00  0.00     0.009 A 
ATOM     69  C   UNL A   1      40.411  29.456  28.802  1.00  0.00     0.009 A 
ATOM     70  C   UNL A   1      39.391  26.860  28.678  1.00  0.00     0.001 A 
ATOM     71  C   UNL A   1      40.260  28.821  27.567  1.00  0.00     0.001 A 
ATOM     72  C   UNL A   1      39.759  27.521  27.507  1.00  0.00     0.000 A 
ENDBRANCH  53  67
BRANCH  54  73
ATOM     73  C   UNL A   1      40.451  33.561  38.746  1.00  0.00    -0.014 A 
ATOM     74  C   UNL A   1      41.115  34.789  38.880  1.00  0.00     0.009 A 
ATOM     75  C   UNL A   1      39.847  32.988  39.877  1.00  0.00     0.009 A 
ATOM     76  C   UNL A   1      41.199  35.415  40.126  1.00  0.00     0.001 A 
ATOM     77  C   UNL A   1      39.909  33.630  41.115  1.00  0.00     0.001 A 
ATOM     78  C   UNL A   1      40.594  34.837  41.241  1.00  0.00     0.000 A 
ENDBRANCH  54  73
BRANCH  66  79
ATOM     79  C   UNL A   1      44.664  29.062  35.530  1.00  0.00    -0.014 A 
ATOM     80  C   UNL A   1      44.742  27.861  36.252  1.00  0.00     0.009 A 
ATOM     81  C   UNL A   1      45.852  29.707  35.151  1.00  0.00     0.009 A 
ATOM     82  C   UNL A   1      45.981  27.340  36.623  1.00  0.00     0.001 A 
ATOM     83  C   UNL A   1      47.091  29.169  35.500  1.00  0.00     0.001 A 
ATOM     84  C   UNL A   1      47.155  27.992  36.245  1.00  0.00     0.000 A 
ENDBRANCH  66  79
ENDBRANCH  40  41
ENDBRANCH  32  35
ENDBRANCH  30  31
ENDBRANCH  29  30
ENDBRANCH  28  29
ENDBRANCH   1  28
TORSDOF 16
ENDMDL
