MODEL 1
REMARK VINA RESULT:     -10.4      0.000      0.000
REMARK SMILES C[C@H](Nc1ncccc1C(=O)NCCCCCCNC(=O)c1ccc(-c2c3nc(c(-c4ccccc4)c4ccc([nH]4)c(-c4ccccc4)c4nc(c(-c5ccccc5)c5ccc2[nH]5)C=C4)C=C3)cc1)c1ccc(Cl)cc1
REMARK SMILES IDX 15 1 14 2 13 3 12 4 10 5 11 6 9 8 4 9 5 10 6 11 8 12 7 13
REMARK SMILES IDX 3 14 2 16 1 17 70 18 71 19 76 20 72 21 75 22 73 23 74 24
REMARK SMILES IDX 16 25 17 26 18 27 19 28 20 29 21 31 22 32 23 33 69 34 24 35
REMARK SMILES IDX 68 36 25 37 26 38 27 39 62 40 28 41 67 42 61 43 63 44 29 45
REMARK SMILES IDX 66 46 60 47 59 48 30 50 52 51 37 52 51 53 38 54 41 55 50 56
REMARK SMILES IDX 64 57 39 58 40 59 49 61 65 62 42 63 31 64 32 65 36 66 33 67
REMARK SMILES IDX 35 68 34 69 53 70 54 71 58 72 55 73 57 74 56 75 43 76 44 77
REMARK SMILES IDX 48 78 45 79 47 80 46 81
REMARK H PARENT 12 7 3 15 19 30 63 49 41 60
REMARK Flexibility Score: inf
ROOT
ATOM      1  C   UNL A   1      38.523  22.365  25.854  1.00  0.00     0.002 C 
ENDROOT
BRANCH   1   2
ATOM      2  C   UNL A   1      37.712  23.644  26.081  1.00  0.00     0.021 C 
BRANCH   2   3
ATOM      3  C   UNL A   1      36.246  23.626  25.652  1.00  0.00     0.116 C 
BRANCH   3   4
ATOM      4  N   UNL A   1      35.319  23.388  26.741  1.00  0.00    -0.352 N 
ATOM      5  C   UNL A   1      34.274  22.507  26.915  1.00  0.00     0.255 C 
ATOM      6  O   UNL A   1      33.740  22.507  28.023  1.00  0.00    -0.269 OA
ATOM      7  H   UNL A   1      35.466  23.978  27.515  1.00  0.00     0.163 HD
BRANCH   5   8
ATOM      8  C   UNL A   1      33.794  21.583  25.852  1.00  0.00     0.082 A 
ATOM      9  C   UNL A   1      32.550  21.768  25.228  1.00  0.00     0.139 A 
ATOM     10  N   UNL A   1      32.046  20.866  24.345  1.00  0.00    -0.239 NA
ATOM     11  C   UNL A   1      32.783  19.784  24.032  1.00  0.00     0.113 A 
ATOM     12  C   UNL A   1      34.500  20.409  25.547  1.00  0.00     0.019 A 
ATOM     13  C   UNL A   1      34.013  19.519  24.594  1.00  0.00     0.021 A 
BRANCH   9  14
ATOM     14  N   UNL A   1      31.717  22.865  25.347  1.00  0.00    -0.363 N 
ATOM     15  H   UNL A   1      31.008  22.880  26.030  1.00  0.00     0.162 HD
BRANCH  14  16
ATOM     16  C   UNL A   1      31.899  24.002  24.449  1.00  0.00     0.108 C 
ATOM     17  C   UNL A   1      30.657  24.097  23.541  1.00  0.00     0.036 C 
BRANCH  16  18
ATOM     18  C   UNL A   1      32.098  25.312  25.220  1.00  0.00    -0.026 A 
ATOM     19  C   UNL A   1      31.068  25.948  25.933  1.00  0.00     0.007 A 
ATOM     20  C   UNL A   1      33.376  25.906  25.245  1.00  0.00     0.007 A 
ATOM     21  C   UNL A   1      31.293  27.158  26.601  1.00  0.00     0.021 A 
ATOM     22  C   UNL A   1      33.602  27.114  25.910  1.00  0.00     0.021 A 
ATOM     23  C   UNL A   1      32.557  27.739  26.579  1.00  0.00     0.041 A 
ATOM     24  Cl  UNL A   1      32.832  29.233  27.387  1.00  0.00    -0.084 Cl
ENDBRANCH  16  18
ENDBRANCH  14  16
ENDBRANCH   9  14
ENDBRANCH   5   8
ENDBRANCH   3   4
ENDBRANCH   2   3
ENDBRANCH   1   2
BRANCH   1  25
ATOM     25  C   UNL A   1      37.918  21.311  24.922  1.00  0.00     0.002 C 
BRANCH  25  26
ATOM     26  C   UNL A   1      38.492  19.897  25.022  1.00  0.00     0.021 C 
BRANCH  26  27
ATOM     27  C   UNL A   1      39.378  19.623  26.231  1.00  0.00     0.116 C 
BRANCH  27  28
ATOM     28  N   UNL A   1      40.645  19.012  25.873  1.00  0.00    -0.352 N 
ATOM     29  C   UNL A   1      41.904  19.561  25.847  1.00  0.00     0.251 C 
ATOM     30  H   UNL A   1      40.595  18.065  25.609  1.00  0.00     0.163 HD
ATOM     31  O   UNL A   1      42.838  18.932  25.362  1.00  0.00    -0.269 OA
BRANCH  29  32
ATOM     32  C   UNL A   1      42.143  20.921  26.388  1.00  0.00     0.039 A 
ATOM     33  C   UNL A   1      42.075  21.114  27.771  1.00  0.00     0.014 A 
ATOM     34  C   UNL A   1      42.390  22.006  25.543  1.00  0.00     0.014 A 
ATOM     35  C   UNL A   1      42.296  22.385  28.309  1.00  0.00     0.010 A 
ATOM     36  C   UNL A   1      42.679  23.258  26.085  1.00  0.00     0.010 A 
ATOM     37  C   UNL A   1      42.620  23.464  27.471  1.00  0.00    -0.014 A 
BRANCH  37  38
ATOM     38  C   UNL A   1      42.867  24.819  28.028  1.00  0.00     0.031 A 
ATOM     39  C   UNL A   1      44.257  25.223  28.441  1.00  0.00     0.074 A 
ATOM     40  C   UNL A   1      41.840  25.671  28.202  1.00  0.00     0.049 A 
ATOM     41  N   UNL A   1      44.667  26.345  28.976  1.00  0.00    -0.248 NA
ATOM     42  C   UNL A   1      45.323  24.226  28.250  1.00  0.00     0.031 C 
ATOM     43  C   UNL A   1      40.440  25.390  27.876  1.00  0.00     0.029 A 
ATOM     44  N   UNL A   1      41.815  26.950  28.699  1.00  0.00    -0.354 N 
ATOM     45  C   UNL A   1      46.028  26.183  29.201  1.00  0.00     0.074 A 
ATOM     46  C   UNL A   1      46.366  24.837  28.792  1.00  0.00     0.031 C 
ATOM     47  C   UNL A   1      39.699  26.475  28.155  1.00  0.00     0.029 A 
ATOM     48  C   UNL A   1      40.562  27.513  28.710  1.00  0.00     0.049 A 
ATOM     49  H   UNL A   1      42.620  27.419  29.019  1.00  0.00     0.167 HD
ATOM     50  C   UNL A   1      46.923  27.077  29.684  1.00  0.00     0.031 A 
ATOM     51  C   UNL A   1      40.154  28.729  29.119  1.00  0.00     0.031 A 
ATOM     52  C   UNL A   1      46.593  28.421  30.077  1.00  0.00     0.049 A 
ATOM     53  C   UNL A   1      41.166  29.704  29.652  1.00  0.00     0.074 A 
ATOM     54  C   UNL A   1      47.438  29.419  30.530  1.00  0.00     0.029 A 
ATOM     55  N   UNL A   1      45.315  28.954  30.061  1.00  0.00    -0.354 N 
ATOM     56  N   UNL A   1      42.460  29.554  29.800  1.00  0.00    -0.248 NA
ATOM     57  C   UNL A   1      40.661  31.023  30.058  1.00  0.00     0.031 C 
ATOM     58  C   UNL A   1      46.663  30.545  30.831  1.00  0.00     0.029 A 
ATOM     59  C   UNL A   1      45.344  30.263  30.513  1.00  0.00     0.049 A 
ATOM     60  H   UNL A   1      44.505  28.475  29.770  1.00  0.00     0.167 HD
ATOM     61  C   UNL A   1      42.928  30.768  30.287  1.00  0.00     0.074 A 
ATOM     62  C   UNL A   1      41.782  31.647  30.395  1.00  0.00     0.031 C 
ATOM     63  C   UNL A   1      44.195  31.124  30.612  1.00  0.00     0.031 A 
BRANCH  50  64
ATOM     64  C   UNL A   1      48.350  26.621  29.819  1.00  0.00    -0.014 A 
ATOM     65  C   UNL A   1      48.799  25.965  30.977  1.00  0.00     0.009 A 
ATOM     66  C   UNL A   1      49.253  26.826  28.763  1.00  0.00     0.009 A 
ATOM     67  C   UNL A   1      50.130  25.561  31.090  1.00  0.00     0.001 A 
ATOM     68  C   UNL A   1      50.576  26.393  28.868  1.00  0.00     0.001 A 
ATOM     69  C   UNL A   1      51.017  25.771  30.035  1.00  0.00     0.000 A 
ENDBRANCH  50  64
BRANCH  51  70
ATOM     70  C   UNL A   1      38.720  29.106  29.017  1.00  0.00    -0.014 A 
ATOM     71  C   UNL A   1      38.197  29.592  27.809  1.00  0.00     0.009 A 
ATOM     72  C   UNL A   1      37.868  28.988  30.126  1.00  0.00     0.009 A 
ATOM     73  C   UNL A   1      36.858  29.979  27.721  1.00  0.00     0.001 A 
ATOM     74  C   UNL A   1      36.523  29.349  30.027  1.00  0.00     0.001 A 
ATOM     75  C   UNL A   1      36.021  29.853  28.829  1.00  0.00     0.000 A 
ENDBRANCH  51  70
BRANCH  63  76
ATOM     76  C   UNL A   1      44.411  32.536  31.077  1.00  0.00    -0.014 A 
ATOM     77  C   UNL A   1      44.677  33.573  30.169  1.00  0.00     0.009 A 
ATOM     78  C   UNL A   1      44.314  32.837  32.445  1.00  0.00     0.009 A 
ATOM     79  C   UNL A   1      44.878  34.877  30.626  1.00  0.00     0.001 A 
ATOM     80  C   UNL A   1      44.485  34.147  32.895  1.00  0.00     0.001 A 
ATOM     81  C   UNL A   1      44.778  35.163  31.987  1.00  0.00     0.000 A 
ENDBRANCH  63  76
ENDBRANCH  37  38
ENDBRANCH  29  32
ENDBRANCH  27  28
ENDBRANCH  26  27
ENDBRANCH  25  26
ENDBRANCH   1  25
TORSDOF 16
ENDMDL
MODEL 2
REMARK VINA RESULT:     -10.3      3.488      8.489
REMARK SMILES C[C@H](Nc1ncccc1C(=O)NCCCCCCNC(=O)c1ccc(-c2c3nc(c(-c4ccccc4)c4ccc([nH]4)c(-c4ccccc4)c4nc(c(-c5ccccc5)c5ccc2[nH]5)C=C4)C=C3)cc1)c1ccc(Cl)cc1
REMARK SMILES IDX 15 1 14 2 13 3 12 4 10 5 11 6 9 8 4 9 5 10 6 11 8 12 7 13
REMARK SMILES IDX 3 14 2 16 1 17 70 18 71 19 76 20 72 21 75 22 73 23 74 24
REMARK SMILES IDX 16 25 17 26 18 27 19 28 20 29 21 31 22 32 23 33 69 34 24 35
REMARK SMILES IDX 68 36 25 37 26 38 27 39 62 40 28 41 67 42 61 43 63 44 29 45
REMARK SMILES IDX 66 46 60 47 59 48 30 50 52 51 37 52 51 53 38 54 41 55 50 56
REMARK SMILES IDX 64 57 39 58 40 59 49 61 65 62 42 63 31 64 32 65 36 66 33 67
REMARK SMILES IDX 35 68 34 69 53 70 54 71 58 72 55 73 57 74 56 75 43 76 44 77
REMARK SMILES IDX 48 78 45 79 47 80 46 81
REMARK H PARENT 12 7 3 15 19 30 63 49 41 60
REMARK Flexibility Score: inf
ROOT
ATOM      1  C   UNL A   1      33.610  30.093  27.316  1.00  0.00     0.002 C 
ENDROOT
BRANCH   1   2
ATOM      2  C   UNL A   1      34.239  28.706  27.152  1.00  0.00     0.021 C 
BRANCH   2   3
ATOM      3  C   UNL A   1      33.896  27.930  25.882  1.00  0.00     0.116 C 
BRANCH   3   4
ATOM      4  N   UNL A   1      32.958  26.845  26.095  1.00  0.00    -0.352 N 
ATOM      5  C   UNL A   1      32.995  25.497  25.812  1.00  0.00     0.255 C 
ATOM      6  O   UNL A   1      32.046  24.827  26.218  1.00  0.00    -0.269 OA
ATOM      7  H   UNL A   1      32.123  27.130  26.531  1.00  0.00     0.163 HD
BRANCH   5   8
ATOM      8  C   UNL A   1      34.107  24.844  25.068  1.00  0.00     0.082 A 
ATOM      9  C   UNL A   1      33.957  24.440  23.732  1.00  0.00     0.139 A 
ATOM     10  N   UNL A   1      34.919  23.735  23.080  1.00  0.00    -0.239 NA
ATOM     11  C   UNL A   1      36.066  23.454  23.727  1.00  0.00     0.113 A 
ATOM     12  C   UNL A   1      35.291  24.473  25.725  1.00  0.00     0.019 A 
ATOM     13  C   UNL A   1      36.302  23.809  25.037  1.00  0.00     0.021 A 
BRANCH   9  14
ATOM     14  N   UNL A   1      32.902  24.735  22.890  1.00  0.00    -0.363 N 
ATOM     15  H   UNL A   1      32.100  24.164  22.878  1.00  0.00     0.162 HD
BRANCH  14  16
ATOM     16  C   UNL A   1      32.987  25.903  22.018  1.00  0.00     0.108 C 
ATOM     17  C   UNL A   1      32.597  25.465  20.593  1.00  0.00     0.036 C 
BRANCH  16  18
ATOM     18  C   UNL A   1      32.076  27.039  22.495  1.00  0.00    -0.026 A 
ATOM     19  C   UNL A   1      30.708  26.866  22.765  1.00  0.00     0.007 A 
ATOM     20  C   UNL A   1      32.626  28.320  22.702  1.00  0.00     0.007 A 
ATOM     21  C   UNL A   1      29.910  27.941  23.174  1.00  0.00     0.021 A 
ATOM     22  C   UNL A   1      31.832  29.396  23.108  1.00  0.00     0.021 A 
ATOM     23  C   UNL A   1      30.474  29.203  23.336  1.00  0.00     0.041 A 
ATOM     24  Cl  UNL A   1      29.494  30.530  23.824  1.00  0.00    -0.084 Cl
ENDBRANCH  16  18
ENDBRANCH  14  16
ENDBRANCH   9  14
ENDBRANCH   5   8
ENDBRANCH   3   4
ENDBRANCH   2   3
ENDBRANCH   1   2
BRANCH   1  25
ATOM     25  C   UNL A   1      32.133  30.238  26.938  1.00  0.00     0.002 C 
BRANCH  25  26
ATOM     26  C   UNL A   1      31.569  31.660  26.910  1.00  0.00     0.021 C 
BRANCH  26  27
ATOM     27  C   UNL A   1      32.584  32.773  26.682  1.00  0.00     0.116 C 
BRANCH  27  28
ATOM     28  N   UNL A   1      32.336  33.938  27.512  1.00  0.00    -0.352 N 
ATOM     29  C   UNL A   1      33.043  34.409  28.592  1.00  0.00     0.251 C 
ATOM     30  H   UNL A   1      31.545  34.469  27.265  1.00  0.00     0.163 HD
ATOM     31  O   UNL A   1      32.589  35.324  29.270  1.00  0.00    -0.269 OA
BRANCH  29  32
ATOM     32  C   UNL A   1      34.348  33.808  28.957  1.00  0.00     0.039 A 
ATOM     33  C   UNL A   1      34.407  32.954  30.063  1.00  0.00     0.014 A 
ATOM     34  C   UNL A   1      35.513  34.109  28.246  1.00  0.00     0.014 A 
ATOM     35  C   UNL A   1      35.623  32.373  30.431  1.00  0.00     0.010 A 
ATOM     36  C   UNL A   1      36.711  33.475  28.571  1.00  0.00     0.010 A 
ATOM     37  C   UNL A   1      36.783  32.613  29.676  1.00  0.00    -0.014 A 
BRANCH  37  38
ATOM     38  C   UNL A   1      38.081  31.995  30.047  1.00  0.00     0.031 A 
ATOM     39  C   UNL A   1      39.021  32.714  30.977  1.00  0.00     0.074 A 
ATOM     40  C   UNL A   1      38.435  30.808  29.518  1.00  0.00     0.049 A 
ATOM     41  N   UNL A   1      40.210  32.353  31.392  1.00  0.00    -0.248 NA
ATOM     42  C   UNL A   1      38.579  34.020  31.489  1.00  0.00     0.031 C 
ATOM     43  C   UNL A   1      37.631  30.025  28.577  1.00  0.00     0.029 A 
ATOM     44  N   UNL A   1      39.568  30.054  29.697  1.00  0.00    -0.354 N 
ATOM     45  C   UNL A   1      40.661  33.393  32.196  1.00  0.00     0.074 A 
ATOM     46  C   UNL A   1      39.642  34.419  32.170  1.00  0.00     0.031 C 
ATOM     47  C   UNL A   1      38.283  28.888  28.285  1.00  0.00     0.029 A 
ATOM     48  C   UNL A   1      39.563  28.877  28.987  1.00  0.00     0.049 A 
ATOM     49  H   UNL A   1      40.313  30.330  30.277  1.00  0.00     0.167 HD
ATOM     50  C   UNL A   1      41.809  33.479  32.908  1.00  0.00     0.031 A 
ATOM     51  C   UNL A   1      40.484  27.899  28.913  1.00  0.00     0.031 A 
ATOM     52  C   UNL A   1      42.817  32.453  32.948  1.00  0.00     0.049 A 
ATOM     53  C   UNL A   1      41.751  28.018  29.713  1.00  0.00     0.074 A 
ATOM     54  C   UNL A   1      43.991  32.425  33.681  1.00  0.00     0.029 A 
ATOM     55  N   UNL A   1      42.767  31.273  32.225  1.00  0.00    -0.354 N 
ATOM     56  N   UNL A   1      42.134  28.981  30.516  1.00  0.00    -0.248 NA
ATOM     57  C   UNL A   1      42.705  26.904  29.608  1.00  0.00     0.031 C 
ATOM     58  C   UNL A   1      44.675  31.245  33.366  1.00  0.00     0.029 A 
ATOM     59  C   UNL A   1      43.899  30.516  32.480  1.00  0.00     0.049 A 
ATOM     60  H   UNL A   1      42.036  31.010  31.620  1.00  0.00     0.167 HD
ATOM     61  C   UNL A   1      43.356  28.576  31.035  1.00  0.00     0.074 A 
ATOM     62  C   UNL A   1      43.644  27.274  30.468  1.00  0.00     0.031 C 
ATOM     63  C   UNL A   1      44.168  29.223  31.907  1.00  0.00     0.031 A 
BRANCH  50  64
ATOM     64  C   UNL A   1      42.036  34.737  33.702  1.00  0.00    -0.014 A 
ATOM     65  C   UNL A   1      42.794  35.799  33.181  1.00  0.00     0.009 A 
ATOM     66  C   UNL A   1      41.463  34.874  34.976  1.00  0.00     0.009 A 
ATOM     67  C   UNL A   1      43.005  36.954  33.936  1.00  0.00     0.001 A 
ATOM     68  C   UNL A   1      41.651  36.043  35.716  1.00  0.00     0.001 A 
ATOM     69  C   UNL A   1      42.430  37.077  35.201  1.00  0.00     0.000 A 
ENDBRANCH  50  64
BRANCH  51  70
ATOM     70  C   UNL A   1      40.233  26.703  28.066  1.00  0.00    -0.014 A 
ATOM     71  C   UNL A   1      39.461  25.636  28.554  1.00  0.00     0.009 A 
ATOM     72  C   UNL A   1      40.766  26.618  26.771  1.00  0.00     0.009 A 
ATOM     73  C   UNL A   1      39.253  24.498  27.772  1.00  0.00     0.001 A 
ATOM     74  C   UNL A   1      40.532  25.490  25.981  1.00  0.00     0.001 A 
ATOM     75  C   UNL A   1      39.785  24.427  26.486  1.00  0.00     0.000 A 
ENDBRANCH  51  70
BRANCH  63  76
ATOM     76  C   UNL A   1      45.423  28.513  32.330  1.00  0.00    -0.014 A 
ATOM     77  C   UNL A   1      46.631  28.687  31.637  1.00  0.00     0.009 A 
ATOM     78  C   UNL A   1      45.401  27.684  33.463  1.00  0.00     0.009 A 
ATOM     79  C   UNL A   1      47.783  28.014  32.048  1.00  0.00     0.001 A 
ATOM     80  C   UNL A   1      46.562  27.036  33.888  1.00  0.00     0.001 A 
ATOM     81  C   UNL A   1      47.749  27.193  33.174  1.00  0.00     0.000 A 
ENDBRANCH  63  76
ENDBRANCH  37  38
ENDBRANCH  29  32
ENDBRANCH  27  28
ENDBRANCH  26  27
ENDBRANCH  25  26
ENDBRANCH   1  25
TORSDOF 16
ENDMDL
MODEL 3
REMARK VINA RESULT:     -10.3      1.621      2.961
REMARK SMILES C[C@H](Nc1ncccc1C(=O)NCCCCCCNC(=O)c1ccc(-c2c3nc(c(-c4ccccc4)c4ccc([nH]4)c(-c4ccccc4)c4nc(c(-c5ccccc5)c5ccc2[nH]5)C=C4)C=C3)cc1)c1ccc(Cl)cc1
REMARK SMILES IDX 15 1 14 2 13 3 12 4 10 5 11 6 9 8 4 9 5 10 6 11 8 12 7 13
REMARK SMILES IDX 3 14 2 16 1 17 70 18 71 19 76 20 72 21 75 22 73 23 74 24
REMARK SMILES IDX 16 25 17 26 18 27 19 28 20 29 21 31 22 32 23 33 69 34 24 35
REMARK SMILES IDX 68 36 25 37 26 38 27 39 62 40 28 41 67 42 61 43 63 44 29 45
REMARK SMILES IDX 66 46 60 47 59 48 30 50 52 51 37 52 51 53 38 54 41 55 50 56
REMARK SMILES IDX 64 57 39 58 40 59 49 61 65 62 42 63 31 64 32 65 36 66 33 67
REMARK SMILES IDX 35 68 34 69 53 70 54 71 58 72 55 73 57 74 56 75 43 76 44 77
REMARK SMILES IDX 48 78 45 79 47 80 46 81
REMARK H PARENT 12 7 3 15 19 30 63 49 41 60
REMARK Flexibility Score: inf
ROOT
ATOM      1  C   UNL A   1      37.280  22.403  25.146  1.00  0.00     0.002 C 
ENDROOT
BRANCH   1   2
ATOM      2  C   UNL A   1      37.032  23.897  25.377  1.00  0.00     0.021 C 
BRANCH   2   3
ATOM      3  C   UNL A   1      35.613  24.319  25.756  1.00  0.00     0.116 C 
BRANCH   3   4
ATOM      4  N   UNL A   1      34.787  24.679  24.621  1.00  0.00    -0.352 N 
ATOM      5  C   UNL A   1      33.749  25.570  24.455  1.00  0.00     0.255 C 
ATOM      6  O   UNL A   1      33.318  25.699  23.310  1.00  0.00    -0.269 OA
ATOM      7  H   UNL A   1      35.014  24.186  23.800  1.00  0.00     0.163 HD
BRANCH   5   8
ATOM      8  C   UNL A   1      33.159  26.360  25.570  1.00  0.00     0.082 A 
ATOM      9  C   UNL A   1      31.905  26.038  26.113  1.00  0.00     0.139 A 
ATOM     10  N   UNL A   1      31.301  26.820  27.045  1.00  0.00    -0.239 NA
ATOM     11  C   UNL A   1      31.946  27.916  27.488  1.00  0.00     0.113 A 
ATOM     12  C   UNL A   1      33.767  27.545  26.011  1.00  0.00     0.019 A 
ATOM     13  C   UNL A   1      33.178  28.311  27.013  1.00  0.00     0.021 A 
BRANCH   9  14
ATOM     14  N   UNL A   1      31.157  24.904  25.857  1.00  0.00    -0.363 N 
ATOM     15  H   UNL A   1      30.589  24.853  25.054  1.00  0.00     0.162 HD
BRANCH  14  16
ATOM     16  C   UNL A   1      31.218  23.781  26.789  1.00  0.00     0.108 C 
ATOM     17  C   UNL A   1      29.801  23.186  26.912  1.00  0.00     0.036 C 
BRANCH  16  18
ATOM     18  C   UNL A   1      32.209  22.708  26.326  1.00  0.00    -0.026 A 
ATOM     19  C   UNL A   1      33.166  22.128  27.176  1.00  0.00     0.007 A 
ATOM     20  C   UNL A   1      32.156  22.252  24.994  1.00  0.00     0.007 A 
ATOM     21  C   UNL A   1      34.068  21.168  26.700  1.00  0.00     0.021 A 
ATOM     22  C   UNL A   1      33.055  21.296  24.516  1.00  0.00     0.021 A 
ATOM     23  C   UNL A   1      34.014  20.763  25.370  1.00  0.00     0.041 A 
ATOM     24  Cl  UNL A   1      35.130  19.595  24.779  1.00  0.00    -0.084 Cl
ENDBRANCH  16  18
ENDBRANCH  14  16
ENDBRANCH   9  14
ENDBRANCH   5   8
ENDBRANCH   3   4
ENDBRANCH   2   3
ENDBRANCH   1   2
BRANCH   1  25
ATOM     25  C   UNL A   1      38.571  21.813  25.720  1.00  0.00     0.002 C 
BRANCH  25  26
ATOM     26  C   UNL A   1      38.895  20.369  25.335  1.00  0.00     0.021 C 
BRANCH  26  27
ATOM     27  C   UNL A   1      39.672  19.563  26.369  1.00  0.00     0.116 C 
BRANCH  27  28
ATOM     28  N   UNL A   1      40.929  19.052  25.854  1.00  0.00    -0.352 N 
ATOM     29  C   UNL A   1      42.141  19.686  25.720  1.00  0.00     0.251 C 
ATOM     30  H   UNL A   1      40.912  18.114  25.558  1.00  0.00     0.163 HD
ATOM     31  O   UNL A   1      43.055  19.138  25.113  1.00  0.00    -0.269 OA
BRANCH  29  32
ATOM     32  C   UNL A   1      42.350  21.038  26.289  1.00  0.00     0.039 A 
ATOM     33  C   UNL A   1      42.245  21.207  27.674  1.00  0.00     0.014 A 
ATOM     34  C   UNL A   1      42.607  22.141  25.470  1.00  0.00     0.014 A 
ATOM     35  C   UNL A   1      42.437  22.471  28.238  1.00  0.00     0.010 A 
ATOM     36  C   UNL A   1      42.867  23.387  26.040  1.00  0.00     0.010 A 
ATOM     37  C   UNL A   1      42.769  23.568  27.427  1.00  0.00    -0.014 A 
BRANCH  37  38
ATOM     38  C   UNL A   1      42.987  24.915  28.013  1.00  0.00     0.031 A 
ATOM     39  C   UNL A   1      44.364  25.333  28.456  1.00  0.00     0.074 A 
ATOM     40  C   UNL A   1      41.943  25.749  28.186  1.00  0.00     0.049 A 
ATOM     41  N   UNL A   1      44.747  26.452  29.018  1.00  0.00    -0.248 NA
ATOM     42  C   UNL A   1      45.447  24.356  28.264  1.00  0.00     0.031 C 
ATOM     43  C   UNL A   1      40.553  25.452  27.833  1.00  0.00     0.029 A 
ATOM     44  N   UNL A   1      41.891  27.017  28.707  1.00  0.00    -0.354 N 
ATOM     45  C   UNL A   1      46.107  26.306  29.262  1.00  0.00     0.074 A 
ATOM     46  C   UNL A   1      46.472  24.973  28.834  1.00  0.00     0.031 C 
ATOM     47  C   UNL A   1      39.791  26.520  28.120  1.00  0.00     0.029 A 
ATOM     48  C   UNL A   1      40.629  27.561  28.708  1.00  0.00     0.049 A 
ATOM     49  H   UNL A   1      42.683  27.493  29.048  1.00  0.00     0.167 HD
ATOM     50  C   UNL A   1      46.980  27.204  29.776  1.00  0.00     0.031 A 
ATOM     51  C   UNL A   1      40.196  28.762  29.133  1.00  0.00     0.031 A 
ATOM     52  C   UNL A   1      46.623  28.535  30.188  1.00  0.00     0.049 A 
ATOM     53  C   UNL A   1      41.184  29.743  29.700  1.00  0.00     0.074 A 
ATOM     54  C   UNL A   1      47.445  29.538  30.674  1.00  0.00     0.029 A 
ATOM     55  N   UNL A   1      45.336  29.049  30.162  1.00  0.00    -0.354 N 
ATOM     56  N   UNL A   1      42.477  29.610  29.866  1.00  0.00    -0.248 NA
ATOM     57  C   UNL A   1      40.651  31.046  30.122  1.00  0.00     0.031 C 
ATOM     58  C   UNL A   1      46.647  30.645  30.983  1.00  0.00     0.029 A 
ATOM     59  C   UNL A   1      45.338  30.350  30.638  1.00  0.00     0.049 A 
ATOM     60  H   UNL A   1      44.539  28.563  29.849  1.00  0.00     0.167 HD
ATOM     61  C   UNL A   1      42.918  30.821  30.383  1.00  0.00     0.074 A 
ATOM     62  C   UNL A   1      41.757  31.680  30.488  1.00  0.00     0.031 C 
ATOM     63  C   UNL A   1      44.174  31.191  30.735  1.00  0.00     0.031 A 
BRANCH  50  64
ATOM     64  C   UNL A   1      48.412  26.768  29.926  1.00  0.00    -0.014 A 
ATOM     65  C   UNL A   1      48.861  26.134  31.095  1.00  0.00     0.009 A 
ATOM     66  C   UNL A   1      49.318  26.969  28.872  1.00  0.00     0.009 A 
ATOM     67  C   UNL A   1      50.197  25.747  31.222  1.00  0.00     0.001 A 
ATOM     68  C   UNL A   1      50.646  26.554  28.990  1.00  0.00     0.001 A 
ATOM     69  C   UNL A   1      51.087  25.954  30.169  1.00  0.00     0.000 A 
ENDBRANCH  50  64
BRANCH  51  70
ATOM     70  C   UNL A   1      38.758  29.119  29.015  1.00  0.00    -0.014 A 
ATOM     71  C   UNL A   1      38.241  29.595  27.799  1.00  0.00     0.009 A 
ATOM     72  C   UNL A   1      37.896  28.991  30.115  1.00  0.00     0.009 A 
ATOM     73  C   UNL A   1      36.898  29.963  27.697  1.00  0.00     0.001 A 
ATOM     74  C   UNL A   1      36.546  29.333  30.001  1.00  0.00     0.001 A 
ATOM     75  C   UNL A   1      36.051  29.828  28.796  1.00  0.00     0.000 A 
ENDBRANCH  51  70
BRANCH  63  76
ATOM     76  C   UNL A   1      44.361  32.597  31.229  1.00  0.00    -0.014 A 
ATOM     77  C   UNL A   1      44.652  33.650  30.348  1.00  0.00     0.009 A 
ATOM     78  C   UNL A   1      44.209  32.876  32.597  1.00  0.00     0.009 A 
ATOM     79  C   UNL A   1      44.824  34.948  30.833  1.00  0.00     0.001 A 
ATOM     80  C   UNL A   1      44.353  34.180  33.073  1.00  0.00     0.001 A 
ATOM     81  C   UNL A   1      44.671  35.212  32.193  1.00  0.00     0.000 A 
ENDBRANCH  63  76
ENDBRANCH  37  38
ENDBRANCH  29  32
ENDBRANCH  27  28
ENDBRANCH  26  27
ENDBRANCH  25  26
ENDBRANCH   1  25
TORSDOF 16
ENDMDL
