MODEL 1
REMARK VINA RESULT:     -11.3      0.000      0.000
REMARK SMILES O=C(NCCCCCCNC(=O)c1cc(-c2ccn(C(F)F)c(=O)c2)ccc1O)c1ccc(-c2c3nc(c(-c4ccccc4)c4ccc([nH]4)c(-c4ccccc4)c4nc(c(-c5ccccc5)c5ccc2[nH]5)C=C4)C=C3)cc1
REMARK SMILES IDX 6 1 5 2 4 3 3 4 1 5 2 6 30 8 31 9 77 10 32 11 76 12 33 13
REMARK SMILES IDX 34 14 35 15 70 16 36 17 75 18 69 19 71 20 37 21 74 22 68 23
REMARK SMILES IDX 67 24 38 26 60 27 45 28 59 29 46 30 49 31 58 32 72 33 47 34
REMARK SMILES IDX 48 35 57 37 73 38 50 39 39 40 40 41 44 42 41 43 43 44 42 45
REMARK SMILES IDX 61 46 62 47 66 48 63 49 65 50 64 51 51 52 52 53 56 54 53 55
REMARK SMILES IDX 55 56 54 57 7 58 8 59 9 60 10 61 11 62 12 64 13 65 14 66
REMARK SMILES IDX 28 67 15 68 27 69 26 70 29 71 16 73 17 74 25 75 18 76 23 77
REMARK SMILES IDX 19 78 24 79 20 80 21 81 22 82
REMARK H PARENT 3 7 71 25 49 36 10 63 29 72
REMARK Flexibility Score: inf
ROOT
ATOM      1  C   UNL A   1      36.079  20.865  24.930  1.00  0.00     0.002 C 
ENDROOT
BRANCH   1   2
ATOM      2  C   UNL A   1      37.351  20.020  24.834  1.00  0.00     0.021 C 
BRANCH   2   3
ATOM      3  C   UNL A   1      38.562  20.572  25.578  1.00  0.00     0.116 C 
BRANCH   3   4
ATOM      4  N   UNL A   1      39.648  19.612  25.665  1.00  0.00    -0.352 N 
ATOM      5  O   UNL A   1      41.764  18.881  25.882  1.00  0.00    -0.269 OA
ATOM      6  C   UNL A   1      40.957  19.800  26.022  1.00  0.00     0.251 C 
ATOM      7  H   UNL A   1      39.406  18.686  25.432  1.00  0.00     0.163 HD
BRANCH   6   8
ATOM      8  C   UNL A   1      41.420  21.096  26.566  1.00  0.00     0.039 A 
ATOM      9  C   UNL A   1      41.329  21.310  27.945  1.00  0.00     0.014 A 
ATOM     10  C   UNL A   1      41.870  22.123  25.730  1.00  0.00     0.014 A 
ATOM     11  C   UNL A   1      41.700  22.543  28.487  1.00  0.00     0.010 A 
ATOM     12  C   UNL A   1      42.299  23.330  26.277  1.00  0.00     0.010 A 
ATOM     13  C   UNL A   1      42.190  23.562  27.657  1.00  0.00    -0.014 A 
BRANCH  13  14
ATOM     14  C   UNL A   1      42.525  24.899  28.207  1.00  0.00     0.031 A 
ATOM     15  C   UNL A   1      43.947  25.219  28.575  1.00  0.00     0.074 A 
ATOM     16  C   UNL A   1      41.558  25.815  28.397  1.00  0.00     0.049 A 
ATOM     17  N   UNL A   1      44.437  26.312  29.104  1.00  0.00    -0.248 NA
ATOM     18  C   UNL A   1      44.949  24.166  28.339  1.00  0.00     0.031 C 
ATOM     19  C   UNL A   1      40.141  25.624  28.087  1.00  0.00     0.029 A 
ATOM     20  N   UNL A   1      41.624  27.092  28.894  1.00  0.00    -0.354 N 
ATOM     21  C   UNL A   1      45.794  26.071  29.277  1.00  0.00     0.074 A 
ATOM     22  C   UNL A   1      46.044  24.714  28.843  1.00  0.00     0.031 C 
ATOM     23  C   UNL A   1      39.476  26.757  28.372  1.00  0.00     0.029 A 
ATOM     24  C   UNL A   1      40.412  27.737  28.918  1.00  0.00     0.049 A 
ATOM     25  H   UNL A   1      42.461  27.507  29.204  1.00  0.00     0.167 HD
ATOM     26  C   UNL A   1      46.751  26.911  29.737  1.00  0.00     0.031 A 
ATOM     27  C   UNL A   1      40.087  28.977  29.331  1.00  0.00     0.031 A 
ATOM     28  C   UNL A   1      46.507  28.268  30.143  1.00  0.00     0.049 A 
ATOM     29  C   UNL A   1      41.161  29.887  29.858  1.00  0.00     0.074 A 
ATOM     30  C   UNL A   1      47.423  29.214  30.567  1.00  0.00     0.029 A 
ATOM     31  N   UNL A   1      45.260  28.871  30.176  1.00  0.00    -0.354 N 
ATOM     32  N   UNL A   1      42.447  29.659  29.978  1.00  0.00    -0.248 NA
ATOM     33  C   UNL A   1      40.743  31.224  30.303  1.00  0.00     0.031 C 
ATOM     34  C   UNL A   1      46.724  30.373  30.909  1.00  0.00     0.029 A 
ATOM     35  C   UNL A   1      45.380  30.169  30.641  1.00  0.00     0.049 A 
ATOM     36  H   UNL A   1      44.416  28.440  29.909  1.00  0.00     0.167 HD
ATOM     37  C   UNL A   1      42.993  30.827  30.495  1.00  0.00     0.074 A 
ATOM     38  C   UNL A   1      41.902  31.766  30.654  1.00  0.00     0.031 C 
ATOM     39  C   UNL A   1      44.285  31.092  30.804  1.00  0.00     0.031 A 
BRANCH  26  40
ATOM     40  C   UNL A   1      48.156  26.387  29.825  1.00  0.00    -0.014 A 
ATOM     41  C   UNL A   1      48.603  25.783  31.011  1.00  0.00     0.009 A 
ATOM     42  C   UNL A   1      49.060  26.541  28.762  1.00  0.00     0.009 A 
ATOM     43  C   UNL A   1      49.923  25.345  31.132  1.00  0.00     0.001 A 
ATOM     44  C   UNL A   1      50.372  26.076  28.874  1.00  0.00     0.001 A 
ATOM     45  C   UNL A   1      50.804  25.485  30.060  1.00  0.00     0.000 A 
ENDBRANCH  26  40
BRANCH  27  46
ATOM     46  C   UNL A   1      38.677  29.432  29.220  1.00  0.00    -0.014 A 
ATOM     47  C   UNL A   1      37.785  29.270  30.292  1.00  0.00     0.009 A 
ATOM     48  C   UNL A   1      38.201  29.969  28.015  1.00  0.00     0.009 A 
ATOM     49  C   UNL A   1      36.439  29.613  30.151  1.00  0.00     0.001 A 
ATOM     50  C   UNL A   1      36.858  30.333  27.885  1.00  0.00     0.001 A 
ATOM     51  C   UNL A   1      35.977  30.145  28.949  1.00  0.00     0.000 A 
ENDBRANCH  27  46
BRANCH  39  52
ATOM     52  C   UNL A   1      44.614  32.453  31.349  1.00  0.00    -0.014 A 
ATOM     53  C   UNL A   1      44.564  32.680  32.734  1.00  0.00     0.009 A 
ATOM     54  C   UNL A   1      44.855  33.535  30.490  1.00  0.00     0.009 A 
ATOM     55  C   UNL A   1      44.729  33.967  33.247  1.00  0.00     0.001 A 
ATOM     56  C   UNL A   1      45.047  34.817  31.008  1.00  0.00     0.001 A 
ATOM     57  C   UNL A   1      44.974  35.034  32.385  1.00  0.00     0.000 A 
ENDBRANCH  39  52
ENDBRANCH  13  14
ENDBRANCH   6   8
ENDBRANCH   3   4
ENDBRANCH   2   3
ENDBRANCH   1   2
BRANCH   1  58
ATOM     58  C   UNL A   1      36.245  22.358  24.631  1.00  0.00     0.002 C 
BRANCH  58  59
ATOM     59  C   UNL A   1      35.870  23.310  25.771  1.00  0.00     0.021 C 
BRANCH  59  60
ATOM     60  C   UNL A   1      35.005  24.502  25.372  1.00  0.00     0.116 C 
BRANCH  60  61
ATOM     61  N   UNL A   1      33.792  24.596  26.161  1.00  0.00    -0.352 N 
ATOM     62  C   UNL A   1      32.604  23.936  25.974  1.00  0.00     0.255 C 
ATOM     63  H   UNL A   1      33.826  25.210  26.930  1.00  0.00     0.163 HD
ATOM     64  O   UNL A   1      31.642  24.167  26.706  1.00  0.00    -0.269 OA
BRANCH  62  65
ATOM     65  C   UNL A   1      32.442  23.003  24.842  1.00  0.00     0.082 A 
ATOM     66  C   UNL A   1      32.650  21.640  25.099  1.00  0.00     0.026 A 
ATOM     67  C   UNL A   1      32.132  23.435  23.547  1.00  0.00     0.128 A 
ATOM     68  C   UNL A   1      32.499  20.702  24.072  1.00  0.00    -0.017 A 
ATOM     69  C   UNL A   1      31.973  22.505  22.523  1.00  0.00     0.047 A 
ATOM     70  C   UNL A   1      32.148  21.145  22.788  1.00  0.00     0.012 A 
BRANCH  67  71
ATOM     71  O   UNL A   1      31.981  24.766  23.275  1.00  0.00    -0.507 OA
ATOM     72  H   UNL A   1      32.470  25.160  22.580  1.00  0.00     0.293 HD
ENDBRANCH  67  71
BRANCH  68  73
ATOM     73  C   UNL A   1      32.721  19.263  24.307  1.00  0.00    -0.011 A 
ATOM     74  C   UNL A   1      32.453  18.640  25.590  1.00  0.00     0.027 A 
ATOM     75  C   UNL A   1      33.228  18.514  23.312  1.00  0.00     0.080 A 
ATOM     76  C   UNL A   1      32.738  17.349  25.793  1.00  0.00     0.095 A 
ATOM     77  C   UNL A   1      33.540  17.072  23.521  1.00  0.00     0.255 A 
ATOM     78  N   UNL A   1      33.281  16.573  24.787  1.00  0.00    -0.258 N 
ATOM     79  O   UNL A   1      34.012  16.435  22.583  1.00  0.00    -0.269 OA
BRANCH  78  80
ATOM     80  C   UNL A   1      33.618  15.193  25.030  1.00  0.00     0.451 C 
ATOM     81  F   UNL A   1      34.907  15.064  25.426  1.00  0.00    -0.185 F 
ATOM     82  F   UNL A   1      32.825  14.666  25.995  1.00  0.00    -0.185 F 
ENDBRANCH  78  80
ENDBRANCH  68  73
ENDBRANCH  62  65
ENDBRANCH  60  61
ENDBRANCH  59  60
ENDBRANCH  58  59
ENDBRANCH   1  58
TORSDOF 16
ENDMDL
MODEL 2
REMARK VINA RESULT:     -11.2      0.867      5.988
REMARK SMILES O=C(NCCCCCCNC(=O)c1cc(-c2ccn(C(F)F)c(=O)c2)ccc1O)c1ccc(-c2c3nc(c(-c4ccccc4)c4ccc([nH]4)c(-c4ccccc4)c4nc(c(-c5ccccc5)c5ccc2[nH]5)C=C4)C=C3)cc1
REMARK SMILES IDX 6 1 5 2 4 3 3 4 1 5 2 6 30 8 31 9 77 10 32 11 76 12 33 13
REMARK SMILES IDX 34 14 35 15 70 16 36 17 75 18 69 19 71 20 37 21 74 22 68 23
REMARK SMILES IDX 67 24 38 26 60 27 45 28 59 29 46 30 49 31 58 32 72 33 47 34
REMARK SMILES IDX 48 35 57 37 73 38 50 39 39 40 40 41 44 42 41 43 43 44 42 45
REMARK SMILES IDX 61 46 62 47 66 48 63 49 65 50 64 51 51 52 52 53 56 54 53 55
REMARK SMILES IDX 55 56 54 57 7 58 8 59 9 60 10 61 11 62 12 64 13 65 14 66
REMARK SMILES IDX 28 67 15 68 27 69 26 70 29 71 16 73 17 74 25 75 18 76 23 77
REMARK SMILES IDX 19 78 24 79 20 80 21 81 22 82
REMARK H PARENT 3 7 71 25 49 36 10 63 29 72
REMARK Flexibility Score: inf
ROOT
ATOM      1  C   UNL A   1      36.278  20.945  24.872  1.00  0.00     0.002 C 
ENDROOT
BRANCH   1   2
ATOM      2  C   UNL A   1      37.499  20.022  24.874  1.00  0.00     0.021 C 
BRANCH   2   3
ATOM      3  C   UNL A   1      38.683  20.502  25.706  1.00  0.00     0.116 C 
BRANCH   3   4
ATOM      4  N   UNL A   1      39.754  19.523  25.766  1.00  0.00    -0.352 N 
ATOM      5  O   UNL A   1      41.864  18.758  25.911  1.00  0.00    -0.269 OA
ATOM      6  C   UNL A   1      41.079  19.694  26.067  1.00  0.00     0.251 C 
ATOM      7  H   UNL A   1      39.488  18.598  25.559  1.00  0.00     0.163 HD
BRANCH   6   8
ATOM      8  C   UNL A   1      41.587  20.990  26.570  1.00  0.00     0.039 A 
ATOM      9  C   UNL A   1      41.513  21.247  27.942  1.00  0.00     0.014 A 
ATOM     10  C   UNL A   1      42.062  21.978  25.701  1.00  0.00     0.014 A 
ATOM     11  C   UNL A   1      41.926  22.483  28.446  1.00  0.00     0.010 A 
ATOM     12  C   UNL A   1      42.532  23.187  26.210  1.00  0.00     0.010 A 
ATOM     13  C   UNL A   1      42.441  23.462  27.583  1.00  0.00    -0.014 A 
BRANCH  13  14
ATOM     14  C   UNL A   1      42.822  24.803  28.091  1.00  0.00     0.031 A 
ATOM     15  C   UNL A   1      41.760  25.844  28.316  1.00  0.00     0.074 A 
ATOM     16  C   UNL A   1      44.113  25.096  28.330  1.00  0.00     0.049 A 
ATOM     17  N   UNL A   1      41.891  27.083  28.718  1.00  0.00    -0.248 NA
ATOM     18  C   UNL A   1      40.370  25.449  28.033  1.00  0.00     0.031 C 
ATOM     19  C   UNL A   1      45.236  24.176  28.144  1.00  0.00     0.029 A 
ATOM     20  N   UNL A   1      44.697  26.252  28.783  1.00  0.00    -0.354 N 
ATOM     21  C   UNL A   1      40.609  27.616  28.719  1.00  0.00     0.074 A 
ATOM     22  C   UNL A   1      39.719  26.585  28.234  1.00  0.00     0.031 C 
ATOM     23  C   UNL A   1      46.371  24.794  28.512  1.00  0.00     0.029 A 
ATOM     24  C   UNL A   1      46.060  26.162  28.922  1.00  0.00     0.049 A 
ATOM     25  H   UNL A   1      44.187  27.068  28.990  1.00  0.00     0.167 HD
ATOM     26  C   UNL A   1      40.205  28.848  29.108  1.00  0.00     0.031 A 
ATOM     27  C   UNL A   1      46.961  27.075  29.334  1.00  0.00     0.031 A 
ATOM     28  C   UNL A   1      41.085  29.865  29.615  1.00  0.00     0.049 A 
ATOM     29  C   UNL A   1      46.494  28.444  29.741  1.00  0.00     0.074 A 
ATOM     30  C   UNL A   1      40.760  31.122  30.090  1.00  0.00     0.029 A 
ATOM     31  N   UNL A   1      42.462  29.740  29.713  1.00  0.00    -0.354 N 
ATOM     32  N   UNL A   1      45.273  28.921  29.775  1.00  0.00    -0.248 NA
ATOM     33  C   UNL A   1      47.525  29.399  30.172  1.00  0.00     0.031 C 
ATOM     34  C   UNL A   1      41.946  31.780  30.426  1.00  0.00     0.029 A 
ATOM     35  C   UNL A   1      43.004  30.910  30.216  1.00  0.00     0.049 A 
ATOM     36  H   UNL A   1      42.977  28.939  29.464  1.00  0.00     0.167 HD
ATOM     37  C   UNL A   1      45.386  30.223  30.245  1.00  0.00     0.074 A 
ATOM     38  C   UNL A   1      46.793  30.458  30.495  1.00  0.00     0.031 C 
ATOM     39  C   UNL A   1      44.408  31.137  30.452  1.00  0.00     0.031 A 
BRANCH  26  40
ATOM     40  C   UNL A   1      38.741  29.169  29.002  1.00  0.00    -0.014 A 
ATOM     41  C   UNL A   1      38.222  29.677  27.801  1.00  0.00     0.009 A 
ATOM     42  C   UNL A   1      37.882  29.027  30.104  1.00  0.00     0.009 A 
ATOM     43  C   UNL A   1      36.877  30.037  27.704  1.00  0.00     0.001 A 
ATOM     44  C   UNL A   1      36.530  29.360  29.996  1.00  0.00     0.001 A 
ATOM     45  C   UNL A   1      36.031  29.870  28.800  1.00  0.00     0.000 A 
ENDBRANCH  26  40
BRANCH  27  46
ATOM     46  C   UNL A   1      48.395  26.694  29.411  1.00  0.00    -0.014 A 
ATOM     47  C   UNL A   1      49.254  26.912  28.321  1.00  0.00     0.009 A 
ATOM     48  C   UNL A   1      48.894  26.050  30.553  1.00  0.00     0.009 A 
ATOM     49  C   UNL A   1      50.577  26.468  28.364  1.00  0.00     0.001 A 
ATOM     50  C   UNL A   1      50.225  25.628  30.601  1.00  0.00     0.001 A 
ATOM     51  C   UNL A   1      51.063  25.828  29.503  1.00  0.00     0.000 A 
ENDBRANCH  27  46
BRANCH  39  52
ATOM     52  C   UNL A   1      44.804  32.487  30.978  1.00  0.00    -0.014 A 
ATOM     53  C   UNL A   1      45.171  33.504  30.081  1.00  0.00     0.009 A 
ATOM     54  C   UNL A   1      44.928  32.716  32.356  1.00  0.00     0.009 A 
ATOM     55  C   UNL A   1      45.674  34.716  30.554  1.00  0.00     0.001 A 
ATOM     56  C   UNL A   1      45.406  33.941  32.826  1.00  0.00     0.001 A 
ATOM     57  C   UNL A   1      45.788  34.936  31.925  1.00  0.00     0.000 A 
ENDBRANCH  39  52
ENDBRANCH  13  14
ENDBRANCH   6   8
ENDBRANCH   3   4
ENDBRANCH   2   3
ENDBRANCH   1   2
BRANCH   1  58
ATOM     58  C   UNL A   1      36.405  22.217  24.029  1.00  0.00     0.002 C 
BRANCH  58  59
ATOM     59  C   UNL A   1      36.739  23.497  24.801  1.00  0.00     0.021 C 
BRANCH  59  60
ATOM     60  C   UNL A   1      35.547  24.214  25.430  1.00  0.00     0.116 C 
BRANCH  60  61
ATOM     61  N   UNL A   1      34.845  25.057  24.481  1.00  0.00    -0.352 N 
ATOM     62  C   UNL A   1      33.524  25.006  24.115  1.00  0.00     0.255 C 
ATOM     63  H   UNL A   1      35.385  25.756  24.045  1.00  0.00     0.163 HD
ATOM     64  O   UNL A   1      33.089  25.763  23.248  1.00  0.00    -0.269 OA
BRANCH  62  65
ATOM     65  C   UNL A   1      32.630  23.987  24.697  1.00  0.00     0.082 A 
ATOM     66  C   UNL A   1      32.909  22.645  24.403  1.00  0.00     0.026 A 
ATOM     67  C   UNL A   1      31.520  24.318  25.484  1.00  0.00     0.128 A 
ATOM     68  C   UNL A   1      32.107  21.629  24.935  1.00  0.00    -0.017 A 
ATOM     69  C   UNL A   1      30.723  23.311  26.022  1.00  0.00     0.047 A 
ATOM     70  C   UNL A   1      31.021  21.973  25.754  1.00  0.00     0.012 A 
BRANCH  67  71
ATOM     71  O   UNL A   1      31.208  25.626  25.731  1.00  0.00    -0.507 OA
ATOM     72  H   UNL A   1      31.440  26.015  26.551  1.00  0.00     0.293 HD
ENDBRANCH  67  71
BRANCH  68  73
ATOM     73  C   UNL A   1      32.367  20.208  24.635  1.00  0.00    -0.011 A 
ATOM     74  C   UNL A   1      32.865  19.286  25.638  1.00  0.00     0.027 A 
ATOM     75  C   UNL A   1      32.176  19.764  23.380  1.00  0.00     0.080 A 
ATOM     76  C   UNL A   1      33.165  18.023  25.315  1.00  0.00     0.095 A 
ATOM     77  C   UNL A   1      32.495  18.357  23.008  1.00  0.00     0.255 A 
ATOM     78  N   UNL A   1      32.995  17.560  24.024  1.00  0.00    -0.258 N 
ATOM     79  O   UNL A   1      32.312  18.005  21.846  1.00  0.00    -0.269 OA
BRANCH  78  80
ATOM     80  C   UNL A   1      33.356  16.208  23.680  1.00  0.00     0.451 C 
ATOM     81  F   UNL A   1      34.563  16.162  23.066  1.00  0.00    -0.185 F 
ATOM     82  F   UNL A   1      33.416  15.428  24.787  1.00  0.00    -0.185 F 
ENDBRANCH  78  80
ENDBRANCH  68  73
ENDBRANCH  62  65
ENDBRANCH  60  61
ENDBRANCH  59  60
ENDBRANCH  58  59
ENDBRANCH   1  58
TORSDOF 16
ENDMDL
MODEL 3
REMARK VINA RESULT:     -11.1      4.136      8.598
REMARK SMILES O=C(NCCCCCCNC(=O)c1cc(-c2ccn(C(F)F)c(=O)c2)ccc1O)c1ccc(-c2c3nc(c(-c4ccccc4)c4ccc([nH]4)c(-c4ccccc4)c4nc(c(-c5ccccc5)c5ccc2[nH]5)C=C4)C=C3)cc1
REMARK SMILES IDX 6 1 5 2 4 3 3 4 1 5 2 6 30 8 31 9 77 10 32 11 76 12 33 13
REMARK SMILES IDX 34 14 35 15 70 16 36 17 75 18 69 19 71 20 37 21 74 22 68 23
REMARK SMILES IDX 67 24 38 26 60 27 45 28 59 29 46 30 49 31 58 32 72 33 47 34
REMARK SMILES IDX 48 35 57 37 73 38 50 39 39 40 40 41 44 42 41 43 43 44 42 45
REMARK SMILES IDX 61 46 62 47 66 48 63 49 65 50 64 51 51 52 52 53 56 54 53 55
REMARK SMILES IDX 55 56 54 57 7 58 8 59 9 60 10 61 11 62 12 64 13 65 14 66
REMARK SMILES IDX 28 67 15 68 27 69 26 70 29 71 16 73 17 74 25 75 18 76 23 77
REMARK SMILES IDX 19 78 24 79 20 80 21 81 22 82
REMARK H PARENT 3 7 71 25 49 36 10 63 29 72
REMARK Flexibility Score: inf
ROOT
ATOM      1  C   UNL A   1      33.613  26.612  25.423  1.00  0.00     0.002 C 
ENDROOT
BRANCH   1   2
ATOM      2  C   UNL A   1      33.607  27.834  26.345  1.00  0.00     0.021 C 
BRANCH   2   3
ATOM      3  C   UNL A   1      34.007  29.151  25.690  1.00  0.00     0.116 C 
BRANCH   3   4
ATOM      4  N   UNL A   1      33.748  30.298  26.543  1.00  0.00    -0.352 N 
ATOM      5  O   UNL A   1      33.965  31.653  28.325  1.00  0.00    -0.269 OA
ATOM      6  C   UNL A   1      34.436  30.745  27.640  1.00  0.00     0.251 C 
ATOM      7  H   UNL A   1      32.961  30.834  26.296  1.00  0.00     0.163 HD
BRANCH   6   8
ATOM      8  C   UNL A   1      35.735  30.147  28.022  1.00  0.00     0.039 A 
ATOM      9  C   UNL A   1      35.828  29.483  29.249  1.00  0.00     0.014 A 
ATOM     10  C   UNL A   1      36.874  30.298  27.224  1.00  0.00     0.014 A 
ATOM     11  C   UNL A   1      37.052  28.959  29.670  1.00  0.00     0.010 A 
ATOM     12  C   UNL A   1      38.081  29.722  27.616  1.00  0.00     0.010 A 
ATOM     13  C   UNL A   1      38.188  29.073  28.856  1.00  0.00    -0.014 A 
BRANCH  13  14
ATOM     14  C   UNL A   1      39.510  28.582  29.317  1.00  0.00     0.031 A 
ATOM     15  C   UNL A   1      40.317  29.407  30.281  1.00  0.00     0.074 A 
ATOM     16  C   UNL A   1      39.997  27.415  28.858  1.00  0.00     0.049 A 
ATOM     17  N   UNL A   1      41.508  29.173  30.773  1.00  0.00    -0.248 NA
ATOM     18  C   UNL A   1      39.718  30.672  30.738  1.00  0.00     0.031 C 
ATOM     19  C   UNL A   1      39.316  26.527  27.916  1.00  0.00     0.029 A 
ATOM     20  N   UNL A   1      41.180  26.774  29.128  1.00  0.00    -0.354 N 
ATOM     21  C   UNL A   1      41.804  30.264  31.579  1.00  0.00     0.074 A 
ATOM     22  C   UNL A   1      40.693  31.183  31.475  1.00  0.00     0.031 C 
ATOM     23  C   UNL A   1      40.078  25.441  27.711  1.00  0.00     0.029 A 
ATOM     24  C   UNL A   1      41.316  25.573  28.476  1.00  0.00     0.049 A 
ATOM     25  H   UNL A   1      41.866  27.140  29.732  1.00  0.00     0.167 HD
ATOM     26  C   UNL A   1      42.894  30.473  32.353  1.00  0.00     0.031 A 
ATOM     27  C   UNL A   1      42.322  24.677  28.491  1.00  0.00     0.031 A 
ATOM     28  C   UNL A   1      43.987  29.548  32.477  1.00  0.00     0.049 A 
ATOM     29  C   UNL A   1      43.533  24.938  29.341  1.00  0.00     0.074 A 
ATOM     30  C   UNL A   1      45.107  29.646  33.282  1.00  0.00     0.029 A 
ATOM     31  N   UNL A   1      44.096  28.356  31.777  1.00  0.00    -0.354 N 
ATOM     32  N   UNL A   1      43.781  25.956  30.129  1.00  0.00    -0.248 NA
ATOM     33  C   UNL A   1      44.601  23.928  29.308  1.00  0.00     0.031 C 
ATOM     34  C   UNL A   1      45.921  28.539  33.030  1.00  0.00     0.029 A 
ATOM     35  C   UNL A   1      45.280  27.723  32.113  1.00  0.00     0.049 A 
ATOM     36  H   UNL A   1      43.431  28.012  31.139  1.00  0.00     0.167 HD
ATOM     37  C   UNL A   1      45.023  25.702  30.698  1.00  0.00     0.074 A 
ATOM     38  C   UNL A   1      45.472  24.429  30.175  1.00  0.00     0.031 C 
ATOM     39  C   UNL A   1      45.722  26.459  31.578  1.00  0.00     0.031 A 
BRANCH  26  40
ATOM     40  C   UNL A   1      42.963  31.757  33.131  1.00  0.00    -0.014 A 
ATOM     41  C   UNL A   1      43.596  32.879  32.574  1.00  0.00     0.009 A 
ATOM     42  C   UNL A   1      42.456  31.844  34.438  1.00  0.00     0.009 A 
ATOM     43  C   UNL A   1      43.721  34.060  33.306  1.00  0.00     0.001 A 
ATOM     44  C   UNL A   1      42.556  33.037  35.158  1.00  0.00     0.001 A 
ATOM     45  C   UNL A   1      43.194  34.140  34.595  1.00  0.00     0.000 A 
ENDBRANCH  26  40
BRANCH  27  46
ATOM     46  C   UNL A   1      42.193  23.430  27.695  1.00  0.00    -0.014 A 
ATOM     47  C   UNL A   1      42.673  23.368  26.377  1.00  0.00     0.009 A 
ATOM     48  C   UNL A   1      41.527  22.316  28.229  1.00  0.00     0.009 A 
ATOM     49  C   UNL A   1      42.466  22.225  25.601  1.00  0.00     0.001 A 
ATOM     50  C   UNL A   1      41.343  21.165  27.458  1.00  0.00     0.001 A 
ATOM     51  C   UNL A   1      41.803  21.125  26.142  1.00  0.00     0.000 A 
ENDBRANCH  27  46
BRANCH  39  52
ATOM     52  C   UNL A   1      47.053  25.946  32.047  1.00  0.00    -0.014 A 
ATOM     53  C   UNL A   1      47.137  25.221  33.247  1.00  0.00     0.009 A 
ATOM     54  C   UNL A   1      48.235  26.278  31.368  1.00  0.00     0.009 A 
ATOM     55  C   UNL A   1      48.378  24.856  33.769  1.00  0.00     0.001 A 
ATOM     56  C   UNL A   1      49.474  25.889  31.879  1.00  0.00     0.001 A 
ATOM     57  C   UNL A   1      49.546  25.187  33.084  1.00  0.00     0.000 A 
ENDBRANCH  39  52
ENDBRANCH  13  14
ENDBRANCH   6   8
ENDBRANCH   3   4
ENDBRANCH   2   3
ENDBRANCH   1   2
BRANCH   1  58
ATOM     58  C   UNL A   1      34.216  25.334  26.014  1.00  0.00     0.002 C 
BRANCH  58  59
ATOM     59  C   UNL A   1      34.821  24.355  25.002  1.00  0.00     0.021 C 
BRANCH  59  60
ATOM     60  C   UNL A   1      34.350  24.527  23.561  1.00  0.00     0.116 C 
BRANCH  60  61
ATOM     61  N   UNL A   1      33.620  23.371  23.076  1.00  0.00    -0.352 N 
ATOM     62  C   UNL A   1      32.298  23.060  23.264  1.00  0.00     0.255 C 
ATOM     63  H   UNL A   1      34.141  22.727  22.542  1.00  0.00     0.163 HD
ATOM     64  O   UNL A   1      31.839  22.005  22.829  1.00  0.00    -0.269 OA
BRANCH  62  65
ATOM     65  C   UNL A   1      31.432  23.950  24.062  1.00  0.00     0.082 A 
ATOM     66  C   UNL A   1      30.954  25.110  23.435  1.00  0.00     0.026 A 
ATOM     67  C   UNL A   1      31.115  23.692  25.401  1.00  0.00     0.128 A 
ATOM     68  C   UNL A   1      30.116  25.989  24.132  1.00  0.00    -0.017 A 
ATOM     69  C   UNL A   1      30.276  24.559  26.097  1.00  0.00     0.047 A 
ATOM     70  C   UNL A   1      29.775  25.697  25.461  1.00  0.00     0.012 A 
BRANCH  67  71
ATOM     71  O   UNL A   1      31.620  22.593  26.036  1.00  0.00    -0.507 OA
ATOM     72  H   UNL A   1      31.512  22.495  26.961  1.00  0.00     0.293 HD
ENDBRANCH  67  71
BRANCH  68  73
ATOM     73  C   UNL A   1      29.606  27.223  23.506  1.00  0.00    -0.011 A 
ATOM     74  C   UNL A   1      30.483  28.180  22.859  1.00  0.00     0.027 A 
ATOM     75  C   UNL A   1      28.289  27.488  23.575  1.00  0.00     0.080 A 
ATOM     76  C   UNL A   1      29.998  29.326  22.369  1.00  0.00     0.095 A 
ATOM     77  C   UNL A   1      27.733  28.756  23.024  1.00  0.00     0.255 A 
ATOM     78  N   UNL A   1      28.650  29.623  22.454  1.00  0.00    -0.258 N 
ATOM     79  O   UNL A   1      26.525  28.955  23.121  1.00  0.00    -0.269 OA
BRANCH  78  80
ATOM     80  C   UNL A   1      28.146  30.877  21.955  1.00  0.00     0.451 C 
ATOM     81  F   UNL A   1      29.118  31.821  21.925  1.00  0.00    -0.185 F 
ATOM     82  F   UNL A   1      27.657  30.735  20.699  1.00  0.00    -0.185 F 
ENDBRANCH  78  80
ENDBRANCH  68  73
ENDBRANCH  62  65
ENDBRANCH  60  61
ENDBRANCH  59  60
ENDBRANCH  58  59
ENDBRANCH   1  58
TORSDOF 16
ENDMDL
