MODEL 1
REMARK VINA RESULT:      -9.3      0.000      0.000
REMARK SMILES CC(C)c1ccc(C(=O)N2CCC[C@@H](C(=O)NCCCCCCNC(=O)c3ccc(-c4c5nc(c(-c6ccccc6)c6ccc([nH]6)c(-c6ccccc6)c6nc(c(-c7ccccc7)c7ccc4[nH]7)C=C6)C=C5)cc3)C2)cc1
REMARK SMILES IDX 20 1 19 2 18 3 17 4 15 5 16 6 14 8 10 9 11 10 75 11 12 12
REMARK SMILES IDX 13 13 8 14 9 15 7 16 4 17 5 18 77 19 6 20 76 21 2 22 1 23
REMARK SMILES IDX 3 24 21 25 22 26 23 27 24 28 25 29 26 31 27 32 28 33 74 34
REMARK SMILES IDX 29 35 73 36 30 37 31 38 32 39 67 40 33 41 72 42 66 43 68 44
REMARK SMILES IDX 34 45 71 46 65 47 64 48 35 50 57 51 42 52 56 53 43 54 46 55
REMARK SMILES IDX 55 56 69 57 44 58 45 59 54 61 70 62 47 63 36 64 37 65 41 66
REMARK SMILES IDX 38 67 40 68 39 69 58 70 59 71 63 72 60 73 62 74 61 75 48 76
REMARK SMILES IDX 49 77 53 78 50 79 52 80 51 81
REMARK H PARENT 17 7 24 30 68 49 46 60
REMARK Flexibility Score: inf
ROOT
ATOM      1  C   UNL A   1      33.261  34.627  28.596  1.00  0.00     0.002 C 
ENDROOT
BRANCH   1   2
ATOM      2  C   UNL A   1      32.599  36.001  28.759  1.00  0.00     0.021 C 
BRANCH   2   3
ATOM      3  C   UNL A   1      33.554  37.075  29.283  1.00  0.00     0.116 C 
BRANCH   3   4
ATOM      4  N   UNL A   1      33.274  37.398  30.667  1.00  0.00    -0.356 N 
ATOM      5  C   UNL A   1      33.411  36.747  31.845  1.00  0.00     0.224 C 
ATOM      6  O   UNL A   1      32.959  37.348  32.829  1.00  0.00    -0.275 OA
ATOM      7  H   UNL A   1      32.897  38.301  30.776  1.00  0.00     0.163 HD
BRANCH   5   8
ATOM      8  C   UNL A   1      34.071  35.379  32.052  1.00  0.00     0.098 C 
ATOM      9  N   UNL A   1      36.261  34.431  32.832  1.00  0.00    -0.338 N 
ATOM     10  C   UNL A   1      35.612  33.504  33.733  1.00  0.00     0.120 C 
ATOM     11  C   UNL A   1      35.537  35.646  32.457  1.00  0.00     0.133 C 
ATOM     12  C   UNL A   1      34.248  33.118  33.204  1.00  0.00     0.022 C 
ATOM     13  C   UNL A   1      33.411  34.374  32.995  1.00  0.00     0.017 C 
BRANCH   9  14
ATOM     14  C   UNL A   1      37.329  33.963  32.085  1.00  0.00     0.253 C 
ATOM     15  O   UNL A   1      37.510  34.297  30.919  1.00  0.00    -0.269 OA
BRANCH  14  16
ATOM     16  C   UNL A   1      38.110  32.844  32.695  1.00  0.00     0.040 A 
ATOM     17  C   UNL A   1      39.775  30.773  33.680  1.00  0.00    -0.045 A 
ATOM     18  C   UNL A   1      40.126  32.122  33.837  1.00  0.00     0.005 A 
ATOM     19  C   UNL A   1      38.582  30.486  32.997  1.00  0.00     0.005 A 
ATOM     20  C   UNL A   1      39.302  33.146  33.356  1.00  0.00     0.014 A 
ATOM     21  C   UNL A   1      37.756  31.505  32.516  1.00  0.00     0.014 A 
BRANCH  17  22
ATOM     22  C   UNL A   1      40.651  29.622  34.166  1.00  0.00     0.013 C 
ATOM     23  C   UNL A   1      40.676  28.395  33.246  1.00  0.00     0.012 C 
ATOM     24  C   UNL A   1      42.100  30.076  34.411  1.00  0.00     0.012 C 
ENDBRANCH  17  22
ENDBRANCH  14  16
ENDBRANCH   9  14
ENDBRANCH   5   8
ENDBRANCH   3   4
ENDBRANCH   2   3
ENDBRANCH   1   2
BRANCH   1  25
ATOM     25  C   UNL A   1      34.785  34.660  28.411  1.00  0.00     0.002 C 
BRANCH  25  26
ATOM     26  C   UNL A   1      35.469  33.290  28.410  1.00  0.00     0.021 C 
BRANCH  26  27
ATOM     27  C   UNL A   1      34.900  32.308  29.429  1.00  0.00     0.116 C 
BRANCH  27  28
ATOM     28  N   UNL A   1      34.253  31.178  28.778  1.00  0.00    -0.352 N 
ATOM     29  C   UNL A   1      34.813  30.066  28.214  1.00  0.00     0.251 C 
ATOM     30  H   UNL A   1      33.270  31.222  28.739  1.00  0.00     0.163 HD
ATOM     31  O   UNL A   1      34.138  29.331  27.491  1.00  0.00    -0.269 OA
BRANCH  29  32
ATOM     32  C   UNL A   1      36.233  29.747  28.462  1.00  0.00     0.039 A 
ATOM     33  C   UNL A   1      36.601  29.195  29.691  1.00  0.00     0.014 A 
ATOM     34  C   UNL A   1      37.202  30.014  27.490  1.00  0.00     0.014 A 
ATOM     35  C   UNL A   1      37.936  28.864  29.927  1.00  0.00     0.010 A 
ATOM     36  C   UNL A   1      38.519  29.618  27.698  1.00  0.00     0.010 A 
ATOM     37  C   UNL A   1      38.900  29.047  28.921  1.00  0.00    -0.014 A 
BRANCH  37  38
ATOM     38  C   UNL A   1      40.314  28.651  29.134  1.00  0.00     0.031 A 
ATOM     39  C   UNL A   1      41.284  29.617  29.757  1.00  0.00     0.074 A 
ATOM     40  C   UNL A   1      40.737  27.445  28.711  1.00  0.00     0.049 A 
ATOM     41  N   UNL A   1      42.567  29.472  29.975  1.00  0.00    -0.248 NA
ATOM     42  C   UNL A   1      40.748  30.924  30.168  1.00  0.00     0.031 C 
ATOM     43  C   UNL A   1      39.902  26.434  28.058  1.00  0.00     0.029 A 
ATOM     44  N   UNL A   1      41.980  26.867  28.762  1.00  0.00    -0.354 N 
ATOM     45  C   UNL A   1      42.992  30.671  30.532  1.00  0.00     0.074 A 
ATOM     46  C   UNL A   1      41.845  31.551  30.570  1.00  0.00     0.031 C 
ATOM     47  C   UNL A   1      40.650  25.350  27.796  1.00  0.00     0.029 A 
ATOM     48  C   UNL A   1      42.022  25.604  28.221  1.00  0.00     0.049 A 
ATOM     49  H   UNL A   1      42.767  27.313  29.149  1.00  0.00     0.167 HD
ATOM     50  C   UNL A   1      44.222  31.006  30.987  1.00  0.00     0.031 A 
ATOM     51  C   UNL A   1      43.052  24.750  28.078  1.00  0.00     0.031 A 
ATOM     52  C   UNL A   1      45.362  30.128  30.953  1.00  0.00     0.049 A 
ATOM     53  C   UNL A   1      44.414  25.152  28.573  1.00  0.00     0.074 A 
ATOM     54  C   UNL A   1      46.639  30.354  31.439  1.00  0.00     0.029 A 
ATOM     55  N   UNL A   1      45.363  28.857  30.399  1.00  0.00    -0.354 N 
ATOM     56  N   UNL A   1      44.784  26.266  29.158  1.00  0.00    -0.248 NA
ATOM     57  C   UNL A   1      45.496  24.175  28.396  1.00  0.00     0.031 C 
ATOM     58  C   UNL A   1      47.426  29.240  31.129  1.00  0.00     0.029 A 
ATOM     59  C   UNL A   1      46.625  28.296  30.507  1.00  0.00     0.049 A 
ATOM     60  H   UNL A   1      44.582  28.419  29.991  1.00  0.00     0.167 HD
ATOM     61  C   UNL A   1      46.134  26.110  29.447  1.00  0.00     0.074 A 
ATOM     62  C   UNL A   1      46.512  24.790  28.986  1.00  0.00     0.031 C 
ATOM     63  C   UNL A   1      46.984  26.982  30.041  1.00  0.00     0.031 A 
BRANCH  50  64
ATOM     64  C   UNL A   1      44.400  32.388  31.553  1.00  0.00    -0.014 A 
ATOM     65  C   UNL A   1      44.791  33.464  30.740  1.00  0.00     0.009 A 
ATOM     66  C   UNL A   1      44.140  32.625  32.912  1.00  0.00     0.009 A 
ATOM     67  C   UNL A   1      44.956  34.740  31.285  1.00  0.00     0.001 A 
ATOM     68  C   UNL A   1      44.275  33.908  33.447  1.00  0.00     0.001 A 
ATOM     69  C   UNL A   1      44.693  34.961  32.636  1.00  0.00     0.000 A 
ENDBRANCH  50  64
BRANCH  51  70
ATOM     70  C   UNL A   1      42.836  23.420  27.449  1.00  0.00    -0.014 A 
ATOM     71  C   UNL A   1      43.081  23.231  26.080  1.00  0.00     0.009 A 
ATOM     72  C   UNL A   1      42.379  22.335  28.212  1.00  0.00     0.009 A 
ATOM     73  C   UNL A   1      42.843  21.992  25.483  1.00  0.00     0.001 A 
ATOM     74  C   UNL A   1      42.171  21.088  27.619  1.00  0.00     0.001 A 
ATOM     75  C   UNL A   1      42.394  20.920  26.253  1.00  0.00     0.000 A 
ENDBRANCH  51  70
BRANCH  63  76
ATOM     76  C   UNL A   1      48.399  26.522  30.261  1.00  0.00    -0.014 A 
ATOM     77  C   UNL A   1      49.413  26.815  29.338  1.00  0.00     0.009 A 
ATOM     78  C   UNL A   1      48.724  25.818  31.431  1.00  0.00     0.009 A 
ATOM     79  C   UNL A   1      50.721  26.381  29.567  1.00  0.00     0.001 A 
ATOM     80  C   UNL A   1      50.037  25.413  31.672  1.00  0.00     0.001 A 
ATOM     81  C   UNL A   1      51.033  25.686  30.735  1.00  0.00     0.000 A 
ENDBRANCH  63  76
ENDBRANCH  37  38
ENDBRANCH  29  32
ENDBRANCH  27  28
ENDBRANCH  26  27
ENDBRANCH  25  26
ENDBRANCH   1  25
TORSDOF 16
ENDMDL
MODEL 2
REMARK VINA RESULT:      -9.3      4.146      9.734
REMARK SMILES CC(C)c1ccc(C(=O)N2CCC[C@@H](C(=O)NCCCCCCNC(=O)c3ccc(-c4c5nc(c(-c6ccccc6)c6ccc([nH]6)c(-c6ccccc6)c6nc(c(-c7ccccc7)c7ccc4[nH]7)C=C6)C=C5)cc3)C2)cc1
REMARK SMILES IDX 20 1 19 2 18 3 17 4 15 5 16 6 14 8 10 9 11 10 75 11 12 12
REMARK SMILES IDX 13 13 8 14 9 15 7 16 4 17 5 18 77 19 6 20 76 21 2 22 1 23
REMARK SMILES IDX 3 24 21 25 22 26 23 27 24 28 25 29 26 31 27 32 28 33 74 34
REMARK SMILES IDX 29 35 73 36 30 37 31 38 32 39 67 40 33 41 72 42 66 43 68 44
REMARK SMILES IDX 34 45 71 46 65 47 64 48 35 50 57 51 42 52 56 53 43 54 46 55
REMARK SMILES IDX 55 56 69 57 44 58 45 59 54 61 70 62 47 63 36 64 37 65 41 66
REMARK SMILES IDX 38 67 40 68 39 69 58 70 59 71 63 72 60 73 62 74 61 75 48 76
REMARK SMILES IDX 49 77 53 78 50 79 52 80 51 81
REMARK H PARENT 17 7 24 30 68 49 46 60
REMARK Flexibility Score: inf
ROOT
ATOM      1  C   UNL A   1      32.816  29.676  25.286  1.00  0.00     0.002 C 
ENDROOT
BRANCH   1   2
ATOM      2  C   UNL A   1      33.329  28.929  24.048  1.00  0.00     0.021 C 
BRANCH   2   3
ATOM      3  C   UNL A   1      32.356  28.973  22.868  1.00  0.00     0.116 C 
BRANCH   3   4
ATOM      4  N   UNL A   1      32.460  27.778  22.055  1.00  0.00    -0.356 N 
ATOM      5  C   UNL A   1      32.172  26.469  22.242  1.00  0.00     0.224 C 
ATOM      6  O   UNL A   1      32.499  25.725  21.307  1.00  0.00    -0.275 OA
ATOM      7  H   UNL A   1      32.824  27.961  21.159  1.00  0.00     0.163 HD
BRANCH   5   8
ATOM      8  C   UNL A   1      31.485  25.859  23.469  1.00  0.00     0.098 C 
ATOM      9  N   UNL A   1      32.053  25.190  25.820  1.00  0.00    -0.338 N 
ATOM     10  C   UNL A   1      30.911  25.891  26.364  1.00  0.00     0.120 C 
ATOM     11  C   UNL A   1      32.583  25.636  24.531  1.00  0.00     0.133 C 
ATOM     12  C   UNL A   1      29.783  25.925  25.357  1.00  0.00     0.022 C 
ATOM     13  C   UNL A   1      30.273  26.572  24.068  1.00  0.00     0.017 C 
BRANCH   9  14
ATOM     14  C   UNL A   1      32.342  23.935  26.329  1.00  0.00     0.253 C 
ATOM     15  O   UNL A   1      31.710  23.442  27.256  1.00  0.00    -0.269 OA
BRANCH  14  16
ATOM     16  C   UNL A   1      33.616  23.317  25.852  1.00  0.00     0.040 A 
ATOM     17  C   UNL A   1      35.986  21.949  25.109  1.00  0.00    -0.045 A 
ATOM     18  C   UNL A   1      34.721  21.438  24.782  1.00  0.00     0.005 A 
ATOM     19  C   UNL A   1      36.034  23.150  25.836  1.00  0.00     0.005 A 
ATOM     20  C   UNL A   1      33.550  22.115  25.144  1.00  0.00     0.014 A 
ATOM     21  C   UNL A   1      34.868  23.829  26.198  1.00  0.00     0.014 A 
BRANCH  17  22
ATOM     22  C   UNL A   1      37.288  21.237  24.756  1.00  0.00     0.013 C 
ATOM     23  C   UNL A   1      38.500  21.653  25.599  1.00  0.00     0.012 C 
ATOM     24  C   UNL A   1      37.140  19.709  24.839  1.00  0.00     0.012 C 
ENDBRANCH  17  22
ENDBRANCH  14  16
ENDBRANCH   9  14
ENDBRANCH   5   8
ENDBRANCH   3   4
ENDBRANCH   2   3
ENDBRANCH   1   2
BRANCH   1  25
ATOM     25  C   UNL A   1      31.372  30.187  25.182  1.00  0.00     0.002 C 
BRANCH  25  26
ATOM     26  C   UNL A   1      31.083  31.477  25.955  1.00  0.00     0.021 C 
BRANCH  26  27
ATOM     27  C   UNL A   1      32.184  31.880  26.930  1.00  0.00     0.116 C 
BRANCH  27  28
ATOM     28  N   UNL A   1      32.143  33.305  27.224  1.00  0.00    -0.352 N 
ATOM     29  C   UNL A   1      32.950  34.045  28.044  1.00  0.00     0.251 C 
ATOM     30  H   UNL A   1      31.431  33.808  26.767  1.00  0.00     0.163 HD
ATOM     31  O   UNL A   1      32.623  35.188  28.367  1.00  0.00    -0.269 OA
BRANCH  29  32
ATOM     32  C   UNL A   1      34.212  33.472  28.550  1.00  0.00     0.039 A 
ATOM     33  C   UNL A   1      35.412  33.804  27.917  1.00  0.00     0.014 A 
ATOM     34  C   UNL A   1      34.208  32.589  29.635  1.00  0.00     0.014 A 
ATOM     35  C   UNL A   1      36.614  33.290  28.404  1.00  0.00     0.010 A 
ATOM     36  C   UNL A   1      35.412  32.136  30.163  1.00  0.00     0.010 A 
ATOM     37  C   UNL A   1      36.626  32.475  29.547  1.00  0.00    -0.014 A 
BRANCH  37  38
ATOM     38  C   UNL A   1      37.899  31.963  30.112  1.00  0.00     0.031 A 
ATOM     39  C   UNL A   1      38.505  30.693  29.581  1.00  0.00     0.074 A 
ATOM     40  C   UNL A   1      38.477  32.610  31.142  1.00  0.00     0.049 A 
ATOM     41  N   UNL A   1      39.581  30.063  29.981  1.00  0.00    -0.248 NA
ATOM     42  C   UNL A   1      37.798  30.033  28.472  1.00  0.00     0.031 C 
ATOM     43  C   UNL A   1      37.967  33.831  31.770  1.00  0.00     0.029 A 
ATOM     44  N   UNL A   1      39.618  32.325  31.847  1.00  0.00    -0.354 N 
ATOM     45  C   UNL A   1      39.669  28.928  29.185  1.00  0.00     0.074 A 
ATOM     46  C   UNL A   1      38.513  28.928  28.316  1.00  0.00     0.031 C 
ATOM     47  C   UNL A   1      38.808  34.206  32.747  1.00  0.00     0.029 A 
ATOM     48  C   UNL A   1      39.890  33.232  32.844  1.00  0.00     0.049 A 
ATOM     49  H   UNL A   1      40.190  31.547  31.656  1.00  0.00     0.167 HD
ATOM     50  C   UNL A   1      40.635  27.979  29.165  1.00  0.00     0.031 A 
ATOM     51  C   UNL A   1      40.894  33.269  33.739  1.00  0.00     0.031 A 
ATOM     52  C   UNL A   1      41.789  27.983  30.026  1.00  0.00     0.049 A 
ATOM     53  C   UNL A   1      41.944  32.193  33.711  1.00  0.00     0.074 A 
ATOM     54  C   UNL A   1      42.852  27.097  30.048  1.00  0.00     0.029 A 
ATOM     55  N   UNL A   1      42.027  28.919  31.021  1.00  0.00    -0.354 N 
ATOM     56  N   UNL A   1      42.048  31.163  32.907  1.00  0.00    -0.248 NA
ATOM     57  C   UNL A   1      43.018  32.293  34.707  1.00  0.00     0.031 C 
ATOM     58  C   UNL A   1      43.706  27.465  31.092  1.00  0.00     0.029 A 
ATOM     59  C   UNL A   1      43.207  28.617  31.680  1.00  0.00     0.049 A 
ATOM     60  H   UNL A   1      41.444  29.685  31.227  1.00  0.00     0.167 HD
ATOM     61  C   UNL A   1      43.216  30.509  33.281  1.00  0.00     0.074 A 
ATOM     62  C   UNL A   1      43.791  31.268  34.372  1.00  0.00     0.031 C 
ATOM     63  C   UNL A   1      43.764  29.382  32.766  1.00  0.00     0.031 A 
BRANCH  50  64
ATOM     64  C   UNL A   1      40.479  26.850  28.185  1.00  0.00    -0.014 A 
ATOM     65  C   UNL A   1      41.040  26.916  26.899  1.00  0.00     0.009 A 
ATOM     66  C   UNL A   1      39.789  25.687  28.563  1.00  0.00     0.009 A 
ATOM     67  C   UNL A   1      40.880  25.859  26.001  1.00  0.00     0.001 A 
ATOM     68  C   UNL A   1      39.658  24.619  27.674  1.00  0.00     0.001 A 
ATOM     69  C   UNL A   1      40.194  24.710  26.390  1.00  0.00     0.000 A 
ENDBRANCH  50  64
BRANCH  51  70
ATOM     70  C   UNL A   1      40.965  34.373  34.733  1.00  0.00    -0.014 A 
ATOM     71  C   UNL A   1      41.637  35.566  34.426  1.00  0.00     0.009 A 
ATOM     72  C   UNL A   1      40.367  34.237  35.995  1.00  0.00     0.009 A 
ATOM     73  C   UNL A   1      41.735  36.587  35.372  1.00  0.00     0.001 A 
ATOM     74  C   UNL A   1      40.439  35.273  36.929  1.00  0.00     0.001 A 
ATOM     75  C   UNL A   1      41.132  36.443  36.620  1.00  0.00     0.000 A 
ENDBRANCH  51  70
BRANCH  63  76
ATOM     76  C   UNL A   1      45.069  28.921  33.352  1.00  0.00    -0.014 A 
ATOM     77  C   UNL A   1      45.116  27.927  34.341  1.00  0.00     0.009 A 
ATOM     78  C   UNL A   1      46.272  29.467  32.877  1.00  0.00     0.009 A 
ATOM     79  C   UNL A   1      46.342  27.513  34.866  1.00  0.00     0.001 A 
ATOM     80  C   UNL A   1      47.497  29.028  33.382  1.00  0.00     0.001 A 
ATOM     81  C   UNL A   1      47.530  28.059  34.383  1.00  0.00     0.000 A 
ENDBRANCH  63  76
ENDBRANCH  37  38
ENDBRANCH  29  32
ENDBRANCH  27  28
ENDBRANCH  26  27
ENDBRANCH  25  26
ENDBRANCH   1  25
TORSDOF 16
ENDMDL
MODEL 3
REMARK VINA RESULT:      -9.2      3.891      7.049
REMARK SMILES CC(C)c1ccc(C(=O)N2CCC[C@@H](C(=O)NCCCCCCNC(=O)c3ccc(-c4c5nc(c(-c6ccccc6)c6ccc([nH]6)c(-c6ccccc6)c6nc(c(-c7ccccc7)c7ccc4[nH]7)C=C6)C=C5)cc3)C2)cc1
REMARK SMILES IDX 20 1 19 2 18 3 17 4 15 5 16 6 14 8 10 9 11 10 75 11 12 12
REMARK SMILES IDX 13 13 8 14 9 15 7 16 4 17 5 18 77 19 6 20 76 21 2 22 1 23
REMARK SMILES IDX 3 24 21 25 22 26 23 27 24 28 25 29 26 31 27 32 28 33 74 34
REMARK SMILES IDX 29 35 73 36 30 37 31 38 32 39 67 40 33 41 72 42 66 43 68 44
REMARK SMILES IDX 34 45 71 46 65 47 64 48 35 50 57 51 42 52 56 53 43 54 46 55
REMARK SMILES IDX 55 56 69 57 44 58 45 59 54 61 70 62 47 63 36 64 37 65 41 66
REMARK SMILES IDX 38 67 40 68 39 69 58 70 59 71 63 72 60 73 62 74 61 75 48 76
REMARK SMILES IDX 49 77 53 78 50 79 52 80 51 81
REMARK H PARENT 17 7 24 30 68 49 46 60
REMARK Flexibility Score: inf
ROOT
ATOM      1  C   UNL A   1      31.418  28.995  25.011  1.00  0.00     0.002 C 
ENDROOT
BRANCH   1   2
ATOM      2  C   UNL A   1      31.845  28.823  23.547  1.00  0.00     0.021 C 
BRANCH   2   3
ATOM      3  C   UNL A   1      30.678  28.520  22.607  1.00  0.00     0.116 C 
BRANCH   3   4
ATOM      4  N   UNL A   1      29.595  27.859  23.307  1.00  0.00    -0.356 N 
ATOM      5  C   UNL A   1      29.421  26.636  23.858  1.00  0.00     0.224 C 
ATOM      6  O   UNL A   1      28.284  26.418  24.297  1.00  0.00    -0.275 OA
ATOM      7  H   UNL A   1      28.801  28.434  23.404  1.00  0.00     0.163 HD
BRANCH   5   8
ATOM      8  C   UNL A   1      30.488  25.543  23.989  1.00  0.00     0.098 C 
ATOM      9  N   UNL A   1      31.037  23.602  25.484  1.00  0.00    -0.338 N 
ATOM     10  C   UNL A   1      31.219  22.707  24.363  1.00  0.00     0.120 C 
ATOM     11  C   UNL A   1      30.184  24.777  25.295  1.00  0.00     0.133 C 
ATOM     12  C   UNL A   1      31.700  23.471  23.149  1.00  0.00     0.022 C 
ATOM     13  C   UNL A   1      30.709  24.581  22.822  1.00  0.00     0.017 C 
BRANCH   9  14
ATOM     14  C   UNL A   1      31.949  23.528  26.524  1.00  0.00     0.253 C 
ATOM     15  O   UNL A   1      31.648  23.802  27.681  1.00  0.00    -0.269 OA
BRANCH  14  16
ATOM     16  C   UNL A   1      33.376  23.333  26.126  1.00  0.00     0.040 A 
ATOM     17  C   UNL A   1      36.138  22.943  25.621  1.00  0.00    -0.045 A 
ATOM     18  C   UNL A   1      35.340  21.907  26.131  1.00  0.00     0.005 A 
ATOM     19  C   UNL A   1      35.524  24.185  25.392  1.00  0.00     0.005 A 
ATOM     20  C   UNL A   1      33.975  22.097  26.376  1.00  0.00     0.014 A 
ATOM     21  C   UNL A   1      34.161  24.378  25.634  1.00  0.00     0.014 A 
BRANCH  17  22
ATOM     22  C   UNL A   1      37.633  22.790  25.360  1.00  0.00     0.013 C 
ATOM     23  C   UNL A   1      38.541  23.508  26.367  1.00  0.00     0.012 C 
ATOM     24  C   UNL A   1      38.051  21.312  25.298  1.00  0.00     0.012 C 
ENDBRANCH  17  22
ENDBRANCH  14  16
ENDBRANCH   9  14
ENDBRANCH   5   8
ENDBRANCH   3   4
ENDBRANCH   2   3
ENDBRANCH   1   2
BRANCH   1  25
ATOM     25  C   UNL A   1      32.016  27.969  25.985  1.00  0.00     0.002 C 
BRANCH  25  26
ATOM     26  C   UNL A   1      32.318  28.506  27.387  1.00  0.00     0.021 C 
BRANCH  26  27
ATOM     27  C   UNL A   1      33.740  29.028  27.562  1.00  0.00     0.116 C 
BRANCH  27  28
ATOM     28  N   UNL A   1      33.749  30.427  27.962  1.00  0.00    -0.352 N 
ATOM     29  C   UNL A   1      34.710  31.130  28.636  1.00  0.00     0.251 C 
ATOM     30  H   UNL A   1      32.948  30.942  27.712  1.00  0.00     0.163 HD
ATOM     31  O   UNL A   1      34.451  32.239  29.107  1.00  0.00    -0.269 OA
BRANCH  29  32
ATOM     32  C   UNL A   1      36.060  30.558  28.807  1.00  0.00     0.039 A 
ATOM     33  C   UNL A   1      36.951  30.584  27.731  1.00  0.00     0.014 A 
ATOM     34  C   UNL A   1      36.436  29.975  30.021  1.00  0.00     0.014 A 
ATOM     35  C   UNL A   1      38.239  30.070  27.890  1.00  0.00     0.010 A 
ATOM     36  C   UNL A   1      37.742  29.530  30.199  1.00  0.00     0.010 A 
ATOM     37  C   UNL A   1      38.652  29.565  29.133  1.00  0.00    -0.014 A 
BRANCH  37  38
ATOM     38  C   UNL A   1      40.034  29.064  29.336  1.00  0.00     0.031 A 
ATOM     39  C   UNL A   1      41.081  29.957  29.945  1.00  0.00     0.074 A 
ATOM     40  C   UNL A   1      40.362  27.827  28.918  1.00  0.00     0.049 A 
ATOM     41  N   UNL A   1      42.351  29.718  30.152  1.00  0.00    -0.248 NA
ATOM     42  C   UNL A   1      40.648  31.304  30.352  1.00  0.00     0.031 C 
ATOM     43  C   UNL A   1      39.447  26.878  28.279  1.00  0.00     0.029 A 
ATOM     44  N   UNL A   1      41.558  27.157  28.962  1.00  0.00    -0.354 N 
ATOM     45  C   UNL A   1      42.870  30.884  30.698  1.00  0.00     0.074 A 
ATOM     46  C   UNL A   1      41.793  31.848  30.740  1.00  0.00     0.031 C 
ATOM     47  C   UNL A   1      40.108  25.739  28.018  1.00  0.00     0.029 A 
ATOM     48  C   UNL A   1      41.499  25.891  28.429  1.00  0.00     0.049 A 
ATOM     49  H   UNL A   1      42.380  27.545  29.340  1.00  0.00     0.167 HD
ATOM     50  C   UNL A   1      44.126  31.128  31.140  1.00  0.00     0.031 A 
ATOM     51  C   UNL A   1      42.461  24.961  28.283  1.00  0.00     0.031 A 
ATOM     52  C   UNL A   1      45.196  30.166  31.103  1.00  0.00     0.049 A 
ATOM     53  C   UNL A   1      43.853  25.262  28.764  1.00  0.00     0.074 A 
ATOM     54  C   UNL A   1      46.490  30.297  31.576  1.00  0.00     0.029 A 
ATOM     55  N   UNL A   1      45.096  28.896  30.557  1.00  0.00    -0.354 N 
ATOM     56  N   UNL A   1      44.311  26.348  29.338  1.00  0.00    -0.248 NA
ATOM     57  C   UNL A   1      44.857  24.204  28.584  1.00  0.00     0.031 C 
ATOM     58  C   UNL A   1      47.188  29.126  31.267  1.00  0.00     0.029 A 
ATOM     59  C   UNL A   1      46.312  28.241  30.657  1.00  0.00     0.049 A 
ATOM     60  H   UNL A   1      44.280  28.515  30.158  1.00  0.00     0.167 HD
ATOM     61  C   UNL A   1      45.648  26.092  29.617  1.00  0.00     0.074 A 
ATOM     62  C   UNL A   1      45.921  24.745  29.161  1.00  0.00     0.031 C 
ATOM     63  C   UNL A   1      46.568  26.901  30.198  1.00  0.00     0.031 A 
BRANCH  50  64
ATOM     64  C   UNL A   1      44.413  32.496  31.696  1.00  0.00    -0.014 A 
ATOM     65  C   UNL A   1      44.854  33.541  30.868  1.00  0.00     0.009 A 
ATOM     66  C   UNL A   1      44.207  32.754  33.060  1.00  0.00     0.009 A 
ATOM     67  C   UNL A   1      45.120  34.804  31.403  1.00  0.00     0.001 A 
ATOM     68  C   UNL A   1      44.443  34.025  33.585  1.00  0.00     0.001 A 
ATOM     69  C   UNL A   1      44.910  35.046  32.759  1.00  0.00     0.000 A 
ENDBRANCH  50  64
BRANCH  51  70
ATOM     70  C   UNL A   1      42.139  23.647  27.665  1.00  0.00    -0.014 A 
ATOM     71  C   UNL A   1      41.630  22.598  28.446  1.00  0.00     0.009 A 
ATOM     72  C   UNL A   1      42.344  23.434  26.293  1.00  0.00     0.009 A 
ATOM     73  C   UNL A   1      41.362  21.355  27.872  1.00  0.00     0.001 A 
ATOM     74  C   UNL A   1      42.046  22.198  25.715  1.00  0.00     0.001 A 
ATOM     75  C   UNL A   1      41.565  21.156  26.507  1.00  0.00     0.000 A 
ENDBRANCH  51  70
BRANCH  63  76
ATOM     76  C   UNL A   1      47.945  26.337  30.408  1.00  0.00    -0.014 A 
ATOM     77  C   UNL A   1      48.304  25.718  31.615  1.00  0.00     0.009 A 
ATOM     78  C   UNL A   1      48.884  26.394  29.366  1.00  0.00     0.009 A 
ATOM     79  C   UNL A   1      49.589  25.197  31.785  1.00  0.00     0.001 A 
ATOM     80  C   UNL A   1      50.156  25.844  29.528  1.00  0.00     0.001 A 
ATOM     81  C   UNL A   1      50.511  25.255  30.741  1.00  0.00     0.000 A 
ENDBRANCH  63  76
ENDBRANCH  37  38
ENDBRANCH  29  32
ENDBRANCH  27  28
ENDBRANCH  26  27
ENDBRANCH  25  26
ENDBRANCH   1  25
TORSDOF 16
ENDMDL
