MODEL 1
REMARK VINA RESULT:     -11.1      0.000      0.000
REMARK SMILES Cc1ccc2c(c1)OCCN2c1sc(C(=O)NCCCCCCNC(=O)c2ccc(-c3c4nc(c(-c5ccccc5)c5ccc([nH]5)c(-c5ccccc5)c5nc(c(-c6ccccc6)c6ccc3[nH]6)C=C5)C=C4)cc2)cc1C
REMARK SMILES IDX 21 1 20 2 19 3 18 4 17 5 15 6 16 7 14 9 12 10 13 11 76 12
REMARK SMILES IDX 75 13 77 14 11 15 1 16 2 17 3 18 7 19 4 20 6 21 5 22 8 23
REMARK SMILES IDX 9 24 10 25 22 26 23 27 24 28 25 29 26 31 27 32 28 33 74 34
REMARK SMILES IDX 29 35 73 36 30 37 31 38 32 39 67 40 33 41 72 42 66 43 68 44
REMARK SMILES IDX 34 45 71 46 65 47 64 48 35 50 57 51 42 52 56 53 43 54 46 55
REMARK SMILES IDX 55 56 69 57 44 58 45 59 54 61 70 62 47 63 36 64 37 65 41 66
REMARK SMILES IDX 38 67 40 68 39 69 58 70 59 71 63 72 60 73 62 74 61 75 48 76
REMARK SMILES IDX 49 77 53 78 50 79 52 80 51 81
REMARK H PARENT 17 8 24 30 68 49 46 60
REMARK Flexibility Score: inf
ROOT
ATOM      1  C   UNL A   1      41.501  21.885  26.420  1.00  0.00     0.002 C 
ENDROOT
BRANCH   1   2
ATOM      2  C   UNL A   1      40.304  22.286  27.295  1.00  0.00     0.002 C 
BRANCH   2   3
ATOM      3  C   UNL A   1      39.812  23.731  27.117  1.00  0.00     0.021 C 
BRANCH   3   4
ATOM      4  C   UNL A   1      38.459  23.835  26.414  1.00  0.00     0.116 C 
BRANCH   4   5
ATOM      5  N   UNL A   1      38.235  22.679  25.571  1.00  0.00    -0.351 N 
ATOM      6  C   UNL A   1      37.148  22.188  24.892  1.00  0.00     0.261 C 
ATOM      7  O   UNL A   1      37.369  21.141  24.271  1.00  0.00    -0.268 OA
ATOM      8  H   UNL A   1      39.040  22.122  25.461  1.00  0.00     0.163 HD
BRANCH   6   9
ATOM      9  C   UNL A   1      35.850  22.844  24.817  1.00  0.00     0.094 A 
ATOM     10  C   UNL A   1      33.740  24.113  25.176  1.00  0.00     0.099 A 
ATOM     11  S   UNL A   1      34.763  23.088  26.101  1.00  0.00    -0.112 S 
ATOM     12  C   UNL A   1      34.060  24.026  23.829  1.00  0.00    -0.015 A 
ATOM     13  C   UNL A   1      35.276  23.294  23.639  1.00  0.00     0.031 A 
ATOM     14  C   UNL A   1      33.317  24.658  22.698  1.00  0.00     0.047 C 
BRANCH  10  15
ATOM     15  N   UNL A   1      32.728  24.839  25.731  1.00  0.00    -0.327 N 
ATOM     16  C   UNL A   1      32.847  30.413  27.212  1.00  0.00     0.044 C 
ATOM     17  C   UNL A   1      32.809  28.974  26.792  1.00  0.00    -0.047 A 
ATOM     18  C   UNL A   1      33.960  28.342  26.316  1.00  0.00     0.006 A 
ATOM     19  C   UNL A   1      31.635  28.226  26.912  1.00  0.00     0.052 A 
ATOM     20  C   UNL A   1      33.934  26.990  25.949  1.00  0.00     0.030 A 
ATOM     21  C   UNL A   1      31.612  26.876  26.544  1.00  0.00     0.143 A 
ATOM     22  C   UNL A   1      32.770  26.215  26.077  1.00  0.00     0.085 A 
ATOM     23  O   UNL A   1      30.386  26.259  26.675  1.00  0.00    -0.490 OA
ATOM     24  C   UNL A   1      30.310  25.049  25.914  1.00  0.00     0.251 C 
ATOM     25  C   UNL A   1      31.514  24.155  26.177  1.00  0.00     0.165 C 
ENDBRANCH  10  15
ENDBRANCH   6   9
ENDBRANCH   4   5
ENDBRANCH   3   4
ENDBRANCH   2   3
ENDBRANCH   1   2
BRANCH   1  26
ATOM     26  C   UNL A   1      41.541  20.416  26.000  1.00  0.00     0.021 C 
BRANCH  26  27
ATOM     27  C   UNL A   1      42.865  19.712  26.272  1.00  0.00     0.116 C 
BRANCH  27  28
ATOM     28  N   UNL A   1      43.501  19.226  25.056  1.00  0.00    -0.352 N 
ATOM     29  C   UNL A   1      44.359  19.887  24.210  1.00  0.00     0.251 C 
ATOM     30  H   UNL A   1      43.289  18.298  24.806  1.00  0.00     0.163 HD
ATOM     31  O   UNL A   1      44.699  19.386  23.143  1.00  0.00    -0.269 OA
BRANCH  29  32
ATOM     32  C   UNL A   1      44.837  21.237  24.578  1.00  0.00     0.039 A 
ATOM     33  C   UNL A   1      45.592  21.431  25.737  1.00  0.00     0.014 A 
ATOM     34  C   UNL A   1      44.472  22.326  23.781  1.00  0.00     0.014 A 
ATOM     35  C   UNL A   1      45.837  22.724  26.189  1.00  0.00     0.010 A 
ATOM     36  C   UNL A   1      44.783  23.621  24.200  1.00  0.00     0.010 A 
ATOM     37  C   UNL A   1      45.417  23.831  25.435  1.00  0.00    -0.014 A 
BRANCH  37  38
ATOM     38  C   UNL A   1      45.604  25.204  25.969  1.00  0.00     0.031 A 
ATOM     39  C   UNL A   1      44.448  25.933  26.603  1.00  0.00     0.074 A 
ATOM     40  C   UNL A   1      46.821  25.779  25.928  1.00  0.00     0.049 A 
ATOM     41  N   UNL A   1      44.411  27.147  27.095  1.00  0.00    -0.248 NA
ATOM     42  C   UNL A   1      43.169  25.210  26.700  1.00  0.00     0.031 C 
ATOM     43  C   UNL A   1      48.028  25.158  25.381  1.00  0.00     0.029 A 
ATOM     44  N   UNL A   1      47.247  27.007  26.370  1.00  0.00    -0.354 N 
ATOM     45  C   UNL A   1      43.108  27.338  27.536  1.00  0.00     0.074 A 
ATOM     46  C   UNL A   1      42.376  26.127  27.237  1.00  0.00     0.031 C 
ATOM     47  C   UNL A   1      49.066  25.989  25.558  1.00  0.00     0.029 A 
ATOM     48  C   UNL A   1      48.587  27.226  26.168  1.00  0.00     0.049 A 
ATOM     49  H   UNL A   1      46.649  27.665  26.792  1.00  0.00     0.167 HD
ATOM     50  C   UNL A   1      42.572  28.422  28.144  1.00  0.00     0.031 A 
ATOM     51  C   UNL A   1      49.347  28.308  26.426  1.00  0.00     0.031 A 
ATOM     52  C   UNL A   1      43.305  29.618  28.459  1.00  0.00     0.049 A 
ATOM     53  C   UNL A   1      48.714  29.523  27.041  1.00  0.00     0.074 A 
ATOM     54  C   UNL A   1      42.847  30.763  29.087  1.00  0.00     0.029 A 
ATOM     55  N   UNL A   1      44.646  29.821  28.179  1.00  0.00    -0.354 N 
ATOM     56  N   UNL A   1      47.477  29.692  27.440  1.00  0.00    -0.248 NA
ATOM     57  C   UNL A   1      49.574  30.699  27.234  1.00  0.00     0.031 C 
ATOM     58  C   UNL A   1      43.899  31.680  29.142  1.00  0.00     0.029 A 
ATOM     59  C   UNL A   1      45.026  31.082  28.600  1.00  0.00     0.049 A 
ATOM     60  H   UNL A   1      45.239  29.166  27.745  1.00  0.00     0.167 HD
ATOM     61  C   UNL A   1      47.413  30.983  27.945  1.00  0.00     0.074 A 
ATOM     62  C   UNL A   1      48.739  31.552  27.814  1.00  0.00     0.031 C 
ATOM     63  C   UNL A   1      46.349  31.635  28.470  1.00  0.00     0.031 A 
BRANCH  50  64
ATOM     64  C   UNL A   1      41.113  28.385  28.503  1.00  0.00    -0.014 A 
ATOM     65  C   UNL A   1      40.165  28.915  27.614  1.00  0.00     0.009 A 
ATOM     66  C   UNL A   1      40.686  27.920  29.756  1.00  0.00     0.009 A 
ATOM     67  C   UNL A   1      38.819  28.992  27.976  1.00  0.00     0.001 A 
ATOM     68  C   UNL A   1      39.334  27.976  30.105  1.00  0.00     0.001 A 
ATOM     69  C   UNL A   1      38.405  28.520  29.219  1.00  0.00     0.000 A 
ENDBRANCH  50  64
BRANCH  51  70
ATOM     70  C   UNL A   1      50.793  28.279  26.088  1.00  0.00    -0.014 A 
ATOM     71  C   UNL A   1      51.228  28.589  24.789  1.00  0.00     0.009 A 
ATOM     72  C   UNL A   1      51.741  27.888  27.045  1.00  0.00     0.009 A 
ATOM     73  C   UNL A   1      52.578  28.481  24.448  1.00  0.00     0.001 A 
ATOM     74  C   UNL A   1      53.094  27.809  26.709  1.00  0.00     0.001 A 
ATOM     75  C   UNL A   1      53.510  28.095  25.408  1.00  0.00     0.000 A 
ENDBRANCH  51  70
BRANCH  63  76
ATOM     76  C   UNL A   1      46.553  33.036  28.967  1.00  0.00    -0.014 A 
ATOM     77  C   UNL A   1      46.404  34.117  28.081  1.00  0.00     0.009 A 
ATOM     78  C   UNL A   1      47.022  33.278  30.267  1.00  0.00     0.009 A 
ATOM     79  C   UNL A   1      46.742  35.409  28.479  1.00  0.00     0.001 A 
ATOM     80  C   UNL A   1      47.338  34.577  30.669  1.00  0.00     0.001 A 
ATOM     81  C   UNL A   1      47.209  35.638  29.773  1.00  0.00     0.000 A 
ENDBRANCH  63  76
ENDBRANCH  37  38
ENDBRANCH  29  32
ENDBRANCH  27  28
ENDBRANCH  26  27
ENDBRANCH   1  26
TORSDOF 14
ENDMDL
MODEL 2
REMARK VINA RESULT:     -11.1      4.904     10.226
REMARK SMILES Cc1ccc2c(c1)OCCN2c1sc(C(=O)NCCCCCCNC(=O)c2ccc(-c3c4nc(c(-c5ccccc5)c5ccc([nH]5)c(-c5ccccc5)c5nc(c(-c6ccccc6)c6ccc3[nH]6)C=C5)C=C4)cc2)cc1C
REMARK SMILES IDX 21 1 20 2 19 3 18 4 17 5 15 6 16 7 14 9 12 10 13 11 76 12
REMARK SMILES IDX 75 13 77 14 11 15 1 16 2 17 3 18 7 19 4 20 6 21 5 22 8 23
REMARK SMILES IDX 9 24 10 25 22 26 23 27 24 28 25 29 26 31 27 32 28 33 74 34
REMARK SMILES IDX 29 35 73 36 30 37 31 38 32 39 67 40 33 41 72 42 66 43 68 44
REMARK SMILES IDX 34 45 71 46 65 47 64 48 35 50 57 51 42 52 56 53 43 54 46 55
REMARK SMILES IDX 55 56 69 57 44 58 45 59 54 61 70 62 47 63 36 64 37 65 41 66
REMARK SMILES IDX 38 67 40 68 39 69 58 70 59 71 63 72 60 73 62 74 61 75 48 76
REMARK SMILES IDX 49 77 53 78 50 79 52 80 51 81
REMARK H PARENT 17 8 24 30 68 49 46 60
REMARK Flexibility Score: inf
ROOT
ATOM      1  C   UNL A   1      32.363  29.533  26.088  1.00  0.00     0.002 C 
ENDROOT
BRANCH   1   2
ATOM      2  C   UNL A   1      31.224  28.563  25.743  1.00  0.00     0.002 C 
BRANCH   2   3
ATOM      3  C   UNL A   1      30.916  28.414  24.244  1.00  0.00     0.021 C 
BRANCH   3   4
ATOM      4  C   UNL A   1      32.161  28.213  23.380  1.00  0.00     0.116 C 
BRANCH   4   5
ATOM      5  N   UNL A   1      31.811  27.578  22.126  1.00  0.00    -0.351 N 
ATOM      6  C   UNL A   1      31.741  26.275  21.703  1.00  0.00     0.261 C 
ATOM      7  O   UNL A   1      31.396  26.144  20.523  1.00  0.00    -0.268 OA
ATOM      8  H   UNL A   1      31.572  28.225  21.422  1.00  0.00     0.163 HD
BRANCH   6   9
ATOM      9  C   UNL A   1      31.969  25.114  22.551  1.00  0.00     0.094 A 
ATOM     10  C   UNL A   1      32.858  23.202  23.874  1.00  0.00     0.099 A 
ATOM     11  S   UNL A   1      33.187  23.942  22.358  1.00  0.00    -0.112 S 
ATOM     12  C   UNL A   1      31.646  23.651  24.378  1.00  0.00    -0.015 A 
ATOM     13  C   UNL A   1      31.148  24.751  23.606  1.00  0.00     0.031 A 
ATOM     14  C   UNL A   1      30.952  23.147  25.600  1.00  0.00     0.047 C 
BRANCH  10  15
ATOM     15  N   UNL A   1      33.677  22.262  24.427  1.00  0.00    -0.327 N 
ATOM     16  C   UNL A   1      33.337  16.539  23.793  1.00  0.00     0.044 C 
ATOM     17  C   UNL A   1      33.443  18.028  23.926  1.00  0.00    -0.047 A 
ATOM     18  C   UNL A   1      32.471  18.863  23.368  1.00  0.00     0.006 A 
ATOM     19  C   UNL A   1      34.489  18.608  24.647  1.00  0.00     0.052 A 
ATOM     20  C   UNL A   1      32.554  20.254  23.514  1.00  0.00     0.030 A 
ATOM     21  C   UNL A   1      34.569  19.998  24.790  1.00  0.00     0.143 A 
ATOM     22  C   UNL A   1      33.587  20.857  24.249  1.00  0.00     0.085 A 
ATOM     23  O   UNL A   1      35.667  20.448  25.493  1.00  0.00    -0.490 OA
ATOM     24  C   UNL A   1      35.925  21.836  25.256  1.00  0.00     0.251 C 
ATOM     25  C   UNL A   1      34.662  22.669  25.428  1.00  0.00     0.165 C 
ENDBRANCH  10  15
ENDBRANCH   6   9
ENDBRANCH   4   5
ENDBRANCH   3   4
ENDBRANCH   2   3
ENDBRANCH   1   2
BRANCH   1  26
ATOM     26  C   UNL A   1      31.923  30.926  26.538  1.00  0.00     0.021 C 
BRANCH  26  27
ATOM     27  C   UNL A   1      33.005  31.740  27.238  1.00  0.00     0.116 C 
BRANCH  27  28
ATOM     28  N   UNL A   1      32.562  33.084  27.580  1.00  0.00    -0.352 N 
ATOM     29  C   UNL A   1      33.156  34.000  28.416  1.00  0.00     0.251 C 
ATOM     30  H   UNL A   1      31.724  33.377  27.156  1.00  0.00     0.163 HD
ATOM     31  O   UNL A   1      32.581  35.042  28.714  1.00  0.00    -0.269 OA
BRANCH  29  32
ATOM     32  C   UNL A   1      34.483  33.697  28.991  1.00  0.00     0.039 A 
ATOM     33  C   UNL A   1      35.649  33.968  28.270  1.00  0.00     0.014 A 
ATOM     34  C   UNL A   1      34.554  33.079  30.243  1.00  0.00     0.014 A 
ATOM     35  C   UNL A   1      36.867  33.472  28.721  1.00  0.00     0.010 A 
ATOM     36  C   UNL A   1      35.790  32.645  30.728  1.00  0.00     0.010 A 
ATOM     37  C   UNL A   1      36.946  32.788  29.945  1.00  0.00    -0.014 A 
BRANCH  37  38
ATOM     38  C   UNL A   1      38.233  32.184  30.374  1.00  0.00     0.031 A 
ATOM     39  C   UNL A   1      38.693  30.879  29.780  1.00  0.00     0.074 A 
ATOM     40  C   UNL A   1      39.012  32.831  31.262  1.00  0.00     0.049 A 
ATOM     41  N   UNL A   1      39.768  30.184  30.054  1.00  0.00    -0.248 NA
ATOM     42  C   UNL A   1      37.837  30.273  28.746  1.00  0.00     0.031 C 
ATOM     43  C   UNL A   1      38.700  34.122  31.874  1.00  0.00     0.029 A 
ATOM     44  N   UNL A   1      40.235  32.498  31.789  1.00  0.00    -0.354 N 
ATOM     45  C   UNL A   1      39.707  29.055  29.246  1.00  0.00     0.074 A 
ATOM     46  C   UNL A   1      38.479  29.143  28.486  1.00  0.00     0.031 C 
ATOM     47  C   UNL A   1      39.722  34.493  32.660  1.00  0.00     0.029 A 
ATOM     48  C   UNL A   1      40.730  33.437  32.660  1.00  0.00     0.049 A 
ATOM     49  H   UNL A   1      40.712  31.666  31.564  1.00  0.00     0.167 HD
ATOM     50  C   UNL A   1      40.598  28.041  29.141  1.00  0.00     0.031 A 
ATOM     51  C   UNL A   1      41.859  33.443  33.394  1.00  0.00     0.031 A 
ATOM     52  C   UNL A   1      41.828  27.965  29.882  1.00  0.00     0.049 A 
ATOM     53  C   UNL A   1      42.800  32.276  33.309  1.00  0.00     0.074 A 
ATOM     54  C   UNL A   1      42.799  26.980  29.830  1.00  0.00     0.029 A 
ATOM     55  N   UNL A   1      42.258  28.908  30.800  1.00  0.00    -0.354 N 
ATOM     56  N   UNL A   1      42.721  31.211  32.549  1.00  0.00    -0.248 NA
ATOM     57  C   UNL A   1      43.980  32.304  34.185  1.00  0.00     0.031 C 
ATOM     58  C   UNL A   1      43.794  27.302  30.755  1.00  0.00     0.029 A 
ATOM     59  C   UNL A   1      43.470  28.516  31.339  1.00  0.00     0.049 A 
ATOM     60  H   UNL A   1      41.774  29.732  31.034  1.00  0.00     0.167 HD
ATOM     61  C   UNL A   1      43.844  30.450  32.842  1.00  0.00     0.074 A 
ATOM     62  C   UNL A   1      44.597  31.180  33.840  1.00  0.00     0.031 C 
ATOM     63  C   UNL A   1      44.214  29.254  32.328  1.00  0.00     0.031 A 
BRANCH  50  64
ATOM     64  C   UNL A   1      40.281  26.913  28.200  1.00  0.00    -0.014 A 
ATOM     65  C   UNL A   1      39.525  25.821  28.654  1.00  0.00     0.009 A 
ATOM     66  C   UNL A   1      40.810  26.881  26.901  1.00  0.00     0.009 A 
ATOM     67  C   UNL A   1      39.315  24.713  27.833  1.00  0.00     0.001 A 
ATOM     68  C   UNL A   1      40.576  25.781  26.071  1.00  0.00     0.001 A 
ATOM     69  C   UNL A   1      39.837  24.696  26.541  1.00  0.00     0.000 A 
ENDBRANCH  50  64
BRANCH  51  70
ATOM     70  C   UNL A   1      42.146  34.602  34.279  1.00  0.00    -0.014 A 
ATOM     71  C   UNL A   1      41.770  34.576  35.632  1.00  0.00     0.009 A 
ATOM     72  C   UNL A   1      42.745  35.760  33.764  1.00  0.00     0.009 A 
ATOM     73  C   UNL A   1      41.963  35.695  36.444  1.00  0.00     0.001 A 
ATOM     74  C   UNL A   1      42.963  36.869  34.586  1.00  0.00     0.001 A 
ATOM     75  C   UNL A   1      42.562  36.839  35.922  1.00  0.00     0.000 A 
ENDBRANCH  51  70
BRANCH  63  76
ATOM     76  C   UNL A   1      45.499  28.645  32.806  1.00  0.00    -0.014 A 
ATOM     77  C   UNL A   1      46.687  28.881  32.095  1.00  0.00     0.009 A 
ATOM     78  C   UNL A   1      45.511  27.734  33.873  1.00  0.00     0.009 A 
ATOM     79  C   UNL A   1      47.857  28.200  32.427  1.00  0.00     0.001 A 
ATOM     80  C   UNL A   1      46.690  27.071  34.217  1.00  0.00     0.001 A 
ATOM     81  C   UNL A   1      47.858  27.296  33.488  1.00  0.00     0.000 A 
ENDBRANCH  63  76
ENDBRANCH  37  38
ENDBRANCH  29  32
ENDBRANCH  27  28
ENDBRANCH  26  27
ENDBRANCH   1  26
TORSDOF 14
ENDMDL
MODEL 3
REMARK VINA RESULT:     -11.1      0.554      5.823
REMARK SMILES Cc1ccc2c(c1)OCCN2c1sc(C(=O)NCCCCCCNC(=O)c2ccc(-c3c4nc(c(-c5ccccc5)c5ccc([nH]5)c(-c5ccccc5)c5nc(c(-c6ccccc6)c6ccc3[nH]6)C=C5)C=C4)cc2)cc1C
REMARK SMILES IDX 21 1 20 2 19 3 18 4 17 5 15 6 16 7 14 9 12 10 13 11 76 12
REMARK SMILES IDX 75 13 77 14 11 15 1 16 2 17 3 18 7 19 4 20 6 21 5 22 8 23
REMARK SMILES IDX 9 24 10 25 22 26 23 27 24 28 25 29 26 31 27 32 28 33 74 34
REMARK SMILES IDX 29 35 73 36 30 37 31 38 32 39 67 40 33 41 72 42 66 43 68 44
REMARK SMILES IDX 34 45 71 46 65 47 64 48 35 50 57 51 42 52 56 53 43 54 46 55
REMARK SMILES IDX 55 56 69 57 44 58 45 59 54 61 70 62 47 63 36 64 37 65 41 66
REMARK SMILES IDX 38 67 40 68 39 69 58 70 59 71 63 72 60 73 62 74 61 75 48 76
REMARK SMILES IDX 49 77 53 78 50 79 52 80 51 81
REMARK H PARENT 17 8 24 30 68 49 46 60
REMARK Flexibility Score: inf
ROOT
ATOM      1  C   UNL A   1      41.705  21.570  26.622  1.00  0.00     0.002 C 
ENDROOT
BRANCH   1   2
ATOM      2  C   UNL A   1      40.422  21.956  27.370  1.00  0.00     0.002 C 
BRANCH   2   3
ATOM      3  C   UNL A   1      39.893  23.371  27.086  1.00  0.00     0.021 C 
BRANCH   3   4
ATOM      4  C   UNL A   1      38.629  23.392  26.227  1.00  0.00     0.116 C 
BRANCH   4   5
ATOM      5  N   UNL A   1      38.441  22.114  25.571  1.00  0.00    -0.351 N 
ATOM      6  C   UNL A   1      37.353  21.458  25.054  1.00  0.00     0.261 C 
ATOM      7  O   UNL A   1      37.613  20.351  24.567  1.00  0.00    -0.268 OA
ATOM      8  H   UNL A   1      39.279  21.605  25.474  1.00  0.00     0.163 HD
BRANCH   6   9
ATOM      9  C   UNL A   1      36.005  22.004  24.993  1.00  0.00     0.094 A 
ATOM     10  C   UNL A   1      33.831  23.165  25.339  1.00  0.00     0.099 A 
ATOM     11  S   UNL A   1      34.997  22.364  26.315  1.00  0.00    -0.112 S 
ATOM     12  C   UNL A   1      34.058  22.898  23.997  1.00  0.00    -0.015 A 
ATOM     13  C   UNL A   1      35.312  22.230  23.815  1.00  0.00     0.031 A 
ATOM     14  C   UNL A   1      33.187  23.298  22.853  1.00  0.00     0.047 C 
BRANCH  10  15
ATOM     15  N   UNL A   1      32.807  23.896  25.866  1.00  0.00    -0.327 N 
ATOM     16  C   UNL A   1      32.608  29.620  26.554  1.00  0.00     0.044 C 
ATOM     17  C   UNL A   1      32.649  28.137  26.340  1.00  0.00    -0.047 A 
ATOM     18  C   UNL A   1      33.810  27.519  25.868  1.00  0.00     0.006 A 
ATOM     19  C   UNL A   1      31.546  27.339  26.651  1.00  0.00     0.052 A 
ATOM     20  C   UNL A   1      33.860  26.130  25.693  1.00  0.00     0.030 A 
ATOM     21  C   UNL A   1      31.599  25.952  26.474  1.00  0.00     0.143 A 
ATOM     22  C   UNL A   1      32.769  25.307  26.015  1.00  0.00     0.085 A 
ATOM     23  O   UNL A   1      30.434  25.282  26.783  1.00  0.00    -0.490 OA
ATOM     24  C   UNL A   1      30.398  23.973  26.204  1.00  0.00     0.251 C 
ATOM     25  C   UNL A   1      31.681  23.206  26.493  1.00  0.00     0.165 C 
ENDBRANCH  10  15
ENDBRANCH   6   9
ENDBRANCH   4   5
ENDBRANCH   3   4
ENDBRANCH   2   3
ENDBRANCH   1   2
BRANCH   1  26
ATOM     26  C   UNL A   1      41.706  20.172  26.003  1.00  0.00     0.021 C 
BRANCH  26  27
ATOM     27  C   UNL A   1      42.983  19.373  26.236  1.00  0.00     0.116 C 
BRANCH  27  28
ATOM     28  N   UNL A   1      43.607  18.940  24.994  1.00  0.00    -0.352 N 
ATOM     29  C   UNL A   1      44.413  19.655  24.140  1.00  0.00     0.251 C 
ATOM     30  H   UNL A   1      43.428  18.009  24.729  1.00  0.00     0.163 HD
ATOM     31  O   UNL A   1      44.746  19.190  23.054  1.00  0.00    -0.269 OA
BRANCH  29  32
ATOM     32  C   UNL A   1      44.843  21.016  24.524  1.00  0.00     0.039 A 
ATOM     33  C   UNL A   1      45.622  21.219  25.667  1.00  0.00     0.014 A 
ATOM     34  C   UNL A   1      44.408  22.104  23.762  1.00  0.00     0.014 A 
ATOM     35  C   UNL A   1      45.824  22.511  26.140  1.00  0.00     0.010 A 
ATOM     36  C   UNL A   1      44.675  23.403  24.202  1.00  0.00     0.010 A 
ATOM     37  C   UNL A   1      45.335  23.615  25.423  1.00  0.00    -0.014 A 
BRANCH  37  38
ATOM     38  C   UNL A   1      45.477  24.982  25.983  1.00  0.00     0.031 A 
ATOM     39  C   UNL A   1      46.800  25.699  25.905  1.00  0.00     0.074 A 
ATOM     40  C   UNL A   1      44.408  25.601  26.518  1.00  0.00     0.049 A 
ATOM     41  N   UNL A   1      47.124  26.881  26.366  1.00  0.00    -0.248 NA
ATOM     42  C   UNL A   1      47.903  25.001  25.223  1.00  0.00     0.031 C 
ATOM     43  C   UNL A   1      43.063  25.031  26.611  1.00  0.00     0.029 A 
ATOM     44  N   UNL A   1      44.279  26.852  27.068  1.00  0.00    -0.354 N 
ATOM     45  C   UNL A   1      48.465  27.058  26.050  1.00  0.00     0.074 A 
ATOM     46  C   UNL A   1      48.905  25.855  25.378  1.00  0.00     0.031 C 
ATOM     47  C   UNL A   1      42.237  25.944  27.144  1.00  0.00     0.029 A 
ATOM     48  C   UNL A   1      43.004  27.136  27.491  1.00  0.00     0.049 A 
ATOM     49  H   UNL A   1      45.029  27.485  27.150  1.00  0.00     0.167 HD
ATOM     50  C   UNL A   1      49.256  28.129  26.291  1.00  0.00     0.031 A 
ATOM     51  C   UNL A   1      42.507  28.225  28.109  1.00  0.00     0.031 A 
ATOM     52  C   UNL A   1      48.813  29.333  26.942  1.00  0.00     0.049 A 
ATOM     53  C   UNL A   1      43.421  29.374  28.425  1.00  0.00     0.074 A 
ATOM     54  C   UNL A   1      49.542  30.476  27.217  1.00  0.00     0.029 A 
ATOM     55  N   UNL A   1      47.529  29.551  27.411  1.00  0.00    -0.354 N 
ATOM     56  N   UNL A   1      44.690  29.520  28.130  1.00  0.00    -0.248 NA
ATOM     57  C   UNL A   1      42.841  30.505  29.163  1.00  0.00     0.031 C 
ATOM     58  C   UNL A   1      48.712  31.368  27.898  1.00  0.00     0.029 A 
ATOM     59  C   UNL A   1      47.450  30.802  27.995  1.00  0.00     0.049 A 
ATOM     60  H   UNL A   1      46.783  28.912  27.339  1.00  0.00     0.167 HD
ATOM     61  C   UNL A   1      45.057  30.761  28.631  1.00  0.00     0.074 A 
ATOM     62  C   UNL A   1      43.874  31.335  29.238  1.00  0.00     0.031 C 
ATOM     63  C   UNL A   1      46.267  31.366  28.590  1.00  0.00     0.031 A 
BRANCH  50  64
ATOM     64  C   UNL A   1      50.696  28.058  25.865  1.00  0.00    -0.014 A 
ATOM     65  C   UNL A   1      51.062  28.480  24.578  1.00  0.00     0.009 A 
ATOM     66  C   UNL A   1      51.670  27.482  26.695  1.00  0.00     0.009 A 
ATOM     67  C   UNL A   1      52.371  28.318  24.123  1.00  0.00     0.001 A 
ATOM     68  C   UNL A   1      52.986  27.344  26.246  1.00  0.00     0.001 A 
ATOM     69  C   UNL A   1      53.332  27.753  24.959  1.00  0.00     0.000 A 
ENDBRANCH  50  64
BRANCH  51  70
ATOM     70  C   UNL A   1      41.067  28.262  28.473  1.00  0.00    -0.014 A 
ATOM     71  C   UNL A   1      40.137  28.901  27.637  1.00  0.00     0.009 A 
ATOM     72  C   UNL A   1      40.623  27.708  29.682  1.00  0.00     0.009 A 
ATOM     73  C   UNL A   1      38.798  29.010  28.016  1.00  0.00     0.001 A 
ATOM     74  C   UNL A   1      39.277  27.793  30.046  1.00  0.00     0.001 A 
ATOM     75  C   UNL A   1      38.368  28.453  29.219  1.00  0.00     0.000 A 
ENDBRANCH  51  70
BRANCH  63  76
ATOM     76  C   UNL A   1      46.395  32.732  29.197  1.00  0.00    -0.014 A 
ATOM     77  C   UNL A   1      46.214  33.870  28.393  1.00  0.00     0.009 A 
ATOM     78  C   UNL A   1      46.827  32.895  30.522  1.00  0.00     0.009 A 
ATOM     79  C   UNL A   1      46.484  35.142  28.895  1.00  0.00     0.001 A 
ATOM     80  C   UNL A   1      47.074  34.172  31.029  1.00  0.00     0.001 A 
ATOM     81  C   UNL A   1      46.914  35.292  30.213  1.00  0.00     0.000 A 
ENDBRANCH  63  76
ENDBRANCH  37  38
ENDBRANCH  29  32
ENDBRANCH  27  28
ENDBRANCH  26  27
ENDBRANCH   1  26
TORSDOF 14
ENDMDL
