MODEL 1
REMARK VINA RESULT:      -8.2      0.000      0.000
REMARK SMILES CC[C@@H](C(=O)NCCCCCCNC(=O)c1ccc(-c2c3nc(c(-c4ccccc4)c4ccc([nH]4)c(-c4ccccc4)c4nc(c(-c5ccccc5)c5ccc2[nH]5)C=C4)C=C3)cc1)N1C(=O)/C(=C/C(C)=C/c2ccccc2)SC1=S
REMARK SMILES IDX 9 1 8 2 7 3 6 4 4 5 5 6 3 8 2 9 1 10 64 11 65 12 79 13 66 14
REMARK SMILES IDX 67 15 78 16 80 17 68 18 69 19 70 20 71 21 72 22 73 23 77 24
REMARK SMILES IDX 74 25 76 26 75 27 10 28 11 29 12 30 13 31 14 32 15 34 16 35
REMARK SMILES IDX 17 36 63 37 18 38 62 39 19 40 20 41 21 42 56 43 22 44 61 45
REMARK SMILES IDX 55 46 57 47 23 48 60 49 54 50 53 51 24 53 46 54 31 55 45 56
REMARK SMILES IDX 32 57 35 58 44 59 58 60 33 61 34 62 43 64 59 65 36 66 25 67
REMARK SMILES IDX 26 68 30 69 27 70 29 71 28 72 47 73 48 74 52 75 49 76 51 77
REMARK SMILES IDX 50 78 37 79 38 80 42 81 39 82 41 83 40 84
REMARK H PARENT 6 7 13 33 57 52 35 63
REMARK Flexibility Score: inf
ROOT
ATOM      1  C   UNL A   1      37.755  33.416  30.666  1.00  0.00     0.002 C 
ENDROOT
BRANCH   1   2
ATOM      2  C   UNL A   1      38.732  34.578  30.861  1.00  0.00     0.021 C 
BRANCH   2   3
ATOM      3  C   UNL A   1      39.987  34.215  31.661  1.00  0.00     0.116 C 
BRANCH   3   4
ATOM      4  N   UNL A   1      39.932  34.832  32.974  1.00  0.00    -0.354 N 
ATOM      5  C   UNL A   1      39.113  34.555  34.032  1.00  0.00     0.243 C 
ATOM      6  O   UNL A   1      38.968  35.429  34.892  1.00  0.00    -0.273 OA
ATOM      7  H   UNL A   1      40.583  35.555  33.124  1.00  0.00     0.163 HD
BRANCH   5   8
ATOM      8  C   UNL A   1      38.334  33.218  34.082  1.00  0.00     0.181 C 
BRANCH   8   9
ATOM      9  C   UNL A   1      37.202  33.453  35.132  1.00  0.00     0.032 C 
ATOM     10  C   UNL A   1      35.864  33.856  34.529  1.00  0.00     0.006 C 
ENDBRANCH   8   9
BRANCH   8  11
ATOM     11  N   UNL A   1      39.192  32.073  34.495  1.00  0.00    -0.280 N 
ATOM     12  C   UNL A   1      39.228  30.884  33.784  1.00  0.00     0.266 C 
ATOM     13  C   UNL A   1      39.697  31.920  35.768  1.00  0.00     0.149 C 
ATOM     14  O   UNL A   1      38.408  30.506  32.948  1.00  0.00    -0.268 OA
ATOM     15  C   UNL A   1      40.332  30.006  34.289  1.00  0.00     0.080 C 
ATOM     16  S   UNL A   1      40.934  30.686  35.745  1.00  0.00    -0.054 SA
ATOM     17  S   UNL A   1      39.235  32.671  37.187  1.00  0.00    -0.052 S 
ATOM     18  C   UNL A   1      40.713  28.888  33.647  1.00  0.00     0.024 C 
BRANCH  18  19
ATOM     19  C   UNL A   1      41.790  27.921  33.930  1.00  0.00    -0.049 C 
ATOM     20  C   UNL A   1      41.428  26.894  34.979  1.00  0.00     0.044 C 
ATOM     21  C   UNL A   1      43.017  27.987  33.370  1.00  0.00     0.011 C 
BRANCH  21  22
ATOM     22  C   UNL A   1      44.172  27.072  33.445  1.00  0.00    -0.025 A 
ATOM     23  C   UNL A   1      45.339  27.549  34.061  1.00  0.00     0.008 A 
ATOM     24  C   UNL A   1      44.221  25.834  32.794  1.00  0.00     0.008 A 
ATOM     25  C   UNL A   1      46.517  26.800  34.050  1.00  0.00     0.001 A 
ATOM     26  C   UNL A   1      45.397  25.075  32.795  1.00  0.00     0.001 A 
ATOM     27  C   UNL A   1      46.545  25.560  33.420  1.00  0.00     0.000 A 
ENDBRANCH  21  22
ENDBRANCH  18  19
ENDBRANCH   8  11
ENDBRANCH   5   8
ENDBRANCH   3   4
ENDBRANCH   2   3
ENDBRANCH   1   2
BRANCH   1  28
ATOM     28  C   UNL A   1      37.390  33.113  29.209  1.00  0.00     0.002 C 
BRANCH  28  29
ATOM     29  C   UNL A   1      35.909  33.277  28.850  1.00  0.00     0.021 C 
BRANCH  29  30
ATOM     30  C   UNL A   1      34.939  32.432  29.671  1.00  0.00     0.116 C 
BRANCH  30  31
ATOM     31  N   UNL A   1      34.229  31.459  28.859  1.00  0.00    -0.352 N 
ATOM     32  C   UNL A   1      34.709  30.365  28.187  1.00  0.00     0.251 C 
ATOM     33  H   UNL A   1      33.259  31.608  28.780  1.00  0.00     0.163 HD
ATOM     34  O   UNL A   1      33.979  29.753  27.411  1.00  0.00    -0.269 OA
BRANCH  32  35
ATOM     35  C   UNL A   1      36.107  29.919  28.379  1.00  0.00     0.039 A 
ATOM     36  C   UNL A   1      36.478  29.396  29.621  1.00  0.00     0.014 A 
ATOM     37  C   UNL A   1      37.061  30.065  27.368  1.00  0.00     0.014 A 
ATOM     38  C   UNL A   1      37.796  28.989  29.839  1.00  0.00     0.010 A 
ATOM     39  C   UNL A   1      38.361  29.602  27.566  1.00  0.00     0.010 A 
ATOM     40  C   UNL A   1      38.745  29.079  28.809  1.00  0.00    -0.014 A 
BRANCH  40  41
ATOM     41  C   UNL A   1      40.154  28.673  29.038  1.00  0.00     0.031 A 
ATOM     42  C   UNL A   1      40.625  27.309  28.611  1.00  0.00     0.074 A 
ATOM     43  C   UNL A   1      41.004  29.513  29.661  1.00  0.00     0.049 A 
ATOM     44  N   UNL A   1      41.809  26.766  28.739  1.00  0.00    -0.248 NA
ATOM     45  C   UNL A   1      39.627  26.433  27.975  1.00  0.00     0.031 C 
ATOM     46  C   UNL A   1      40.665  30.847  30.159  1.00  0.00     0.029 A 
ATOM     47  N   UNL A   1      42.329  29.364  29.978  1.00  0.00    -0.354 N 
ATOM     48  C   UNL A   1      41.692  25.482  28.221  1.00  0.00     0.074 A 
ATOM     49  C   UNL A   1      40.313  25.312  27.817  1.00  0.00     0.031 C 
ATOM     50  C   UNL A   1      41.763  31.406  30.695  1.00  0.00     0.029 A 
ATOM     51  C   UNL A   1      42.873  30.461  30.601  1.00  0.00     0.049 A 
ATOM     52  H   UNL A   1      42.843  28.548  29.780  1.00  0.00     0.167 HD
ATOM     53  C   UNL A   1      42.648  24.533  28.076  1.00  0.00     0.031 A 
ATOM     54  C   UNL A   1      44.126  30.685  31.039  1.00  0.00     0.031 A 
ATOM     55  C   UNL A   1      44.024  24.704  28.455  1.00  0.00     0.049 A 
ATOM     56  C   UNL A   1      45.176  29.628  30.841  1.00  0.00     0.074 A 
ATOM     57  C   UNL A   1      45.079  23.820  28.304  1.00  0.00     0.029 A 
ATOM     58  N   UNL A   1      44.538  25.843  29.055  1.00  0.00    -0.354 N 
ATOM     59  N   UNL A   1      45.061  28.441  30.297  1.00  0.00    -0.248 NA
ATOM     60  C   UNL A   1      46.534  29.954  31.299  1.00  0.00     0.031 C 
ATOM     61  C   UNL A   1      46.227  24.413  28.842  1.00  0.00     0.029 A 
ATOM     62  C   UNL A   1      45.894  25.682  29.288  1.00  0.00     0.049 A 
ATOM     63  H   UNL A   1      44.017  26.646  29.283  1.00  0.00     0.167 HD
ATOM     64  C   UNL A   1      46.336  27.890  30.321  1.00  0.00     0.074 A 
ATOM     65  C   UNL A   1      47.209  28.878  30.921  1.00  0.00     0.031 C 
ATOM     66  C   UNL A   1      46.748  26.677  29.881  1.00  0.00     0.031 A 
BRANCH  53  67
ATOM     67  C   UNL A   1      42.226  23.220  27.479  1.00  0.00    -0.014 A 
ATOM     68  C   UNL A   1      41.657  22.211  28.272  1.00  0.00     0.009 A 
ATOM     69  C   UNL A   1      42.385  22.995  26.103  1.00  0.00     0.009 A 
ATOM     70  C   UNL A   1      41.291  20.988  27.706  1.00  0.00     0.001 A 
ATOM     71  C   UNL A   1      41.993  21.781  25.535  1.00  0.00     0.001 A 
ATOM     72  C   UNL A   1      41.457  20.776  26.339  1.00  0.00     0.000 A 
ENDBRANCH  53  67
BRANCH  54  73
ATOM     73  C   UNL A   1      44.470  31.984  31.671  1.00  0.00    -0.014 A 
ATOM     74  C   UNL A   1      44.778  33.098  30.876  1.00  0.00     0.009 A 
ATOM     75  C   UNL A   1      44.499  32.113  33.067  1.00  0.00     0.009 A 
ATOM     76  C   UNL A   1      45.132  34.312  31.468  1.00  0.00     0.001 A 
ATOM     77  C   UNL A   1      44.832  33.335  33.656  1.00  0.00     0.001 A 
ATOM     78  C   UNL A   1      45.155  34.430  32.857  1.00  0.00     0.000 A 
ENDBRANCH  54  73
BRANCH  66  79
ATOM     79  C   UNL A   1      48.213  26.369  29.994  1.00  0.00    -0.014 A 
ATOM     80  C   UNL A   1      49.104  26.671  28.953  1.00  0.00     0.009 A 
ATOM     81  C   UNL A   1      48.710  25.794  31.174  1.00  0.00     0.009 A 
ATOM     82  C   UNL A   1      50.462  26.370  29.079  1.00  0.00     0.001 A 
ATOM     83  C   UNL A   1      50.071  25.517  31.306  1.00  0.00     0.001 A 
ATOM     84  C   UNL A   1      50.944  25.797  30.255  1.00  0.00     0.000 A 
ENDBRANCH  66  79
ENDBRANCH  40  41
ENDBRANCH  32  35
ENDBRANCH  30  31
ENDBRANCH  29  30
ENDBRANCH  28  29
ENDBRANCH   1  28
TORSDOF 17
ENDMDL
MODEL 2
REMARK VINA RESULT:      -8.0      5.112     10.785
REMARK SMILES CC[C@@H](C(=O)NCCCCCCNC(=O)c1ccc(-c2c3nc(c(-c4ccccc4)c4ccc([nH]4)c(-c4ccccc4)c4nc(c(-c5ccccc5)c5ccc2[nH]5)C=C4)C=C3)cc1)N1C(=O)/C(=C/C(C)=C/c2ccccc2)SC1=S
REMARK SMILES IDX 9 1 8 2 7 3 6 4 4 5 5 6 3 8 2 9 1 10 64 11 65 12 79 13 66 14
REMARK SMILES IDX 67 15 78 16 80 17 68 18 69 19 70 20 71 21 72 22 73 23 77 24
REMARK SMILES IDX 74 25 76 26 75 27 10 28 11 29 12 30 13 31 14 32 15 34 16 35
REMARK SMILES IDX 17 36 63 37 18 38 62 39 19 40 20 41 21 42 56 43 22 44 61 45
REMARK SMILES IDX 55 46 57 47 23 48 60 49 54 50 53 51 24 53 46 54 31 55 45 56
REMARK SMILES IDX 32 57 35 58 44 59 58 60 33 61 34 62 43 64 59 65 36 66 25 67
REMARK SMILES IDX 26 68 30 69 27 70 29 71 28 72 47 73 48 74 52 75 49 76 51 77
REMARK SMILES IDX 50 78 37 79 38 80 42 81 39 82 41 83 40 84
REMARK H PARENT 6 7 13 33 57 52 35 63
REMARK Flexibility Score: inf
ROOT
ATOM      1  C   UNL A   1      33.743  31.223  27.640  1.00  0.00     0.002 C 
ENDROOT
BRANCH   1   2
ATOM      2  C   UNL A   1      34.819  30.134  27.627  1.00  0.00     0.021 C 
BRANCH   2   3
ATOM      3  C   UNL A   1      34.484  28.933  26.738  1.00  0.00     0.116 C 
BRANCH   3   4
ATOM      4  N   UNL A   1      33.359  28.203  27.294  1.00  0.00    -0.354 N 
ATOM      5  C   UNL A   1      32.283  27.647  26.661  1.00  0.00     0.243 C 
ATOM      6  O   UNL A   1      31.272  27.421  27.332  1.00  0.00    -0.273 OA
ATOM      7  H   UNL A   1      33.374  28.092  28.272  1.00  0.00     0.163 HD
BRANCH   5   8
ATOM      8  C   UNL A   1      32.323  27.403  25.133  1.00  0.00     0.181 C 
BRANCH   8   9
ATOM      9  C   UNL A   1      31.216  28.336  24.548  1.00  0.00     0.032 C 
ATOM     10  C   UNL A   1      31.402  29.809  24.881  1.00  0.00     0.006 C 
ENDBRANCH   8   9
BRANCH   8  11
ATOM     11  N   UNL A   1      32.044  25.983  24.774  1.00  0.00    -0.280 N 
ATOM     12  C   UNL A   1      33.019  25.150  24.250  1.00  0.00     0.266 C 
ATOM     13  C   UNL A   1      30.778  25.490  24.551  1.00  0.00     0.149 C 
ATOM     14  O   UNL A   1      34.091  25.497  23.758  1.00  0.00    -0.268 OA
ATOM     15  C   UNL A   1      32.525  23.736  24.199  1.00  0.00     0.080 C 
ATOM     16  S   UNL A   1      30.842  23.743  24.534  1.00  0.00    -0.054 SA
ATOM     17  S   UNL A   1      29.357  26.317  24.254  1.00  0.00    -0.052 S 
ATOM     18  C   UNL A   1      33.336  22.700  23.923  1.00  0.00     0.024 C 
BRANCH  18  19
ATOM     19  C   UNL A   1      33.081  21.249  23.873  1.00  0.00    -0.049 C 
ATOM     20  C   UNL A   1      32.153  20.830  22.755  1.00  0.00     0.044 C 
ATOM     21  C   UNL A   1      33.560  20.376  24.785  1.00  0.00     0.011 C 
BRANCH  21  22
ATOM     22  C   UNL A   1      33.502  18.903  24.848  1.00  0.00    -0.025 A 
ATOM     23  C   UNL A   1      34.244  18.183  23.899  1.00  0.00     0.008 A 
ATOM     24  C   UNL A   1      32.627  18.199  25.683  1.00  0.00     0.008 A 
ATOM     25  C   UNL A   1      34.134  16.795  23.801  1.00  0.00     0.001 A 
ATOM     26  C   UNL A   1      32.527  16.806  25.596  1.00  0.00     0.001 A 
ATOM     27  C   UNL A   1      33.278  16.105  24.654  1.00  0.00     0.000 A 
ENDBRANCH  21  22
ENDBRANCH  18  19
ENDBRANCH   8  11
ENDBRANCH   5   8
ENDBRANCH   3   4
ENDBRANCH   2   3
ENDBRANCH   1   2
BRANCH   1  28
ATOM     28  C   UNL A   1      34.161  32.540  28.301  1.00  0.00     0.002 C 
BRANCH  28  29
ATOM     29  C   UNL A   1      33.202  33.717  28.096  1.00  0.00     0.021 C 
BRANCH  29  30
ATOM     30  C   UNL A   1      33.681  35.055  28.653  1.00  0.00     0.116 C 
BRANCH  30  31
ATOM     31  N   UNL A   1      32.965  35.442  29.856  1.00  0.00    -0.352 N 
ATOM     32  C   UNL A   1      33.186  35.077  31.159  1.00  0.00     0.251 C 
ATOM     33  H   UNL A   1      32.210  36.058  29.715  1.00  0.00     0.163 HD
ATOM     34  O   UNL A   1      32.367  35.374  32.026  1.00  0.00    -0.269 OA
BRANCH  32  35
ATOM     35  C   UNL A   1      34.399  34.315  31.531  1.00  0.00     0.039 A 
ATOM     36  C   UNL A   1      35.649  34.906  31.325  1.00  0.00     0.014 A 
ATOM     37  C   UNL A   1      34.315  33.010  32.024  1.00  0.00     0.014 A 
ATOM     38  C   UNL A   1      36.812  34.203  31.645  1.00  0.00     0.010 A 
ATOM     39  C   UNL A   1      35.473  32.332  32.399  1.00  0.00     0.010 A 
ATOM     40  C   UNL A   1      36.732  32.914  32.194  1.00  0.00    -0.014 A 
BRANCH  40  41
ATOM     41  C   UNL A   1      37.963  32.147  32.513  1.00  0.00     0.031 A 
ATOM     42  C   UNL A   1      38.708  32.416  33.793  1.00  0.00     0.074 A 
ATOM     43  C   UNL A   1      38.433  31.235  31.640  1.00  0.00     0.049 A 
ATOM     44  N   UNL A   1      39.808  31.865  34.240  1.00  0.00    -0.248 NA
ATOM     45  C   UNL A   1      38.156  33.457  34.675  1.00  0.00     0.031 C 
ATOM     46  C   UNL A   1      37.827  30.905  30.349  1.00  0.00     0.029 A 
ATOM     47  N   UNL A   1      39.530  30.417  31.714  1.00  0.00    -0.354 N 
ATOM     48  C   UNL A   1      40.089  32.505  35.440  1.00  0.00     0.074 A 
ATOM     49  C   UNL A   1      39.070  33.515  35.631  1.00  0.00     0.031 C 
ATOM     50  C   UNL A   1      38.547  29.934  29.763  1.00  0.00     0.029 A 
ATOM     51  C   UNL A   1      39.675  29.592  30.625  1.00  0.00     0.049 A 
ATOM     52  H   UNL A   1      40.156  30.420  32.473  1.00  0.00     0.167 HD
ATOM     53  C   UNL A   1      41.093  32.265  36.318  1.00  0.00     0.031 A 
ATOM     54  C   UNL A   1      40.606  28.659  30.354  1.00  0.00     0.031 A 
ATOM     55  C   UNL A   1      42.095  31.249  36.144  1.00  0.00     0.049 A 
ATOM     56  C   UNL A   1      41.695  28.391  31.356  1.00  0.00     0.074 A 
ATOM     57  C   UNL A   1      43.125  30.896  37.000  1.00  0.00     0.029 A 
ATOM     58  N   UNL A   1      42.187  30.415  35.041  1.00  0.00    -0.354 N 
ATOM     59  N   UNL A   1      41.912  28.966  32.513  1.00  0.00    -0.248 NA
ATOM     60  C   UNL A   1      42.652  27.326  31.021  1.00  0.00     0.031 C 
ATOM     61  C   UNL A   1      43.859  29.867  36.398  1.00  0.00     0.029 A 
ATOM     62  C   UNL A   1      43.260  29.554  35.189  1.00  0.00     0.049 A 
ATOM     63  H   UNL A   1      41.580  30.434  34.266  1.00  0.00     0.167 HD
ATOM     64  C   UNL A   1      43.012  28.316  33.057  1.00  0.00     0.074 A 
ATOM     65  C   UNL A   1      43.407  27.294  32.109  1.00  0.00     0.031 C 
ATOM     66  C   UNL A   1      43.636  28.541  34.239  1.00  0.00     0.031 A 
BRANCH  53  67
ATOM     67  C   UNL A   1      41.150  33.127  37.548  1.00  0.00    -0.014 A 
ATOM     68  C   UNL A   1      40.456  32.773  38.715  1.00  0.00     0.009 A 
ATOM     69  C   UNL A   1      41.921  34.299  37.544  1.00  0.00     0.009 A 
ATOM     70  C   UNL A   1      40.501  33.596  39.842  1.00  0.00     0.001 A 
ATOM     71  C   UNL A   1      41.986  35.106  38.681  1.00  0.00     0.001 A 
ATOM     72  C   UNL A   1      41.268  34.760  39.824  1.00  0.00     0.000 A 
ENDBRANCH  53  67
BRANCH  54  73
ATOM     73  C   UNL A   1      40.528  27.874  29.096  1.00  0.00    -0.014 A 
ATOM     74  C   UNL A   1      39.759  26.702  29.038  1.00  0.00     0.009 A 
ATOM     75  C   UNL A   1      41.224  28.290  27.950  1.00  0.00     0.009 A 
ATOM     76  C   UNL A   1      39.709  25.947  27.865  1.00  0.00     0.001 A 
ATOM     77  C   UNL A   1      41.153  27.544  26.772  1.00  0.00     0.001 A 
ATOM     78  C   UNL A   1      40.403  26.370  26.732  1.00  0.00     0.000 A 
ENDBRANCH  54  73
BRANCH  66  79
ATOM     79  C   UNL A   1      44.783  27.638  34.589  1.00  0.00    -0.014 A 
ATOM     80  C   UNL A   1      44.581  26.438  35.288  1.00  0.00     0.009 A 
ATOM     81  C   UNL A   1      46.083  27.984  34.186  1.00  0.00     0.009 A 
ATOM     82  C   UNL A   1      45.665  25.619  35.607  1.00  0.00     0.001 A 
ATOM     83  C   UNL A   1      47.161  27.150  34.485  1.00  0.00     0.001 A 
ATOM     84  C   UNL A   1      46.953  25.973  35.204  1.00  0.00     0.000 A 
ENDBRANCH  66  79
ENDBRANCH  40  41
ENDBRANCH  32  35
ENDBRANCH  30  31
ENDBRANCH  29  30
ENDBRANCH  28  29
ENDBRANCH   1  28
TORSDOF 17
ENDMDL
MODEL 3
REMARK VINA RESULT:      -8.0      5.037     11.423
REMARK SMILES CC[C@@H](C(=O)NCCCCCCNC(=O)c1ccc(-c2c3nc(c(-c4ccccc4)c4ccc([nH]4)c(-c4ccccc4)c4nc(c(-c5ccccc5)c5ccc2[nH]5)C=C4)C=C3)cc1)N1C(=O)/C(=C/C(C)=C/c2ccccc2)SC1=S
REMARK SMILES IDX 9 1 8 2 7 3 6 4 4 5 5 6 3 8 2 9 1 10 64 11 65 12 79 13 66 14
REMARK SMILES IDX 67 15 78 16 80 17 68 18 69 19 70 20 71 21 72 22 73 23 77 24
REMARK SMILES IDX 74 25 76 26 75 27 10 28 11 29 12 30 13 31 14 32 15 34 16 35
REMARK SMILES IDX 17 36 63 37 18 38 62 39 19 40 20 41 21 42 56 43 22 44 61 45
REMARK SMILES IDX 55 46 57 47 23 48 60 49 54 50 53 51 24 53 46 54 31 55 45 56
REMARK SMILES IDX 32 57 35 58 44 59 58 60 33 61 34 62 43 64 59 65 36 66 25 67
REMARK SMILES IDX 26 68 30 69 27 70 29 71 28 72 47 73 48 74 52 75 49 76 51 77
REMARK SMILES IDX 50 78 37 79 38 80 42 81 39 82 41 83 40 84
REMARK H PARENT 6 7 13 33 57 52 35 63
REMARK Flexibility Score: inf
ROOT
ATOM      1  C   UNL A   1      39.908  22.920  27.052  1.00  0.00     0.002 C 
ENDROOT
BRANCH   1   2
ATOM      2  C   UNL A   1      39.034  24.049  26.501  1.00  0.00     0.021 C 
BRANCH   2   3
ATOM      3  C   UNL A   1      37.603  23.623  26.158  1.00  0.00     0.116 C 
BRANCH   3   4
ATOM      4  N   UNL A   1      37.407  23.658  24.720  1.00  0.00    -0.354 N 
ATOM      5  C   UNL A   1      36.300  23.343  23.984  1.00  0.00     0.243 C 
ATOM      6  O   UNL A   1      36.458  23.070  22.791  1.00  0.00    -0.273 OA
ATOM      7  H   UNL A   1      38.189  23.952  24.198  1.00  0.00     0.163 HD
BRANCH   5   8
ATOM      8  C   UNL A   1      34.914  23.250  24.669  1.00  0.00     0.181 C 
BRANCH   8   9
ATOM      9  C   UNL A   1      34.332  21.876  24.210  1.00  0.00     0.032 C 
ATOM     10  C   UNL A   1      34.513  20.752  25.220  1.00  0.00     0.006 C 
ENDBRANCH   8   9
BRANCH   8  11
ATOM     11  N   UNL A   1      34.003  24.358  24.265  1.00  0.00    -0.280 N 
ATOM     12  C   UNL A   1      33.374  25.171  25.195  1.00  0.00     0.266 C 
ATOM     13  C   UNL A   1      33.398  24.434  23.030  1.00  0.00     0.149 C 
ATOM     14  O   UNL A   1      33.240  24.942  26.396  1.00  0.00    -0.268 OA
ATOM     15  C   UNL A   1      32.708  26.327  24.512  1.00  0.00     0.080 C 
ATOM     16  S   UNL A   1      32.731  26.036  22.821  1.00  0.00    -0.054 SA
ATOM     17  S   UNL A   1      33.202  23.246  21.873  1.00  0.00    -0.052 S 
ATOM     18  C   UNL A   1      32.201  27.369  25.192  1.00  0.00     0.024 C 
BRANCH  18  19
ATOM     19  C   UNL A   1      31.562  28.616  24.731  1.00  0.00    -0.049 C 
ATOM     20  C   UNL A   1      32.104  29.861  25.397  1.00  0.00     0.044 C 
ATOM     21  C   UNL A   1      30.533  28.647  23.858  1.00  0.00     0.011 C 
BRANCH  21  22
ATOM     22  C   UNL A   1      29.841  29.777  23.208  1.00  0.00    -0.025 A 
ATOM     23  C   UNL A   1      29.459  30.856  24.019  1.00  0.00     0.008 A 
ATOM     24  C   UNL A   1      29.403  29.754  21.880  1.00  0.00     0.008 A 
ATOM     25  C   UNL A   1      28.679  31.898  23.512  1.00  0.00     0.001 A 
ATOM     26  C   UNL A   1      28.634  30.805  21.365  1.00  0.00     0.001 A 
ATOM     27  C   UNL A   1      28.271  31.874  22.182  1.00  0.00     0.000 A 
ENDBRANCH  21  22
ENDBRANCH  18  19
ENDBRANCH   8  11
ENDBRANCH   5   8
ENDBRANCH   3   4
ENDBRANCH   2   3
ENDBRANCH   1   2
BRANCH   1  28
ATOM     28  C   UNL A   1      40.022  21.689  26.148  1.00  0.00     0.002 C 
BRANCH  28  29
ATOM     29  C   UNL A   1      40.466  20.397  26.843  1.00  0.00     0.021 C 
BRANCH  29  30
ATOM     30  C   UNL A   1      41.908  20.384  27.342  1.00  0.00     0.116 C 
BRANCH  30  31
ATOM     31  N   UNL A   1      42.870  20.321  26.255  1.00  0.00    -0.352 N 
ATOM     32  C   UNL A   1      43.591  21.328  25.667  1.00  0.00     0.251 C 
ATOM     33  H   UNL A   1      43.027  19.422  25.887  1.00  0.00     0.163 HD
ATOM     34  O   UNL A   1      44.232  21.105  24.643  1.00  0.00    -0.269 OA
BRANCH  32  35
ATOM     35  C   UNL A   1      43.594  22.688  26.249  1.00  0.00     0.039 A 
ATOM     36  C   UNL A   1      43.420  23.782  25.395  1.00  0.00     0.014 A 
ATOM     37  C   UNL A   1      43.822  22.895  27.612  1.00  0.00     0.014 A 
ATOM     38  C   UNL A   1      43.441  25.079  25.912  1.00  0.00     0.010 A 
ATOM     39  C   UNL A   1      43.782  24.186  28.137  1.00  0.00     0.010 A 
ATOM     40  C   UNL A   1      43.612  25.290  27.289  1.00  0.00    -0.014 A 
BRANCH  40  41
ATOM     41  C   UNL A   1      43.662  26.666  27.845  1.00  0.00     0.031 A 
ATOM     42  C   UNL A   1      42.386  27.394  28.169  1.00  0.00     0.074 A 
ATOM     43  C   UNL A   1      44.849  27.275  28.026  1.00  0.00     0.049 A 
ATOM     44  N   UNL A   1      42.222  28.603  28.644  1.00  0.00    -0.248 NA
ATOM     45  C   UNL A   1      41.128  26.677  27.904  1.00  0.00     0.031 C 
ATOM     46  C   UNL A   1      46.157  26.695  27.718  1.00  0.00     0.029 A 
ATOM     47  N   UNL A   1      45.143  28.521  28.518  1.00  0.00    -0.354 N 
ATOM     48  C   UNL A   1      40.848  28.798  28.714  1.00  0.00     0.074 A 
ATOM     49  C   UNL A   1      40.224  27.601  28.193  1.00  0.00     0.031 C 
ATOM     50  C   UNL A   1      47.116  27.574  28.053  1.00  0.00     0.029 A 
ATOM     51  C   UNL A   1      46.490  28.786  28.575  1.00  0.00     0.049 A 
ATOM     52  H   UNL A   1      44.456  29.165  28.803  1.00  0.00     0.167 HD
ATOM     53  C   UNL A   1      40.163  29.867  29.187  1.00  0.00     0.031 A 
ATOM     54  C   UNL A   1      47.147  29.877  29.009  1.00  0.00     0.031 A 
ATOM     55  C   UNL A   1      40.779  31.049  29.726  1.00  0.00     0.049 A 
ATOM     56  C   UNL A   1      46.367  31.040  29.554  1.00  0.00     0.074 A 
ATOM     57  C   UNL A   1      40.171  32.166  30.274  1.00  0.00     0.029 A 
ATOM     58  N   UNL A   1      42.146  31.263  29.793  1.00  0.00    -0.354 N 
ATOM     59  N   UNL A   1      45.069  31.184  29.666  1.00  0.00    -0.248 NA
ATOM     60  C   UNL A   1      47.147  32.182  30.054  1.00  0.00     0.031 C 
ATOM     61  C   UNL A   1      41.172  33.071  30.644  1.00  0.00     0.029 A 
ATOM     62  C   UNL A   1      42.403  32.498  30.365  1.00  0.00     0.049 A 
ATOM     63  H   UNL A   1      42.833  30.632  29.478  1.00  0.00     0.167 HD
ATOM     64  C   UNL A   1      44.877  32.418  30.275  1.00  0.00     0.074 A 
ATOM     65  C   UNL A   1      46.192  32.975  30.519  1.00  0.00     0.031 C 
ATOM     66  C   UNL A   1      43.716  33.033  30.606  1.00  0.00     0.031 A 
BRANCH  53  67
ATOM     67  C   UNL A   1      38.663  29.798  29.135  1.00  0.00    -0.014 A 
ATOM     68  C   UNL A   1      37.910  29.506  30.283  1.00  0.00     0.009 A 
ATOM     69  C   UNL A   1      37.993  30.045  27.927  1.00  0.00     0.009 A 
ATOM     70  C   UNL A   1      36.518  29.424  30.214  1.00  0.00     0.001 A 
ATOM     71  C   UNL A   1      36.600  29.989  27.867  1.00  0.00     0.001 A 
ATOM     72  C   UNL A   1      35.865  29.667  29.007  1.00  0.00     0.000 A 
ENDBRANCH  53  67
BRANCH  54  73
ATOM     73  C   UNL A   1      48.632  29.908  28.985  1.00  0.00    -0.014 A 
ATOM     74  C   UNL A   1      49.312  30.414  27.867  1.00  0.00     0.009 A 
ATOM     75  C   UNL A   1      49.374  29.430  30.075  1.00  0.00     0.009 A 
ATOM     76  C   UNL A   1      50.708  30.415  27.830  1.00  0.00     0.001 A 
ATOM     77  C   UNL A   1      50.770  29.454  30.044  1.00  0.00     0.001 A 
ATOM     78  C   UNL A   1      51.435  29.939  28.919  1.00  0.00     0.000 A 
ENDBRANCH  54  73
BRANCH  66  79
ATOM     79  C   UNL A   1      43.820  34.357  31.306  1.00  0.00    -0.014 A 
ATOM     80  C   UNL A   1      44.008  34.435  32.695  1.00  0.00     0.009 A 
ATOM     81  C   UNL A   1      43.755  35.542  30.558  1.00  0.00     0.009 A 
ATOM     82  C   UNL A   1      44.095  35.678  33.324  1.00  0.00     0.001 A 
ATOM     83  C   UNL A   1      43.866  36.783  31.187  1.00  0.00     0.001 A 
ATOM     84  C   UNL A   1      44.027  36.850  32.571  1.00  0.00     0.000 A 
ENDBRANCH  66  79
ENDBRANCH  40  41
ENDBRANCH  32  35
ENDBRANCH  30  31
ENDBRANCH  29  30
ENDBRANCH  28  29
ENDBRANCH   1  28
TORSDOF 17
ENDMDL
