MODEL 1
REMARK VINA RESULT:     -11.9      0.000      0.000
REMARK SMILES Cc1c(C)c2c(c(C)c1O)CC[C@@](C)(C(=O)NCCCCCCNC(=O)c1ccc(-c3c4nc(c(-c5ccccc5)c5ccc([nH]5)c(-c5ccccc5)c5nc(c(-c6ccccc6)c6ccc3[nH]6)C=C5)C=C4)cc1)O2
REMARK SMILES IDX 21 1 20 2 19 3 18 4 17 5 15 6 16 7 13 9 1 10 2 11 3 12 9 13
REMARK SMILES IDX 4 14 5 15 7 16 6 17 75 18 8 19 11 20 12 21 14 22 10 23 22 25
REMARK SMILES IDX 23 26 24 27 25 28 26 30 27 31 28 32 74 33 29 34 73 35 30 36
REMARK SMILES IDX 31 37 32 38 67 39 33 40 72 41 66 42 68 43 34 44 71 45 65 46
REMARK SMILES IDX 64 47 35 49 57 50 42 51 56 52 43 53 46 54 55 55 69 56 44 57
REMARK SMILES IDX 45 58 54 60 70 61 47 62 36 63 37 64 41 65 38 66 40 67 39 68
REMARK SMILES IDX 58 69 59 70 63 71 60 72 62 73 61 74 48 75 49 76 53 77 50 78
REMARK SMILES IDX 52 79 51 80
REMARK H PARENT 17 8 10 24 24 29 68 48 46 59
REMARK Flexibility Score: inf
ROOT
ATOM      1  C   UNL A   1      36.324  20.143  25.003  1.00  0.00     0.002 C 
ENDROOT
BRANCH   1   2
ATOM      2  C   UNL A   1      35.901  21.548  25.445  1.00  0.00     0.002 C 
BRANCH   2   3
ATOM      3  C   UNL A   1      34.755  21.581  26.458  1.00  0.00     0.021 C 
BRANCH   3   4
ATOM      4  C   UNL A   1      34.338  22.992  26.865  1.00  0.00     0.116 C 
BRANCH   4   5
ATOM      5  N   UNL A   1      32.928  23.051  27.208  1.00  0.00    -0.353 N 
ATOM      6  C   UNL A   1      31.914  23.842  26.730  1.00  0.00     0.263 C 
ATOM      7  O   UNL A   1      30.805  23.687  27.248  1.00  0.00    -0.270 OA
ATOM      8  H   UNL A   1      32.651  22.413  27.904  1.00  0.00     0.163 HD
BRANCH   6   9
ATOM      9  C   UNL A   1      32.170  24.854  25.579  1.00  0.00     0.184 C 
ATOM     10  C   UNL A   1      28.768  28.821  22.342  1.00  0.00     0.049 C 
ATOM     11  C   UNL A   1      30.017  28.274  22.986  1.00  0.00    -0.002 A 
ATOM     12  C   UNL A   1      29.929  27.220  23.929  1.00  0.00    -0.002 A 
ATOM     13  C   UNL A   1      31.283  28.819  22.690  1.00  0.00     0.122 A 
ATOM     14  C   UNL A   1      28.591  26.620  24.290  1.00  0.00     0.049 C 
ATOM     15  C   UNL A   1      31.108  26.714  24.506  1.00  0.00     0.127 A 
ATOM     16  C   UNL A   1      32.459  28.328  23.273  1.00  0.00    -0.002 A 
ATOM     17  C   UNL A   1      32.363  27.286  24.216  1.00  0.00     0.001 A 
ATOM     18  O   UNL A   1      30.971  25.631  25.352  1.00  0.00    -0.477 OA
ATOM     19  C   UNL A   1      33.808  28.899  22.913  1.00  0.00     0.049 C 
ATOM     20  C   UNL A   1      33.604  26.768  24.889  1.00  0.00     0.044 C 
ATOM     21  C   UNL A   1      33.245  25.847  26.030  1.00  0.00     0.063 C 
ATOM     22  C   UNL A   1      32.412  24.031  24.294  1.00  0.00     0.067 C 
BRANCH  13  23
ATOM     23  O   UNL A   1      31.423  29.863  21.813  1.00  0.00    -0.507 OA
ATOM     24  H   UNL A   1      32.146  29.881  21.217  1.00  0.00     0.293 HD
ENDBRANCH  13  23
ENDBRANCH   6   9
ENDBRANCH   4   5
ENDBRANCH   3   4
ENDBRANCH   2   3
ENDBRANCH   1   2
BRANCH   1  25
ATOM     25  C   UNL A   1      37.797  20.004  24.611  1.00  0.00     0.021 C 
BRANCH  25  26
ATOM     26  C   UNL A   1      38.777  20.322  25.735  1.00  0.00     0.116 C 
BRANCH  26  27
ATOM     27  N   UNL A   1      39.857  19.350  25.802  1.00  0.00    -0.352 N 
ATOM     28  C   UNL A   1      41.180  19.546  26.104  1.00  0.00     0.251 C 
ATOM     29  H   UNL A   1      39.603  18.420  25.603  1.00  0.00     0.163 HD
ATOM     30  O   UNL A   1      42.003  18.654  25.914  1.00  0.00    -0.269 OA
BRANCH  28  31
ATOM     31  C   UNL A   1      41.617  20.849  26.641  1.00  0.00     0.039 A 
ATOM     32  C   UNL A   1      42.149  21.798  25.766  1.00  0.00     0.014 A 
ATOM     33  C   UNL A   1      41.492  21.132  28.005  1.00  0.00     0.014 A 
ATOM     34  C   UNL A   1      42.501  23.058  26.250  1.00  0.00     0.010 A 
ATOM     35  C   UNL A   1      41.772  22.412  28.471  1.00  0.00     0.010 A 
ATOM     36  C   UNL A   1      42.283  23.385  27.600  1.00  0.00    -0.014 A 
BRANCH  36  37
ATOM     37  C   UNL A   1      42.588  24.741  28.117  1.00  0.00     0.031 A 
ATOM     38  C   UNL A   1      43.993  25.105  28.499  1.00  0.00     0.074 A 
ATOM     39  C   UNL A   1      41.589  25.630  28.279  1.00  0.00     0.049 A 
ATOM     40  N   UNL A   1      44.448  26.228  28.994  1.00  0.00    -0.248 NA
ATOM     41  C   UNL A   1      45.022  24.066  28.319  1.00  0.00     0.031 C 
ATOM     42  C   UNL A   1      40.181  25.388  27.962  1.00  0.00     0.029 A 
ATOM     43  N   UNL A   1      41.609  26.921  28.746  1.00  0.00    -0.354 N 
ATOM     44  C   UNL A   1      45.810  26.031  29.184  1.00  0.00     0.074 A 
ATOM     45  C   UNL A   1      46.097  24.664  28.812  1.00  0.00     0.031 C 
ATOM     46  C   UNL A   1      39.478  26.508  28.202  1.00  0.00     0.029 A 
ATOM     47  C   UNL A   1      40.377  27.528  28.732  1.00  0.00     0.049 A 
ATOM     48  H   UNL A   1      42.428  27.368  29.060  1.00  0.00     0.167 HD
ATOM     49  C   UNL A   1      46.742  26.917  29.606  1.00  0.00     0.031 A 
ATOM     50  C   UNL A   1      40.011  28.770  29.104  1.00  0.00     0.031 A 
ATOM     51  C   UNL A   1      46.453  28.275  29.980  1.00  0.00     0.049 A 
ATOM     52  C   UNL A   1      41.055  29.719  29.621  1.00  0.00     0.074 A 
ATOM     53  C   UNL A   1      47.333  29.259  30.394  1.00  0.00     0.029 A 
ATOM     54  N   UNL A   1      45.186  28.841  29.987  1.00  0.00    -0.354 N 
ATOM     55  N   UNL A   1      42.346  29.533  29.754  1.00  0.00    -0.248 NA
ATOM     56  C   UNL A   1      40.593  31.052  30.034  1.00  0.00     0.031 C 
ATOM     57  C   UNL A   1      46.593  30.402  30.708  1.00  0.00     0.029 A 
ATOM     58  C   UNL A   1      45.259  30.152  30.424  1.00  0.00     0.049 A 
ATOM     59  H   UNL A   1      44.360  28.378  29.719  1.00  0.00     0.167 HD
ATOM     60  C   UNL A   1      42.855  30.731  30.238  1.00  0.00     0.074 A 
ATOM     61  C   UNL A   1      41.735  31.641  30.363  1.00  0.00     0.031 C 
ATOM     62  C   UNL A   1      44.136  31.045  30.548  1.00  0.00     0.031 A 
BRANCH  49  63
ATOM     63  C   UNL A   1      48.167  26.442  29.682  1.00  0.00    -0.014 A 
ATOM     64  C   UNL A   1      48.679  25.877  30.861  1.00  0.00     0.009 A 
ATOM     65  C   UNL A   1      48.993  26.514  28.549  1.00  0.00     0.009 A 
ATOM     66  C   UNL A   1      49.998  25.421  30.914  1.00  0.00     0.001 A 
ATOM     67  C   UNL A   1      50.301  26.028  28.596  1.00  0.00     0.001 A 
ATOM     68  C   UNL A   1      50.805  25.491  29.778  1.00  0.00     0.000 A 
ENDBRANCH  49  63
BRANCH  50  69
ATOM     69  C   UNL A   1      38.593  29.193  28.963  1.00  0.00    -0.014 A 
ATOM     70  C   UNL A   1      38.125  29.705  27.743  1.00  0.00     0.009 A 
ATOM     71  C   UNL A   1      37.690  29.056  30.030  1.00  0.00     0.009 A 
ATOM     72  C   UNL A   1      36.788  30.083  27.598  1.00  0.00     0.001 A 
ATOM     73  C   UNL A   1      36.348  29.405  29.873  1.00  0.00     0.001 A 
ATOM     74  C   UNL A   1      35.899  29.924  28.660  1.00  0.00     0.000 A 
ENDBRANCH  50  69
BRANCH  62  75
ATOM     75  C   UNL A   1      44.413  32.442  31.033  1.00  0.00    -0.014 A 
ATOM     76  C   UNL A   1      44.525  33.514  30.136  1.00  0.00     0.009 A 
ATOM     77  C   UNL A   1      44.481  32.699  32.412  1.00  0.00     0.009 A 
ATOM     78  C   UNL A   1      44.723  34.813  30.610  1.00  0.00     0.001 A 
ATOM     79  C   UNL A   1      44.647  34.001  32.884  1.00  0.00     0.001 A 
ATOM     80  C   UNL A   1      44.774  35.056  31.982  1.00  0.00     0.000 A 
ENDBRANCH  62  75
ENDBRANCH  36  37
ENDBRANCH  28  31
ENDBRANCH  26  27
ENDBRANCH  25  26
ENDBRANCH   1  25
TORSDOF 14
ENDMDL
MODEL 2
REMARK VINA RESULT:     -11.9      2.208      7.768
REMARK SMILES Cc1c(C)c2c(c(C)c1O)CC[C@@](C)(C(=O)NCCCCCCNC(=O)c1ccc(-c3c4nc(c(-c5ccccc5)c5ccc([nH]5)c(-c5ccccc5)c5nc(c(-c6ccccc6)c6ccc3[nH]6)C=C5)C=C4)cc1)O2
REMARK SMILES IDX 21 1 20 2 19 3 18 4 17 5 15 6 16 7 13 9 1 10 2 11 3 12 9 13
REMARK SMILES IDX 4 14 5 15 7 16 6 17 75 18 8 19 11 20 12 21 14 22 10 23 22 25
REMARK SMILES IDX 23 26 24 27 25 28 26 30 27 31 28 32 74 33 29 34 73 35 30 36
REMARK SMILES IDX 31 37 32 38 67 39 33 40 72 41 66 42 68 43 34 44 71 45 65 46
REMARK SMILES IDX 64 47 35 49 57 50 42 51 56 52 43 53 46 54 55 55 69 56 44 57
REMARK SMILES IDX 45 58 54 60 70 61 47 62 36 63 37 64 41 65 38 66 40 67 39 68
REMARK SMILES IDX 58 69 59 70 63 71 60 72 62 73 61 74 48 75 49 76 53 77 50 78
REMARK SMILES IDX 52 79 51 80
REMARK H PARENT 17 8 10 24 24 29 68 48 46 59
REMARK Flexibility Score: inf
ROOT
ATOM      1  C   UNL A   1      31.609  27.781  25.981  1.00  0.00     0.002 C 
ENDROOT
BRANCH   1   2
ATOM      2  C   UNL A   1      31.523  28.946  24.987  1.00  0.00     0.002 C 
BRANCH   2   3
ATOM      3  C   UNL A   1      32.053  28.630  23.587  1.00  0.00     0.021 C 
BRANCH   3   4
ATOM      4  C   UNL A   1      31.099  27.781  22.749  1.00  0.00     0.116 C 
BRANCH   4   5
ATOM      5  N   UNL A   1      31.810  27.047  21.716  1.00  0.00    -0.353 N 
ATOM      6  C   UNL A   1      32.439  25.829  21.743  1.00  0.00     0.263 C 
ATOM      7  O   UNL A   1      32.998  25.474  20.702  1.00  0.00    -0.270 OA
ATOM      8  H   UNL A   1      31.847  27.504  20.845  1.00  0.00     0.163 HD
BRANCH   6   9
ATOM      9  C   UNL A   1      32.412  24.949  23.023  1.00  0.00     0.184 C 
ATOM     10  C   UNL A   1      32.382  18.925  24.249  1.00  0.00     0.049 C 
ATOM     11  C   UNL A   1      32.662  20.385  24.497  1.00  0.00    -0.002 A 
ATOM     12  C   UNL A   1      32.548  21.322  23.440  1.00  0.00    -0.002 A 
ATOM     13  C   UNL A   1      33.074  20.838  25.767  1.00  0.00     0.122 A 
ATOM     14  C   UNL A   1      32.129  20.878  22.058  1.00  0.00     0.049 C 
ATOM     15  C   UNL A   1      32.799  22.682  23.697  1.00  0.00     0.127 A 
ATOM     16  C   UNL A   1      33.339  22.190  26.024  1.00  0.00    -0.002 A 
ATOM     17  C   UNL A   1      33.231  23.114  24.967  1.00  0.00     0.001 A 
ATOM     18  O   UNL A   1      32.588  23.562  22.653  1.00  0.00    -0.477 OA
ATOM     19  C   UNL A   1      33.740  22.660  27.401  1.00  0.00     0.049 C 
ATOM     20  C   UNL A   1      33.551  24.564  25.204  1.00  0.00     0.044 C 
ATOM     21  C   UNL A   1      33.616  25.315  23.896  1.00  0.00     0.063 C 
ATOM     22  C   UNL A   1      30.995  25.067  23.629  1.00  0.00     0.067 C 
BRANCH  13  23
ATOM     23  O   UNL A   1      33.236  19.970  26.815  1.00  0.00    -0.507 OA
ATOM     24  H   UNL A   1      33.639  19.137  26.675  1.00  0.00     0.293 HD
ENDBRANCH  13  23
ENDBRANCH   6   9
ENDBRANCH   4   5
ENDBRANCH   3   4
ENDBRANCH   2   3
ENDBRANCH   1   2
BRANCH   1  25
ATOM     25  C   UNL A   1      32.257  28.124  27.324  1.00  0.00     0.021 C 
BRANCH  25  26
ATOM     26  C   UNL A   1      33.630  28.778  27.209  1.00  0.00     0.116 C 
BRANCH  26  27
ATOM     27  N   UNL A   1      33.612  30.159  27.665  1.00  0.00    -0.352 N 
ATOM     28  C   UNL A   1      34.570  30.855  28.354  1.00  0.00     0.251 C 
ATOM     29  H   UNL A   1      32.795  30.665  27.449  1.00  0.00     0.163 HD
ATOM     30  O   UNL A   1      34.315  31.951  28.845  1.00  0.00    -0.269 OA
BRANCH  28  31
ATOM     31  C   UNL A   1      35.914  30.268  28.522  1.00  0.00     0.039 A 
ATOM     32  C   UNL A   1      36.818  30.332  27.460  1.00  0.00     0.014 A 
ATOM     33  C   UNL A   1      36.278  29.663  29.729  1.00  0.00     0.014 A 
ATOM     34  C   UNL A   1      38.114  29.842  27.630  1.00  0.00     0.010 A 
ATOM     35  C   UNL A   1      37.590  29.244  29.921  1.00  0.00     0.010 A 
ATOM     36  C   UNL A   1      38.518  29.326  28.874  1.00  0.00    -0.014 A 
BRANCH  36  37
ATOM     37  C   UNL A   1      39.910  28.863  29.093  1.00  0.00     0.031 A 
ATOM     38  C   UNL A   1      40.915  29.773  29.738  1.00  0.00     0.074 A 
ATOM     39  C   UNL A   1      40.277  27.636  28.673  1.00  0.00     0.049 A 
ATOM     40  N   UNL A   1      42.181  29.557  29.987  1.00  0.00    -0.248 NA
ATOM     41  C   UNL A   1      40.441  31.108  30.142  1.00  0.00     0.031 C 
ATOM     42  C   UNL A   1      39.397  26.669  28.015  1.00  0.00     0.029 A 
ATOM     43  N   UNL A   1      41.487  26.993  28.744  1.00  0.00    -0.354 N 
ATOM     44  C   UNL A   1      42.654  30.724  30.574  1.00  0.00     0.074 A 
ATOM     45  C   UNL A   1      41.557  31.666  30.587  1.00  0.00     0.031 C 
ATOM     46  C   UNL A   1      40.084  25.539  27.782  1.00  0.00     0.029 A 
ATOM     47  C   UNL A   1      41.462  25.719  28.230  1.00  0.00     0.049 A 
ATOM     48  H   UNL A   1      42.295  27.405  29.126  1.00  0.00     0.167 HD
ATOM     49  C   UNL A   1      43.882  30.979  31.080  1.00  0.00     0.031 A 
ATOM     50  C   UNL A   1      42.438  24.797  28.132  1.00  0.00     0.031 A 
ATOM     51  C   UNL A   1      44.973  30.042  31.063  1.00  0.00     0.049 A 
ATOM     52  C   UNL A   1      43.810  25.123  28.652  1.00  0.00     0.074 A 
ATOM     53  C   UNL A   1      46.248  30.195  31.575  1.00  0.00     0.029 A 
ATOM     54  N   UNL A   1      44.917  28.774  30.501  1.00  0.00    -0.354 N 
ATOM     55  N   UNL A   1      44.230  26.215  29.244  1.00  0.00    -0.248 NA
ATOM     56  C   UNL A   1      44.842  24.087  28.497  1.00  0.00     0.031 C 
ATOM     57  C   UNL A   1      46.982  29.045  31.272  1.00  0.00     0.029 A 
ATOM     58  C   UNL A   1      46.144  28.147  30.631  1.00  0.00     0.049 A 
ATOM     59  H   UNL A   1      44.122  28.380  30.074  1.00  0.00     0.167 HD
ATOM     60  C   UNL A   1      45.564  25.988  29.556  1.00  0.00     0.074 A 
ATOM     61  C   UNL A   1      45.879  24.650  29.101  1.00  0.00     0.031 C 
ATOM     62  C   UNL A   1      46.445  26.817  30.168  1.00  0.00     0.031 A 
BRANCH  49  63
ATOM     63  C   UNL A   1      44.112  32.330  31.701  1.00  0.00    -0.014 A 
ATOM     64  C   UNL A   1      43.889  32.544  33.071  1.00  0.00     0.009 A 
ATOM     65  C   UNL A   1      44.604  33.387  30.920  1.00  0.00     0.009 A 
ATOM     66  C   UNL A   1      44.125  33.798  33.639  1.00  0.00     0.001 A 
ATOM     67  C   UNL A   1      44.869  34.630  31.498  1.00  0.00     0.001 A 
ATOM     68  C   UNL A   1      44.622  34.837  32.853  1.00  0.00     0.000 A 
ENDBRANCH  49  63
BRANCH  50  69
ATOM     69  C   UNL A   1      42.136  23.464  27.548  1.00  0.00    -0.014 A 
ATOM     70  C   UNL A   1      42.465  23.186  26.212  1.00  0.00     0.009 A 
ATOM     71  C   UNL A   1      41.551  22.452  28.326  1.00  0.00     0.009 A 
ATOM     72  C   UNL A   1      42.205  21.927  25.665  1.00  0.00     0.001 A 
ATOM     73  C   UNL A   1      41.320  21.186  27.785  1.00  0.00     0.001 A 
ATOM     74  C   UNL A   1      41.641  20.926  26.454  1.00  0.00     0.000 A 
ENDBRANCH  50  69
BRANCH  62  75
ATOM     75  C   UNL A   1      47.837  26.299  30.408  1.00  0.00    -0.014 A 
ATOM     76  C   UNL A   1      48.203  25.743  31.643  1.00  0.00     0.009 A 
ATOM     77  C   UNL A   1      48.769  26.295  29.357  1.00  0.00     0.009 A 
ATOM     78  C   UNL A   1      49.483  25.214  31.826  1.00  0.00     0.001 A 
ATOM     79  C   UNL A   1      50.034  25.737  29.533  1.00  0.00     0.001 A 
ATOM     80  C   UNL A   1      50.393  25.203  30.770  1.00  0.00     0.000 A 
ENDBRANCH  62  75
ENDBRANCH  36  37
ENDBRANCH  28  31
ENDBRANCH  26  27
ENDBRANCH  25  26
ENDBRANCH   1  25
TORSDOF 14
ENDMDL
MODEL 3
REMARK VINA RESULT:     -11.8      0.430      5.946
REMARK SMILES Cc1c(C)c2c(c(C)c1O)CC[C@@](C)(C(=O)NCCCCCCNC(=O)c1ccc(-c3c4nc(c(-c5ccccc5)c5ccc([nH]5)c(-c5ccccc5)c5nc(c(-c6ccccc6)c6ccc3[nH]6)C=C5)C=C4)cc1)O2
REMARK SMILES IDX 21 1 20 2 19 3 18 4 17 5 15 6 16 7 13 9 1 10 2 11 3 12 9 13
REMARK SMILES IDX 4 14 5 15 7 16 6 17 75 18 8 19 11 20 12 21 14 22 10 23 22 25
REMARK SMILES IDX 23 26 24 27 25 28 26 30 27 31 28 32 74 33 29 34 73 35 30 36
REMARK SMILES IDX 31 37 32 38 67 39 33 40 72 41 66 42 68 43 34 44 71 45 65 46
REMARK SMILES IDX 64 47 35 49 57 50 42 51 56 52 43 53 46 54 55 55 69 56 44 57
REMARK SMILES IDX 45 58 54 60 70 61 47 62 36 63 37 64 41 65 38 66 40 67 39 68
REMARK SMILES IDX 58 69 59 70 63 71 60 72 62 73 61 74 48 75 49 76 53 77 50 78
REMARK SMILES IDX 52 79 51 80
REMARK H PARENT 17 8 10 24 24 29 68 48 46 59
REMARK Flexibility Score: inf
ROOT
ATOM      1  C   UNL A   1      36.098  20.698  25.094  1.00  0.00     0.002 C 
ENDROOT
BRANCH   1   2
ATOM      2  C   UNL A   1      35.849  22.011  25.845  1.00  0.00     0.002 C 
BRANCH   2   3
ATOM      3  C   UNL A   1      34.580  22.026  26.700  1.00  0.00     0.021 C 
BRANCH   3   4
ATOM      4  C   UNL A   1      33.306  21.741  25.907  1.00  0.00     0.116 C 
BRANCH   4   5
ATOM      5  N   UNL A   1      32.128  22.228  26.604  1.00  0.00    -0.353 N 
ATOM      6  C   UNL A   1      31.428  23.402  26.484  1.00  0.00     0.263 C 
ATOM      7  O   UNL A   1      30.472  23.553  27.249  1.00  0.00    -0.270 OA
ATOM      8  H   UNL A   1      31.768  21.608  27.279  1.00  0.00     0.163 HD
BRANCH   6   9
ATOM      9  C   UNL A   1      31.823  24.457  25.415  1.00  0.00     0.184 C 
ATOM     10  C   UNL A   1      28.939  28.931  22.339  1.00  0.00     0.049 C 
ATOM     11  C   UNL A   1      30.104  28.227  22.988  1.00  0.00    -0.002 A 
ATOM     12  C   UNL A   1      29.880  27.128  23.853  1.00  0.00    -0.002 A 
ATOM     13  C   UNL A   1      31.427  28.668  22.775  1.00  0.00     0.122 A 
ATOM     14  C   UNL A   1      28.479  26.634  24.125  1.00  0.00     0.049 C 
ATOM     15  C   UNL A   1      30.983  26.475  24.435  1.00  0.00     0.127 A 
ATOM     16  C   UNL A   1      32.527  28.031  23.364  1.00  0.00    -0.002 A 
ATOM     17  C   UNL A   1      32.296  26.944  24.229  1.00  0.00     0.001 A 
ATOM     18  O   UNL A   1      30.712  25.357  25.199  1.00  0.00    -0.477 OA
ATOM     19  C   UNL A   1      33.937  28.494  23.091  1.00  0.00     0.049 C 
ATOM     20  C   UNL A   1      33.455  26.269  24.908  1.00  0.00     0.044 C 
ATOM     21  C   UNL A   1      32.966  25.313  25.970  1.00  0.00     0.063 C 
ATOM     22  C   UNL A   1      32.042  23.701  24.086  1.00  0.00     0.067 C 
BRANCH  13  23
ATOM     23  O   UNL A   1      31.698  29.749  21.977  1.00  0.00    -0.507 OA
ATOM     24  H   UNL A   1      31.698  30.612  22.341  1.00  0.00     0.293 HD
ENDBRANCH  13  23
ENDBRANCH   6   9
ENDBRANCH   4   5
ENDBRANCH   3   4
ENDBRANCH   2   3
ENDBRANCH   1   2
BRANCH   1  25
ATOM     25  C   UNL A   1      37.543  20.477  24.639  1.00  0.00     0.021 C 
BRANCH  25  26
ATOM     26  C   UNL A   1      38.587  20.744  25.718  1.00  0.00     0.116 C 
BRANCH  26  27
ATOM     27  N   UNL A   1      39.606  19.706  25.753  1.00  0.00    -0.352 N 
ATOM     28  C   UNL A   1      40.942  19.815  26.042  1.00  0.00     0.251 C 
ATOM     29  H   UNL A   1      39.293  18.798  25.539  1.00  0.00     0.163 HD
ATOM     30  O   UNL A   1      41.706  18.879  25.825  1.00  0.00    -0.269 OA
BRANCH  28  31
ATOM     31  C   UNL A   1      41.464  21.078  26.598  1.00  0.00     0.039 A 
ATOM     32  C   UNL A   1      41.986  22.037  25.729  1.00  0.00     0.014 A 
ATOM     33  C   UNL A   1      41.428  21.315  27.977  1.00  0.00     0.014 A 
ATOM     34  C   UNL A   1      42.418  23.263  26.236  1.00  0.00     0.010 A 
ATOM     35  C   UNL A   1      41.789  22.563  28.471  1.00  0.00     0.010 A 
ATOM     36  C   UNL A   1      42.291  23.546  27.607  1.00  0.00    -0.014 A 
BRANCH  36  37
ATOM     37  C   UNL A   1      42.682  24.868  28.154  1.00  0.00     0.031 A 
ATOM     38  C   UNL A   1      41.651  25.943  28.341  1.00  0.00     0.074 A 
ATOM     39  C   UNL A   1      43.976  25.111  28.444  1.00  0.00     0.049 A 
ATOM     40  N   UNL A   1      41.806  27.167  28.778  1.00  0.00    -0.248 NA
ATOM     41  C   UNL A   1      40.265  25.607  27.973  1.00  0.00     0.031 C 
ATOM     42  C   UNL A   1      45.072  24.155  28.286  1.00  0.00     0.029 A 
ATOM     43  N   UNL A   1      44.583  26.238  28.937  1.00  0.00    -0.354 N 
ATOM     44  C   UNL A   1      40.544  27.744  28.737  1.00  0.00     0.074 A 
ATOM     45  C   UNL A   1      39.645  26.760  28.175  1.00  0.00     0.031 C 
ATOM     46  C   UNL A   1      46.212  24.720  28.716  1.00  0.00     0.029 A 
ATOM     47  C   UNL A   1      45.935  26.091  29.135  1.00  0.00     0.049 A 
ATOM     48  H   UNL A   1      44.098  27.072  29.131  1.00  0.00     0.167 HD
ATOM     49  C   UNL A   1      40.161  28.973  29.155  1.00  0.00     0.031 A 
ATOM     50  C   UNL A   1      46.850  26.961  29.603  1.00  0.00     0.031 A 
ATOM     51  C   UNL A   1      41.056  29.952  29.709  1.00  0.00     0.049 A 
ATOM     52  C   UNL A   1      46.411  28.340  30.009  1.00  0.00     0.074 A 
ATOM     53  C   UNL A   1      40.761  31.215  30.187  1.00  0.00     0.029 A 
ATOM     54  N   UNL A   1      42.425  29.775  29.859  1.00  0.00    -0.354 N 
ATOM     55  N   UNL A   1      45.206  28.856  30.006  1.00  0.00    -0.248 NA
ATOM     56  C   UNL A   1      47.457  29.254  30.490  1.00  0.00     0.031 C 
ATOM     57  C   UNL A   1      41.957  31.827  30.571  1.00  0.00     0.029 A 
ATOM     58  C   UNL A   1      42.990  30.919  30.397  1.00  0.00     0.049 A 
ATOM     59  H   UNL A   1      42.919  28.959  29.619  1.00  0.00     0.167 HD
ATOM     60  C   UNL A   1      45.343  30.143  30.508  1.00  0.00     0.074 A 
ATOM     61  C   UNL A   1      46.746  30.324  30.819  1.00  0.00     0.031 C 
ATOM     62  C   UNL A   1      44.389  31.087  30.696  1.00  0.00     0.031 A 
BRANCH  49  63
ATOM     63  C   UNL A   1      38.704  29.327  29.028  1.00  0.00    -0.014 A 
ATOM     64  C   UNL A   1      38.169  29.762  27.805  1.00  0.00     0.009 A 
ATOM     65  C   UNL A   1      37.847  29.177  30.130  1.00  0.00     0.009 A 
ATOM     66  C   UNL A   1      36.811  30.069  27.696  1.00  0.00     0.001 A 
ATOM     67  C   UNL A   1      36.484  29.454  30.008  1.00  0.00     0.001 A 
ATOM     68  C   UNL A   1      35.969  29.908  28.795  1.00  0.00     0.000 A 
ENDBRANCH  49  63
BRANCH  50  69
ATOM     69  C   UNL A   1      48.267  26.535  29.745  1.00  0.00    -0.014 A 
ATOM     70  C   UNL A   1      48.696  25.881  30.910  1.00  0.00     0.009 A 
ATOM     71  C   UNL A   1      49.190  26.745  28.708  1.00  0.00     0.009 A 
ATOM     72  C   UNL A   1      50.021  25.458  31.039  1.00  0.00     0.001 A 
ATOM     73  C   UNL A   1      50.506  26.295  28.826  1.00  0.00     0.001 A 
ATOM     74  C   UNL A   1      50.922  25.657  29.994  1.00  0.00     0.000 A 
ENDBRANCH  50  69
BRANCH  62  75
ATOM     75  C   UNL A   1      44.817  32.402  31.289  1.00  0.00    -0.014 A 
ATOM     76  C   UNL A   1      45.177  33.484  30.473  1.00  0.00     0.009 A 
ATOM     77  C   UNL A   1      44.781  32.582  32.681  1.00  0.00     0.009 A 
ATOM     78  C   UNL A   1      45.514  34.714  31.041  1.00  0.00     0.001 A 
ATOM     79  C   UNL A   1      45.087  33.820  33.245  1.00  0.00     0.001 A 
ATOM     80  C   UNL A   1      45.460  34.884  32.424  1.00  0.00     0.000 A 
ENDBRANCH  62  75
ENDBRANCH  36  37
ENDBRANCH  28  31
ENDBRANCH  26  27
ENDBRANCH  25  26
ENDBRANCH   1  25
TORSDOF 14
ENDMDL
