MODEL 1
REMARK VINA RESULT:     -12.8      0.000      0.000
REMARK SMILES O=C(NCCCCCCNC(=O)c1cc(S(=O)(=O)NNC(=O)[C@H]2C=C(c3ccccc3)N=N2)ccc1F)c1ccc(-c2c3nc(c(-c4ccccc4)c4ccc([nH]4)c(-c4ccccc4)c4nc(c(-c5ccccc5)c5ccc2[nH]5)C=C4)C=C3)cc1
REMARK SMILES IDX 8 1 7 2 6 3 5 4 4 5 3 6 1 7 2 8 38 10 39 11 85 12 40 13
REMARK SMILES IDX 84 14 41 15 42 16 43 17 78 18 44 19 83 20 77 21 79 22 45 23
REMARK SMILES IDX 82 24 76 25 75 26 46 28 68 29 53 30 67 31 54 32 57 33 66 34
REMARK SMILES IDX 80 35 55 36 56 37 65 39 81 40 58 41 47 42 48 43 52 44 49 45
REMARK SMILES IDX 51 46 50 47 69 48 70 49 74 50 71 51 73 52 72 53 59 54 60 55
REMARK SMILES IDX 64 56 61 57 63 58 62 59 9 60 10 61 11 62 12 64 13 65 14 66
REMARK SMILES IDX 36 67 15 68 35 69 37 70 34 71 16 72 17 73 18 74 19 75 20 77
REMARK SMILES IDX 21 78 22 80 23 81 24 82 33 83 25 84 32 85 26 86 27 87 31 88
REMARK SMILES IDX 28 89 30 90 29 91
REMARK H PARENT 3 9 79 27 57 38 10 63 19 76 20 79
REMARK Flexibility Score: inf
ROOT
ATOM      1  C   UNL A   1      35.085  30.614  27.845  1.00  0.00     0.021 C 
ENDROOT
BRANCH   1   2
ATOM      2  C   UNL A   1      36.532  30.189  28.105  1.00  0.00     0.002 C 
BRANCH   2   3
ATOM      3  C   UNL A   1      37.473  31.304  28.567  1.00  0.00     0.002 C 
BRANCH   3   4
ATOM      4  C   UNL A   1      36.796  32.554  29.139  1.00  0.00     0.021 C 
BRANCH   4   5
ATOM      5  C   UNL A   1      37.641  33.828  29.105  1.00  0.00     0.116 C 
BRANCH   5   6
ATOM      6  N   UNL A   1      38.206  34.202  30.383  1.00  0.00    -0.352 N 
ATOM      7  O   UNL A   1      39.473  34.364  32.184  1.00  0.00    -0.269 OA
ATOM      8  C   UNL A   1      39.193  33.700  31.183  1.00  0.00     0.251 C 
ATOM      9  H   UNL A   1      37.779  35.004  30.765  1.00  0.00     0.163 HD
BRANCH   8  10
ATOM     10  C   UNL A   1      39.905  32.410  30.960  1.00  0.00     0.039 A 
ATOM     11  C   UNL A   1      41.092  32.245  30.247  1.00  0.00     0.014 A 
ATOM     12  C   UNL A   1      39.290  31.265  31.503  1.00  0.00     0.014 A 
ATOM     13  C   UNL A   1      41.609  30.975  30.008  1.00  0.00     0.010 A 
ATOM     14  C   UNL A   1      39.816  29.995  31.291  1.00  0.00     0.010 A 
ATOM     15  C   UNL A   1      40.960  29.848  30.510  1.00  0.00    -0.014 A 
BRANCH  15  16
ATOM     16  C   UNL A   1      41.558  28.544  30.241  1.00  0.00     0.031 A 
ATOM     17  C   UNL A   1      42.423  27.962  31.307  1.00  0.00     0.074 A 
ATOM     18  C   UNL A   1      41.251  27.798  29.162  1.00  0.00     0.049 A 
ATOM     19  N   UNL A   1      43.646  27.544  31.217  1.00  0.00    -0.248 NA
ATOM     20  C   UNL A   1      41.845  27.844  32.655  1.00  0.00     0.031 C 
ATOM     21  C   UNL A   1      40.192  28.039  28.180  1.00  0.00     0.029 A 
ATOM     22  N   UNL A   1      41.758  26.585  28.794  1.00  0.00    -0.354 N 
ATOM     23  C   UNL A   1      43.952  26.971  32.452  1.00  0.00     0.074 A 
ATOM     24  C   UNL A   1      42.839  27.258  33.323  1.00  0.00     0.031 C 
ATOM     25  C   UNL A   1      39.981  26.904  27.478  1.00  0.00     0.029 A 
ATOM     26  C   UNL A   1      40.972  25.915  27.871  1.00  0.00     0.049 A 
ATOM     27  H   UNL A   1      42.600  26.221  29.150  1.00  0.00     0.167 HD
ATOM     28  C   UNL A   1      45.018  26.146  32.640  1.00  0.00     0.031 A 
ATOM     29  C   UNL A   1      41.075  24.616  27.506  1.00  0.00     0.031 A 
ATOM     30  C   UNL A   1      46.003  26.257  31.601  1.00  0.00     0.049 A 
ATOM     31  C   UNL A   1      42.415  24.124  27.883  1.00  0.00     0.074 A 
ATOM     32  C   UNL A   1      46.798  27.268  31.101  1.00  0.00     0.029 A 
ATOM     33  N   UNL A   1      46.096  25.233  30.693  1.00  0.00    -0.354 N 
ATOM     34  N   UNL A   1      43.519  24.491  27.300  1.00  0.00    -0.248 NA
ATOM     35  C   UNL A   1      42.583  23.452  29.162  1.00  0.00     0.031 C 
ATOM     36  C   UNL A   1      46.934  26.982  29.711  1.00  0.00     0.029 A 
ATOM     37  C   UNL A   1      46.217  25.812  29.459  1.00  0.00     0.049 A 
ATOM     38  H   UNL A   1      46.079  24.268  30.890  1.00  0.00     0.167 HD
ATOM     39  C   UNL A   1      44.474  24.478  28.304  1.00  0.00     0.074 A 
ATOM     40  C   UNL A   1      43.876  23.700  29.382  1.00  0.00     0.031 C 
ATOM     41  C   UNL A   1      45.538  25.335  28.275  1.00  0.00     0.031 A 
BRANCH  28  42
ATOM     42  C   UNL A   1      45.012  24.979  33.597  1.00  0.00    -0.014 A 
ATOM     43  C   UNL A   1      44.353  23.790  33.224  1.00  0.00     0.009 A 
ATOM     44  C   UNL A   1      45.376  25.102  34.951  1.00  0.00     0.009 A 
ATOM     45  C   UNL A   1      44.022  22.811  34.170  1.00  0.00     0.001 A 
ATOM     46  C   UNL A   1      45.087  24.106  35.889  1.00  0.00     0.001 A 
ATOM     47  C   UNL A   1      44.384  22.972  35.503  1.00  0.00     0.000 A 
ENDBRANCH  28  42
BRANCH  29  48
ATOM     48  C   UNL A   1      39.997  23.714  27.057  1.00  0.00    -0.014 A 
ATOM     49  C   UNL A   1      38.741  24.216  26.690  1.00  0.00     0.009 A 
ATOM     50  C   UNL A   1      40.280  22.367  26.763  1.00  0.00     0.009 A 
ATOM     51  C   UNL A   1      37.809  23.401  26.034  1.00  0.00     0.001 A 
ATOM     52  C   UNL A   1      39.349  21.552  26.117  1.00  0.00     0.001 A 
ATOM     53  C   UNL A   1      38.117  22.073  25.740  1.00  0.00     0.000 A 
ENDBRANCH  29  48
BRANCH  41  54
ATOM     54  C   UNL A   1      45.800  26.092  26.999  1.00  0.00    -0.014 A 
ATOM     55  C   UNL A   1      45.064  27.235  26.638  1.00  0.00     0.009 A 
ATOM     56  C   UNL A   1      46.906  25.737  26.213  1.00  0.00     0.009 A 
ATOM     57  C   UNL A   1      45.400  27.976  25.502  1.00  0.00     0.001 A 
ATOM     58  C   UNL A   1      47.255  26.491  25.089  1.00  0.00     0.001 A 
ATOM     59  C   UNL A   1      46.497  27.604  24.730  1.00  0.00     0.000 A 
ENDBRANCH  41  54
ENDBRANCH  15  16
ENDBRANCH   8  10
ENDBRANCH   5   6
ENDBRANCH   4   5
ENDBRANCH   3   4
ENDBRANCH   2   3
ENDBRANCH   1   2
BRANCH   1  60
ATOM     60  C   UNL A   1      34.302  29.695  26.915  1.00  0.00     0.116 C 
BRANCH  60  61
ATOM     61  N   UNL A   1      33.231  28.998  27.603  1.00  0.00    -0.352 N 
ATOM     62  C   UNL A   1      32.140  28.356  27.076  1.00  0.00     0.254 C 
ATOM     63  H   UNL A   1      33.296  28.986  28.585  1.00  0.00     0.163 HD
ATOM     64  O   UNL A   1      31.265  27.908  27.812  1.00  0.00    -0.269 OA
BRANCH  62  65
ATOM     65  C   UNL A   1      31.970  28.260  25.618  1.00  0.00     0.076 A 
ATOM     66  C   UNL A   1      32.443  27.118  24.967  1.00  0.00     0.038 A 
ATOM     67  C   UNL A   1      31.376  29.281  24.879  1.00  0.00     0.136 A 
ATOM     68  C   UNL A   1      32.241  26.975  23.588  1.00  0.00     0.085 A 
ATOM     69  C   UNL A   1      31.156  29.131  23.511  1.00  0.00     0.041 A 
ATOM     70  F   UNL A   1      30.978  30.417  25.470  1.00  0.00    -0.206 F 
ATOM     71  C   UNL A   1      31.569  27.964  22.861  1.00  0.00     0.025 A 
BRANCH  68  72
ATOM     72  S   UNL A   1      32.964  25.552  22.812  1.00  0.00     0.257 S 
ATOM     73  O   UNL A   1      33.273  25.930  21.448  1.00  0.00    -0.205 OA
ATOM     74  O   UNL A   1      33.959  25.037  23.719  1.00  0.00    -0.205 OA
BRANCH  72  75
ATOM     75  N   UNL A   1      31.735  24.390  22.731  1.00  0.00    -0.123 NA
ATOM     76  H   UNL A   1      32.044  23.687  22.059  1.00  0.00     0.167 HD
BRANCH  75  77
ATOM     77  N   UNL A   1      31.312  23.675  23.904  1.00  0.00    -0.275 N 
ATOM     78  C   UNL A   1      31.914  22.547  24.403  1.00  0.00     0.265 C 
ATOM     79  H   UNL A   1      30.529  24.023  24.389  1.00  0.00     0.186 HD
ATOM     80  O   UNL A   1      31.654  22.210  25.563  1.00  0.00    -0.271 OA
BRANCH  78  81
ATOM     81  C   UNL A   1      32.883  21.775  23.499  1.00  0.00     0.244 C 
ATOM     82  C   UNL A   1      33.569  20.702  24.257  1.00  0.00     0.042 C 
ATOM     83  N   UNL A   1      32.065  20.996  22.524  1.00  0.00    -0.171 NA
ATOM     84  C   UNL A   1      33.046  19.561  23.807  1.00  0.00     0.091 C 
ATOM     85  N   UNL A   1      32.184  19.758  22.758  1.00  0.00    -0.155 NA
BRANCH  84  86
ATOM     86  C   UNL A   1      33.302  18.244  24.390  1.00  0.00     0.002 A 
ATOM     87  C   UNL A   1      32.287  17.538  25.046  1.00  0.00     0.010 A 
ATOM     88  C   UNL A   1      34.586  17.679  24.321  1.00  0.00     0.010 A 
ATOM     89  C   UNL A   1      32.542  16.277  25.591  1.00  0.00     0.001 A 
ATOM     90  C   UNL A   1      34.842  16.424  24.875  1.00  0.00     0.001 A 
ATOM     91  C   UNL A   1      33.817  15.720  25.503  1.00  0.00     0.000 A 
ENDBRANCH  84  86
ENDBRANCH  78  81
ENDBRANCH  75  77
ENDBRANCH  72  75
ENDBRANCH  68  72
ENDBRANCH  62  65
ENDBRANCH  60  61
ENDBRANCH   1  60
TORSDOF 18
ENDMDL
MODEL 2
REMARK VINA RESULT:     -12.1      5.462      9.691
REMARK SMILES O=C(NCCCCCCNC(=O)c1cc(S(=O)(=O)NNC(=O)[C@H]2C=C(c3ccccc3)N=N2)ccc1F)c1ccc(-c2c3nc(c(-c4ccccc4)c4ccc([nH]4)c(-c4ccccc4)c4nc(c(-c5ccccc5)c5ccc2[nH]5)C=C4)C=C3)cc1
REMARK SMILES IDX 8 1 7 2 6 3 5 4 4 5 3 6 1 7 2 8 38 10 39 11 85 12 40 13
REMARK SMILES IDX 84 14 41 15 42 16 43 17 78 18 44 19 83 20 77 21 79 22 45 23
REMARK SMILES IDX 82 24 76 25 75 26 46 28 68 29 53 30 67 31 54 32 57 33 66 34
REMARK SMILES IDX 80 35 55 36 56 37 65 39 81 40 58 41 47 42 48 43 52 44 49 45
REMARK SMILES IDX 51 46 50 47 69 48 70 49 74 50 71 51 73 52 72 53 59 54 60 55
REMARK SMILES IDX 64 56 61 57 63 58 62 59 9 60 10 61 11 62 12 64 13 65 14 66
REMARK SMILES IDX 36 67 15 68 35 69 37 70 34 71 16 72 17 73 18 74 19 75 20 77
REMARK SMILES IDX 21 78 22 80 23 81 24 82 33 83 25 84 32 85 26 86 27 87 31 88
REMARK SMILES IDX 28 89 30 90 29 91
REMARK H PARENT 3 9 79 27 57 38 10 63 19 76 20 79
REMARK Flexibility Score: inf
ROOT
ATOM      1  C   UNL A   1      41.783  28.308  33.778  1.00  0.00     0.021 C 
ENDROOT
BRANCH   1   2
ATOM      2  C   UNL A   1      41.953  27.604  35.126  1.00  0.00     0.002 C 
BRANCH   2   3
ATOM      3  C   UNL A   1      41.647  26.104  35.129  1.00  0.00     0.002 C 
BRANCH   3   4
ATOM      4  C   UNL A   1      41.751  25.406  36.489  1.00  0.00     0.021 C 
BRANCH   4   5
ATOM      5  C   UNL A   1      42.979  25.777  37.321  1.00  0.00     0.116 C 
BRANCH   5   6
ATOM      6  N   UNL A   1      43.981  24.736  37.402  1.00  0.00    -0.352 N 
ATOM      7  O   UNL A   1      45.669  23.371  36.996  1.00  0.00    -0.269 OA
ATOM      8  C   UNL A   1      44.887  24.203  36.529  1.00  0.00     0.251 C 
ATOM      9  H   UNL A   1      44.016  24.313  38.291  1.00  0.00     0.163 HD
BRANCH   8  10
ATOM     10  C   UNL A   1      44.963  24.515  35.074  1.00  0.00     0.039 A 
ATOM     11  C   UNL A   1      45.118  25.785  34.518  1.00  0.00     0.014 A 
ATOM     12  C   UNL A   1      44.836  23.417  34.201  1.00  0.00     0.014 A 
ATOM     13  C   UNL A   1      45.064  25.970  33.139  1.00  0.00     0.010 A 
ATOM     14  C   UNL A   1      44.808  23.593  32.821  1.00  0.00     0.010 A 
ATOM     15  C   UNL A   1      44.887  24.878  32.291  1.00  0.00    -0.014 A 
BRANCH  15  16
ATOM     16  C   UNL A   1      44.855  25.133  30.854  1.00  0.00     0.031 A 
ATOM     17  C   UNL A   1      45.833  26.122  30.319  1.00  0.00     0.074 A 
ATOM     18  C   UNL A   1      44.101  24.421  29.994  1.00  0.00     0.049 A 
ATOM     19  N   UNL A   1      45.604  27.181  29.607  1.00  0.00    -0.248 NA
ATOM     20  C   UNL A   1      47.253  25.907  30.635  1.00  0.00     0.031 C 
ATOM     21  C   UNL A   1      43.333  23.205  30.271  1.00  0.00     0.029 A 
ATOM     22  N   UNL A   1      43.970  24.579  28.645  1.00  0.00    -0.354 N 
ATOM     23  C   UNL A   1      46.855  27.687  29.252  1.00  0.00     0.074 A 
ATOM     24  C   UNL A   1      47.831  26.914  29.981  1.00  0.00     0.031 C 
ATOM     25  C   UNL A   1      43.017  22.611  29.100  1.00  0.00     0.029 A 
ATOM     26  C   UNL A   1      43.444  23.469  28.006  1.00  0.00     0.049 A 
ATOM     27  H   UNL A   1      44.227  25.403  28.170  1.00  0.00     0.167 HD
ATOM     28  C   UNL A   1      47.029  28.593  28.252  1.00  0.00     0.031 A 
ATOM     29  C   UNL A   1      43.423  23.230  26.675  1.00  0.00     0.031 A 
ATOM     30  C   UNL A   1      45.816  29.274  27.895  1.00  0.00     0.049 A 
ATOM     31  C   UNL A   1      43.630  24.507  25.961  1.00  0.00     0.074 A 
ATOM     32  C   UNL A   1      44.911  30.084  28.551  1.00  0.00     0.029 A 
ATOM     33  N   UNL A   1      45.214  28.934  26.710  1.00  0.00    -0.354 N 
ATOM     34  N   UNL A   1      42.753  25.468  25.916  1.00  0.00    -0.248 NA
ATOM     35  C   UNL A   1      44.977  24.876  25.556  1.00  0.00     0.031 C 
ATOM     36  C   UNL A   1      43.650  29.796  27.952  1.00  0.00     0.029 A 
ATOM     37  C   UNL A   1      43.873  28.833  26.966  1.00  0.00     0.049 A 
ATOM     38  H   UNL A   1      45.659  28.791  25.844  1.00  0.00     0.167 HD
ATOM     39  C   UNL A   1      43.503  26.633  25.884  1.00  0.00     0.074 A 
ATOM     40  C   UNL A   1      44.849  26.204  25.523  1.00  0.00     0.031 C 
ATOM     41  C   UNL A   1      43.026  27.792  26.429  1.00  0.00     0.031 A 
BRANCH  28  42
ATOM     42  C   UNL A   1      48.241  28.620  27.352  1.00  0.00    -0.014 A 
ATOM     43  C   UNL A   1      48.330  27.696  26.293  1.00  0.00     0.009 A 
ATOM     44  C   UNL A   1      49.416  29.323  27.680  1.00  0.00     0.009 A 
ATOM     45  C   UNL A   1      49.546  27.444  25.644  1.00  0.00     0.001 A 
ATOM     46  C   UNL A   1      50.621  29.106  27.003  1.00  0.00     0.001 A 
ATOM     47  C   UNL A   1      50.692  28.145  26.003  1.00  0.00     0.000 A 
ENDBRANCH  28  42
BRANCH  29  48
ATOM     48  C   UNL A   1      43.464  21.924  25.988  1.00  0.00    -0.014 A 
ATOM     49  C   UNL A   1      44.642  21.463  25.385  1.00  0.00     0.009 A 
ATOM     50  C   UNL A   1      42.397  21.018  26.128  1.00  0.00     0.009 A 
ATOM     51  C   UNL A   1      44.753  20.134  24.956  1.00  0.00     0.001 A 
ATOM     52  C   UNL A   1      42.503  19.696  25.694  1.00  0.00     0.001 A 
ATOM     53  C   UNL A   1      43.687  19.249  25.118  1.00  0.00     0.000 A 
ENDBRANCH  29  48
BRANCH  41  54
ATOM     54  C   UNL A   1      41.570  27.846  26.809  1.00  0.00    -0.014 A 
ATOM     55  C   UNL A   1      40.985  26.908  27.678  1.00  0.00     0.009 A 
ATOM     56  C   UNL A   1      40.802  28.948  26.405  1.00  0.00     0.009 A 
ATOM     57  C   UNL A   1      39.658  27.046  28.095  1.00  0.00     0.001 A 
ATOM     58  C   UNL A   1      39.483  29.098  26.840  1.00  0.00     0.001 A 
ATOM     59  C   UNL A   1      38.909  28.142  27.677  1.00  0.00     0.000 A 
ENDBRANCH  41  54
ENDBRANCH  15  16
ENDBRANCH   8  10
ENDBRANCH   5   6
ENDBRANCH   4   5
ENDBRANCH   3   4
ENDBRANCH   2   3
ENDBRANCH   1   2
BRANCH   1  60
ATOM     60  C   UNL A   1      40.626  29.297  33.710  1.00  0.00     0.116 C 
BRANCH  60  61
ATOM     61  N   UNL A   1      39.349  28.637  33.509  1.00  0.00    -0.352 N 
ATOM     62  C   UNL A   1      38.202  29.129  32.940  1.00  0.00     0.254 C 
ATOM     63  H   UNL A   1      39.299  27.707  33.827  1.00  0.00     0.163 HD
ATOM     64  O   UNL A   1      37.168  28.466  32.948  1.00  0.00    -0.269 OA
BRANCH  62  65
ATOM     65  C   UNL A   1      38.179  30.488  32.377  1.00  0.00     0.076 A 
ATOM     66  C   UNL A   1      37.517  31.490  33.088  1.00  0.00     0.038 A 
ATOM     67  C   UNL A   1      38.775  30.786  31.153  1.00  0.00     0.136 A 
ATOM     68  C   UNL A   1      37.529  32.805  32.604  1.00  0.00     0.085 A 
ATOM     69  C   UNL A   1      38.807  32.097  30.681  1.00  0.00     0.041 A 
ATOM     70  F   UNL A   1      39.356  29.827  30.418  1.00  0.00    -0.206 F 
ATOM     71  C   UNL A   1      38.202  33.120  31.417  1.00  0.00     0.025 A 
BRANCH  68  72
ATOM     72  S   UNL A   1      36.576  34.003  33.502  1.00  0.00     0.257 S 
ATOM     73  O   UNL A   1      35.552  33.271  34.219  1.00  0.00    -0.205 OA
ATOM     74  O   UNL A   1      37.512  34.878  34.162  1.00  0.00    -0.205 OA
BRANCH  72  75
ATOM     75  N   UNL A   1      35.781  34.937  32.334  1.00  0.00    -0.123 NA
ATOM     76  H   UNL A   1      35.911  34.459  31.442  1.00  0.00     0.167 HD
BRANCH  75  77
ATOM     77  N   UNL A   1      34.376  35.222  32.443  1.00  0.00    -0.275 N 
ATOM     78  C   UNL A   1      33.486  35.227  31.399  1.00  0.00     0.265 C 
ATOM     79  H   UNL A   1      34.025  35.431  33.340  1.00  0.00     0.186 HD
ATOM     80  O   UNL A   1      32.279  35.184  31.660  1.00  0.00    -0.271 OA
BRANCH  78  81
ATOM     81  C   UNL A   1      34.038  35.273  29.969  1.00  0.00     0.244 C 
ATOM     82  C   UNL A   1      34.847  34.065  29.677  1.00  0.00     0.042 C 
ATOM     83  N   UNL A   1      32.885  35.111  29.036  1.00  0.00    -0.171 NA
ATOM     84  C   UNL A   1      34.114  33.346  28.826  1.00  0.00     0.091 C 
ATOM     85  N   UNL A   1      32.974  34.001  28.434  1.00  0.00    -0.155 NA
BRANCH  84  86
ATOM     86  C   UNL A   1      34.441  31.987  28.392  1.00  0.00     0.002 A 
ATOM     87  C   UNL A   1      35.646  31.384  28.765  1.00  0.00     0.010 A 
ATOM     88  C   UNL A   1      33.553  31.278  27.567  1.00  0.00     0.010 A 
ATOM     89  C   UNL A   1      35.943  30.082  28.351  1.00  0.00     0.001 A 
ATOM     90  C   UNL A   1      33.854  29.982  27.146  1.00  0.00     0.001 A 
ATOM     91  C   UNL A   1      35.046  29.382  27.545  1.00  0.00     0.000 A 
ENDBRANCH  84  86
ENDBRANCH  78  81
ENDBRANCH  75  77
ENDBRANCH  72  75
ENDBRANCH  68  72
ENDBRANCH  62  65
ENDBRANCH  60  61
ENDBRANCH   1  60
TORSDOF 18
ENDMDL
MODEL 3
REMARK VINA RESULT:     -11.8      2.932      4.704
REMARK SMILES O=C(NCCCCCCNC(=O)c1cc(S(=O)(=O)NNC(=O)[C@H]2C=C(c3ccccc3)N=N2)ccc1F)c1ccc(-c2c3nc(c(-c4ccccc4)c4ccc([nH]4)c(-c4ccccc4)c4nc(c(-c5ccccc5)c5ccc2[nH]5)C=C4)C=C3)cc1
REMARK SMILES IDX 8 1 7 2 6 3 5 4 4 5 3 6 1 7 2 8 38 10 39 11 85 12 40 13
REMARK SMILES IDX 84 14 41 15 42 16 43 17 78 18 44 19 83 20 77 21 79 22 45 23
REMARK SMILES IDX 82 24 76 25 75 26 46 28 68 29 53 30 67 31 54 32 57 33 66 34
REMARK SMILES IDX 80 35 55 36 56 37 65 39 81 40 58 41 47 42 48 43 52 44 49 45
REMARK SMILES IDX 51 46 50 47 69 48 70 49 74 50 71 51 73 52 72 53 59 54 60 55
REMARK SMILES IDX 64 56 61 57 63 58 62 59 9 60 10 61 11 62 12 64 13 65 14 66
REMARK SMILES IDX 36 67 15 68 35 69 37 70 34 71 16 72 17 73 18 74 19 75 20 77
REMARK SMILES IDX 21 78 22 80 23 81 24 82 33 83 25 84 32 85 26 86 27 87 31 88
REMARK SMILES IDX 28 89 30 90 29 91
REMARK H PARENT 3 9 79 27 57 38 10 63 19 76 20 79
REMARK Flexibility Score: inf
ROOT
ATOM      1  C   UNL A   1      34.147  28.284  24.115  1.00  0.00     0.021 C 
ENDROOT
BRANCH   1   2
ATOM      2  C   UNL A   1      33.635  27.407  25.259  1.00  0.00     0.002 C 
BRANCH   2   3
ATOM      3  C   UNL A   1      33.245  28.153  26.538  1.00  0.00     0.002 C 
BRANCH   3   4
ATOM      4  C   UNL A   1      34.385  28.884  27.256  1.00  0.00     0.021 C 
BRANCH   4   5
ATOM      5  C   UNL A   1      34.436  30.396  27.028  1.00  0.00     0.116 C 
BRANCH   5   6
ATOM      6  N   UNL A   1      34.257  31.185  28.228  1.00  0.00    -0.352 N 
ATOM      7  O   UNL A   1      34.575  32.327  30.091  1.00  0.00    -0.269 OA
ATOM      8  C   UNL A   1      35.058  31.534  29.278  1.00  0.00     0.251 C 
ATOM      9  H   UNL A   1      33.347  31.554  28.306  1.00  0.00     0.163 HD
BRANCH   8  10
ATOM     10  C   UNL A   1      36.426  31.000  29.529  1.00  0.00     0.039 A 
ATOM     11  C   UNL A   1      37.617  31.716  29.414  1.00  0.00     0.014 A 
ATOM     12  C   UNL A   1      36.500  29.639  29.885  1.00  0.00     0.014 A 
ATOM     13  C   UNL A   1      38.847  31.082  29.565  1.00  0.00     0.010 A 
ATOM     14  C   UNL A   1      37.726  29.006  30.064  1.00  0.00     0.010 A 
ATOM     15  C   UNL A   1      38.903  29.723  29.868  1.00  0.00    -0.014 A 
BRANCH  15  16
ATOM     16  C   UNL A   1      40.221  29.117  30.031  1.00  0.00     0.031 A 
ATOM     17  C   UNL A   1      40.706  28.913  31.426  1.00  0.00     0.074 A 
ATOM     18  C   UNL A   1      40.935  28.614  29.005  1.00  0.00     0.049 A 
ATOM     19  N   UNL A   1      41.812  29.319  31.965  1.00  0.00    -0.248 NA
ATOM     20  C   UNL A   1      39.830  28.167  32.342  1.00  0.00     0.031 C 
ATOM     21  C   UNL A   1      40.498  28.420  27.621  1.00  0.00     0.029 A 
ATOM     22  N   UNL A   1      42.178  28.050  29.029  1.00  0.00    -0.354 N 
ATOM     23  C   UNL A   1      41.850  28.757  33.241  1.00  0.00     0.074 A 
ATOM     24  C   UNL A   1      40.569  28.128  33.450  1.00  0.00     0.031 C 
ATOM     25  C   UNL A   1      41.358  27.579  27.005  1.00  0.00     0.029 A 
ATOM     26  C   UNL A   1      42.462  27.290  27.907  1.00  0.00     0.049 A 
ATOM     27  H   UNL A   1      42.811  28.170  29.773  1.00  0.00     0.167 HD
ATOM     28  C   UNL A   1      42.989  28.688  33.984  1.00  0.00     0.031 A 
ATOM     29  C   UNL A   1      43.490  26.424  27.749  1.00  0.00     0.031 A 
ATOM     30  C   UNL A   1      44.009  29.592  33.532  1.00  0.00     0.049 A 
ATOM     31  C   UNL A   1      44.524  26.729  28.759  1.00  0.00     0.074 A 
ATOM     32  C   UNL A   1      44.118  30.960  33.384  1.00  0.00     0.029 A 
ATOM     33  N   UNL A   1      45.088  29.063  32.871  1.00  0.00    -0.354 N 
ATOM     34  N   UNL A   1      45.271  27.794  28.741  1.00  0.00    -0.248 NA
ATOM     35  C   UNL A   1      44.514  25.999  30.017  1.00  0.00     0.031 C 
ATOM     36  C   UNL A   1      44.971  31.145  32.256  1.00  0.00     0.029 A 
ATOM     37  C   UNL A   1      45.328  29.877  31.797  1.00  0.00     0.049 A 
ATOM     38  H   UNL A   1      45.592  28.254  33.120  1.00  0.00     0.167 HD
ATOM     39  C   UNL A   1      45.489  28.099  30.075  1.00  0.00     0.074 A 
ATOM     40  C   UNL A   1      45.122  26.891  30.803  1.00  0.00     0.031 C 
ATOM     41  C   UNL A   1      45.673  29.392  30.480  1.00  0.00     0.031 A 
BRANCH  28  42
ATOM     42  C   UNL A   1      43.306  27.548  34.921  1.00  0.00    -0.014 A 
ATOM     43  C   UNL A   1      43.542  26.265  34.386  1.00  0.00     0.009 A 
ATOM     44  C   UNL A   1      43.100  27.625  36.312  1.00  0.00     0.009 A 
ATOM     45  C   UNL A   1      43.507  25.120  35.192  1.00  0.00     0.001 A 
ATOM     46  C   UNL A   1      43.110  26.487  37.125  1.00  0.00     0.001 A 
ATOM     47  C   UNL A   1      43.286  25.231  36.560  1.00  0.00     0.000 A 
ENDBRANCH  28  42
BRANCH  29  48
ATOM     48  C   UNL A   1      43.526  25.202  26.923  1.00  0.00    -0.014 A 
ATOM     49  C   UNL A   1      43.453  25.273  25.525  1.00  0.00     0.009 A 
ATOM     50  C   UNL A   1      43.871  23.967  27.503  1.00  0.00     0.009 A 
ATOM     51  C   UNL A   1      43.735  24.151  24.736  1.00  0.00     0.001 A 
ATOM     52  C   UNL A   1      44.144  22.846  26.718  1.00  0.00     0.001 A 
ATOM     53  C   UNL A   1      44.089  22.940  25.333  1.00  0.00     0.000 A 
ENDBRANCH  29  48
BRANCH  41  54
ATOM     54  C   UNL A   1      45.914  30.436  29.420  1.00  0.00    -0.014 A 
ATOM     55  C   UNL A   1      44.862  31.051  28.719  1.00  0.00     0.009 A 
ATOM     56  C   UNL A   1      47.216  30.919  29.226  1.00  0.00     0.009 A 
ATOM     57  C   UNL A   1      45.111  32.090  27.819  1.00  0.00     0.001 A 
ATOM     58  C   UNL A   1      47.462  31.973  28.342  1.00  0.00     0.001 A 
ATOM     59  C   UNL A   1      46.412  32.552  27.633  1.00  0.00     0.000 A 
ENDBRANCH  41  54
ENDBRANCH  15  16
ENDBRANCH   8  10
ENDBRANCH   5   6
ENDBRANCH   4   5
ENDBRANCH   3   4
ENDBRANCH   2   3
ENDBRANCH   1   2
BRANCH   1  60
ATOM     60  C   UNL A   1      33.730  27.832  22.721  1.00  0.00     0.116 C 
BRANCH  60  61
ATOM     61  N   UNL A   1      32.345  28.157  22.428  1.00  0.00    -0.352 N 
ATOM     62  C   UNL A   1      31.238  27.350  22.487  1.00  0.00     0.254 C 
ATOM     63  H   UNL A   1      32.179  29.085  22.148  1.00  0.00     0.163 HD
ATOM     64  O   UNL A   1      30.148  27.760  22.098  1.00  0.00    -0.269 OA
BRANCH  62  65
ATOM     65  C   UNL A   1      31.359  25.959  22.950  1.00  0.00     0.076 A 
ATOM     66  C   UNL A   1      30.843  25.629  24.205  1.00  0.00     0.038 A 
ATOM     67  C   UNL A   1      31.990  24.982  22.183  1.00  0.00     0.136 A 
ATOM     68  C   UNL A   1      30.892  24.300  24.645  1.00  0.00     0.085 A 
ATOM     69  C   UNL A   1      32.020  23.656  22.609  1.00  0.00     0.041 A 
ATOM     70  F   UNL A   1      32.555  25.288  21.006  1.00  0.00    -0.206 F 
ATOM     71  C   UNL A   1      31.451  23.303  23.836  1.00  0.00     0.025 A 
BRANCH  68  72
ATOM     72  S   UNL A   1      30.317  23.975  26.292  1.00  0.00     0.257 S 
ATOM     73  O   UNL A   1      29.594  25.154  26.724  1.00  0.00    -0.205 OA
ATOM     74  O   UNL A   1      29.723  22.662  26.281  1.00  0.00    -0.205 OA
BRANCH  72  75
ATOM     75  N   UNL A   1      31.704  23.872  27.258  1.00  0.00    -0.123 NA
ATOM     76  H   UNL A   1      31.478  24.332  28.140  1.00  0.00     0.167 HD
BRANCH  75  77
ATOM     77  N   UNL A   1      32.277  22.597  27.598  1.00  0.00    -0.275 N 
ATOM     78  C   UNL A   1      33.489  22.132  27.156  1.00  0.00     0.265 C 
ATOM     79  H   UNL A   1      31.758  22.013  28.198  1.00  0.00     0.186 HD
ATOM     80  O   UNL A   1      34.000  21.176  27.749  1.00  0.00    -0.271 OA
BRANCH  78  81
ATOM     81  C   UNL A   1      34.147  22.829  25.957  1.00  0.00     0.244 C 
ATOM     82  C   UNL A   1      35.419  23.475  26.358  1.00  0.00     0.042 C 
ATOM     83  N   UNL A   1      34.616  21.767  25.020  1.00  0.00    -0.171 NA
ATOM     84  C   UNL A   1      36.380  22.736  25.804  1.00  0.00     0.091 C 
ATOM     85  N   UNL A   1      35.880  21.753  24.989  1.00  0.00    -0.155 NA
BRANCH  84  86
ATOM     86  C   UNL A   1      37.810  22.900  26.068  1.00  0.00     0.002 A 
ATOM     87  C   UNL A   1      38.692  21.820  25.951  1.00  0.00     0.010 A 
ATOM     88  C   UNL A   1      38.315  24.148  26.471  1.00  0.00     0.010 A 
ATOM     89  C   UNL A   1      40.057  21.992  26.198  1.00  0.00     0.001 A 
ATOM     90  C   UNL A   1      39.676  24.316  26.727  1.00  0.00     0.001 A 
ATOM     91  C   UNL A   1      40.548  23.239  26.582  1.00  0.00     0.000 A 
ENDBRANCH  84  86
ENDBRANCH  78  81
ENDBRANCH  75  77
ENDBRANCH  72  75
ENDBRANCH  68  72
ENDBRANCH  62  65
ENDBRANCH  60  61
ENDBRANCH   1  60
TORSDOF 18
ENDMDL
