MODEL 1
REMARK VINA RESULT:      -9.6      0.000      0.000
REMARK SMILES Cc1csc(CNC(=O)NC[C@H]2CC[C@@H](C(=O)NCCCCCCNC(=O)c3ccc(-c4c5nc(c(-c6ccccc6)c6ccc([nH]6)c(-c6ccccc6)c6nc(c(-c7ccccc7)c7ccc4[nH]7)C=C6)C=C5)cc3)CC2)n1
REMARK SMILES IDX 20 1 19 2 18 3 16 4 17 5 15 7 12 8 13 9 77 10 14 11 76 12
REMARK SMILES IDX 11 13 10 14 7 15 8 16 9 18 6 20 5 21 1 22 2 23 3 24 78 25
REMARK SMILES IDX 4 26 21 27 22 28 23 29 24 30 25 31 26 32 27 34 28 35 29 36
REMARK SMILES IDX 75 37 30 38 74 39 31 40 32 41 33 42 68 43 34 44 73 45 67 46
REMARK SMILES IDX 69 47 35 48 72 49 66 50 65 51 36 53 58 54 43 55 57 56 44 57
REMARK SMILES IDX 47 58 56 59 70 60 45 61 46 62 55 64 71 65 48 66 37 67 38 68
REMARK SMILES IDX 42 69 39 70 41 71 40 72 59 73 60 74 64 75 61 76 63 77 62 78
REMARK SMILES IDX 49 79 50 80 54 81 51 82 53 83 52 84
REMARK H PARENT 18 6 7 17 10 19 25 33 69 52 47 63
REMARK Flexibility Score: inf
ROOT
ATOM      1  C   UNL A   1      46.361  24.733  25.287  1.00  0.00     0.021 C 
ENDROOT
BRANCH   1   2
ATOM      2  C   UNL A   1      45.243  25.775  25.207  1.00  0.00     0.116 C 
BRANCH   2   3
ATOM      3  N   UNL A   1      45.638  27.051  24.666  1.00  0.00    -0.356 N 
ATOM      4  C   UNL A   1      45.987  28.211  25.280  1.00  0.00     0.223 C 
ATOM      5  O   UNL A   1      46.555  29.044  24.562  1.00  0.00    -0.275 OA
ATOM      6  H   UNL A   1      45.658  27.088  23.684  1.00  0.00     0.163 HD
BRANCH   4   7
ATOM      7  C   UNL A   1      45.714  28.562  26.757  1.00  0.00     0.078 C 
ATOM      8  C   UNL A   1      45.043  31.390  27.619  1.00  0.00     0.008 C 
ATOM      9  C   UNL A   1      43.947  30.419  27.126  1.00  0.00     0.006 C 
ATOM     10  C   UNL A   1      46.502  30.924  27.434  1.00  0.00     0.006 C 
ATOM     11  C   UNL A   1      44.289  28.937  27.152  1.00  0.00     0.014 C 
ATOM     12  C   UNL A   1      46.757  29.426  27.454  1.00  0.00     0.014 C 
BRANCH   8  13
ATOM     13  C   UNL A   1      44.874  32.768  26.934  1.00  0.00     0.121 C 
BRANCH  13  14
ATOM     14  N   UNL A   1      44.605  32.666  25.518  1.00  0.00    -0.338 N 
ATOM     15  N   UNL A   1      43.480  34.662  24.980  1.00  0.00    -0.332 N 
ATOM     16  C   UNL A   1      44.197  33.588  24.637  1.00  0.00     0.315 C 
ATOM     17  H   UNL A   1      43.432  35.343  24.270  1.00  0.00     0.165 HD
ATOM     18  O   UNL A   1      44.485  33.425  23.450  1.00  0.00    -0.249 OA
ATOM     19  H   UNL A   1      44.746  31.769  25.138  1.00  0.00     0.165 HD
BRANCH  15  20
ATOM     20  C   UNL A   1      42.760  35.031  26.184  1.00  0.00     0.185 C 
BRANCH  20  21
ATOM     21  C   UNL A   1      43.201  36.395  26.628  1.00  0.00     0.112 A 
ATOM     22  C   UNL A   1      42.365  39.686  27.763  1.00  0.00     0.067 C 
ATOM     23  C   UNL A   1      43.113  38.484  27.354  1.00  0.00     0.049 A 
ATOM     24  C   UNL A   1      44.469  38.274  27.486  1.00  0.00     0.090 A 
ATOM     25  N   UNL A   1      42.400  37.424  26.827  1.00  0.00    -0.245 NA
ATOM     26  S   UNL A   1      44.866  36.699  26.949  1.00  0.00    -0.125 S 
ENDBRANCH  20  21
ENDBRANCH  15  20
ENDBRANCH  13  14
ENDBRANCH   8  13
ENDBRANCH   4   7
ENDBRANCH   2   3
ENDBRANCH   1   2
BRANCH   1  27
ATOM     27  C   UNL A   1      46.094  23.443  24.508  1.00  0.00     0.002 C 
BRANCH  27  28
ATOM     28  C   UNL A   1      45.782  22.197  25.352  1.00  0.00     0.002 C 
BRANCH  28  29
ATOM     29  C   UNL A   1      45.226  20.975  24.607  1.00  0.00     0.021 C 
BRANCH  29  30
ATOM     30  C   UNL A   1      44.965  19.728  25.457  1.00  0.00     0.116 C 
BRANCH  30  31
ATOM     31  N   UNL A   1      43.629  19.175  25.266  1.00  0.00    -0.352 N 
ATOM     32  C   UNL A   1      42.411  19.640  25.697  1.00  0.00     0.251 C 
ATOM     33  H   UNL A   1      43.595  18.339  24.747  1.00  0.00     0.163 HD
ATOM     34  O   UNL A   1      41.393  18.965  25.539  1.00  0.00    -0.269 OA
BRANCH  32  35
ATOM     35  C   UNL A   1      42.310  20.960  26.345  1.00  0.00     0.039 A 
ATOM     36  C   UNL A   1      42.315  21.068  27.734  1.00  0.00     0.014 A 
ATOM     37  C   UNL A   1      42.204  22.106  25.565  1.00  0.00     0.014 A 
ATOM     38  C   UNL A   1      42.322  22.337  28.332  1.00  0.00     0.010 A 
ATOM     39  C   UNL A   1      42.299  23.367  26.167  1.00  0.00     0.010 A 
ATOM     40  C   UNL A   1      42.401  23.512  27.558  1.00  0.00    -0.014 A 
BRANCH  40  41
ATOM     41  C   UNL A   1      42.677  24.857  28.175  1.00  0.00     0.031 A 
ATOM     42  C   UNL A   1      44.046  25.243  28.701  1.00  0.00     0.074 A 
ATOM     43  C   UNL A   1      41.661  25.727  28.381  1.00  0.00     0.049 A 
ATOM     44  N   UNL A   1      44.410  26.325  29.354  1.00  0.00    -0.248 NA
ATOM     45  C   UNL A   1      45.136  24.270  28.527  1.00  0.00     0.031 C 
ATOM     46  C   UNL A   1      40.253  25.487  28.055  1.00  0.00     0.029 A 
ATOM     47  N   UNL A   1      41.653  26.997  28.916  1.00  0.00    -0.354 N 
ATOM     48  C   UNL A   1      45.740  26.133  29.711  1.00  0.00     0.074 A 
ATOM     49  C   UNL A   1      46.102  24.807  29.259  1.00  0.00     0.031 C 
ATOM     50  C   UNL A   1      39.539  26.592  28.318  1.00  0.00     0.029 A 
ATOM     51  C   UNL A   1      40.416  27.601  28.896  1.00  0.00     0.049 A 
ATOM     52  H   UNL A   1      42.459  27.433  29.278  1.00  0.00     0.167 HD
ATOM     53  C   UNL A   1      46.603  26.985  30.323  1.00  0.00     0.031 A 
ATOM     54  C   UNL A   1      40.015  28.825  29.295  1.00  0.00     0.031 A 
ATOM     55  C   UNL A   1      46.290  28.336  30.712  1.00  0.00     0.049 A 
ATOM     56  C   UNL A   1      41.002  29.779  29.908  1.00  0.00     0.074 A 
ATOM     57  C   UNL A   1      47.141  29.302  31.224  1.00  0.00     0.029 A 
ATOM     58  N   UNL A   1      45.037  28.919  30.620  1.00  0.00    -0.354 N 
ATOM     59  N   UNL A   1      42.280  29.609  30.142  1.00  0.00    -0.248 NA
ATOM     60  C   UNL A   1      40.489  31.098  30.310  1.00  0.00     0.031 C 
ATOM     61  C   UNL A   1      46.395  30.455  31.487  1.00  0.00     0.029 A 
ATOM     62  C   UNL A   1      45.090  30.224  31.085  1.00  0.00     0.049 A 
ATOM     63  H   UNL A   1      44.230  28.473  30.277  1.00  0.00     0.167 HD
ATOM     64  C   UNL A   1      42.724  30.805  30.693  1.00  0.00     0.074 A 
ATOM     65  C   UNL A   1      41.589  31.700  30.738  1.00  0.00     0.031 C 
ATOM     66  C   UNL A   1      43.968  31.124  31.125  1.00  0.00     0.031 A 
BRANCH  53  67
ATOM     67  C   UNL A   1      48.002  26.490  30.591  1.00  0.00    -0.014 A 
ATOM     68  C   UNL A   1      49.028  26.659  29.647  1.00  0.00     0.009 A 
ATOM     69  C   UNL A   1      48.314  25.900  31.827  1.00  0.00     0.009 A 
ATOM     70  C   UNL A   1      50.319  26.198  29.910  1.00  0.00     0.001 A 
ATOM     71  C   UNL A   1      49.616  25.475  32.103  1.00  0.00     0.001 A 
ATOM     72  C   UNL A   1      50.613  25.611  31.140  1.00  0.00     0.000 A 
ENDBRANCH  53  67
BRANCH  54  73
ATOM     73  C   UNL A   1      38.599  29.244  29.103  1.00  0.00    -0.014 A 
ATOM     74  C   UNL A   1      37.687  29.160  30.167  1.00  0.00     0.009 A 
ATOM     75  C   UNL A   1      38.148  29.711  27.859  1.00  0.00     0.009 A 
ATOM     76  C   UNL A   1      36.346  29.503  29.981  1.00  0.00     0.001 A 
ATOM     77  C   UNL A   1      36.814  30.087  27.686  1.00  0.00     0.001 A 
ATOM     78  C   UNL A   1      35.911  29.970  28.742  1.00  0.00     0.000 A 
ENDBRANCH  54  73
BRANCH  66  79
ATOM     79  C   UNL A   1      44.190  32.514  31.655  1.00  0.00    -0.014 A 
ATOM     80  C   UNL A   1      44.034  32.810  33.018  1.00  0.00     0.009 A 
ATOM     81  C   UNL A   1      44.615  33.531  30.785  1.00  0.00     0.009 A 
ATOM     82  C   UNL A   1      44.277  34.102  33.493  1.00  0.00     0.001 A 
ATOM     83  C   UNL A   1      44.884  34.813  31.267  1.00  0.00     0.001 A 
ATOM     84  C   UNL A   1      44.708  35.099  32.620  1.00  0.00     0.000 A 
ENDBRANCH  66  79
ENDBRANCH  40  41
ENDBRANCH  32  35
ENDBRANCH  30  31
ENDBRANCH  29  30
ENDBRANCH  28  29
ENDBRANCH  27  28
ENDBRANCH   1  27
TORSDOF 17
ENDMDL
MODEL 2
REMARK VINA RESULT:      -9.2      5.559      9.450
REMARK SMILES Cc1csc(CNC(=O)NC[C@H]2CC[C@@H](C(=O)NCCCCCCNC(=O)c3ccc(-c4c5nc(c(-c6ccccc6)c6ccc([nH]6)c(-c6ccccc6)c6nc(c(-c7ccccc7)c7ccc4[nH]7)C=C6)C=C5)cc3)CC2)n1
REMARK SMILES IDX 20 1 19 2 18 3 16 4 17 5 15 7 12 8 13 9 77 10 14 11 76 12
REMARK SMILES IDX 11 13 10 14 7 15 8 16 9 18 6 20 5 21 1 22 2 23 3 24 78 25
REMARK SMILES IDX 4 26 21 27 22 28 23 29 24 30 25 31 26 32 27 34 28 35 29 36
REMARK SMILES IDX 75 37 30 38 74 39 31 40 32 41 33 42 68 43 34 44 73 45 67 46
REMARK SMILES IDX 69 47 35 48 72 49 66 50 65 51 36 53 58 54 43 55 57 56 44 57
REMARK SMILES IDX 47 58 56 59 70 60 45 61 46 62 55 64 71 65 48 66 37 67 38 68
REMARK SMILES IDX 42 69 39 70 41 71 40 72 59 73 60 74 64 75 61 76 63 77 62 78
REMARK SMILES IDX 49 79 50 80 54 81 51 82 53 83 52 84
REMARK H PARENT 18 6 7 17 10 19 25 33 69 52 47 63
REMARK Flexibility Score: inf
ROOT
ATOM      1  C   UNL A   1      35.270  24.055  24.059  1.00  0.00     0.021 C 
ENDROOT
BRANCH   1   2
ATOM      2  C   UNL A   1      33.854  24.378  23.574  1.00  0.00     0.116 C 
BRANCH   2   3
ATOM      3  N   UNL A   1      33.786  25.286  22.458  1.00  0.00    -0.356 N 
ATOM      4  C   UNL A   1      33.528  26.619  22.405  1.00  0.00     0.223 C 
ATOM      5  O   UNL A   1      33.824  27.177  21.341  1.00  0.00    -0.275 OA
ATOM      6  H   UNL A   1      33.956  24.869  21.583  1.00  0.00     0.163 HD
BRANCH   4   7
ATOM      7  C   UNL A   1      32.891  27.454  23.534  1.00  0.00     0.078 C 
ATOM      8  C   UNL A   1      32.045  26.192  26.158  1.00  0.00     0.008 C 
ATOM      9  C   UNL A   1      33.493  26.681  25.933  1.00  0.00     0.006 C 
ATOM     10  C   UNL A   1      31.129  26.172  24.917  1.00  0.00     0.006 C 
ATOM     11  C   UNL A   1      33.705  27.680  24.804  1.00  0.00     0.014 C 
ATOM     12  C   UNL A   1      31.419  27.190  23.827  1.00  0.00     0.014 C 
BRANCH   8  13
ATOM     13  C   UNL A   1      32.059  24.777  26.785  1.00  0.00     0.121 C 
BRANCH  13  14
ATOM     14  N   UNL A   1      30.742  24.190  26.885  1.00  0.00    -0.338 N 
ATOM     15  N   UNL A   1      31.049  21.934  26.287  1.00  0.00    -0.332 N 
ATOM     16  C   UNL A   1      30.354  22.909  26.881  1.00  0.00     0.315 C 
ATOM     17  H   UNL A   1      30.750  21.031  26.539  1.00  0.00     0.165 HD
ATOM     18  O   UNL A   1      29.294  22.621  27.440  1.00  0.00    -0.249 OA
ATOM     19  H   UNL A   1      30.009  24.841  26.971  1.00  0.00     0.165 HD
BRANCH  15  20
ATOM     20  C   UNL A   1      32.154  21.936  25.346  1.00  0.00     0.185 C 
BRANCH  20  21
ATOM     21  C   UNL A   1      32.335  20.552  24.791  1.00  0.00     0.112 A 
ATOM     22  C   UNL A   1      32.549  17.021  25.333  1.00  0.00     0.067 C 
ATOM     23  C   UNL A   1      32.504  18.348  24.696  1.00  0.00     0.049 A 
ATOM     24  C   UNL A   1      32.415  18.611  23.345  1.00  0.00     0.090 A 
ATOM     25  N   UNL A   1      32.498  19.462  25.514  1.00  0.00    -0.245 NA
ATOM     26  S   UNL A   1      32.306  20.298  23.088  1.00  0.00    -0.125 S 
ENDBRANCH  20  21
ENDBRANCH  15  20
ENDBRANCH  13  14
ENDBRANCH   8  13
ENDBRANCH   4   7
ENDBRANCH   2   3
ENDBRANCH   1   2
BRANCH   1  27
ATOM     27  C   UNL A   1      35.789  22.674  23.651  1.00  0.00     0.002 C 
BRANCH  27  28
ATOM     28  C   UNL A   1      36.117  21.709  24.801  1.00  0.00     0.002 C 
BRANCH  28  29
ATOM     29  C   UNL A   1      37.342  20.801  24.618  1.00  0.00     0.021 C 
BRANCH  29  30
ATOM     30  C   UNL A   1      38.462  20.963  25.650  1.00  0.00     0.116 C 
BRANCH  30  31
ATOM     31  N   UNL A   1      39.412  19.856  25.639  1.00  0.00    -0.352 N 
ATOM     32  C   UNL A   1      40.751  19.838  25.944  1.00  0.00     0.251 C 
ATOM     33  H   UNL A   1      39.035  18.987  25.370  1.00  0.00     0.163 HD
ATOM     34  O   UNL A   1      41.421  18.823  25.757  1.00  0.00    -0.269 OA
BRANCH  32  35
ATOM     35  C   UNL A   1      41.396  21.037  26.511  1.00  0.00     0.039 A 
ATOM     36  C   UNL A   1      42.017  21.966  25.678  1.00  0.00     0.014 A 
ATOM     37  C   UNL A   1      41.390  21.239  27.886  1.00  0.00     0.014 A 
ATOM     38  C   UNL A   1      42.536  23.150  26.224  1.00  0.00     0.010 A 
ATOM     39  C   UNL A   1      41.831  22.461  28.410  1.00  0.00     0.010 A 
ATOM     40  C   UNL A   1      42.376  23.459  27.589  1.00  0.00    -0.014 A 
BRANCH  40  41
ATOM     41  C   UNL A   1      42.682  24.827  28.139  1.00  0.00     0.031 A 
ATOM     42  C   UNL A   1      44.074  25.228  28.589  1.00  0.00     0.074 A 
ATOM     43  C   UNL A   1      41.677  25.709  28.352  1.00  0.00     0.049 A 
ATOM     44  N   UNL A   1      44.468  26.335  29.180  1.00  0.00    -0.248 NA
ATOM     45  C   UNL A   1      45.152  24.245  28.407  1.00  0.00     0.031 C 
ATOM     46  C   UNL A   1      40.256  25.462  28.099  1.00  0.00     0.029 A 
ATOM     47  N   UNL A   1      41.696  27.000  28.835  1.00  0.00    -0.354 N 
ATOM     48  C   UNL A   1      45.812  26.152  29.487  1.00  0.00     0.074 A 
ATOM     49  C   UNL A   1      46.150  24.807  29.074  1.00  0.00     0.031 C 
ATOM     50  C   UNL A   1      39.557  26.579  28.347  1.00  0.00     0.029 A 
ATOM     51  C   UNL A   1      40.461  27.608  28.844  1.00  0.00     0.049 A 
ATOM     52  H   UNL A   1      42.518  27.447  29.144  1.00  0.00     0.167 HD
ATOM     53  C   UNL A   1      46.702  27.024  30.025  1.00  0.00     0.031 A 
ATOM     54  C   UNL A   1      40.081  28.849  29.211  1.00  0.00     0.031 A 
ATOM     55  C   UNL A   1      46.410  28.391  30.372  1.00  0.00     0.049 A 
ATOM     56  C   UNL A   1      41.096  29.823  29.740  1.00  0.00     0.074 A 
ATOM     57  C   UNL A   1      47.285  29.373  30.807  1.00  0.00     0.029 A 
ATOM     58  N   UNL A   1      45.156  28.975  30.311  1.00  0.00    -0.354 N 
ATOM     59  N   UNL A   1      42.382  29.657  29.925  1.00  0.00    -0.248 NA
ATOM     60  C   UNL A   1      40.604  31.159  30.110  1.00  0.00     0.031 C 
ATOM     61  C   UNL A   1      46.554  30.539  31.055  1.00  0.00     0.029 A 
ATOM     62  C   UNL A   1      45.232  30.298  30.720  1.00  0.00     0.049 A 
ATOM     63  H   UNL A   1      44.333  28.519  30.022  1.00  0.00     0.167 HD
ATOM     64  C   UNL A   1      42.853  30.872  30.407  1.00  0.00     0.074 A 
ATOM     65  C   UNL A   1      41.723  31.773  30.466  1.00  0.00     0.031 C 
ATOM     66  C   UNL A   1      44.115  31.203  30.771  1.00  0.00     0.031 A 
BRANCH  53  67
ATOM     67  C   UNL A   1      48.111  26.534  30.253  1.00  0.00    -0.014 A 
ATOM     68  C   UNL A   1      48.480  25.913  31.457  1.00  0.00     0.009 A 
ATOM     69  C   UNL A   1      49.066  26.641  29.229  1.00  0.00     0.009 A 
ATOM     70  C   UNL A   1      49.787  25.463  31.653  1.00  0.00     0.001 A 
ATOM     71  C   UNL A   1      50.363  26.154  29.413  1.00  0.00     0.001 A 
ATOM     72  C   UNL A   1      50.726  25.579  30.628  1.00  0.00     0.000 A 
ENDBRANCH  53  67
BRANCH  54  73
ATOM     73  C   UNL A   1      38.659  29.266  29.063  1.00  0.00    -0.014 A 
ATOM     74  C   UNL A   1      37.786  29.198  30.160  1.00  0.00     0.009 A 
ATOM     75  C   UNL A   1      38.164  29.714  27.829  1.00  0.00     0.009 A 
ATOM     76  C   UNL A   1      36.439  29.538  30.017  1.00  0.00     0.001 A 
ATOM     77  C   UNL A   1      36.824  30.088  27.698  1.00  0.00     0.001 A 
ATOM     78  C   UNL A   1      35.960  29.988  28.788  1.00  0.00     0.000 A 
ENDBRANCH  54  73
BRANCH  66  79
ATOM     79  C   UNL A   1      44.363  32.613  31.234  1.00  0.00    -0.014 A 
ATOM     80  C   UNL A   1      44.324  32.953  32.596  1.00  0.00     0.009 A 
ATOM     81  C   UNL A   1      44.696  33.604  30.298  1.00  0.00     0.009 A 
ATOM     82  C   UNL A   1      44.589  34.262  33.005  1.00  0.00     0.001 A 
ATOM     83  C   UNL A   1      44.989  34.904  30.713  1.00  0.00     0.001 A 
ATOM     84  C   UNL A   1      44.928  35.234  32.065  1.00  0.00     0.000 A 
ENDBRANCH  66  79
ENDBRANCH  40  41
ENDBRANCH  32  35
ENDBRANCH  30  31
ENDBRANCH  29  30
ENDBRANCH  28  29
ENDBRANCH  27  28
ENDBRANCH   1  27
TORSDOF 17
ENDMDL
MODEL 3
REMARK VINA RESULT:      -9.0      6.614     12.768
REMARK SMILES Cc1csc(CNC(=O)NC[C@H]2CC[C@@H](C(=O)NCCCCCCNC(=O)c3ccc(-c4c5nc(c(-c6ccccc6)c6ccc([nH]6)c(-c6ccccc6)c6nc(c(-c7ccccc7)c7ccc4[nH]7)C=C6)C=C5)cc3)CC2)n1
REMARK SMILES IDX 20 1 19 2 18 3 16 4 17 5 15 7 12 8 13 9 77 10 14 11 76 12
REMARK SMILES IDX 11 13 10 14 7 15 8 16 9 18 6 20 5 21 1 22 2 23 3 24 78 25
REMARK SMILES IDX 4 26 21 27 22 28 23 29 24 30 25 31 26 32 27 34 28 35 29 36
REMARK SMILES IDX 75 37 30 38 74 39 31 40 32 41 33 42 68 43 34 44 73 45 67 46
REMARK SMILES IDX 69 47 35 48 72 49 66 50 65 51 36 53 58 54 43 55 57 56 44 57
REMARK SMILES IDX 47 58 56 59 70 60 45 61 46 62 55 64 71 65 48 66 37 67 38 68
REMARK SMILES IDX 42 69 39 70 41 71 40 72 59 73 60 74 64 75 61 76 63 77 62 78
REMARK SMILES IDX 49 79 50 80 54 81 51 82 53 83 52 84
REMARK H PARENT 18 6 7 17 10 19 25 33 69 52 47 63
REMARK Flexibility Score: inf
ROOT
ATOM      1  C   UNL A   1      34.791  31.624  27.793  1.00  0.00     0.021 C 
ENDROOT
BRANCH   1   2
ATOM      2  C   UNL A   1      33.637  30.749  27.297  1.00  0.00     0.116 C 
BRANCH   2   3
ATOM      3  N   UNL A   1      33.985  29.819  26.253  1.00  0.00    -0.356 N 
ATOM      4  C   UNL A   1      33.207  29.094  25.408  1.00  0.00     0.223 C 
ATOM      5  O   UNL A   1      33.791  28.608  24.430  1.00  0.00    -0.275 OA
ATOM      6  H   UNL A   1      34.952  29.687  26.130  1.00  0.00     0.163 HD
BRANCH   4   7
ATOM      7  C   UNL A   1      31.699  28.821  25.588  1.00  0.00     0.078 C 
ATOM      8  C   UNL A   1      30.295  26.603  24.071  1.00  0.00     0.008 C 
ATOM      9  C   UNL A   1      31.014  26.329  25.411  1.00  0.00     0.006 C 
ATOM     10  C   UNL A   1      30.523  27.995  23.445  1.00  0.00     0.006 C 
ATOM     11  C   UNL A   1      31.283  27.537  26.297  1.00  0.00     0.014 C 
ATOM     12  C   UNL A   1      30.804  29.144  24.398  1.00  0.00     0.014 C 
BRANCH   8  13
ATOM     13  C   UNL A   1      30.686  25.524  23.033  1.00  0.00     0.121 C 
BRANCH  13  14
ATOM     14  N   UNL A   1      31.765  25.938  22.166  1.00  0.00    -0.338 N 
ATOM     15  N   UNL A   1      33.000  23.973  21.771  1.00  0.00    -0.332 N 
ATOM     16  C   UNL A   1      32.634  25.217  21.446  1.00  0.00     0.315 C 
ATOM     17  H   UNL A   1      33.478  23.506  21.049  1.00  0.00     0.165 HD
ATOM     18  O   UNL A   1      33.132  25.737  20.447  1.00  0.00    -0.249 OA
ATOM     19  H   UNL A   1      31.880  26.913  22.091  1.00  0.00     0.165 HD
BRANCH  15  20
ATOM     20  C   UNL A   1      32.835  23.172  22.969  1.00  0.00     0.185 C 
BRANCH  20  21
ATOM     21  C   UNL A   1      34.096  23.229  23.781  1.00  0.00     0.112 A 
ATOM     22  C   UNL A   1      37.319  21.884  24.564  1.00  0.00     0.067 C 
ATOM     23  C   UNL A   1      36.113  22.730  24.541  1.00  0.00     0.049 A 
ATOM     24  C   UNL A   1      35.952  23.951  25.161  1.00  0.00     0.090 A 
ATOM     25  N   UNL A   1      35.036  22.304  23.787  1.00  0.00    -0.245 NA
ATOM     26  S   UNL A   1      34.414  24.595  24.780  1.00  0.00    -0.125 S 
ENDBRANCH  20  21
ENDBRANCH  15  20
ENDBRANCH  13  14
ENDBRANCH   8  13
ENDBRANCH   4   7
ENDBRANCH   2   3
ENDBRANCH   1   2
BRANCH   1  27
ATOM     27  C   UNL A   1      34.578  32.244  29.177  1.00  0.00     0.002 C 
BRANCH  27  28
ATOM     28  C   UNL A   1      34.762  33.767  29.269  1.00  0.00     0.002 C 
BRANCH  28  29
ATOM     29  C   UNL A   1      33.512  34.632  29.052  1.00  0.00     0.021 C 
BRANCH  29  30
ATOM     30  C   UNL A   1      33.555  36.041  29.649  1.00  0.00     0.116 C 
BRANCH  30  31
ATOM     31  N   UNL A   1      32.528  36.265  30.660  1.00  0.00    -0.352 N 
ATOM     32  C   UNL A   1      32.464  35.839  31.964  1.00  0.00     0.251 C 
ATOM     33  H   UNL A   1      31.761  36.805  30.361  1.00  0.00     0.163 HD
ATOM     34  O   UNL A   1      31.449  36.028  32.634  1.00  0.00    -0.269 OA
BRANCH  32  35
ATOM     35  C   UNL A   1      33.621  35.160  32.578  1.00  0.00     0.039 A 
ATOM     36  C   UNL A   1      33.514  33.842  33.018  1.00  0.00     0.014 A 
ATOM     37  C   UNL A   1      34.824  35.840  32.723  1.00  0.00     0.014 A 
ATOM     38  C   UNL A   1      34.650  33.178  33.504  1.00  0.00     0.010 A 
ATOM     39  C   UNL A   1      35.970  35.144  33.126  1.00  0.00     0.010 A 
ATOM     40  C   UNL A   1      35.920  33.789  33.487  1.00  0.00    -0.014 A 
BRANCH  40  41
ATOM     41  C   UNL A   1      37.183  33.013  33.750  1.00  0.00     0.031 A 
ATOM     42  C   UNL A   1      38.006  33.205  35.009  1.00  0.00     0.074 A 
ATOM     43  C   UNL A   1      37.680  32.192  32.796  1.00  0.00     0.049 A 
ATOM     44  N   UNL A   1      39.172  32.684  35.324  1.00  0.00    -0.248 NA
ATOM     45  C   UNL A   1      37.490  34.142  36.018  1.00  0.00     0.031 C 
ATOM     46  C   UNL A   1      37.097  31.971  31.470  1.00  0.00     0.029 A 
ATOM     47  N   UNL A   1      38.798  31.385  32.792  1.00  0.00    -0.354 N 
ATOM     48  C   UNL A   1      39.545  33.272  36.529  1.00  0.00     0.074 A 
ATOM     49  C   UNL A   1      38.514  34.234  36.855  1.00  0.00     0.031 C 
ATOM     50  C   UNL A   1      37.806  31.036  30.820  1.00  0.00     0.029 A 
ATOM     51  C   UNL A   1      38.938  30.635  31.646  1.00  0.00     0.049 A 
ATOM     52  H   UNL A   1      39.437  31.348  33.541  1.00  0.00     0.167 HD
ATOM     53  C   UNL A   1      40.619  33.019  37.318  1.00  0.00     0.031 A 
ATOM     54  C   UNL A   1      39.865  29.726  31.283  1.00  0.00     0.031 A 
ATOM     55  C   UNL A   1      41.617  32.014  37.055  1.00  0.00     0.049 A 
ATOM     56  C   UNL A   1      41.011  29.410  32.203  1.00  0.00     0.074 A 
ATOM     57  C   UNL A   1      42.667  31.613  37.865  1.00  0.00     0.029 A 
ATOM     58  N   UNL A   1      41.684  31.243  35.906  1.00  0.00    -0.354 N 
ATOM     59  N   UNL A   1      41.285  29.908  33.383  1.00  0.00    -0.248 NA
ATOM     60  C   UNL A   1      41.977  28.401  31.739  1.00  0.00     0.031 C 
ATOM     61  C   UNL A   1      43.398  30.631  37.187  1.00  0.00     0.029 A 
ATOM     62  C   UNL A   1      42.769  30.382  35.979  1.00  0.00     0.049 A 
ATOM     63  H   UNL A   1      41.055  31.298  35.151  1.00  0.00     0.167 HD
ATOM     64  C   UNL A   1      42.436  29.256  33.809  1.00  0.00     0.074 A 
ATOM     65  C   UNL A   1      42.797  28.311  32.775  1.00  0.00     0.031 C 
ATOM     66  C   UNL A   1      43.129  29.433  34.959  1.00  0.00     0.031 A 
BRANCH  53  67
ATOM     67  C   UNL A   1      40.767  33.832  38.580  1.00  0.00    -0.014 A 
ATOM     68  C   UNL A   1      41.467  35.049  38.585  1.00  0.00     0.009 A 
ATOM     69  C   UNL A   1      40.149  33.406  39.767  1.00  0.00     0.009 A 
ATOM     70  C   UNL A   1      41.594  35.793  39.760  1.00  0.00     0.001 A 
ATOM     71  C   UNL A   1      40.244  34.171  40.933  1.00  0.00     0.001 A 
ATOM     72  C   UNL A   1      40.977  35.355  40.931  1.00  0.00     0.000 A 
ENDBRANCH  53  67
BRANCH  54  73
ATOM     73  C   UNL A   1      39.740  29.012  29.982  1.00  0.00    -0.014 A 
ATOM     74  C   UNL A   1      39.123  27.752  29.926  1.00  0.00     0.009 A 
ATOM     75  C   UNL A   1      40.246  29.572  28.800  1.00  0.00     0.009 A 
ATOM     76  C   UNL A   1      39.047  27.052  28.719  1.00  0.00     0.001 A 
ATOM     77  C   UNL A   1      40.137  28.886  27.588  1.00  0.00     0.001 A 
ATOM     78  C   UNL A   1      39.549  27.622  27.551  1.00  0.00     0.000 A 
ENDBRANCH  54  73
BRANCH  66  79
ATOM     79  C   UNL A   1      44.336  28.565  35.191  1.00  0.00    -0.014 A 
ATOM     80  C   UNL A   1      45.624  28.994  34.833  1.00  0.00     0.009 A 
ATOM     81  C   UNL A   1      44.187  27.323  35.828  1.00  0.00     0.009 A 
ATOM     82  C   UNL A   1      46.734  28.183  35.087  1.00  0.00     0.001 A 
ATOM     83  C   UNL A   1      45.300  26.529  36.106  1.00  0.00     0.001 A 
ATOM     84  C   UNL A   1      46.572  26.957  35.729  1.00  0.00     0.000 A 
ENDBRANCH  66  79
ENDBRANCH  40  41
ENDBRANCH  32  35
ENDBRANCH  30  31
ENDBRANCH  29  30
ENDBRANCH  28  29
ENDBRANCH  27  28
ENDBRANCH   1  27
TORSDOF 17
ENDMDL
