MODEL 1
REMARK VINA RESULT:     -11.5      0.000      0.000
REMARK SMILES O=C(NCCCCCCNC(=O)c1cccc(S(=O)(=O)NC[C@@H]2COc3ccccc3O2)c1)c1ccc(-c2c3nc(c(-c4ccccc4)c4ccc([nH]4)c(-c4ccccc4)c4nc(c(-c5ccccc5)c5ccc2[nH]5)C=C4)C=C3)cc1
REMARK SMILES IDX 7 1 6 2 5 3 4 4 3 5 1 6 2 7 34 9 35 10 81 11 36 12 80 13
REMARK SMILES IDX 37 14 38 15 39 16 74 17 40 18 79 19 73 20 75 21 41 22 78 23
REMARK SMILES IDX 72 24 71 25 42 27 64 28 49 29 63 30 50 31 53 32 62 33 76 34
REMARK SMILES IDX 51 35 52 36 61 38 77 39 54 40 43 41 44 42 48 43 45 44 47 45
REMARK SMILES IDX 46 46 65 47 66 48 70 49 67 50 69 51 68 52 55 53 56 54 60 55
REMARK SMILES IDX 57 56 59 57 58 58 8 59 9 60 10 61 11 62 12 64 13 65 14 66
REMARK SMILES IDX 33 67 15 68 17 69 16 70 18 71 19 72 20 73 21 74 22 76 23 77
REMARK SMILES IDX 24 78 32 79 25 80 31 81 26 82 30 83 27 84 29 85 28 86
REMARK H PARENT 3 8 75 26 53 37 10 63 21 75
REMARK Flexibility Score: inf
ROOT
ATOM      1  C   UNL A   1      34.786  22.673  25.857  1.00  0.00     0.002 C 
ENDROOT
BRANCH   1   2
ATOM      2  C   UNL A   1      35.032  23.115  24.412  1.00  0.00     0.002 C 
BRANCH   2   3
ATOM      3  C   UNL A   1      36.478  23.467  24.058  1.00  0.00     0.021 C 
BRANCH   3   4
ATOM      4  C   UNL A   1      37.359  23.885  25.232  1.00  0.00     0.116 C 
BRANCH   4   5
ATOM      5  N   UNL A   1      38.358  22.886  25.566  1.00  0.00    -0.352 N 
ATOM      6  O   UNL A   1      40.329  22.098  26.322  1.00  0.00    -0.269 OA
ATOM      7  C   UNL A   1      39.537  23.032  26.253  1.00  0.00     0.251 C 
ATOM      8  H   UNL A   1      38.162  21.973  25.254  1.00  0.00     0.163 HD
BRANCH   7   9
ATOM      9  C   UNL A   1      39.870  24.324  26.889  1.00  0.00     0.039 A 
ATOM     10  C   UNL A   1      40.562  25.321  26.194  1.00  0.00     0.014 A 
ATOM     11  C   UNL A   1      39.445  24.549  28.202  1.00  0.00     0.014 A 
ATOM     12  C   UNL A   1      40.915  26.503  26.843  1.00  0.00     0.010 A 
ATOM     13  C   UNL A   1      39.750  25.756  28.833  1.00  0.00     0.010 A 
ATOM     14  C   UNL A   1      40.505  26.733  28.165  1.00  0.00    -0.014 A 
BRANCH  14  15
ATOM     15  C   UNL A   1      40.809  28.020  28.835  1.00  0.00     0.031 A 
ATOM     16  C   UNL A   1      42.129  28.241  29.514  1.00  0.00     0.074 A 
ATOM     17  C   UNL A   1      39.863  28.976  28.874  1.00  0.00     0.049 A 
ATOM     18  N   UNL A   1      42.530  29.265  30.224  1.00  0.00    -0.248 NA
ATOM     19  C   UNL A   1      43.126  27.167  29.387  1.00  0.00     0.031 C 
ATOM     20  C   UNL A   1      38.538  28.877  28.259  1.00  0.00     0.029 A 
ATOM     21  N   UNL A   1      39.864  30.212  29.470  1.00  0.00    -0.354 N 
ATOM     22  C   UNL A   1      43.813  28.950  30.650  1.00  0.00     0.074 A 
ATOM     23  C   UNL A   1      44.119  27.634  30.131  1.00  0.00     0.031 C 
ATOM     24  C   UNL A   1      37.855  30.005  28.508  1.00  0.00     0.029 A 
ATOM     25  C   UNL A   1      38.673  30.880  29.341  1.00  0.00     0.049 A 
ATOM     26  H   UNL A   1      40.645  30.582  29.943  1.00  0.00     0.167 HD
ATOM     27  C   UNL A   1      44.658  29.691  31.408  1.00  0.00     0.031 A 
ATOM     28  C   UNL A   1      38.265  32.051  29.863  1.00  0.00     0.031 A 
ATOM     29  C   UNL A   1      44.349  30.998  31.926  1.00  0.00     0.049 A 
ATOM     30  C   UNL A   1      39.203  32.840  30.726  1.00  0.00     0.074 A 
ATOM     31  C   UNL A   1      45.158  31.847  32.662  1.00  0.00     0.029 A 
ATOM     32  N   UNL A   1      43.130  31.640  31.772  1.00  0.00    -0.354 N 
ATOM     33  N   UNL A   1      40.431  32.550  31.083  1.00  0.00    -0.248 NA
ATOM     34  C   UNL A   1      38.704  34.115  31.256  1.00  0.00     0.031 C 
ATOM     35  C   UNL A   1      44.411  32.983  32.994  1.00  0.00     0.029 A 
ATOM     36  C   UNL A   1      43.154  32.861  32.423  1.00  0.00     0.049 A 
ATOM     37  H   UNL A   1      42.361  31.281  31.273  1.00  0.00     0.167 HD
ATOM     38  C   UNL A   1      40.857  33.613  31.866  1.00  0.00     0.074 A 
ATOM     39  C   UNL A   1      39.761  34.558  31.924  1.00  0.00     0.031 C 
ATOM     40  C   UNL A   1      42.054  33.790  32.476  1.00  0.00     0.031 A 
BRANCH  27  41
ATOM     41  C   UNL A   1      45.987  29.082  31.753  1.00  0.00    -0.014 A 
ATOM     42  C   UNL A   1      47.112  29.270  30.935  1.00  0.00     0.009 A 
ATOM     43  C   UNL A   1      46.120  28.327  32.930  1.00  0.00     0.009 A 
ATOM     44  C   UNL A   1      48.335  28.681  31.269  1.00  0.00     0.001 A 
ATOM     45  C   UNL A   1      47.349  27.759  33.273  1.00  0.00     0.001 A 
ATOM     46  C   UNL A   1      48.452  27.929  32.438  1.00  0.00     0.000 A 
ENDBRANCH  27  41
BRANCH  28  47
ATOM     47  C   UNL A   1      36.886  32.523  29.586  1.00  0.00    -0.014 A 
ATOM     48  C   UNL A   1      35.846  32.259  30.490  1.00  0.00     0.009 A 
ATOM     49  C   UNL A   1      36.618  33.294  28.444  1.00  0.00     0.009 A 
ATOM     50  C   UNL A   1      34.564  32.757  30.250  1.00  0.00     0.001 A 
ATOM     51  C   UNL A   1      35.341  33.809  28.219  1.00  0.00     0.001 A 
ATOM     52  C   UNL A   1      34.314  33.537  29.121  1.00  0.00     0.000 A 
ENDBRANCH  28  47
BRANCH  40  53
ATOM     53  C   UNL A   1      42.254  35.066  33.240  1.00  0.00    -0.014 A 
ATOM     54  C   UNL A   1      41.706  35.240  34.519  1.00  0.00     0.009 A 
ATOM     55  C   UNL A   1      43.052  36.083  32.693  1.00  0.00     0.009 A 
ATOM     56  C   UNL A   1      41.941  36.418  35.230  1.00  0.00     0.001 A 
ATOM     57  C   UNL A   1      43.302  37.250  33.416  1.00  0.00     0.001 A 
ATOM     58  C   UNL A   1      42.742  37.419  34.681  1.00  0.00     0.000 A 
ENDBRANCH  40  53
ENDBRANCH  14  15
ENDBRANCH   7   9
ENDBRANCH   4   5
ENDBRANCH   3   4
ENDBRANCH   2   3
ENDBRANCH   1   2
BRANCH   1  59
ATOM     59  C   UNL A   1      35.131  21.216  26.185  1.00  0.00     0.021 C 
BRANCH  59  60
ATOM     60  C   UNL A   1      35.262  20.285  24.983  1.00  0.00     0.116 C 
BRANCH  60  61
ATOM     61  N   UNL A   1      34.252  19.244  24.998  1.00  0.00    -0.352 N 
ATOM     62  C   UNL A   1      32.885  19.337  25.002  1.00  0.00     0.251 C 
ATOM     63  H   UNL A   1      34.605  18.324  25.009  1.00  0.00     0.163 HD
ATOM     64  O   UNL A   1      32.217  18.336  25.249  1.00  0.00    -0.269 OA
BRANCH  62  65
ATOM     65  C   UNL A   1      32.188  20.595  24.643  1.00  0.00     0.041 A 
ATOM     66  C   UNL A   1      32.276  21.076  23.334  1.00  0.00     0.014 A 
ATOM     67  C   UNL A   1      31.609  21.394  25.627  1.00  0.00     0.035 A 
ATOM     68  C   UNL A   1      31.775  22.344  23.015  1.00  0.00     0.002 A 
ATOM     69  C   UNL A   1      31.173  22.682  25.324  1.00  0.00     0.083 A 
ATOM     70  C   UNL A   1      31.237  23.159  24.015  1.00  0.00     0.022 A 
BRANCH  69  71
ATOM     71  S   UNL A   1      30.606  23.755  26.620  1.00  0.00     0.240 S 
ATOM     72  O   UNL A   1      29.546  23.081  27.331  1.00  0.00    -0.207 OA
ATOM     73  O   UNL A   1      31.786  24.269  27.275  1.00  0.00    -0.207 OA
BRANCH  71  74
ATOM     74  N   UNL A   1      29.944  25.078  25.787  1.00  0.00    -0.207 NA
ATOM     75  H   UNL A   1      28.940  25.064  25.962  1.00  0.00     0.141 HD
BRANCH  74  76
ATOM     76  C   UNL A   1      30.413  26.462  26.090  1.00  0.00     0.147 C 
BRANCH  76  77
ATOM     77  C   UNL A   1      31.219  27.161  24.976  1.00  0.00     0.226 C 
ATOM     78  C   UNL A   1      32.658  26.658  24.815  1.00  0.00     0.276 C 
ATOM     79  O   UNL A   1      31.213  28.583  25.222  1.00  0.00    -0.482 OA
ATOM     80  O   UNL A   1      33.438  26.896  25.987  1.00  0.00    -0.486 OA
ATOM     81  C   UNL A   1      32.280  29.028  25.956  1.00  0.00     0.161 A 
ATOM     82  C   UNL A   1      33.353  28.217  26.334  1.00  0.00     0.161 A 
ATOM     83  C   UNL A   1      32.272  30.373  26.314  1.00  0.00     0.050 A 
ATOM     84  C   UNL A   1      34.399  28.736  27.093  1.00  0.00     0.050 A 
ATOM     85  C   UNL A   1      33.329  30.903  27.056  1.00  0.00     0.004 A 
ATOM     86  C   UNL A   1      34.391  30.084  27.446  1.00  0.00     0.004 A 
ENDBRANCH  76  77
ENDBRANCH  74  76
ENDBRANCH  71  74
ENDBRANCH  69  71
ENDBRANCH  62  65
ENDBRANCH  60  61
ENDBRANCH  59  60
ENDBRANCH   1  59
TORSDOF 17
ENDMDL
MODEL 2
REMARK VINA RESULT:     -11.1      2.597      7.891
REMARK SMILES O=C(NCCCCCCNC(=O)c1cccc(S(=O)(=O)NC[C@@H]2COc3ccccc3O2)c1)c1ccc(-c2c3nc(c(-c4ccccc4)c4ccc([nH]4)c(-c4ccccc4)c4nc(c(-c5ccccc5)c5ccc2[nH]5)C=C4)C=C3)cc1
REMARK SMILES IDX 7 1 6 2 5 3 4 4 3 5 1 6 2 7 34 9 35 10 81 11 36 12 80 13
REMARK SMILES IDX 37 14 38 15 39 16 74 17 40 18 79 19 73 20 75 21 41 22 78 23
REMARK SMILES IDX 72 24 71 25 42 27 64 28 49 29 63 30 50 31 53 32 62 33 76 34
REMARK SMILES IDX 51 35 52 36 61 38 77 39 54 40 43 41 44 42 48 43 45 44 47 45
REMARK SMILES IDX 46 46 65 47 66 48 70 49 67 50 69 51 68 52 55 53 56 54 60 55
REMARK SMILES IDX 57 56 59 57 58 58 8 59 9 60 10 61 11 62 12 64 13 65 14 66
REMARK SMILES IDX 33 67 15 68 17 69 16 70 18 71 19 72 20 73 21 74 22 76 23 77
REMARK SMILES IDX 24 78 32 79 25 80 31 81 26 82 30 83 27 84 29 85 28 86
REMARK H PARENT 3 8 75 26 53 37 10 63 21 75
REMARK Flexibility Score: inf
ROOT
ATOM      1  C   UNL A   1      31.645  29.383  25.395  1.00  0.00     0.002 C 
ENDROOT
BRANCH   1   2
ATOM      2  C   UNL A   1      31.611  28.394  26.564  1.00  0.00     0.002 C 
BRANCH   2   3
ATOM      3  C   UNL A   1      32.883  28.314  27.409  1.00  0.00     0.021 C 
BRANCH   3   4
ATOM      4  C   UNL A   1      33.938  29.374  27.110  1.00  0.00     0.116 C 
BRANCH   4   5
ATOM      5  N   UNL A   1      33.804  30.551  27.949  1.00  0.00    -0.352 N 
ATOM      6  O   UNL A   1      34.373  32.032  29.549  1.00  0.00    -0.269 OA
ATOM      7  C   UNL A   1      34.711  31.111  28.814  1.00  0.00     0.251 C 
ATOM      8  H   UNL A   1      32.937  31.014  27.890  1.00  0.00     0.163 HD
BRANCH   7   9
ATOM      9  C   UNL A   1      36.093  30.587  28.882  1.00  0.00     0.039 A 
ATOM     10  C   UNL A   1      36.923  30.576  27.756  1.00  0.00     0.014 A 
ATOM     11  C   UNL A   1      36.573  30.133  30.114  1.00  0.00     0.014 A 
ATOM     12  C   UNL A   1      38.198  30.019  27.839  1.00  0.00     0.010 A 
ATOM     13  C   UNL A   1      37.870  29.628  30.209  1.00  0.00     0.010 A 
ATOM     14  C   UNL A   1      38.685  29.548  29.068  1.00  0.00    -0.014 A 
BRANCH  14  15
ATOM     15  C   UNL A   1      40.068  29.027  29.181  1.00  0.00     0.031 A 
ATOM     16  C   UNL A   1      41.203  29.934  29.555  1.00  0.00     0.074 A 
ATOM     17  C   UNL A   1      40.305  27.734  28.894  1.00  0.00     0.049 A 
ATOM     18  N   UNL A   1      42.485  29.671  29.612  1.00  0.00    -0.248 NA
ATOM     19  C   UNL A   1      40.856  31.322  29.899  1.00  0.00     0.031 C 
ATOM     20  C   UNL A   1      39.286  26.754  28.511  1.00  0.00     0.029 A 
ATOM     21  N   UNL A   1      41.479  27.026  28.862  1.00  0.00    -0.354 N 
ATOM     22  C   UNL A   1      43.099  30.862  29.973  1.00  0.00     0.074 A 
ATOM     23  C   UNL A   1      42.052  31.854  30.107  1.00  0.00     0.031 C 
ATOM     24  C   UNL A   1      39.879  25.573  28.284  1.00  0.00     0.029 A 
ATOM     25  C   UNL A   1      41.320  25.725  28.455  1.00  0.00     0.049 A 
ATOM     26  H   UNL A   1      42.351  27.414  29.108  1.00  0.00     0.167 HD
ATOM     27  C   UNL A   1      44.417  31.108  30.171  1.00  0.00     0.031 A 
ATOM     28  C   UNL A   1      42.232  24.767  28.210  1.00  0.00     0.031 A 
ATOM     29  C   UNL A   1      45.456  30.121  30.032  1.00  0.00     0.049 A 
ATOM     30  C   UNL A   1      43.688  25.068  28.403  1.00  0.00     0.074 A 
ATOM     31  C   UNL A   1      46.814  30.261  30.260  1.00  0.00     0.029 A 
ATOM     32  N   UNL A   1      45.253  28.813  29.618  1.00  0.00    -0.354 N 
ATOM     33  N   UNL A   1      44.251  26.187  28.789  1.00  0.00    -0.248 NA
ATOM     34  C   UNL A   1      44.633  23.977  28.130  1.00  0.00     0.031 C 
ATOM     35  C   UNL A   1      47.439  29.051  29.937  1.00  0.00     0.029 A 
ATOM     36  C   UNL A   1      46.462  28.144  29.556  1.00  0.00     0.049 A 
ATOM     37  H   UNL A   1      44.377  28.419  29.401  1.00  0.00     0.167 HD
ATOM     38  C   UNL A   1      45.614  25.932  28.821  1.00  0.00     0.074 A 
ATOM     39  C   UNL A   1      45.793  24.550  28.425  1.00  0.00     0.031 C 
ATOM     40  C   UNL A   1      46.625  26.770  29.156  1.00  0.00     0.031 A 
BRANCH  27  41
ATOM     41  C   UNL A   1      44.811  32.514  30.522  1.00  0.00    -0.014 A 
ATOM     42  C   UNL A   1      44.913  32.932  31.858  1.00  0.00     0.009 A 
ATOM     43  C   UNL A   1      45.107  33.429  29.499  1.00  0.00     0.009 A 
ATOM     44  C   UNL A   1      45.267  34.250  32.161  1.00  0.00     0.001 A 
ATOM     45  C   UNL A   1      45.483  34.738  29.805  1.00  0.00     0.001 A 
ATOM     46  C   UNL A   1      45.553  35.150  31.135  1.00  0.00     0.000 A 
ENDBRANCH  27  41
BRANCH  28  47
ATOM     47  C   UNL A   1      41.773  23.439  27.733  1.00  0.00    -0.014 A 
ATOM     48  C   UNL A   1      41.269  23.282  26.434  1.00  0.00     0.009 A 
ATOM     49  C   UNL A   1      41.895  22.310  28.559  1.00  0.00     0.009 A 
ATOM     50  C   UNL A   1      40.894  22.018  25.974  1.00  0.00     0.001 A 
ATOM     51  C   UNL A   1      41.541  21.045  28.088  1.00  0.00     0.001 A 
ATOM     52  C   UNL A   1      41.037  20.901  26.797  1.00  0.00     0.000 A 
ENDBRANCH  28  47
BRANCH  40  53
ATOM     53  C   UNL A   1      48.017  26.209  29.135  1.00  0.00    -0.014 A 
ATOM     54  C   UNL A   1      48.624  25.731  30.306  1.00  0.00     0.009 A 
ATOM     55  C   UNL A   1      48.705  26.105  27.916  1.00  0.00     0.009 A 
ATOM     56  C   UNL A   1      49.902  25.172  30.258  1.00  0.00     0.001 A 
ATOM     57  C   UNL A   1      49.974  25.527  27.869  1.00  0.00     0.001 A 
ATOM     58  C   UNL A   1      50.574  25.066  29.040  1.00  0.00     0.000 A 
ENDBRANCH  40  53
ENDBRANCH  14  15
ENDBRANCH   7   9
ENDBRANCH   4   5
ENDBRANCH   3   4
ENDBRANCH   2   3
ENDBRANCH   1   2
BRANCH   1  59
ATOM     59  C   UNL A   1      30.962  28.923  24.103  1.00  0.00     0.021 C 
BRANCH  59  60
ATOM     60  C   UNL A   1      31.886  28.733  22.903  1.00  0.00     0.116 C 
BRANCH  60  61
ATOM     61  N   UNL A   1      31.620  27.483  22.215  1.00  0.00    -0.352 N 
ATOM     62  C   UNL A   1      32.012  26.205  22.517  1.00  0.00     0.251 C 
ATOM     63  H   UNL A   1      31.073  27.567  21.400  1.00  0.00     0.163 HD
ATOM     64  O   UNL A   1      31.872  25.321  21.676  1.00  0.00    -0.269 OA
BRANCH  62  65
ATOM     65  C   UNL A   1      32.530  25.846  23.859  1.00  0.00     0.041 A 
ATOM     66  C   UNL A   1      33.856  26.145  24.183  1.00  0.00     0.014 A 
ATOM     67  C   UNL A   1      31.776  25.057  24.725  1.00  0.00     0.035 A 
ATOM     68  C   UNL A   1      34.416  25.664  25.372  1.00  0.00     0.002 A 
ATOM     69  C   UNL A   1      32.354  24.520  25.874  1.00  0.00     0.083 A 
ATOM     70  C   UNL A   1      33.670  24.834  26.214  1.00  0.00     0.022 A 
BRANCH  69  71
ATOM     71  S   UNL A   1      31.442  23.370  26.872  1.00  0.00     0.240 S 
ATOM     72  O   UNL A   1      32.280  22.970  27.978  1.00  0.00    -0.207 OA
ATOM     73  O   UNL A   1      30.125  23.934  27.051  1.00  0.00    -0.207 OA
BRANCH  71  74
ATOM     74  N   UNL A   1      31.222  22.034  25.848  1.00  0.00    -0.207 NA
ATOM     75  H   UNL A   1      30.250  21.742  25.950  1.00  0.00     0.141 HD
BRANCH  74  76
ATOM     76  C   UNL A   1      31.480  22.163  24.385  1.00  0.00     0.147 C 
BRANCH  76  77
ATOM     77  C   UNL A   1      32.475  21.150  23.782  1.00  0.00     0.226 C 
ATOM     78  C   UNL A   1      33.052  20.146  24.785  1.00  0.00     0.276 C 
ATOM     79  O   UNL A   1      33.539  21.875  23.132  1.00  0.00    -0.482 OA
ATOM     80  O   UNL A   1      33.817  20.792  25.803  1.00  0.00    -0.486 OA
ATOM     81  C   UNL A   1      34.624  22.112  23.935  1.00  0.00     0.161 A 
ATOM     82  C   UNL A   1      34.761  21.597  25.226  1.00  0.00     0.161 A 
ATOM     83  C   UNL A   1      35.637  22.899  23.395  1.00  0.00     0.050 A 
ATOM     84  C   UNL A   1      35.887  21.891  25.990  1.00  0.00     0.050 A 
ATOM     85  C   UNL A   1      36.779  23.178  24.149  1.00  0.00     0.004 A 
ATOM     86  C   UNL A   1      36.903  22.676  25.446  1.00  0.00     0.004 A 
ENDBRANCH  76  77
ENDBRANCH  74  76
ENDBRANCH  71  74
ENDBRANCH  69  71
ENDBRANCH  62  65
ENDBRANCH  60  61
ENDBRANCH  59  60
ENDBRANCH   1  59
TORSDOF 17
ENDMDL
MODEL 3
REMARK VINA RESULT:     -10.9      3.274      8.689
REMARK SMILES O=C(NCCCCCCNC(=O)c1cccc(S(=O)(=O)NC[C@@H]2COc3ccccc3O2)c1)c1ccc(-c2c3nc(c(-c4ccccc4)c4ccc([nH]4)c(-c4ccccc4)c4nc(c(-c5ccccc5)c5ccc2[nH]5)C=C4)C=C3)cc1
REMARK SMILES IDX 7 1 6 2 5 3 4 4 3 5 1 6 2 7 34 9 35 10 81 11 36 12 80 13
REMARK SMILES IDX 37 14 38 15 39 16 74 17 40 18 79 19 73 20 75 21 41 22 78 23
REMARK SMILES IDX 72 24 71 25 42 27 64 28 49 29 63 30 50 31 53 32 62 33 76 34
REMARK SMILES IDX 51 35 52 36 61 38 77 39 54 40 43 41 44 42 48 43 45 44 47 45
REMARK SMILES IDX 46 46 65 47 66 48 70 49 67 50 69 51 68 52 55 53 56 54 60 55
REMARK SMILES IDX 57 56 59 57 58 58 8 59 9 60 10 61 11 62 12 64 13 65 14 66
REMARK SMILES IDX 33 67 15 68 17 69 16 70 18 71 19 72 20 73 21 74 22 76 23 77
REMARK SMILES IDX 24 78 32 79 25 80 31 81 26 82 30 83 27 84 29 85 28 86
REMARK H PARENT 3 8 75 26 53 37 10 63 21 75
REMARK Flexibility Score: inf
ROOT
ATOM      1  C   UNL A   1      34.437  32.344  28.876  1.00  0.00     0.002 C 
ENDROOT
BRANCH   1   2
ATOM      2  C   UNL A   1      34.265  33.756  28.310  1.00  0.00     0.002 C 
BRANCH   2   3
ATOM      3  C   UNL A   1      33.063  34.544  28.833  1.00  0.00     0.021 C 
BRANCH   3   4
ATOM      4  C   UNL A   1      33.371  35.941  29.361  1.00  0.00     0.116 C 
BRANCH   4   5
ATOM      5  N   UNL A   1      32.584  36.284  30.532  1.00  0.00    -0.352 N 
ATOM      6  O   UNL A   1      31.882  36.153  32.669  1.00  0.00    -0.269 OA
ATOM      7  C   UNL A   1      32.730  35.866  31.831  1.00  0.00     0.251 C 
ATOM      8  H   UNL A   1      31.838  36.906  30.371  1.00  0.00     0.163 HD
BRANCH   7   9
ATOM      9  C   UNL A   1      33.896  35.045  32.220  1.00  0.00     0.039 A 
ATOM     10  C   UNL A   1      33.771  33.674  32.471  1.00  0.00     0.014 A 
ATOM     11  C   UNL A   1      35.149  35.662  32.298  1.00  0.00     0.014 A 
ATOM     12  C   UNL A   1      34.878  32.942  32.896  1.00  0.00     0.010 A 
ATOM     13  C   UNL A   1      36.268  34.915  32.668  1.00  0.00     0.010 A 
ATOM     14  C   UNL A   1      36.137  33.554  32.991  1.00  0.00    -0.014 A 
BRANCH  14  15
ATOM     15  C   UNL A   1      37.333  32.764  33.366  1.00  0.00     0.031 A 
ATOM     16  C   UNL A   1      38.047  33.017  34.662  1.00  0.00     0.074 A 
ATOM     17  C   UNL A   1      37.807  31.846  32.504  1.00  0.00     0.049 A 
ATOM     18  N   UNL A   1      39.156  32.485  35.109  1.00  0.00    -0.248 NA
ATOM     19  C   UNL A   1      37.440  34.002  35.570  1.00  0.00     0.031 C 
ATOM     20  C   UNL A   1      37.206  31.515  31.210  1.00  0.00     0.029 A 
ATOM     21  N   UNL A   1      38.911  31.036  32.578  1.00  0.00    -0.354 N 
ATOM     22  C   UNL A   1      39.396  33.089  36.336  1.00  0.00     0.074 A 
ATOM     23  C   UNL A   1      38.324  34.036  36.557  1.00  0.00     0.031 C 
ATOM     24  C   UNL A   1      37.948  30.570  30.613  1.00  0.00     0.029 A 
ATOM     25  C   UNL A   1      39.101  30.269  31.456  1.00  0.00     0.049 A 
ATOM     26  H   UNL A   1      39.509  31.008  33.360  1.00  0.00     0.167 HD
ATOM     27  C   UNL A   1      40.418  32.873  37.199  1.00  0.00     0.031 A 
ATOM     28  C   UNL A   1      40.106  29.440  31.122  1.00  0.00     0.031 A 
ATOM     29  C   UNL A   1      41.485  31.933  36.974  1.00  0.00     0.049 A 
ATOM     30  C   UNL A   1      41.245  29.240  32.075  1.00  0.00     0.074 A 
ATOM     31  C   UNL A   1      42.539  31.609  37.812  1.00  0.00     0.029 A 
ATOM     32  N   UNL A   1      41.640  31.174  35.825  1.00  0.00    -0.354 N 
ATOM     33  N   UNL A   1      41.435  29.784  33.253  1.00  0.00    -0.248 NA
ATOM     34  C   UNL A   1      42.306  28.315  31.658  1.00  0.00     0.031 C 
ATOM     35  C   UNL A   1      43.358  30.689  37.148  1.00  0.00     0.029 A 
ATOM     36  C   UNL A   1      42.786  30.405  35.917  1.00  0.00     0.049 A 
ATOM     37  H   UNL A   1      41.024  31.182  35.056  1.00  0.00     0.167 HD
ATOM     38  C   UNL A   1      42.627  29.255  33.725  1.00  0.00     0.074 A 
ATOM     39  C   UNL A   1      43.112  28.341  32.711  1.00  0.00     0.031 C 
ATOM     40  C   UNL A   1      43.259  29.503  34.898  1.00  0.00     0.031 A 
BRANCH  27  41
ATOM     41  C   UNL A   1      40.450  33.702  38.451  1.00  0.00    -0.014 A 
ATOM     42  C   UNL A   1      39.824  33.269  39.631  1.00  0.00     0.009 A 
ATOM     43  C   UNL A   1      41.136  34.927  38.456  1.00  0.00     0.009 A 
ATOM     44  C   UNL A   1      39.854  34.064  40.780  1.00  0.00     0.001 A 
ATOM     45  C   UNL A   1      41.184  35.709  39.612  1.00  0.00     0.001 A 
ATOM     46  C   UNL A   1      40.535  35.281  40.770  1.00  0.00     0.000 A 
ENDBRANCH  27  41
BRANCH  28  47
ATOM     47  C   UNL A   1      40.071  28.759  29.804  1.00  0.00    -0.014 A 
ATOM     48  C   UNL A   1      39.486  27.492  29.670  1.00  0.00     0.009 A 
ATOM     49  C   UNL A   1      40.572  29.404  28.661  1.00  0.00     0.009 A 
ATOM     50  C   UNL A   1      39.405  26.883  28.415  1.00  0.00     0.001 A 
ATOM     51  C   UNL A   1      40.469  28.803  27.406  1.00  0.00     0.001 A 
ATOM     52  C   UNL A   1      39.889  27.542  27.285  1.00  0.00     0.000 A 
ENDBRANCH  28  47
BRANCH  40  53
ATOM     53  C   UNL A   1      44.532  28.754  35.165  1.00  0.00    -0.014 A 
ATOM     54  C   UNL A   1      44.513  27.465  35.718  1.00  0.00     0.009 A 
ATOM     55  C   UNL A   1      45.761  29.325  34.800  1.00  0.00     0.009 A 
ATOM     56  C   UNL A   1      45.706  26.768  35.917  1.00  0.00     0.001 A 
ATOM     57  C   UNL A   1      46.950  28.617  34.981  1.00  0.00     0.001 A 
ATOM     58  C   UNL A   1      46.922  27.341  35.543  1.00  0.00     0.000 A 
ENDBRANCH  40  53
ENDBRANCH  14  15
ENDBRANCH   7   9
ENDBRANCH   4   5
ENDBRANCH   3   4
ENDBRANCH   2   3
ENDBRANCH   1   2
BRANCH   1  59
ATOM     59  C   UNL A   1      35.238  31.364  28.012  1.00  0.00     0.021 C 
BRANCH  59  60
ATOM     60  C   UNL A   1      34.500  30.094  27.601  1.00  0.00     0.116 C 
BRANCH  60  61
ATOM     61  N   UNL A   1      33.194  30.389  27.043  1.00  0.00    -0.352 N 
ATOM     62  C   UNL A   1      32.451  29.703  26.118  1.00  0.00     0.251 C 
ATOM     63  H   UNL A   1      32.775  31.213  27.381  1.00  0.00     0.163 HD
ATOM     64  O   UNL A   1      31.473  30.247  25.612  1.00  0.00    -0.269 OA
BRANCH  62  65
ATOM     65  C   UNL A   1      32.752  28.295  25.765  1.00  0.00     0.041 A 
ATOM     66  C   UNL A   1      33.682  28.026  24.757  1.00  0.00     0.014 A 
ATOM     67  C   UNL A   1      31.992  27.252  26.290  1.00  0.00     0.035 A 
ATOM     68  C   UNL A   1      33.854  26.718  24.290  1.00  0.00     0.002 A 
ATOM     69  C   UNL A   1      32.114  25.962  25.777  1.00  0.00     0.083 A 
ATOM     70  C   UNL A   1      33.057  25.683  24.787  1.00  0.00     0.022 A 
BRANCH  69  71
ATOM     71  S   UNL A   1      31.014  24.681  26.325  1.00  0.00     0.240 S 
ATOM     72  O   UNL A   1      31.608  24.037  27.472  1.00  0.00    -0.207 OA
ATOM     73  O   UNL A   1      29.690  25.257  26.348  1.00  0.00    -0.207 OA
BRANCH  71  74
ATOM     74  N   UNL A   1      31.001  23.580  25.032  1.00  0.00    -0.207 NA
ATOM     75  H   UNL A   1      31.505  24.023  24.264  1.00  0.00     0.141 HD
BRANCH  74  76
ATOM     76  C   UNL A   1      31.588  22.220  25.203  1.00  0.00     0.147 C 
BRANCH  76  77
ATOM     77  C   UNL A   1      32.180  21.575  23.933  1.00  0.00     0.226 C 
ATOM     78  C   UNL A   1      32.777  20.179  24.144  1.00  0.00     0.276 C 
ATOM     79  O   UNL A   1      33.174  22.463  23.381  1.00  0.00    -0.482 OA
ATOM     80  O   UNL A   1      33.882  20.204  25.048  1.00  0.00    -0.486 OA
ATOM     81  C   UNL A   1      34.448  22.220  23.821  1.00  0.00     0.161 A 
ATOM     82  C   UNL A   1      34.795  21.135  24.630  1.00  0.00     0.161 A 
ATOM     83  C   UNL A   1      35.432  23.112  23.404  1.00  0.00     0.050 A 
ATOM     84  C   UNL A   1      36.110  20.957  25.050  1.00  0.00     0.050 A 
ATOM     85  C   UNL A   1      36.756  22.925  23.805  1.00  0.00     0.004 A 
ATOM     86  C   UNL A   1      37.095  21.850  24.628  1.00  0.00     0.004 A 
ENDBRANCH  76  77
ENDBRANCH  74  76
ENDBRANCH  71  74
ENDBRANCH  69  71
ENDBRANCH  62  65
ENDBRANCH  60  61
ENDBRANCH  59  60
ENDBRANCH   1  59
TORSDOF 17
ENDMDL
