MODEL 1
REMARK VINA RESULT:     -11.1      0.000      0.000
REMARK SMILES COCc1cc(C)nc2sc3c(c12)N[C@H](c1ccccc1C(=O)NCCCCCCNC(=O)c1ccc(-c2c4nc(c(-c5ccccc5)c5ccc([nH]5)c(-c5ccccc5)c5nc(c(-c6ccccc6)c6ccc2[nH]6)C=C5)C=C4)cc1)n1c-3nc2ccccc21
REMARK SMILES IDX 27 1 26 2 25 3 24 4 22 5 23 6 21 8 16 9 17 10 18 11 20 12
REMARK SMILES IDX 19 13 15 14 4 15 5 16 13 17 6 18 9 19 12 20 7 21 8 22 10 23
REMARK SMILES IDX 11 24 14 25 83 26 82 28 84 29 90 30 85 31 89 32 86 33 88 34
REMARK SMILES IDX 87 35 3 36 2 37 1 38 28 39 29 40 30 41 31 42 32 43 33 45
REMARK SMILES IDX 34 46 35 47 81 48 36 49 80 50 37 51 38 52 39 53 74 54 40 55
REMARK SMILES IDX 79 56 73 57 75 58 41 59 78 60 72 61 71 62 42 64 64 65 49 66
REMARK SMILES IDX 63 67 50 68 53 69 62 70 76 71 51 72 52 73 61 75 77 76 54 77
REMARK SMILES IDX 43 78 44 79 48 80 45 81 47 82 46 83 65 84 66 85 70 86 67 87
REMARK SMILES IDX 69 88 68 89 55 90 56 91 60 92 57 93 59 94 58 95
REMARK H PARENT 24 7 14 27 31 44 75 63 53 74
REMARK Flexibility Score: inf
ROOT
ATOM      1  C   UNL A   1      44.753  28.380  28.525  1.00  0.00     0.002 C 
ENDROOT
BRANCH   1   2
ATOM      2  C   UNL A   1      44.097  26.981  28.820  1.00  0.00     0.021 C 
BRANCH   2   3
ATOM      3  C   UNL A   1      44.880  25.668  29.007  1.00  0.00     0.116 C 
BRANCH   3   4
ATOM      4  N   UNL A   1      44.040  24.526  29.302  1.00  0.00    -0.352 N 
ATOM      5  C   UNL A   1      42.806  24.071  28.927  1.00  0.00     0.251 C 
ATOM      6  O   UNL A   1      42.516  22.977  29.437  1.00  0.00    -0.269 OA
ATOM      7  H   UNL A   1      44.472  23.914  29.941  1.00  0.00     0.163 HD
BRANCH   5   8
ATOM      8  C   UNL A   1      41.743  24.706  28.046  1.00  0.00     0.046 A 
ATOM      9  C   UNL A   1      41.644  24.946  26.649  1.00  0.00     0.008 A 
ATOM     10  C   UNL A   1      40.397  25.449  26.137  1.00  0.00     0.008 A 
ATOM     11  C   UNL A   1      39.255  25.601  26.912  1.00  0.00     0.000 A 
ATOM     12  C   UNL A   1      40.541  24.887  28.800  1.00  0.00     0.014 A 
ATOM     13  C   UNL A   1      39.322  25.297  28.252  1.00  0.00     0.001 A 
BRANCH   9  14
ATOM     14  C   UNL A   1      42.614  24.671  25.510  1.00  0.00     0.215 C 
ATOM     15  C   UNL A   1      47.365  26.731  24.857  1.00  0.00    -0.008 A 
ATOM     16  C   UNL A   1      48.718  26.493  25.313  1.00  0.00     0.030 A 
ATOM     17  C   UNL A   1      46.347  25.855  25.381  1.00  0.00     0.041 A 
ATOM     18  C   UNL A   1      48.999  25.572  26.321  1.00  0.00     0.039 A 
ATOM     19  C   UNL A   1      46.918  24.846  26.150  1.00  0.00     0.126 A 
ATOM     20  C   UNL A   1      45.008  25.307  25.053  1.00  0.00     0.068 A 
ATOM     21  C   UNL A   1      50.380  25.098  26.659  1.00  0.00     0.067 C 
ATOM     22  N   UNL A   1      48.033  24.852  26.885  1.00  0.00    -0.242 NA
ATOM     23  S   UNL A   1      46.640  23.447  25.235  1.00  0.00    -0.110 S 
ATOM     24  C   UNL A   1      45.146  23.970  24.729  1.00  0.00     0.096 A 
ATOM     25  N   UNL A   1      43.770  25.662  25.536  1.00  0.00    -0.359 N 
ATOM     26  C   UNL A   1      44.137  22.971  24.662  1.00  0.00     0.155 A 
ATOM     27  H   UNL A   1      43.631  26.565  25.902  1.00  0.00     0.163 HD
ATOM     28  N   UNL A   1      42.911  23.255  25.199  1.00  0.00    -0.298 N 
ATOM     29  N   UNL A   1      44.379  21.679  24.639  1.00  0.00    -0.227 NA
ATOM     30  C   UNL A   1      42.314  22.054  25.520  1.00  0.00     0.071 A 
ATOM     31  C   UNL A   1      43.343  21.125  25.328  1.00  0.00     0.089 A 
ATOM     32  C   UNL A   1      41.088  21.664  26.071  1.00  0.00     0.029 A 
ATOM     33  C   UNL A   1      43.263  19.846  25.898  1.00  0.00     0.030 A 
ATOM     34  C   UNL A   1      41.028  20.380  26.642  1.00  0.00     0.002 A 
ATOM     35  C   UNL A   1      42.112  19.504  26.604  1.00  0.00     0.002 A 
BRANCH  15  36
ATOM     36  C   UNL A   1      47.221  27.729  23.729  1.00  0.00     0.196 C 
BRANCH  36  37
ATOM     37  O   UNL A   1      48.474  27.984  23.103  1.00  0.00    -0.380 OA
ATOM     38  C   UNL A   1      48.456  27.831  21.688  1.00  0.00     0.195 C 
ENDBRANCH  36  37
ENDBRANCH  15  36
ENDBRANCH   9  14
ENDBRANCH   5   8
ENDBRANCH   3   4
ENDBRANCH   2   3
ENDBRANCH   1   2
BRANCH   1  39
ATOM     39  C   UNL A   1      45.693  28.739  27.347  1.00  0.00     0.002 C 
BRANCH  39  40
ATOM     40  C   UNL A   1      46.979  29.630  27.479  1.00  0.00     0.021 C 
BRANCH  40  41
ATOM     41  C   UNL A   1      46.928  31.164  27.343  1.00  0.00     0.116 C 
BRANCH  41  42
ATOM     42  N   UNL A   1      46.313  31.771  26.175  1.00  0.00    -0.352 N 
ATOM     43  C   UNL A   1      45.193  32.590  26.101  1.00  0.00     0.251 C 
ATOM     44  H   UNL A   1      46.752  31.576  25.316  1.00  0.00     0.163 HD
ATOM     45  O   UNL A   1      44.909  33.099  25.011  1.00  0.00    -0.269 OA
BRANCH  43  46
ATOM     46  C   UNL A   1      44.278  32.865  27.258  1.00  0.00     0.039 A 
ATOM     47  C   UNL A   1      43.826  34.139  27.601  1.00  0.00     0.014 A 
ATOM     48  C   UNL A   1      43.793  31.778  27.999  1.00  0.00     0.014 A 
ATOM     49  C   UNL A   1      43.039  34.343  28.744  1.00  0.00     0.010 A 
ATOM     50  C   UNL A   1      42.950  31.973  29.106  1.00  0.00     0.010 A 
ATOM     51  C   UNL A   1      42.579  33.264  29.502  1.00  0.00    -0.014 A 
BRANCH  51  52
ATOM     52  C   UNL A   1      41.644  33.523  30.625  1.00  0.00     0.031 A 
ATOM     53  C   UNL A   1      40.210  33.207  30.363  1.00  0.00     0.074 A 
ATOM     54  C   UNL A   1      42.039  33.524  31.918  1.00  0.00     0.049 A 
ATOM     55  N   UNL A   1      39.786  31.979  30.330  1.00  0.00    -0.248 NA
ATOM     56  C   UNL A   1      39.210  34.182  29.933  1.00  0.00     0.031 C 
ATOM     57  C   UNL A   1      43.252  32.853  32.400  1.00  0.00     0.029 A 
ATOM     58  N   UNL A   1      41.362  33.866  33.067  1.00  0.00    -0.354 N 
ATOM     59  C   UNL A   1      38.530  31.989  29.764  1.00  0.00     0.074 A 
ATOM     60  C   UNL A   1      38.192  33.382  29.572  1.00  0.00     0.031 C 
ATOM     61  C   UNL A   1      43.126  32.638  33.726  1.00  0.00     0.029 A 
ATOM     62  C   UNL A   1      41.924  33.304  34.213  1.00  0.00     0.049 A 
ATOM     63  H   UNL A   1      40.566  34.445  33.080  1.00  0.00     0.167 HD
ATOM     64  C   UNL A   1      37.871  30.843  29.451  1.00  0.00     0.031 A 
ATOM     65  C   UNL A   1      41.220  32.930  35.316  1.00  0.00     0.031 A 
ATOM     66  C   UNL A   1      38.565  29.634  29.787  1.00  0.00     0.049 A 
ATOM     67  C   UNL A   1      40.414  31.771  34.777  1.00  0.00     0.074 A 
ATOM     68  C   UNL A   1      39.466  28.800  29.159  1.00  0.00     0.029 A 
ATOM     69  N   UNL A   1      38.530  29.195  31.091  1.00  0.00    -0.354 N 
ATOM     70  N   UNL A   1      40.857  30.563  34.546  1.00  0.00    -0.248 NA
ATOM     71  C   UNL A   1      39.121  32.066  34.158  1.00  0.00     0.031 C 
ATOM     72  C   UNL A   1      40.245  28.220  30.210  1.00  0.00     0.029 A 
ATOM     73  C   UNL A   1      39.804  28.784  31.407  1.00  0.00     0.049 A 
ATOM     74  H   UNL A   1      37.745  29.179  31.684  1.00  0.00     0.167 HD
ATOM     75  C   UNL A   1      40.060  30.062  33.514  1.00  0.00     0.074 A 
ATOM     76  C   UNL A   1      38.978  31.014  33.363  1.00  0.00     0.031 C 
ATOM     77  C   UNL A   1      40.416  29.023  32.701  1.00  0.00     0.031 A 
BRANCH  64  78
ATOM     78  C   UNL A   1      36.530  30.805  28.839  1.00  0.00    -0.014 A 
ATOM     79  C   UNL A   1      35.674  31.913  28.878  1.00  0.00     0.009 A 
ATOM     80  C   UNL A   1      36.162  29.683  28.083  1.00  0.00     0.009 A 
ATOM     81  C   UNL A   1      34.475  31.898  28.159  1.00  0.00     0.001 A 
ATOM     82  C   UNL A   1      34.967  29.671  27.365  1.00  0.00     0.001 A 
ATOM     83  C   UNL A   1      34.126  30.781  27.399  1.00  0.00     0.000 A 
ENDBRANCH  64  78
BRANCH  65  84
ATOM     84  C   UNL A   1      40.633  34.083  36.079  1.00  0.00    -0.014 A 
ATOM     85  C   UNL A   1      40.870  35.442  35.825  1.00  0.00     0.009 A 
ATOM     86  C   UNL A   1      39.779  33.778  37.162  1.00  0.00     0.009 A 
ATOM     87  C   UNL A   1      40.418  36.434  36.708  1.00  0.00     0.001 A 
ATOM     88  C   UNL A   1      39.299  34.768  38.026  1.00  0.00     0.001 A 
ATOM     89  C   UNL A   1      39.651  36.095  37.818  1.00  0.00     0.000 A 
ENDBRANCH  65  84
BRANCH  77  90
ATOM     90  C   UNL A   1      41.662  28.278  33.065  1.00  0.00    -0.014 A 
ATOM     91  C   UNL A   1      42.828  28.401  32.289  1.00  0.00     0.009 A 
ATOM     92  C   UNL A   1      41.660  27.377  34.137  1.00  0.00     0.009 A 
ATOM     93  C   UNL A   1      43.939  27.594  32.537  1.00  0.00     0.001 A 
ATOM     94  C   UNL A   1      42.781  26.585  34.398  1.00  0.00     0.001 A 
ATOM     95  C   UNL A   1      43.912  26.680  33.588  1.00  0.00     0.000 A 
ENDBRANCH  77  90
ENDBRANCH  51  52
ENDBRANCH  43  46
ENDBRANCH  41  42
ENDBRANCH  40  41
ENDBRANCH  39  40
ENDBRANCH   1  39
TORSDOF 16
ENDMDL
MODEL 2
REMARK VINA RESULT:     -11.0      1.942      4.799
REMARK SMILES COCc1cc(C)nc2sc3c(c12)N[C@H](c1ccccc1C(=O)NCCCCCCNC(=O)c1ccc(-c2c4nc(c(-c5ccccc5)c5ccc([nH]5)c(-c5ccccc5)c5nc(c(-c6ccccc6)c6ccc2[nH]6)C=C5)C=C4)cc1)n1c-3nc2ccccc21
REMARK SMILES IDX 27 1 26 2 25 3 24 4 22 5 23 6 21 8 16 9 17 10 18 11 20 12
REMARK SMILES IDX 19 13 15 14 4 15 5 16 13 17 6 18 9 19 12 20 7 21 8 22 10 23
REMARK SMILES IDX 11 24 14 25 83 26 82 28 84 29 90 30 85 31 89 32 86 33 88 34
REMARK SMILES IDX 87 35 3 36 2 37 1 38 28 39 29 40 30 41 31 42 32 43 33 45
REMARK SMILES IDX 34 46 35 47 81 48 36 49 80 50 37 51 38 52 39 53 74 54 40 55
REMARK SMILES IDX 79 56 73 57 75 58 41 59 78 60 72 61 71 62 42 64 64 65 49 66
REMARK SMILES IDX 63 67 50 68 53 69 62 70 76 71 51 72 52 73 61 75 77 76 54 77
REMARK SMILES IDX 43 78 44 79 48 80 45 81 47 82 46 83 65 84 66 85 70 86 67 87
REMARK SMILES IDX 69 88 68 89 55 90 56 91 60 92 57 93 59 94 58 95
REMARK H PARENT 24 7 14 27 31 44 75 63 53 74
REMARK Flexibility Score: inf
ROOT
ATOM      1  C   UNL A   1      44.979  28.573  30.757  1.00  0.00     0.002 C 
ENDROOT
BRANCH   1   2
ATOM      2  C   UNL A   1      44.268  27.205  30.442  1.00  0.00     0.021 C 
BRANCH   2   3
ATOM      3  C   UNL A   1      44.897  26.060  29.626  1.00  0.00     0.116 C 
BRANCH   3   4
ATOM      4  N   UNL A   1      44.100  24.852  29.610  1.00  0.00    -0.352 N 
ATOM      5  C   UNL A   1      42.921  24.440  29.051  1.00  0.00     0.251 C 
ATOM      6  O   UNL A   1      42.653  23.254  29.299  1.00  0.00    -0.269 OA
ATOM      7  H   UNL A   1      44.517  24.135  30.141  1.00  0.00     0.163 HD
BRANCH   5   8
ATOM      8  C   UNL A   1      41.891  25.207  28.237  1.00  0.00     0.046 A 
ATOM      9  C   UNL A   1      41.751  25.490  26.853  1.00  0.00     0.008 A 
ATOM     10  C   UNL A   1      40.543  26.136  26.414  1.00  0.00     0.008 A 
ATOM     11  C   UNL A   1      39.462  26.390  27.249  1.00  0.00     0.000 A 
ATOM     12  C   UNL A   1      40.753  25.496  29.055  1.00  0.00     0.014 A 
ATOM     13  C   UNL A   1      39.560  26.047  28.577  1.00  0.00     0.001 A 
BRANCH   9  14
ATOM     14  C   UNL A   1      42.629  25.142  25.660  1.00  0.00     0.215 C 
ATOM     15  C   UNL A   1      47.422  26.946  24.650  1.00  0.00    -0.008 A 
ATOM     16  C   UNL A   1      48.789  26.650  25.024  1.00  0.00     0.030 A 
ATOM     17  C   UNL A   1      46.400  26.133  25.261  1.00  0.00     0.041 A 
ATOM     18  C   UNL A   1      49.090  25.739  26.035  1.00  0.00     0.039 A 
ATOM     19  C   UNL A   1      46.970  25.115  26.016  1.00  0.00     0.126 A 
ATOM     20  C   UNL A   1      45.017  25.647  25.033  1.00  0.00     0.068 A 
ATOM     21  C   UNL A   1      50.466  25.203  26.295  1.00  0.00     0.067 C 
ATOM     22  N   UNL A   1      48.129  25.081  26.678  1.00  0.00    -0.242 NA
ATOM     23  S   UNL A   1      46.564  23.712  25.157  1.00  0.00    -0.110 S 
ATOM     24  C   UNL A   1      45.068  24.298  24.735  1.00  0.00     0.096 A 
ATOM     25  N   UNL A   1      43.832  26.074  25.586  1.00  0.00    -0.359 N 
ATOM     26  C   UNL A   1      44.009  23.350  24.759  1.00  0.00     0.155 A 
ATOM     27  H   UNL A   1      43.762  26.991  25.938  1.00  0.00     0.163 HD
ATOM     28  N   UNL A   1      42.836  23.707  25.367  1.00  0.00    -0.298 N 
ATOM     29  N   UNL A   1      44.186  22.047  24.753  1.00  0.00    -0.227 NA
ATOM     30  C   UNL A   1      42.203  22.544  25.755  1.00  0.00     0.071 A 
ATOM     31  C   UNL A   1      43.171  21.561  25.520  1.00  0.00     0.089 A 
ATOM     32  C   UNL A   1      40.999  22.229  26.393  1.00  0.00     0.029 A 
ATOM     33  C   UNL A   1      43.067  20.300  26.126  1.00  0.00     0.030 A 
ATOM     34  C   UNL A   1      40.914  20.962  26.999  1.00  0.00     0.002 A 
ATOM     35  C   UNL A   1      41.949  20.032  26.913  1.00  0.00     0.002 A 
BRANCH  15  36
ATOM     36  C   UNL A   1      47.254  27.925  23.510  1.00  0.00     0.196 C 
BRANCH  36  37
ATOM     37  O   UNL A   1      48.470  28.092  22.788  1.00  0.00    -0.380 OA
ATOM     38  C   UNL A   1      48.364  27.802  21.399  1.00  0.00     0.195 C 
ENDBRANCH  36  37
ENDBRANCH  15  36
ENDBRANCH   9  14
ENDBRANCH   5   8
ENDBRANCH   3   4
ENDBRANCH   2   3
ENDBRANCH   1   2
BRANCH   1  39
ATOM     39  C   UNL A   1      46.494  28.880  30.665  1.00  0.00     0.002 C 
BRANCH  39  40
ATOM     40  C   UNL A   1      47.231  29.323  29.350  1.00  0.00     0.021 C 
BRANCH  40  41
ATOM     41  C   UNL A   1      46.851  28.752  27.970  1.00  0.00     0.116 C 
BRANCH  41  42
ATOM     42  N   UNL A   1      46.547  29.651  26.869  1.00  0.00    -0.352 N 
ATOM     43  C   UNL A   1      45.472  30.518  26.718  1.00  0.00     0.251 C 
ATOM     44  H   UNL A   1      47.194  29.645  26.127  1.00  0.00     0.163 HD
ATOM     45  O   UNL A   1      45.468  31.286  25.750  1.00  0.00    -0.269 OA
BRANCH  43  46
ATOM     46  C   UNL A   1      44.288  30.552  27.640  1.00  0.00     0.039 A 
ATOM     47  C   UNL A   1      43.302  29.566  27.668  1.00  0.00     0.014 A 
ATOM     48  C   UNL A   1      44.197  31.595  28.572  1.00  0.00     0.014 A 
ATOM     49  C   UNL A   1      42.175  29.696  28.493  1.00  0.00     0.010 A 
ATOM     50  C   UNL A   1      43.102  31.693  29.447  1.00  0.00     0.010 A 
ATOM     51  C   UNL A   1      42.067  30.751  29.402  1.00  0.00    -0.014 A 
BRANCH  51  52
ATOM     52  C   UNL A   1      40.919  30.773  30.343  1.00  0.00     0.031 A 
ATOM     53  C   UNL A   1      40.890  29.682  31.360  1.00  0.00     0.074 A 
ATOM     54  C   UNL A   1      40.249  31.906  30.650  1.00  0.00     0.049 A 
ATOM     55  N   UNL A   1      41.693  29.692  32.382  1.00  0.00    -0.248 NA
ATOM     56  C   UNL A   1      40.138  28.436  31.220  1.00  0.00     0.031 C 
ATOM     57  C   UNL A   1      40.808  33.253  30.485  1.00  0.00     0.029 A 
ATOM     58  N   UNL A   1      39.099  32.104  31.382  1.00  0.00    -0.354 N 
ATOM     59  C   UNL A   1      41.660  28.437  32.947  1.00  0.00     0.074 A 
ATOM     60  C   UNL A   1      40.649  27.700  32.222  1.00  0.00     0.031 C 
ATOM     61  C   UNL A   1      40.124  34.103  31.280  1.00  0.00     0.029 A 
ATOM     62  C   UNL A   1      38.983  33.407  31.864  1.00  0.00     0.049 A 
ATOM     63  H   UNL A   1      38.431  31.401  31.548  1.00  0.00     0.167 HD
ATOM     64  C   UNL A   1      42.502  28.075  33.950  1.00  0.00     0.031 A 
ATOM     65  C   UNL A   1      38.383  33.747  33.037  1.00  0.00     0.031 A 
ATOM     66  C   UNL A   1      43.394  29.107  34.393  1.00  0.00     0.049 A 
ATOM     67  C   UNL A   1      39.329  33.137  34.045  1.00  0.00     0.074 A 
ATOM     68  C   UNL A   1      44.655  29.543  34.047  1.00  0.00     0.029 A 
ATOM     69  N   UNL A   1      42.916  30.065  35.258  1.00  0.00    -0.354 N 
ATOM     70  N   UNL A   1      40.492  33.616  34.403  1.00  0.00    -0.248 NA
ATOM     71  C   UNL A   1      39.107  31.743  34.435  1.00  0.00     0.031 C 
ATOM     72  C   UNL A   1      44.674  30.940  34.358  1.00  0.00     0.029 A 
ATOM     73  C   UNL A   1      43.402  31.275  34.819  1.00  0.00     0.049 A 
ATOM     74  H   UNL A   1      42.337  29.914  36.039  1.00  0.00     0.167 HD
ATOM     75  C   UNL A   1      41.254  32.509  34.782  1.00  0.00     0.074 A 
ATOM     76  C   UNL A   1      40.325  31.398  34.832  1.00  0.00     0.031 C 
ATOM     77  C   UNL A   1      42.620  32.497  34.838  1.00  0.00     0.031 A 
BRANCH  64  78
ATOM     78  C   UNL A   1      42.508  26.742  34.580  1.00  0.00    -0.014 A 
ATOM     79  C   UNL A   1      41.491  26.340  35.455  1.00  0.00     0.009 A 
ATOM     80  C   UNL A   1      43.480  25.811  34.186  1.00  0.00     0.009 A 
ATOM     81  C   UNL A   1      41.444  25.021  35.916  1.00  0.00     0.001 A 
ATOM     82  C   UNL A   1      43.430  24.495  34.645  1.00  0.00     0.001 A 
ATOM     83  C   UNL A   1      42.409  24.099  35.506  1.00  0.00     0.000 A 
ENDBRANCH  64  78
BRANCH  65  84
ATOM     84  C   UNL A   1      36.896  33.534  33.040  1.00  0.00    -0.014 A 
ATOM     85  C   UNL A   1      36.182  32.720  32.150  1.00  0.00     0.009 A 
ATOM     86  C   UNL A   1      36.142  34.227  34.012  1.00  0.00     0.009 A 
ATOM     87  C   UNL A   1      34.779  32.731  32.122  1.00  0.00     0.001 A 
ATOM     88  C   UNL A   1      34.743  34.215  34.008  1.00  0.00     0.001 A 
ATOM     89  C   UNL A   1      34.061  33.495  33.038  1.00  0.00     0.000 A 
ENDBRANCH  65  84
BRANCH  77  90
ATOM     90  C   UNL A   1      43.314  33.808  34.646  1.00  0.00    -0.014 A 
ATOM     91  C   UNL A   1      43.829  34.519  35.744  1.00  0.00     0.009 A 
ATOM     92  C   UNL A   1      43.384  34.392  33.375  1.00  0.00     0.009 A 
ATOM     93  C   UNL A   1      44.340  35.808  35.585  1.00  0.00     0.001 A 
ATOM     94  C   UNL A   1      43.916  35.674  33.213  1.00  0.00     0.001 A 
ATOM     95  C   UNL A   1      44.375  36.388  34.318  1.00  0.00     0.000 A 
ENDBRANCH  77  90
ENDBRANCH  51  52
ENDBRANCH  43  46
ENDBRANCH  41  42
ENDBRANCH  40  41
ENDBRANCH  39  40
ENDBRANCH   1  39
TORSDOF 16
ENDMDL
MODEL 3
REMARK VINA RESULT:     -10.6      1.701      4.355
REMARK SMILES COCc1cc(C)nc2sc3c(c12)N[C@H](c1ccccc1C(=O)NCCCCCCNC(=O)c1ccc(-c2c4nc(c(-c5ccccc5)c5ccc([nH]5)c(-c5ccccc5)c5nc(c(-c6ccccc6)c6ccc2[nH]6)C=C5)C=C4)cc1)n1c-3nc2ccccc21
REMARK SMILES IDX 27 1 26 2 25 3 24 4 22 5 23 6 21 8 16 9 17 10 18 11 20 12
REMARK SMILES IDX 19 13 15 14 4 15 5 16 13 17 6 18 9 19 12 20 7 21 8 22 10 23
REMARK SMILES IDX 11 24 14 25 83 26 82 28 84 29 90 30 85 31 89 32 86 33 88 34
REMARK SMILES IDX 87 35 3 36 2 37 1 38 28 39 29 40 30 41 31 42 32 43 33 45
REMARK SMILES IDX 34 46 35 47 81 48 36 49 80 50 37 51 38 52 39 53 74 54 40 55
REMARK SMILES IDX 79 56 73 57 75 58 41 59 78 60 72 61 71 62 42 64 64 65 49 66
REMARK SMILES IDX 63 67 50 68 53 69 62 70 76 71 51 72 52 73 61 75 77 76 54 77
REMARK SMILES IDX 43 78 44 79 48 80 45 81 47 82 46 83 65 84 66 85 70 86 67 87
REMARK SMILES IDX 69 88 68 89 55 90 56 91 60 92 57 93 59 94 58 95
REMARK H PARENT 24 7 14 27 31 44 75 63 53 74
REMARK Flexibility Score: inf
ROOT
ATOM      1  C   UNL A   1      46.507  29.889  30.016  1.00  0.00     0.002 C 
ENDROOT
BRANCH   1   2
ATOM      2  C   UNL A   1      45.810  28.479  29.959  1.00  0.00     0.021 C 
BRANCH   2   3
ATOM      3  C   UNL A   1      46.412  27.182  30.533  1.00  0.00     0.116 C 
BRANCH   3   4
ATOM      4  N   UNL A   1      45.914  25.980  29.900  1.00  0.00    -0.352 N 
ATOM      5  C   UNL A   1      46.272  25.184  28.846  1.00  0.00     0.251 C 
ATOM      6  O   UNL A   1      45.528  24.201  28.705  1.00  0.00    -0.269 OA
ATOM      7  H   UNL A   1      45.102  25.644  30.346  1.00  0.00     0.163 HD
BRANCH   5   8
ATOM      8  C   UNL A   1      47.380  25.344  27.819  1.00  0.00     0.046 A 
ATOM      9  C   UNL A   1      47.444  25.168  26.411  1.00  0.00     0.008 A 
ATOM     10  C   UNL A   1      48.650  25.562  25.735  1.00  0.00     0.008 A 
ATOM     11  C   UNL A   1      49.705  26.210  26.363  1.00  0.00     0.000 A 
ATOM     12  C   UNL A   1      48.497  26.008  28.419  1.00  0.00     0.014 A 
ATOM     13  C   UNL A   1      49.618  26.455  27.714  1.00  0.00     0.001 A 
BRANCH   9  14
ATOM     14  C   UNL A   1      46.397  24.709  25.406  1.00  0.00     0.215 C 
ATOM     15  C   UNL A   1      44.049  20.052  25.214  1.00  0.00    -0.008 A 
ATOM     16  C   UNL A   1      42.925  19.382  25.836  1.00  0.00     0.030 A 
ATOM     17  C   UNL A   1      44.317  21.397  25.657  1.00  0.00     0.041 A 
ATOM     18  C   UNL A   1      42.242  19.944  26.911  1.00  0.00     0.039 A 
ATOM     19  C   UNL A   1      43.329  21.832  26.533  1.00  0.00     0.126 A 
ATOM     20  C   UNL A   1      44.940  22.664  25.201  1.00  0.00     0.068 A 
ATOM     21  C   UNL A   1      40.932  19.432  27.430  1.00  0.00     0.067 C 
ATOM     22  N   UNL A   1      42.577  21.138  27.392  1.00  0.00    -0.242 NA
ATOM     23  S   UNL A   1      42.531  23.044  25.659  1.00  0.00    -0.110 S 
ATOM     24  C   UNL A   1      43.937  23.585  24.959  1.00  0.00     0.096 A 
ATOM     25  N   UNL A   1      46.162  23.208  25.520  1.00  0.00    -0.359 N 
ATOM     26  C   UNL A   1      44.050  24.996  24.822  1.00  0.00     0.155 A 
ATOM     27  H   UNL A   1      46.891  22.622  25.825  1.00  0.00     0.163 HD
ATOM     28  N   UNL A   1      45.225  25.588  25.199  1.00  0.00    -0.298 N 
ATOM     29  N   UNL A   1      43.034  25.827  24.888  1.00  0.00    -0.227 NA
ATOM     30  C   UNL A   1      44.943  26.904  25.504  1.00  0.00     0.071 A 
ATOM     31  C   UNL A   1      43.545  26.944  25.476  1.00  0.00     0.089 A 
ATOM     32  C   UNL A   1      45.685  28.012  25.926  1.00  0.00     0.029 A 
ATOM     33  C   UNL A   1      42.851  27.996  26.093  1.00  0.00     0.030 A 
ATOM     34  C   UNL A   1      44.974  29.055  26.546  1.00  0.00     0.002 A 
ATOM     35  C   UNL A   1      43.586  29.026  26.675  1.00  0.00     0.002 A 
BRANCH  15  36
ATOM     36  C   UNL A   1      44.664  19.337  24.032  1.00  0.00     0.196 C 
BRANCH  36  37
ATOM     37  O   UNL A   1      45.668  18.418  24.450  1.00  0.00    -0.380 OA
ATOM     38  C   UNL A   1      46.586  18.954  25.396  1.00  0.00     0.195 C 
ENDBRANCH  36  37
ENDBRANCH  15  36
ENDBRANCH   9  14
ENDBRANCH   5   8
ENDBRANCH   3   4
ENDBRANCH   2   3
ENDBRANCH   1   2
BRANCH   1  39
ATOM     39  C   UNL A   1      47.318  30.574  28.889  1.00  0.00     0.002 C 
BRANCH  39  40
ATOM     40  C   UNL A   1      47.845  32.052  28.948  1.00  0.00     0.021 C 
BRANCH  40  41
ATOM     41  C   UNL A   1      47.666  33.031  27.772  1.00  0.00     0.116 C 
BRANCH  41  42
ATOM     42  N   UNL A   1      46.877  32.643  26.615  1.00  0.00    -0.352 N 
ATOM     43  C   UNL A   1      45.497  32.657  26.452  1.00  0.00     0.251 C 
ATOM     44  H   UNL A   1      47.392  32.327  25.838  1.00  0.00     0.163 HD
ATOM     45  O   UNL A   1      45.036  32.396  25.336  1.00  0.00    -0.269 OA
BRANCH  43  46
ATOM     46  C   UNL A   1      44.525  32.930  27.562  1.00  0.00     0.039 A 
ATOM     47  C   UNL A   1      44.044  34.202  27.872  1.00  0.00     0.014 A 
ATOM     48  C   UNL A   1      44.017  31.844  28.288  1.00  0.00     0.014 A 
ATOM     49  C   UNL A   1      43.201  34.406  28.975  1.00  0.00     0.010 A 
ATOM     50  C   UNL A   1      43.120  32.038  29.352  1.00  0.00     0.010 A 
ATOM     51  C   UNL A   1      42.717  33.328  29.719  1.00  0.00    -0.014 A 
BRANCH  51  52
ATOM     52  C   UNL A   1      41.726  33.585  30.793  1.00  0.00     0.031 A 
ATOM     53  C   UNL A   1      40.302  33.313  30.444  1.00  0.00     0.074 A 
ATOM     54  C   UNL A   1      42.047  33.546  32.106  1.00  0.00     0.049 A 
ATOM     55  N   UNL A   1      39.851  32.097  30.357  1.00  0.00    -0.248 NA
ATOM     56  C   UNL A   1      39.352  34.324  29.983  1.00  0.00     0.031 C 
ATOM     57  C   UNL A   1      43.214  32.832  32.639  1.00  0.00     0.029 A 
ATOM     58  N   UNL A   1      41.315  33.879  33.224  1.00  0.00    -0.354 N 
ATOM     59  C   UNL A   1      38.629  32.154  29.722  1.00  0.00     0.074 A 
ATOM     60  C   UNL A   1      38.337  33.559  29.546  1.00  0.00     0.031 C 
ATOM     61  C   UNL A   1      43.008  32.589  33.950  1.00  0.00     0.029 A 
ATOM     62  C   UNL A   1      41.797  33.276  34.385  1.00  0.00     0.049 A 
ATOM     63  H   UNL A   1      40.535  34.478  33.206  1.00  0.00     0.167 HD
ATOM     64  C   UNL A   1      37.960  31.033  29.344  1.00  0.00     0.031 A 
ATOM     65  C   UNL A   1      41.023  32.895  35.437  1.00  0.00     0.031 A 
ATOM     66  C   UNL A   1      38.604  29.799  29.689  1.00  0.00     0.049 A 
ATOM     67  C   UNL A   1      40.220  31.770  34.826  1.00  0.00     0.074 A 
ATOM     68  C   UNL A   1      39.518  28.957  29.092  1.00  0.00     0.029 A 
ATOM     69  N   UNL A   1      38.484  29.330  30.978  1.00  0.00    -0.354 N 
ATOM     70  N   UNL A   1      40.645  30.556  34.590  1.00  0.00    -0.248 NA
ATOM     71  C   UNL A   1      38.972  32.113  34.143  1.00  0.00     0.031 C 
ATOM     72  C   UNL A   1      40.222  28.332  30.170  1.00  0.00     0.029 A 
ATOM     73  C   UNL A   1      39.728  28.879  31.354  1.00  0.00     0.049 A 
ATOM     74  H   UNL A   1      37.667  29.321  31.525  1.00  0.00     0.167 HD
ATOM     75  C   UNL A   1      39.896  30.100  33.503  1.00  0.00     0.074 A 
ATOM     76  C   UNL A   1      38.848  31.084  33.316  1.00  0.00     0.031 C 
ATOM     77  C   UNL A   1      40.272  29.071  32.685  1.00  0.00     0.031 A 
BRANCH  64  78
ATOM     78  C   UNL A   1      36.656  31.045  28.657  1.00  0.00    -0.014 A 
ATOM     79  C   UNL A   1      36.221  29.956  27.891  1.00  0.00     0.009 A 
ATOM     80  C   UNL A   1      35.777  32.112  28.890  1.00  0.00     0.009 A 
ATOM     81  C   UNL A   1      34.921  29.934  27.379  1.00  0.00     0.001 A 
ATOM     82  C   UNL A   1      34.479  32.088  28.380  1.00  0.00     0.001 A 
ATOM     83  C   UNL A   1      34.050  30.996  27.629  1.00  0.00     0.000 A 
ENDBRANCH  64  78
BRANCH  65  84
ATOM     84  C   UNL A   1      40.422  34.044  36.194  1.00  0.00    -0.014 A 
ATOM     85  C   UNL A   1      40.659  35.404  35.947  1.00  0.00     0.009 A 
ATOM     86  C   UNL A   1      39.554  33.735  37.265  1.00  0.00     0.009 A 
ATOM     87  C   UNL A   1      40.193  36.393  36.826  1.00  0.00     0.001 A 
ATOM     88  C   UNL A   1      39.060  34.722  38.124  1.00  0.00     0.001 A 
ATOM     89  C   UNL A   1      39.411  36.050  37.924  1.00  0.00     0.000 A 
ENDBRANCH  65  84
BRANCH  77  90
ATOM     90  C   UNL A   1      41.476  28.286  33.100  1.00  0.00    -0.014 A 
ATOM     91  C   UNL A   1      41.393  27.328  34.126  1.00  0.00     0.009 A 
ATOM     92  C   UNL A   1      42.727  28.556  32.532  1.00  0.00     0.009 A 
ATOM     93  C   UNL A   1      42.542  26.706  34.616  1.00  0.00     0.001 A 
ATOM     94  C   UNL A   1      43.874  27.917  33.009  1.00  0.00     0.001 A 
ATOM     95  C   UNL A   1      43.784  27.007  34.062  1.00  0.00     0.000 A 
ENDBRANCH  77  90
ENDBRANCH  51  52
ENDBRANCH  43  46
ENDBRANCH  41  42
ENDBRANCH  40  41
ENDBRANCH  39  40
ENDBRANCH   1  39
TORSDOF 16
ENDMDL
