MODEL 1
REMARK VINA RESULT:     -10.3      0.000      0.000
REMARK SMILES O=C(NCCCCCCNC(=O)c1ccc(Cl)nc1C(F)(F)F)c1ccc(-c2c3nc(c(-c4ccccc4)c4ccc([nH]4)c(-c4ccccc4)c4nc(c(-c5ccccc5)c5ccc2[nH]5)C=C4)C=C3)cc1
REMARK SMILES IDX 6 1 5 2 4 3 3 4 1 5 2 6 24 8 25 9 71 10 26 11 70 12 27 13
REMARK SMILES IDX 28 14 29 15 64 16 30 17 69 18 63 19 65 20 31 21 68 22 62 23
REMARK SMILES IDX 61 24 32 26 54 27 39 28 53 29 40 30 43 31 52 32 66 33 41 34
REMARK SMILES IDX 42 35 51 37 67 38 44 39 33 40 34 41 38 42 35 43 37 44 36 45
REMARK SMILES IDX 55 46 56 47 60 48 57 49 59 50 58 51 45 52 46 53 50 54 47 55
REMARK SMILES IDX 49 56 48 57 7 58 8 59 9 60 10 61 11 62 12 64 13 65 14 66
REMARK SMILES IDX 19 67 15 68 18 69 16 70 17 71 20 72 21 73 22 74 23 75
REMARK H PARENT 3 7 65 25 43 36 10 63
REMARK Flexibility Score: inf
ROOT
ATOM      1  C   UNL A   1      36.525  20.871  24.898  1.00  0.00     0.002 C 
ENDROOT
BRANCH   1   2
ATOM      2  C   UNL A   1      37.682  19.875  24.932  1.00  0.00     0.021 C 
BRANCH   2   3
ATOM      3  C   UNL A   1      38.905  20.346  25.703  1.00  0.00     0.116 C 
BRANCH   3   4
ATOM      4  N   UNL A   1      39.979  19.365  25.730  1.00  0.00    -0.352 N 
ATOM      5  O   UNL A   1      42.114  18.637  25.903  1.00  0.00    -0.269 OA
ATOM      6  C   UNL A   1      41.302  19.541  26.063  1.00  0.00     0.251 C 
ATOM      7  H   UNL A   1      39.723  18.448  25.475  1.00  0.00     0.163 HD
BRANCH   6   8
ATOM      8  C   UNL A   1      41.743  20.851  26.590  1.00  0.00     0.039 A 
ATOM      9  C   UNL A   1      41.695  21.101  27.960  1.00  0.00     0.014 A 
ATOM     10  C   UNL A   1      42.172  21.847  25.708  1.00  0.00     0.014 A 
ATOM     11  C   UNL A   1      41.893  22.390  28.429  1.00  0.00     0.010 A 
ATOM     12  C   UNL A   1      42.495  23.117  26.201  1.00  0.00     0.010 A 
ATOM     13  C   UNL A   1      42.329  23.408  27.563  1.00  0.00    -0.014 A 
BRANCH  13  14
ATOM     14  C   UNL A   1      42.689  24.723  28.153  1.00  0.00     0.031 A 
ATOM     15  C   UNL A   1      44.111  25.095  28.468  1.00  0.00     0.074 A 
ATOM     16  C   UNL A   1      41.699  25.621  28.334  1.00  0.00     0.049 A 
ATOM     17  N   UNL A   1      44.580  26.239  28.902  1.00  0.00    -0.248 NA
ATOM     18  C   UNL A   1      45.140  24.059  28.281  1.00  0.00     0.031 C 
ATOM     19  C   UNL A   1      40.277  25.368  28.078  1.00  0.00     0.029 A 
ATOM     20  N   UNL A   1      41.733  26.931  28.730  1.00  0.00    -0.354 N 
ATOM     21  C   UNL A   1      45.950  26.061  29.048  1.00  0.00     0.074 A 
ATOM     22  C   UNL A   1      46.236  24.688  28.687  1.00  0.00     0.031 C 
ATOM     23  C   UNL A   1      39.588  26.503  28.248  1.00  0.00     0.029 A 
ATOM     24  C   UNL A   1      40.500  27.540  28.710  1.00  0.00     0.049 A 
ATOM     25  H   UNL A   1      42.559  27.393  29.003  1.00  0.00     0.167 HD
ATOM     26  C   UNL A   1      46.883  26.963  29.441  1.00  0.00     0.031 A 
ATOM     27  C   UNL A   1      40.133  28.788  29.048  1.00  0.00     0.031 A 
ATOM     28  C   UNL A   1      46.591  28.325  29.814  1.00  0.00     0.049 A 
ATOM     29  C   UNL A   1      41.185  29.747  29.516  1.00  0.00     0.074 A 
ATOM     30  C   UNL A   1      47.470  29.316  30.218  1.00  0.00     0.029 A 
ATOM     31  N   UNL A   1      45.324  28.887  29.834  1.00  0.00    -0.354 N 
ATOM     32  N   UNL A   1      42.480  29.569  29.616  1.00  0.00    -0.248 NA
ATOM     33  C   UNL A   1      40.725  31.082  29.916  1.00  0.00     0.031 C 
ATOM     34  C   UNL A   1      46.730  30.459  30.536  1.00  0.00     0.029 A 
ATOM     35  C   UNL A   1      45.395  30.203  30.265  1.00  0.00     0.049 A 
ATOM     36  H   UNL A   1      44.495  28.420  29.579  1.00  0.00     0.167 HD
ATOM     37  C   UNL A   1      42.990  30.772  30.080  1.00  0.00     0.074 A 
ATOM     38  C   UNL A   1      41.870  31.683  30.199  1.00  0.00     0.031 C 
ATOM     39  C   UNL A   1      44.270  31.092  30.391  1.00  0.00     0.031 A 
BRANCH  26  40
ATOM     40  C   UNL A   1      48.318  26.509  29.503  1.00  0.00    -0.014 A 
ATOM     41  C   UNL A   1      49.193  26.712  28.424  1.00  0.00     0.009 A 
ATOM     42  C   UNL A   1      48.820  25.938  30.683  1.00  0.00     0.009 A 
ATOM     43  C   UNL A   1      50.536  26.333  28.520  1.00  0.00     0.001 A 
ATOM     44  C   UNL A   1      50.168  25.586  30.786  1.00  0.00     0.001 A 
ATOM     45  C   UNL A   1      51.023  25.778  29.702  1.00  0.00     0.000 A 
ENDBRANCH  26  40
BRANCH  27  46
ATOM     46  C   UNL A   1      38.701  29.182  28.999  1.00  0.00    -0.014 A 
ATOM     47  C   UNL A   1      37.880  29.070  30.130  1.00  0.00     0.009 A 
ATOM     48  C   UNL A   1      38.144  29.661  27.802  1.00  0.00     0.009 A 
ATOM     49  C   UNL A   1      36.522  29.395  30.052  1.00  0.00     0.001 A 
ATOM     50  C   UNL A   1      36.798  30.023  27.737  1.00  0.00     0.001 A 
ATOM     51  C   UNL A   1      35.985  29.875  28.859  1.00  0.00     0.000 A 
ENDBRANCH  27  46
BRANCH  39  52
ATOM     52  C   UNL A   1      44.515  32.498  30.865  1.00  0.00    -0.014 A 
ATOM     53  C   UNL A   1      44.770  33.541  29.959  1.00  0.00     0.009 A 
ATOM     54  C   UNL A   1      44.501  32.781  32.239  1.00  0.00     0.009 A 
ATOM     55  C   UNL A   1      45.060  34.824  30.423  1.00  0.00     0.001 A 
ATOM     56  C   UNL A   1      44.754  34.073  32.699  1.00  0.00     0.001 A 
ATOM     57  C   UNL A   1      45.049  35.091  31.792  1.00  0.00     0.000 A 
ENDBRANCH  39  52
ENDBRANCH  13  14
ENDBRANCH   6   8
ENDBRANCH   3   4
ENDBRANCH   2   3
ENDBRANCH   1   2
BRANCH   1  58
ATOM     58  C   UNL A   1      36.753  22.115  24.035  1.00  0.00     0.002 C 
BRANCH  58  59
ATOM     59  C   UNL A   1      36.449  23.458  24.707  1.00  0.00     0.021 C 
BRANCH  59  60
ATOM     60  C   UNL A   1      35.647  23.374  26.002  1.00  0.00     0.116 C 
BRANCH  60  61
ATOM     61  N   UNL A   1      34.445  24.194  25.973  1.00  0.00    -0.352 N 
ATOM     62  C   UNL A   1      33.210  23.897  25.465  1.00  0.00     0.253 C 
ATOM     63  H   UNL A   1      34.534  25.089  26.374  1.00  0.00     0.163 HD
ATOM     64  O   UNL A   1      32.288  24.708  25.490  1.00  0.00    -0.269 OA
BRANCH  62  65
ATOM     65  C   UNL A   1      32.968  22.572  24.884  1.00  0.00     0.070 A 
ATOM     66  C   UNL A   1      32.759  21.486  25.746  1.00  0.00     0.019 A 
ATOM     67  C   UNL A   1      32.918  22.376  23.503  1.00  0.00     0.158 A 
ATOM     68  C   UNL A   1      32.554  20.220  25.214  1.00  0.00     0.042 A 
ATOM     69  N   UNL A   1      32.707  21.125  22.981  1.00  0.00    -0.231 NA
ATOM     70  C   UNL A   1      32.541  20.097  23.838  1.00  0.00     0.129 A 
ATOM     71  Cl  UNL A   1      32.315  18.571  23.094  1.00  0.00    -0.062 Cl
BRANCH  67  72
ATOM     72  C   UNL A   1      33.078  23.530  22.524  1.00  0.00     0.434 C 
ATOM     73  F   UNL A   1      34.177  24.296  22.806  1.00  0.00    -0.164 F 
ATOM     74  F   UNL A   1      33.248  23.115  21.238  1.00  0.00    -0.164 F 
ATOM     75  F   UNL A   1      32.046  24.421  22.512  1.00  0.00    -0.164 F 
ENDBRANCH  67  72
ENDBRANCH  62  65
ENDBRANCH  60  61
ENDBRANCH  59  60
ENDBRANCH  58  59
ENDBRANCH   1  58
TORSDOF 14
ENDMDL
MODEL 2
REMARK VINA RESULT:     -10.2      4.804      9.570
REMARK SMILES O=C(NCCCCCCNC(=O)c1ccc(Cl)nc1C(F)(F)F)c1ccc(-c2c3nc(c(-c4ccccc4)c4ccc([nH]4)c(-c4ccccc4)c4nc(c(-c5ccccc5)c5ccc2[nH]5)C=C4)C=C3)cc1
REMARK SMILES IDX 6 1 5 2 4 3 3 4 1 5 2 6 24 8 25 9 71 10 26 11 70 12 27 13
REMARK SMILES IDX 28 14 29 15 64 16 30 17 69 18 63 19 65 20 31 21 68 22 62 23
REMARK SMILES IDX 61 24 32 26 54 27 39 28 53 29 40 30 43 31 52 32 66 33 41 34
REMARK SMILES IDX 42 35 51 37 67 38 44 39 33 40 34 41 38 42 35 43 37 44 36 45
REMARK SMILES IDX 55 46 56 47 60 48 57 49 59 50 58 51 45 52 46 53 50 54 47 55
REMARK SMILES IDX 49 56 48 57 7 58 8 59 9 60 10 61 11 62 12 64 13 65 14 66
REMARK SMILES IDX 19 67 15 68 18 69 16 70 17 71 20 72 21 73 22 74 23 75
REMARK H PARENT 3 7 65 25 43 36 10 63
REMARK Flexibility Score: inf
ROOT
ATOM      1  C   UNL A   1      31.684  30.593  26.042  1.00  0.00     0.002 C 
ENDROOT
BRANCH   1   2
ATOM      2  C   UNL A   1      31.399  31.943  26.696  1.00  0.00     0.021 C 
BRANCH   2   3
ATOM      3  C   UNL A   1      32.625  32.660  27.238  1.00  0.00     0.116 C 
BRANCH   3   4
ATOM      4  N   UNL A   1      32.353  34.027  27.653  1.00  0.00    -0.352 N 
ATOM      5  O   UNL A   1      32.546  35.876  28.943  1.00  0.00    -0.269 OA
ATOM      6  C   UNL A   1      32.986  34.780  28.616  1.00  0.00     0.251 C 
ATOM      7  H   UNL A   1      31.615  34.476  27.180  1.00  0.00     0.163 HD
BRANCH   6   8
ATOM      8  C   UNL A   1      34.192  34.236  29.278  1.00  0.00     0.039 A 
ATOM      9  C   UNL A   1      35.456  34.529  28.769  1.00  0.00     0.014 A 
ATOM     10  C   UNL A   1      34.059  33.398  30.388  1.00  0.00     0.014 A 
ATOM     11  C   UNL A   1      36.563  33.846  29.247  1.00  0.00     0.010 A 
ATOM     12  C   UNL A   1      35.195  32.807  30.951  1.00  0.00     0.010 A 
ATOM     13  C   UNL A   1      36.455  33.001  30.366  1.00  0.00    -0.014 A 
BRANCH  13  14
ATOM     14  C   UNL A   1      37.703  32.433  30.938  1.00  0.00     0.031 A 
ATOM     15  C   UNL A   1      38.303  32.947  32.216  1.00  0.00     0.074 A 
ATOM     16  C   UNL A   1      38.253  31.374  30.309  1.00  0.00     0.049 A 
ATOM     17  N   UNL A   1      39.338  32.487  32.876  1.00  0.00    -0.248 NA
ATOM     18  C   UNL A   1      37.675  34.126  32.833  1.00  0.00     0.031 C 
ATOM     19  C   UNL A   1      37.767  30.795  29.051  1.00  0.00     0.029 A 
ATOM     20  N   UNL A   1      39.307  30.570  30.654  1.00  0.00    -0.354 N 
ATOM     21  C   UNL A   1      39.491  33.320  33.977  1.00  0.00     0.074 A 
ATOM     22  C   UNL A   1      38.462  34.335  33.882  1.00  0.00     0.031 C 
ATOM     23  C   UNL A   1      38.468  29.690  28.773  1.00  0.00     0.029 A 
ATOM     24  C   UNL A   1      39.509  29.529  29.779  1.00  0.00     0.049 A 
ATOM     25  H   UNL A   1      39.866  30.722  31.450  1.00  0.00     0.167 HD
ATOM     26  C   UNL A   1      40.402  33.240  34.979  1.00  0.00     0.031 A 
ATOM     27  C   UNL A   1      40.442  28.562  29.767  1.00  0.00     0.031 A 
ATOM     28  C   UNL A   1      41.434  32.237  35.061  1.00  0.00     0.049 A 
ATOM     29  C   UNL A   1      41.459  28.527  30.869  1.00  0.00     0.074 A 
ATOM     30  C   UNL A   1      42.398  32.070  36.040  1.00  0.00     0.029 A 
ATOM     31  N   UNL A   1      41.640  31.234  34.126  1.00  0.00    -0.354 N 
ATOM     32  N   UNL A   1      41.565  29.305  31.918  1.00  0.00    -0.248 NA
ATOM     33  C   UNL A   1      42.482  27.479  30.784  1.00  0.00     0.031 C 
ATOM     34  C   UNL A   1      43.221  31.001  35.670  1.00  0.00     0.029 A 
ATOM     35  C   UNL A   1      42.729  30.459  34.494  1.00  0.00     0.049 A 
ATOM     36  H   UNL A   1      41.093  31.092  33.319  1.00  0.00     0.167 HD
ATOM     37  C   UNL A   1      42.661  28.833  32.625  1.00  0.00     0.074 A 
ATOM     38  C   UNL A   1      43.156  27.677  31.906  1.00  0.00     0.031 C 
ATOM     39  C   UNL A   1      43.217  29.320  33.761  1.00  0.00     0.031 A 
BRANCH  26  40
ATOM     40  C   UNL A   1      40.339  34.276  36.070  1.00  0.00    -0.014 A 
ATOM     41  C   UNL A   1      41.084  35.463  35.990  1.00  0.00     0.009 A 
ATOM     42  C   UNL A   1      39.468  34.097  37.156  1.00  0.00     0.009 A 
ATOM     43  C   UNL A   1      40.973  36.439  36.986  1.00  0.00     0.001 A 
ATOM     44  C   UNL A   1      39.337  35.085  38.135  1.00  0.00     0.001 A 
ATOM     45  C   UNL A   1      40.095  36.252  38.052  1.00  0.00     0.000 A 
ENDBRANCH  26  40
BRANCH  27  46
ATOM     46  C   UNL A   1      40.483  27.579  28.653  1.00  0.00    -0.014 A 
ATOM     47  C   UNL A   1      41.222  27.835  27.489  1.00  0.00     0.009 A 
ATOM     48  C   UNL A   1      39.762  26.378  28.747  1.00  0.00     0.009 A 
ATOM     49  C   UNL A   1      41.206  26.924  26.428  1.00  0.00     0.001 A 
ATOM     50  C   UNL A   1      39.780  25.452  27.705  1.00  0.00     0.001 A 
ATOM     51  C   UNL A   1      40.491  25.733  26.539  1.00  0.00     0.000 A 
ENDBRANCH  27  46
BRANCH  39  52
ATOM     52  C   UNL A   1      44.408  28.575  34.300  1.00  0.00    -0.014 A 
ATOM     53  C   UNL A   1      44.257  27.504  35.195  1.00  0.00     0.009 A 
ATOM     54  C   UNL A   1      45.700  28.960  33.913  1.00  0.00     0.009 A 
ATOM     55  C   UNL A   1      45.377  26.870  35.733  1.00  0.00     0.001 A 
ATOM     56  C   UNL A   1      46.818  28.300  34.424  1.00  0.00     0.001 A 
ATOM     57  C   UNL A   1      46.656  27.266  35.345  1.00  0.00     0.000 A 
ENDBRANCH  39  52
ENDBRANCH  13  14
ENDBRANCH   6   8
ENDBRANCH   3   4
ENDBRANCH   2   3
ENDBRANCH   1   2
BRANCH   1  58
ATOM     58  C   UNL A   1      32.531  29.625  26.873  1.00  0.00     0.002 C 
BRANCH  58  59
ATOM     59  C   UNL A   1      33.632  28.878  26.113  1.00  0.00     0.021 C 
BRANCH  59  60
ATOM     60  C   UNL A   1      33.243  27.499  25.589  1.00  0.00     0.116 C 
BRANCH  60  61
ATOM     61  N   UNL A   1      33.731  27.252  24.240  1.00  0.00    -0.352 N 
ATOM     62  C   UNL A   1      33.046  27.275  23.056  1.00  0.00     0.253 C 
ATOM     63  H   UNL A   1      34.690  27.038  24.171  1.00  0.00     0.163 HD
ATOM     64  O   UNL A   1      33.593  27.018  21.987  1.00  0.00    -0.269 OA
BRANCH  62  65
ATOM     65  C   UNL A   1      31.622  27.626  23.053  1.00  0.00     0.070 A 
ATOM     66  C   UNL A   1      31.260  28.972  22.905  1.00  0.00     0.019 A 
ATOM     67  C   UNL A   1      30.628  26.653  23.168  1.00  0.00     0.158 A 
ATOM     68  C   UNL A   1      29.917  29.326  22.926  1.00  0.00     0.042 A 
ATOM     69  N   UNL A   1      29.302  27.006  23.180  1.00  0.00    -0.231 NA
ATOM     70  C   UNL A   1      28.989  28.313  23.067  1.00  0.00     0.129 A 
ATOM     71  Cl  UNL A   1      27.313  28.658  23.124  1.00  0.00    -0.062 Cl
BRANCH  67  72
ATOM     72  C   UNL A   1      30.964  25.173  23.271  1.00  0.00     0.434 C 
ATOM     73  F   UNL A   1      31.802  24.764  22.269  1.00  0.00    -0.164 F 
ATOM     74  F   UNL A   1      31.605  24.853  24.430  1.00  0.00    -0.164 F 
ATOM     75  F   UNL A   1      29.895  24.332  23.173  1.00  0.00    -0.164 F 
ENDBRANCH  67  72
ENDBRANCH  62  65
ENDBRANCH  60  61
ENDBRANCH  59  60
ENDBRANCH  58  59
ENDBRANCH   1  58
TORSDOF 14
ENDMDL
MODEL 3
REMARK VINA RESULT:     -10.2      1.560      1.850
REMARK SMILES O=C(NCCCCCCNC(=O)c1ccc(Cl)nc1C(F)(F)F)c1ccc(-c2c3nc(c(-c4ccccc4)c4ccc([nH]4)c(-c4ccccc4)c4nc(c(-c5ccccc5)c5ccc2[nH]5)C=C4)C=C3)cc1
REMARK SMILES IDX 6 1 5 2 4 3 3 4 1 5 2 6 24 8 25 9 71 10 26 11 70 12 27 13
REMARK SMILES IDX 28 14 29 15 64 16 30 17 69 18 63 19 65 20 31 21 68 22 62 23
REMARK SMILES IDX 61 24 32 26 54 27 39 28 53 29 40 30 43 31 52 32 66 33 41 34
REMARK SMILES IDX 42 35 51 37 67 38 44 39 33 40 34 41 38 42 35 43 37 44 36 45
REMARK SMILES IDX 55 46 56 47 60 48 57 49 59 50 58 51 45 52 46 53 50 54 47 55
REMARK SMILES IDX 49 56 48 57 7 58 8 59 9 60 10 61 11 62 12 64 13 65 14 66
REMARK SMILES IDX 19 67 15 68 18 69 16 70 17 71 20 72 21 73 22 74 23 75
REMARK H PARENT 3 7 65 25 43 36 10 63
REMARK Flexibility Score: inf
ROOT
ATOM      1  C   UNL A   1      36.796  20.931  24.864  1.00  0.00     0.002 C 
ENDROOT
BRANCH   1   2
ATOM      2  C   UNL A   1      37.931  19.911  24.933  1.00  0.00     0.021 C 
BRANCH   2   3
ATOM      3  C   UNL A   1      39.045  20.262  25.906  1.00  0.00     0.116 C 
BRANCH   3   4
ATOM      4  N   UNL A   1      40.138  19.302  25.896  1.00  0.00    -0.352 N 
ATOM      5  O   UNL A   1      42.294  18.619  25.966  1.00  0.00    -0.269 OA
ATOM      6  C   UNL A   1      41.474  19.512  26.149  1.00  0.00     0.251 C 
ATOM      7  H   UNL A   1      39.887  18.375  25.679  1.00  0.00     0.163 HD
BRANCH   6   8
ATOM      8  C   UNL A   1      41.918  20.843  26.618  1.00  0.00     0.039 A 
ATOM      9  C   UNL A   1      41.906  21.139  27.980  1.00  0.00     0.014 A 
ATOM     10  C   UNL A   1      42.311  21.812  25.692  1.00  0.00     0.014 A 
ATOM     11  C   UNL A   1      42.105  22.445  28.399  1.00  0.00     0.010 A 
ATOM     12  C   UNL A   1      42.635  23.101  26.131  1.00  0.00     0.010 A 
ATOM     13  C   UNL A   1      42.506  23.437  27.487  1.00  0.00    -0.014 A 
BRANCH  13  14
ATOM     14  C   UNL A   1      42.871  24.774  28.021  1.00  0.00     0.031 A 
ATOM     15  C   UNL A   1      44.301  25.186  28.237  1.00  0.00     0.074 A 
ATOM     16  C   UNL A   1      41.873  25.654  28.242  1.00  0.00     0.049 A 
ATOM     17  N   UNL A   1      44.768  26.351  28.613  1.00  0.00    -0.248 NA
ATOM     18  C   UNL A   1      45.340  24.169  28.011  1.00  0.00     0.031 C 
ATOM     19  C   UNL A   1      40.443  25.363  28.082  1.00  0.00     0.029 A 
ATOM     20  N   UNL A   1      41.900  26.974  28.604  1.00  0.00    -0.354 N 
ATOM     21  C   UNL A   1      46.148  26.208  28.677  1.00  0.00     0.074 A 
ATOM     22  C   UNL A   1      46.444  24.833  28.332  1.00  0.00     0.031 C 
ATOM     23  C   UNL A   1      39.740  26.485  28.268  1.00  0.00     0.029 A 
ATOM     24  C   UNL A   1      40.654  27.554  28.647  1.00  0.00     0.049 A 
ATOM     25  H   UNL A   1      42.729  27.461  28.814  1.00  0.00     0.167 HD
ATOM     26  C   UNL A   1      47.082  27.141  28.988  1.00  0.00     0.031 A 
ATOM     27  C   UNL A   1      40.278  28.802  28.977  1.00  0.00     0.031 A 
ATOM     28  C   UNL A   1      46.781  28.505  29.347  1.00  0.00     0.049 A 
ATOM     29  C   UNL A   1      41.334  29.796  29.354  1.00  0.00     0.074 A 
ATOM     30  C   UNL A   1      47.659  29.524  29.671  1.00  0.00     0.029 A 
ATOM     31  N   UNL A   1      45.504  29.038  29.433  1.00  0.00    -0.354 N 
ATOM     32  N   UNL A   1      42.636  29.649  29.377  1.00  0.00    -0.248 NA
ATOM     33  C   UNL A   1      40.867  31.130  29.750  1.00  0.00     0.031 C 
ATOM     34  C   UNL A   1      46.912  30.658  30.007  1.00  0.00     0.029 A 
ATOM     35  C   UNL A   1      45.570  30.366  29.827  1.00  0.00     0.049 A 
ATOM     36  H   UNL A   1      44.673  28.546  29.242  1.00  0.00     0.167 HD
ATOM     37  C   UNL A   1      43.145  30.875  29.779  1.00  0.00     0.074 A 
ATOM     38  C   UNL A   1      42.013  31.763  29.946  1.00  0.00     0.031 C 
ATOM     39  C   UNL A   1      44.434  31.232  30.001  1.00  0.00     0.031 A 
BRANCH  26  40
ATOM     40  C   UNL A   1      48.528  26.720  28.972  1.00  0.00    -0.014 A 
ATOM     41  C   UNL A   1      49.290  26.781  27.794  1.00  0.00     0.009 A 
ATOM     42  C   UNL A   1      49.157  26.329  30.164  1.00  0.00     0.009 A 
ATOM     43  C   UNL A   1      50.646  26.440  27.808  1.00  0.00     0.001 A 
ATOM     44  C   UNL A   1      50.518  26.015  30.181  1.00  0.00     0.001 A 
ATOM     45  C   UNL A   1      51.260  26.064  29.002  1.00  0.00     0.000 A 
ENDBRANCH  26  40
BRANCH  27  46
ATOM     46  C   UNL A   1      38.837  29.162  29.008  1.00  0.00    -0.014 A 
ATOM     47  C   UNL A   1      38.067  28.972  30.165  1.00  0.00     0.009 A 
ATOM     48  C   UNL A   1      38.218  29.688  27.863  1.00  0.00     0.009 A 
ATOM     49  C   UNL A   1      36.701  29.266  30.161  1.00  0.00     0.001 A 
ATOM     50  C   UNL A   1      36.863  30.020  27.873  1.00  0.00     0.001 A 
ATOM     51  C   UNL A   1      36.102  29.793  29.018  1.00  0.00     0.000 A 
ENDBRANCH  27  46
BRANCH  39  52
ATOM     52  C   UNL A   1      44.674  32.655  30.425  1.00  0.00    -0.014 A 
ATOM     53  C   UNL A   1      44.873  33.675  29.480  1.00  0.00     0.009 A 
ATOM     54  C   UNL A   1      44.713  32.977  31.790  1.00  0.00     0.009 A 
ATOM     55  C   UNL A   1      45.159  34.976  29.895  1.00  0.00     0.001 A 
ATOM     56  C   UNL A   1      44.962  34.286  32.202  1.00  0.00     0.001 A 
ATOM     57  C   UNL A   1      45.201  35.281  31.255  1.00  0.00     0.000 A 
ENDBRANCH  39  52
ENDBRANCH  13  14
ENDBRANCH   6   8
ENDBRANCH   3   4
ENDBRANCH   2   3
ENDBRANCH   1   2
BRANCH   1  58
ATOM     58  C   UNL A   1      37.230  22.383  24.636  1.00  0.00     0.002 C 
BRANCH  58  59
ATOM     59  C   UNL A   1      36.930  23.357  25.781  1.00  0.00     0.021 C 
BRANCH  59  60
ATOM     60  C   UNL A   1      35.477  23.810  25.889  1.00  0.00     0.116 C 
BRANCH  60  61
ATOM     61  N   UNL A   1      34.993  24.441  24.670  1.00  0.00    -0.352 N 
ATOM     62  C   UNL A   1      33.708  24.590  24.227  1.00  0.00     0.253 C 
ATOM     63  H   UNL A   1      35.690  24.812  24.081  1.00  0.00     0.163 HD
ATOM     64  O   UNL A   1      33.451  25.128  23.153  1.00  0.00    -0.269 OA
BRANCH  62  65
ATOM     65  C   UNL A   1      32.598  24.106  25.056  1.00  0.00     0.070 A 
ATOM     66  C   UNL A   1      32.236  22.754  24.973  1.00  0.00     0.019 A 
ATOM     67  C   UNL A   1      31.919  24.950  25.936  1.00  0.00     0.158 A 
ATOM     68  C   UNL A   1      31.172  22.284  25.732  1.00  0.00     0.042 A 
ATOM     69  N   UNL A   1      30.874  24.480  26.690  1.00  0.00    -0.231 NA
ATOM     70  C   UNL A   1      30.531  23.182  26.563  1.00  0.00     0.129 A 
ATOM     71  Cl  UNL A   1      29.196  22.695  27.520  1.00  0.00    -0.062 Cl
BRANCH  67  72
ATOM     72  C   UNL A   1      32.312  26.409  26.108  1.00  0.00     0.434 C 
ATOM     73  F   UNL A   1      33.624  26.552  26.470  1.00  0.00    -0.164 F 
ATOM     74  F   UNL A   1      32.172  27.135  24.963  1.00  0.00    -0.164 F 
ATOM     75  F   UNL A   1      31.625  27.079  27.078  1.00  0.00    -0.164 F 
ENDBRANCH  67  72
ENDBRANCH  62  65
ENDBRANCH  60  61
ENDBRANCH  59  60
ENDBRANCH  58  59
ENDBRANCH   1  58
TORSDOF 14
ENDMDL
