MODEL 1
REMARK VINA RESULT:     -12.1      0.000      0.000
REMARK SMILES Cc1ccc(N2C(=O)N[C@@H]3CCN(C(=O)CC4(CC(=O)NCCCCCCNC(=O)c5ccc(-c6c7nc(c(-c8ccccc8)c8ccc([nH]8)c(-c8ccccc8)c8nc(c(-c9ccccc9)c9ccc6[nH]9)C=C8)C=C7)cc5)CCCC4)[C@@H]3C2=O)cc1
REMARK SMILES IDX 23 1 22 2 21 3 19 4 20 5 18 7 17 8 79 9 82 10 80 11 81 12
REMARK SMILES IDX 16 13 14 14 15 15 13 16 6 17 7 18 84 19 8 20 9 21 83 22
REMARK SMILES IDX 85 23 10 24 11 26 12 27 5 28 1 29 2 30 3 31 87 32 4 33 86 34
REMARK SMILES IDX 24 35 25 36 26 37 27 38 28 39 29 40 30 42 31 43 32 44 78 45
REMARK SMILES IDX 33 46 77 47 34 48 35 49 36 50 71 51 37 52 76 53 70 54 72 55
REMARK SMILES IDX 38 56 75 57 69 58 68 59 39 61 61 62 46 63 60 64 47 65 50 66
REMARK SMILES IDX 59 67 73 68 48 69 49 70 58 72 74 73 51 74 40 75 41 76 45 77
REMARK SMILES IDX 42 78 44 79 43 80 62 81 63 82 67 83 64 84 66 85 65 86 52 87
REMARK SMILES IDX 53 88 57 89 54 90 56 91 55 92
REMARK H PARENT 21 6 9 25 28 41 72 60 50 71
REMARK Flexibility Score: inf
ROOT
ATOM      1  C   UNL A   1      38.331  23.819  26.435  1.00  0.00     0.021 C 
ENDROOT
BRANCH   1   2
ATOM      2  C   UNL A   1      37.255  23.041  25.662  1.00  0.00     0.116 C 
BRANCH   2   3
ATOM      3  N   UNL A   1      36.339  22.400  26.586  1.00  0.00    -0.356 N 
ATOM      4  C   UNL A   1      35.119  21.827  26.400  1.00  0.00     0.220 C 
ATOM      5  O   UNL A   1      34.509  21.472  27.412  1.00  0.00    -0.275 OA
ATOM      6  H   UNL A   1      36.658  22.374  27.517  1.00  0.00     0.163 HD
BRANCH   4   7
ATOM      7  C   UNL A   1      34.536  21.571  25.012  1.00  0.00     0.107 C 
BRANCH   7   8
ATOM      8  C   UNL A   1      32.994  21.791  24.794  1.00  0.00    -0.012 C 
ATOM      9  C   UNL A   1      32.276  20.436  25.012  1.00  0.00     0.008 C 
ATOM     10  C   UNL A   1      32.754  22.058  23.290  1.00  0.00     0.008 C 
ATOM     11  C   UNL A   1      32.449  19.680  23.703  1.00  0.00     0.001 C 
ATOM     12  C   UNL A   1      32.296  20.753  22.640  1.00  0.00     0.001 C 
BRANCH   8  13
ATOM     13  C   UNL A   1      32.447  22.930  25.711  1.00  0.00     0.107 C 
BRANCH  13  14
ATOM     14  C   UNL A   1      31.302  23.846  25.240  1.00  0.00     0.223 C 
ATOM     15  O   UNL A   1      30.212  23.804  25.816  1.00  0.00    -0.275 OA
BRANCH  14  16
ATOM     16  N   UNL A   1      31.512  24.749  24.222  1.00  0.00    -0.328 N 
ATOM     17  N   UNL A   1      33.166  27.987  24.765  1.00  0.00    -0.230 N 
ATOM     18  C   UNL A   1      33.486  28.322  23.455  1.00  0.00     0.329 C 
ATOM     19  C   UNL A   1      32.595  26.772  25.160  1.00  0.00     0.260 C 
ATOM     20  O   UNL A   1      33.871  29.419  23.057  1.00  0.00    -0.248 OA
ATOM     21  N   UNL A   1      33.403  27.330  22.528  1.00  0.00    -0.332 N 
ATOM     22  C   UNL A   1      32.717  25.592  24.183  1.00  0.00     0.197 C 
ATOM     23  O   UNL A   1      32.029  26.633  26.251  1.00  0.00    -0.271 OA
ATOM     24  C   UNL A   1      32.794  26.051  22.734  1.00  0.00     0.118 C 
ATOM     25  H   UNL A   1      33.793  27.506  21.642  1.00  0.00     0.165 HD
ATOM     26  C   UNL A   1      31.347  26.067  22.261  1.00  0.00     0.049 C 
ATOM     27  C   UNL A   1      30.680  24.976  23.067  1.00  0.00     0.122 C 
BRANCH  17  28
ATOM     28  C   UNL A   1      33.401  28.961  25.788  1.00  0.00     0.054 A 
ATOM     29  C   UNL A   1      34.359  32.035  28.662  1.00  0.00     0.044 C 
ATOM     30  C   UNL A   1      34.022  30.956  27.677  1.00  0.00    -0.051 A 
ATOM     31  C   UNL A   1      32.799  30.978  26.996  1.00  0.00     0.005 A 
ATOM     32  C   UNL A   1      34.911  29.903  27.444  1.00  0.00     0.005 A 
ATOM     33  C   UNL A   1      32.499  30.000  26.042  1.00  0.00     0.027 A 
ATOM     34  C   UNL A   1      34.596  28.906  26.519  1.00  0.00     0.027 A 
ENDBRANCH  17  28
ENDBRANCH  14  16
ENDBRANCH  13  14
ENDBRANCH   8  13
ENDBRANCH   7   8
ENDBRANCH   4   7
ENDBRANCH   2   3
ENDBRANCH   1   2
BRANCH   1  35
ATOM     35  C   UNL A   1      39.660  23.077  26.615  1.00  0.00     0.002 C 
BRANCH  35  36
ATOM     36  C   UNL A   1      39.669  21.606  26.171  1.00  0.00     0.002 C 
BRANCH  36  37
ATOM     37  C   UNL A   1      41.023  20.898  26.247  1.00  0.00     0.021 C 
BRANCH  37  38
ATOM     38  C   UNL A   1      42.215  21.800  25.950  1.00  0.00     0.116 C 
BRANCH  38  39
ATOM     39  N   UNL A   1      43.259  21.135  25.182  1.00  0.00    -0.352 N 
ATOM     40  C   UNL A   1      44.533  21.554  24.836  1.00  0.00     0.251 C 
ATOM     41  H   UNL A   1      43.019  20.238  24.854  1.00  0.00     0.163 HD
ATOM     42  O   UNL A   1      45.227  20.851  24.128  1.00  0.00    -0.269 OA
BRANCH  40  43
ATOM     43  C   UNL A   1      45.107  22.777  25.456  1.00  0.00     0.039 A 
ATOM     44  C   UNL A   1      45.519  22.682  26.792  1.00  0.00     0.014 A 
ATOM     45  C   UNL A   1      45.050  24.020  24.835  1.00  0.00     0.014 A 
ATOM     46  C   UNL A   1      45.598  23.833  27.569  1.00  0.00     0.010 A 
ATOM     47  C   UNL A   1      45.038  25.156  25.618  1.00  0.00     0.010 A 
ATOM     48  C   UNL A   1      45.223  25.046  26.997  1.00  0.00    -0.014 A 
BRANCH  48  49
ATOM     49  C   UNL A   1      44.877  26.223  27.781  1.00  0.00     0.031 A 
ATOM     50  C   UNL A   1      43.484  26.715  27.798  1.00  0.00     0.074 A 
ATOM     51  C   UNL A   1      45.829  26.818  28.537  1.00  0.00     0.049 A 
ATOM     52  N   UNL A   1      43.150  27.923  28.100  1.00  0.00    -0.248 NA
ATOM     53  C   UNL A   1      42.346  25.891  27.394  1.00  0.00     0.031 C 
ATOM     54  C   UNL A   1      45.627  27.845  29.557  1.00  0.00     0.029 A 
ATOM     55  N   UNL A   1      47.221  26.774  28.391  1.00  0.00    -0.354 N 
ATOM     56  C   UNL A   1      41.783  27.950  28.242  1.00  0.00     0.074 A 
ATOM     57  C   UNL A   1      41.325  26.714  27.658  1.00  0.00     0.031 C 
ATOM     58  C   UNL A   1      46.769  28.536  29.703  1.00  0.00     0.029 A 
ATOM     59  C   UNL A   1      47.678  28.072  28.666  1.00  0.00     0.049 A 
ATOM     60  H   UNL A   1      47.768  25.992  28.146  1.00  0.00     0.167 HD
ATOM     61  C   UNL A   1      41.215  28.948  28.976  1.00  0.00     0.031 A 
ATOM     62  C   UNL A   1      48.286  28.880  27.748  1.00  0.00     0.031 A 
ATOM     63  C   UNL A   1      42.188  29.991  29.301  1.00  0.00     0.049 A 
ATOM     64  C   UNL A   1      47.571  30.205  27.552  1.00  0.00     0.074 A 
ATOM     65  C   UNL A   1      42.873  30.323  30.457  1.00  0.00     0.029 A 
ATOM     66  N   UNL A   1      42.791  30.700  28.267  1.00  0.00    -0.354 N 
ATOM     67  N   UNL A   1      46.332  30.418  27.905  1.00  0.00    -0.248 NA
ATOM     68  C   UNL A   1      48.168  31.371  26.903  1.00  0.00     0.031 C 
ATOM     69  C   UNL A   1      43.958  31.165  30.093  1.00  0.00     0.029 A 
ATOM     70  C   UNL A   1      43.902  31.379  28.726  1.00  0.00     0.049 A 
ATOM     71  H   UNL A   1      42.471  30.714  27.336  1.00  0.00     0.167 HD
ATOM     72  C   UNL A   1      45.966  31.693  27.561  1.00  0.00     0.074 A 
ATOM     73  C   UNL A   1      47.151  32.252  26.939  1.00  0.00     0.031 C 
ATOM     74  C   UNL A   1      44.710  32.170  27.807  1.00  0.00     0.031 A 
BRANCH  61  75
ATOM     75  C   UNL A   1      39.843  28.877  29.619  1.00  0.00    -0.014 A 
ATOM     76  C   UNL A   1      38.832  29.757  29.185  1.00  0.00     0.009 A 
ATOM     77  C   UNL A   1      39.503  28.059  30.710  1.00  0.00     0.009 A 
ATOM     78  C   UNL A   1      37.588  29.844  29.827  1.00  0.00     0.001 A 
ATOM     79  C   UNL A   1      38.257  28.130  31.352  1.00  0.00     0.001 A 
ATOM     80  C   UNL A   1      37.301  29.032  30.917  1.00  0.00     0.000 A 
ENDBRANCH  61  75
BRANCH  62  81
ATOM     81  C   UNL A   1      49.020  28.163  26.671  1.00  0.00    -0.014 A 
ATOM     82  C   UNL A   1      50.368  27.824  26.889  1.00  0.00     0.009 A 
ATOM     83  C   UNL A   1      48.326  27.521  25.635  1.00  0.00     0.009 A 
ATOM     84  C   UNL A   1      50.973  26.791  26.166  1.00  0.00     0.001 A 
ATOM     85  C   UNL A   1      48.939  26.491  24.909  1.00  0.00     0.001 A 
ATOM     86  C   UNL A   1      50.246  26.103  25.200  1.00  0.00     0.000 A 
ENDBRANCH  62  81
BRANCH  74  87
ATOM     87  C   UNL A   1      44.122  33.451  27.265  1.00  0.00    -0.014 A 
ATOM     88  C   UNL A   1      43.850  33.686  25.911  1.00  0.00     0.009 A 
ATOM     89  C   UNL A   1      43.677  34.435  28.178  1.00  0.00     0.009 A 
ATOM     90  C   UNL A   1      43.207  34.860  25.489  1.00  0.00     0.001 A 
ATOM     91  C   UNL A   1      42.993  35.583  27.767  1.00  0.00     0.001 A 
ATOM     92  C   UNL A   1      42.769  35.800  26.417  1.00  0.00     0.000 A 
ENDBRANCH  74  87
ENDBRANCH  48  49
ENDBRANCH  40  43
ENDBRANCH  38  39
ENDBRANCH  37  38
ENDBRANCH  36  37
ENDBRANCH  35  36
ENDBRANCH   1  35
TORSDOF 18
ENDMDL
MODEL 2
REMARK VINA RESULT:     -11.9      1.513      2.095
REMARK SMILES Cc1ccc(N2C(=O)N[C@@H]3CCN(C(=O)CC4(CC(=O)NCCCCCCNC(=O)c5ccc(-c6c7nc(c(-c8ccccc8)c8ccc([nH]8)c(-c8ccccc8)c8nc(c(-c9ccccc9)c9ccc6[nH]9)C=C8)C=C7)cc5)CCCC4)[C@@H]3C2=O)cc1
REMARK SMILES IDX 23 1 22 2 21 3 19 4 20 5 18 7 17 8 79 9 82 10 80 11 81 12
REMARK SMILES IDX 16 13 14 14 15 15 13 16 6 17 7 18 84 19 8 20 9 21 83 22
REMARK SMILES IDX 85 23 10 24 11 26 12 27 5 28 1 29 2 30 3 31 87 32 4 33 86 34
REMARK SMILES IDX 24 35 25 36 26 37 27 38 28 39 29 40 30 42 31 43 32 44 78 45
REMARK SMILES IDX 33 46 77 47 34 48 35 49 36 50 71 51 37 52 76 53 70 54 72 55
REMARK SMILES IDX 38 56 75 57 69 58 68 59 39 61 61 62 46 63 60 64 47 65 50 66
REMARK SMILES IDX 59 67 73 68 48 69 49 70 58 72 74 73 51 74 40 75 41 76 45 77
REMARK SMILES IDX 42 78 44 79 43 80 62 81 63 82 67 83 64 84 66 85 65 86 52 87
REMARK SMILES IDX 53 88 57 89 54 90 56 91 55 92
REMARK H PARENT 21 6 9 25 28 41 72 60 50 71
REMARK Flexibility Score: inf
ROOT
ATOM      1  C   UNL A   1      37.104  21.045  24.625  1.00  0.00     0.021 C 
ENDROOT
BRANCH   1   2
ATOM      2  C   UNL A   1      35.830  20.264  24.984  1.00  0.00     0.116 C 
BRANCH   2   3
ATOM      3  N   UNL A   1      35.222  20.817  26.179  1.00  0.00    -0.356 N 
ATOM      4  C   UNL A   1      34.309  21.811  26.353  1.00  0.00     0.220 C 
ATOM      5  O   UNL A   1      34.074  22.154  27.514  1.00  0.00    -0.275 OA
ATOM      6  H   UNL A   1      35.526  20.398  27.016  1.00  0.00     0.163 HD
BRANCH   4   7
ATOM      7  C   UNL A   1      33.555  22.445  25.187  1.00  0.00     0.107 C 
BRANCH   7   8
ATOM      8  C   UNL A   1      32.105  21.929  24.862  1.00  0.00    -0.012 C 
ATOM      9  C   UNL A   1      32.100  20.385  24.991  1.00  0.00     0.008 C 
ATOM     10  C   UNL A   1      31.846  22.138  23.352  1.00  0.00     0.008 C 
ATOM     11  C   UNL A   1      32.676  19.876  23.679  1.00  0.00     0.001 C 
ATOM     12  C   UNL A   1      32.091  20.811  22.635  1.00  0.00     0.001 C 
BRANCH   8  13
ATOM     13  C   UNL A   1      31.039  22.623  25.767  1.00  0.00     0.107 C 
BRANCH  13  14
ATOM     14  C   UNL A   1      31.043  24.151  25.965  1.00  0.00     0.223 C 
ATOM     15  O   UNL A   1      30.983  24.618  27.106  1.00  0.00    -0.275 OA
BRANCH  14  16
ATOM     16  N   UNL A   1      31.171  24.990  24.881  1.00  0.00    -0.328 N 
ATOM     17  N   UNL A   1      33.111  28.110  25.018  1.00  0.00    -0.230 N 
ATOM     18  C   UNL A   1      33.266  28.362  23.660  1.00  0.00     0.329 C 
ATOM     19  C   UNL A   1      32.516  26.961  25.552  1.00  0.00     0.260 C 
ATOM     20  O   UNL A   1      33.668  29.407  23.155  1.00  0.00    -0.248 OA
ATOM     21  N   UNL A   1      32.983  27.340  22.808  1.00  0.00    -0.332 N 
ATOM     22  C   UNL A   1      32.415  25.734  24.632  1.00  0.00     0.197 C 
ATOM     23  O   UNL A   1      32.101  26.914  26.717  1.00  0.00    -0.271 OA
ATOM     24  C   UNL A   1      32.319  26.122  23.164  1.00  0.00     0.118 C 
ATOM     25  H   UNL A   1      33.256  27.447  21.868  1.00  0.00     0.165 HD
ATOM     26  C   UNL A   1      30.826  26.231  22.894  1.00  0.00     0.049 C 
ATOM     27  C   UNL A   1      30.202  25.231  23.841  1.00  0.00     0.122 C 
BRANCH  17  28
ATOM     28  C   UNL A   1      33.556  29.105  25.946  1.00  0.00     0.054 A 
ATOM     29  C   UNL A   1      34.652  31.986  28.967  1.00  0.00     0.044 C 
ATOM     30  C   UNL A   1      34.276  30.997  27.905  1.00  0.00    -0.051 A 
ATOM     31  C   UNL A   1      35.143  29.948  27.577  1.00  0.00     0.005 A 
ATOM     32  C   UNL A   1      33.068  31.122  27.213  1.00  0.00     0.005 A 
ATOM     33  C   UNL A   1      34.777  28.996  26.620  1.00  0.00     0.027 A 
ATOM     34  C   UNL A   1      32.719  30.194  26.230  1.00  0.00     0.027 A 
ENDBRANCH  17  28
ENDBRANCH  14  16
ENDBRANCH  13  14
ENDBRANCH   8  13
ENDBRANCH   7   8
ENDBRANCH   4   7
ENDBRANCH   2   3
ENDBRANCH   1   2
BRANCH   1  35
ATOM     35  C   UNL A   1      36.864  22.364  23.884  1.00  0.00     0.002 C 
BRANCH  35  36
ATOM     36  C   UNL A   1      37.311  23.636  24.621  1.00  0.00     0.002 C 
BRANCH  36  37
ATOM     37  C   UNL A   1      37.585  23.475  26.118  1.00  0.00     0.021 C 
BRANCH  37  38
ATOM     38  C   UNL A   1      39.061  23.551  26.493  1.00  0.00     0.116 C 
BRANCH  38  39
ATOM     39  N   UNL A   1      39.808  22.358  26.118  1.00  0.00    -0.352 N 
ATOM     40  C   UNL A   1      41.170  22.110  26.112  1.00  0.00     0.251 C 
ATOM     41  H   UNL A   1      39.252  21.602  25.820  1.00  0.00     0.163 HD
ATOM     42  O   UNL A   1      41.587  21.046  25.698  1.00  0.00    -0.269 OA
BRANCH  40  43
ATOM     43  C   UNL A   1      42.104  23.072  26.754  1.00  0.00     0.039 A 
ATOM     44  C   UNL A   1      42.337  22.914  28.127  1.00  0.00     0.014 A 
ATOM     45  C   UNL A   1      42.567  24.207  26.098  1.00  0.00     0.014 A 
ATOM     46  C   UNL A   1      42.774  24.002  28.877  1.00  0.00     0.010 A 
ATOM     47  C   UNL A   1      42.912  25.314  26.845  1.00  0.00     0.010 A 
ATOM     48  C   UNL A   1      42.927  25.229  28.239  1.00  0.00    -0.014 A 
BRANCH  48  49
ATOM     49  C   UNL A   1      42.979  26.497  28.953  1.00  0.00     0.031 A 
ATOM     50  C   UNL A   1      41.747  27.290  29.139  1.00  0.00     0.074 A 
ATOM     51  C   UNL A   1      44.152  26.905  29.491  1.00  0.00     0.049 A 
ATOM     52  N   UNL A   1      41.734  28.558  29.374  1.00  0.00    -0.248 NA
ATOM     53  C   UNL A   1      40.407  26.722  28.996  1.00  0.00     0.031 C 
ATOM     54  C   UNL A   1      44.351  28.008  30.430  1.00  0.00     0.029 A 
ATOM     55  N   UNL A   1      45.456  26.541  29.136  1.00  0.00    -0.354 N 
ATOM     56  C   UNL A   1      40.449  28.901  29.723  1.00  0.00     0.074 A 
ATOM     57  C   UNL A   1      39.645  27.767  29.337  1.00  0.00     0.031 C 
ATOM     58  C   UNL A   1      45.622  28.432  30.330  1.00  0.00     0.029 A 
ATOM     59  C   UNL A   1      46.218  27.716  29.213  1.00  0.00     0.049 A 
ATOM     60  H   UNL A   1      45.773  25.643  28.884  1.00  0.00     0.167 HD
ATOM     61  C   UNL A   1      40.242  30.041  30.439  1.00  0.00     0.031 A 
ATOM     62  C   UNL A   1      46.816  28.312  28.139  1.00  0.00     0.031 A 
ATOM     63  C   UNL A   1      41.455  30.855  30.509  1.00  0.00     0.049 A 
ATOM     64  C   UNL A   1      46.376  29.750  27.933  1.00  0.00     0.074 A 
ATOM     65  C   UNL A   1      42.384  31.091  31.508  1.00  0.00     0.029 A 
ATOM     66  N   UNL A   1      42.008  31.349  29.332  1.00  0.00    -0.354 N 
ATOM     67  N   UNL A   1      45.291  30.257  28.452  1.00  0.00    -0.248 NA
ATOM     68  C   UNL A   1      47.087  30.712  27.091  1.00  0.00     0.031 C 
ATOM     69  C   UNL A   1      43.544  31.644  30.902  1.00  0.00     0.029 A 
ATOM     70  C   UNL A   1      43.299  31.786  29.547  1.00  0.00     0.049 A 
ATOM     71  H   UNL A   1      41.542  31.382  28.465  1.00  0.00     0.167 HD
ATOM     72  C   UNL A   1      45.150  31.560  28.050  1.00  0.00     0.074 A 
ATOM     73  C   UNL A   1      46.302  31.800  27.202  1.00  0.00     0.031 C 
ATOM     74  C   UNL A   1      44.087  32.320  28.443  1.00  0.00     0.031 A 
BRANCH  61  75
ATOM     75  C   UNL A   1      39.018  30.318  31.291  1.00  0.00    -0.014 A 
ATOM     76  C   UNL A   1      37.744  29.963  30.804  1.00  0.00     0.009 A 
ATOM     77  C   UNL A   1      39.023  31.010  32.515  1.00  0.00     0.009 A 
ATOM     78  C   UNL A   1      36.561  30.314  31.472  1.00  0.00     0.001 A 
ATOM     79  C   UNL A   1      37.847  31.355  33.196  1.00  0.00     0.001 A 
ATOM     80  C   UNL A   1      36.613  31.017  32.668  1.00  0.00     0.000 A 
ENDBRANCH  61  75
BRANCH  62  81
ATOM     81  C   UNL A   1      47.184  27.387  27.034  1.00  0.00    -0.014 A 
ATOM     82  C   UNL A   1      48.229  26.469  27.248  1.00  0.00     0.009 A 
ATOM     83  C   UNL A   1      46.310  27.169  25.960  1.00  0.00     0.009 A 
ATOM     84  C   UNL A   1      48.329  25.305  26.478  1.00  0.00     0.001 A 
ATOM     85  C   UNL A   1      46.418  26.005  25.187  1.00  0.00     0.001 A 
ATOM     86  C   UNL A   1      47.402  25.059  25.471  1.00  0.00     0.000 A 
ENDBRANCH  62  81
BRANCH  74  87
ATOM     87  C   UNL A   1      43.700  33.667  27.879  1.00  0.00    -0.014 A 
ATOM     88  C   UNL A   1      43.656  33.971  26.513  1.00  0.00     0.009 A 
ATOM     89  C   UNL A   1      43.208  34.657  28.762  1.00  0.00     0.009 A 
ATOM     90  C   UNL A   1      43.187  35.212  26.055  1.00  0.00     0.001 A 
ATOM     91  C   UNL A   1      42.696  35.876  28.308  1.00  0.00     0.001 A 
ATOM     92  C   UNL A   1      42.697  36.158  26.951  1.00  0.00     0.000 A 
ENDBRANCH  74  87
ENDBRANCH  48  49
ENDBRANCH  40  43
ENDBRANCH  38  39
ENDBRANCH  37  38
ENDBRANCH  36  37
ENDBRANCH  35  36
ENDBRANCH   1  35
TORSDOF 18
ENDMDL
MODEL 3
REMARK VINA RESULT:     -11.8      1.883      3.207
REMARK SMILES Cc1ccc(N2C(=O)N[C@@H]3CCN(C(=O)CC4(CC(=O)NCCCCCCNC(=O)c5ccc(-c6c7nc(c(-c8ccccc8)c8ccc([nH]8)c(-c8ccccc8)c8nc(c(-c9ccccc9)c9ccc6[nH]9)C=C8)C=C7)cc5)CCCC4)[C@@H]3C2=O)cc1
REMARK SMILES IDX 23 1 22 2 21 3 19 4 20 5 18 7 17 8 79 9 82 10 80 11 81 12
REMARK SMILES IDX 16 13 14 14 15 15 13 16 6 17 7 18 84 19 8 20 9 21 83 22
REMARK SMILES IDX 85 23 10 24 11 26 12 27 5 28 1 29 2 30 3 31 87 32 4 33 86 34
REMARK SMILES IDX 24 35 25 36 26 37 27 38 28 39 29 40 30 42 31 43 32 44 78 45
REMARK SMILES IDX 33 46 77 47 34 48 35 49 36 50 71 51 37 52 76 53 70 54 72 55
REMARK SMILES IDX 38 56 75 57 69 58 68 59 39 61 61 62 46 63 60 64 47 65 50 66
REMARK SMILES IDX 59 67 73 68 48 69 49 70 58 72 74 73 51 74 40 75 41 76 45 77
REMARK SMILES IDX 42 78 44 79 43 80 62 81 63 82 67 83 64 84 66 85 65 86 52 87
REMARK SMILES IDX 53 88 57 89 54 90 56 91 55 92
REMARK H PARENT 21 6 9 25 28 41 72 60 50 71
REMARK Flexibility Score: inf
ROOT
ATOM      1  C   UNL A   1      36.691  21.803  24.354  1.00  0.00     0.021 C 
ENDROOT
BRANCH   1   2
ATOM      2  C   UNL A   1      36.215  20.712  25.328  1.00  0.00     0.116 C 
BRANCH   2   3
ATOM      3  N   UNL A   1      35.057  20.028  24.786  1.00  0.00    -0.356 N 
ATOM      4  C   UNL A   1      33.793  20.456  24.524  1.00  0.00     0.220 C 
ATOM      5  O   UNL A   1      32.974  19.600  24.181  1.00  0.00    -0.275 OA
ATOM      6  H   UNL A   1      35.214  19.080  24.570  1.00  0.00     0.163 HD
BRANCH   4   7
ATOM      7  C   UNL A   1      33.398  21.930  24.585  1.00  0.00     0.107 C 
BRANCH   7   8
ATOM      8  C   UNL A   1      32.671  22.458  25.877  1.00  0.00    -0.012 C 
ATOM      9  C   UNL A   1      33.455  23.685  26.406  1.00  0.00     0.008 C 
ATOM     10  C   UNL A   1      32.877  21.420  27.003  1.00  0.00     0.008 C 
ATOM     11  C   UNL A   1      34.623  23.103  27.187  1.00  0.00     0.001 C 
ATOM     12  C   UNL A   1      34.026  21.897  27.890  1.00  0.00     0.001 C 
BRANCH   8  13
ATOM     13  C   UNL A   1      31.167  22.766  25.596  1.00  0.00     0.107 C 
BRANCH  13  14
ATOM     14  C   UNL A   1      30.626  24.207  25.667  1.00  0.00     0.223 C 
ATOM     15  O   UNL A   1      30.033  24.586  26.680  1.00  0.00    -0.275 OA
BRANCH  14  16
ATOM     16  N   UNL A   1      30.855  25.084  24.631  1.00  0.00    -0.328 N 
ATOM     17  N   UNL A   1      32.923  28.099  25.017  1.00  0.00    -0.230 N 
ATOM     18  C   UNL A   1      33.168  28.401  23.683  1.00  0.00     0.329 C 
ATOM     19  C   UNL A   1      32.247  26.958  25.465  1.00  0.00     0.260 C 
ATOM     20  O   UNL A   1      33.646  29.447  23.249  1.00  0.00    -0.248 OA
ATOM     21  N   UNL A   1      32.888  27.432  22.771  1.00  0.00    -0.332 N 
ATOM     22  C   UNL A   1      32.143  25.778  24.486  1.00  0.00     0.197 C 
ATOM     23  O   UNL A   1      31.763  26.881  26.601  1.00  0.00    -0.271 OA
ATOM     24  C   UNL A   1      32.150  26.233  23.034  1.00  0.00     0.118 C 
ATOM     25  H   UNL A   1      33.220  27.566  21.854  1.00  0.00     0.165 HD
ATOM     26  C   UNL A   1      30.681  26.425  22.686  1.00  0.00     0.049 C 
ATOM     27  C   UNL A   1      29.960  25.416  23.550  1.00  0.00     0.122 C 
BRANCH  17  28
ATOM     28  C   UNL A   1      33.359  29.031  26.013  1.00  0.00     0.054 A 
ATOM     29  C   UNL A   1      34.912  31.959  28.778  1.00  0.00     0.044 C 
ATOM     30  C   UNL A   1      34.368  30.931  27.831  1.00  0.00    -0.051 A 
ATOM     31  C   UNL A   1      33.090  31.082  27.282  1.00  0.00     0.005 A 
ATOM     32  C   UNL A   1      35.120  29.799  27.503  1.00  0.00     0.005 A 
ATOM     33  C   UNL A   1      32.596  30.151  26.362  1.00  0.00     0.027 A 
ATOM     34  C   UNL A   1      34.613  28.850  26.614  1.00  0.00     0.027 A 
ENDBRANCH  17  28
ENDBRANCH  14  16
ENDBRANCH  13  14
ENDBRANCH   8  13
ENDBRANCH   7   8
ENDBRANCH   4   7
ENDBRANCH   2   3
ENDBRANCH   1   2
BRANCH   1  35
ATOM     35  C   UNL A   1      37.379  23.001  25.016  1.00  0.00     0.002 C 
BRANCH  35  36
ATOM     36  C   UNL A   1      38.314  22.671  26.190  1.00  0.00     0.002 C 
BRANCH  36  37
ATOM     37  C   UNL A   1      39.325  21.550  25.940  1.00  0.00     0.021 C 
BRANCH  37  38
ATOM     38  C   UNL A   1      40.550  21.604  26.845  1.00  0.00     0.116 C 
BRANCH  38  39
ATOM     39  N   UNL A   1      41.723  22.164  26.188  1.00  0.00    -0.352 N 
ATOM     40  C   UNL A   1      42.112  23.479  26.000  1.00  0.00     0.251 C 
ATOM     41  H   UNL A   1      42.343  21.496  25.815  1.00  0.00     0.163 HD
ATOM     42  O   UNL A   1      43.116  23.726  25.360  1.00  0.00    -0.269 OA
BRANCH  40  43
ATOM     43  C   UNL A   1      41.398  24.574  26.708  1.00  0.00     0.039 A 
ATOM     44  C   UNL A   1      41.177  25.759  25.992  1.00  0.00     0.014 A 
ATOM     45  C   UNL A   1      41.145  24.532  28.075  1.00  0.00     0.014 A 
ATOM     46  C   UNL A   1      40.978  26.950  26.683  1.00  0.00     0.010 A 
ATOM     47  C   UNL A   1      41.039  25.719  28.769  1.00  0.00     0.010 A 
ATOM     48  C   UNL A   1      41.046  26.930  28.074  1.00  0.00    -0.014 A 
BRANCH  48  49
ATOM     49  C   UNL A   1      41.259  28.124  28.878  1.00  0.00     0.031 A 
ATOM     50  C   UNL A   1      40.156  29.088  29.072  1.00  0.00     0.074 A 
ATOM     51  C   UNL A   1      42.452  28.306  29.490  1.00  0.00     0.049 A 
ATOM     52  N   UNL A   1      40.329  30.324  29.397  1.00  0.00    -0.248 NA
ATOM     53  C   UNL A   1      38.754  28.750  28.836  1.00  0.00     0.031 C 
ATOM     54  C   UNL A   1      42.773  29.300  30.513  1.00  0.00     0.029 A 
ATOM     55  N   UNL A   1      43.700  27.763  29.161  1.00  0.00    -0.354 N 
ATOM     56  C   UNL A   1      39.097  30.843  29.719  1.00  0.00     0.074 A 
ATOM     57  C   UNL A   1      38.147  29.879  29.221  1.00  0.00     0.031 C 
ATOM     58  C   UNL A   1      44.097  29.523  30.494  1.00  0.00     0.029 A 
ATOM     59  C   UNL A   1      44.631  28.796  29.353  1.00  0.00     0.049 A 
ATOM     60  H   UNL A   1      43.886  26.845  28.858  1.00  0.00     0.167 HD
ATOM     61  C   UNL A   1      39.033  31.953  30.506  1.00  0.00     0.031 A 
ATOM     62  C   UNL A   1      45.367  29.358  28.349  1.00  0.00     0.031 A 
ATOM     63  C   UNL A   1      40.354  32.558  30.682  1.00  0.00     0.049 A 
ATOM     64  C   UNL A   1      45.167  30.858  28.230  1.00  0.00     0.074 A 
ATOM     65  C   UNL A   1      41.256  32.579  31.732  1.00  0.00     0.029 A 
ATOM     66  N   UNL A   1      41.034  33.034  29.567  1.00  0.00    -0.354 N 
ATOM     67  N   UNL A   1      44.149  31.495  28.741  1.00  0.00    -0.248 NA
ATOM     68  C   UNL A   1      46.059  31.747  27.488  1.00  0.00     0.031 C 
ATOM     69  C   UNL A   1      42.517  32.980  31.213  1.00  0.00     0.029 A 
ATOM     70  C   UNL A   1      42.365  33.246  29.863  1.00  0.00     0.049 A 
ATOM     71  H   UNL A   1      40.623  33.196  28.686  1.00  0.00     0.167 HD
ATOM     72  C   UNL A   1      44.232  32.827  28.428  1.00  0.00     0.074 A 
ATOM     73  C   UNL A   1      45.448  32.937  27.646  1.00  0.00     0.031 C 
ATOM     74  C   UNL A   1      43.281  33.719  28.832  1.00  0.00     0.031 A 
BRANCH  61  75
ATOM     75  C   UNL A   1      37.826  32.364  31.327  1.00  0.00    -0.014 A 
ATOM     76  C   UNL A   1      37.303  33.665  31.180  1.00  0.00     0.009 A 
ATOM     77  C   UNL A   1      37.222  31.581  32.326  1.00  0.00     0.009 A 
ATOM     78  C   UNL A   1      36.281  34.159  32.005  1.00  0.00     0.001 A 
ATOM     79  C   UNL A   1      36.191  32.062  33.147  1.00  0.00     0.001 A 
ATOM     80  C   UNL A   1      35.728  33.357  32.994  1.00  0.00     0.000 A 
ENDBRANCH  61  75
BRANCH  62  81
ATOM     81  C   UNL A   1      45.642  28.460  27.196  1.00  0.00    -0.014 A 
ATOM     82  C   UNL A   1      46.687  27.525  27.308  1.00  0.00     0.009 A 
ATOM     83  C   UNL A   1      44.689  28.282  26.182  1.00  0.00     0.009 A 
ATOM     84  C   UNL A   1      46.716  26.382  26.503  1.00  0.00     0.001 A 
ATOM     85  C   UNL A   1      44.726  27.139  25.373  1.00  0.00     0.001 A 
ATOM     86  C   UNL A   1      45.716  26.174  25.559  1.00  0.00     0.000 A 
ENDBRANCH  62  81
BRANCH  74  87
ATOM     87  C   UNL A   1      43.137  35.144  28.353  1.00  0.00    -0.014 A 
ATOM     88  C   UNL A   1      42.802  35.509  27.043  1.00  0.00     0.009 A 
ATOM     89  C   UNL A   1      43.197  36.191  29.303  1.00  0.00     0.009 A 
ATOM     90  C   UNL A   1      42.582  36.850  26.691  1.00  0.00     0.001 A 
ATOM     91  C   UNL A   1      42.933  37.522  28.967  1.00  0.00     0.001 A 
ATOM     92  C   UNL A   1      42.636  37.852  27.654  1.00  0.00     0.000 A 
ENDBRANCH  74  87
ENDBRANCH  48  49
ENDBRANCH  40  43
ENDBRANCH  38  39
ENDBRANCH  37  38
ENDBRANCH  36  37
ENDBRANCH  35  36
ENDBRANCH   1  35
TORSDOF 18
ENDMDL
