MODEL 1
REMARK VINA RESULT:     -11.1      0.000      0.000
REMARK SMILES COc1cc2c(cc1OC)C1=C(C#N)C[N@@H+](CC(=O)NCCCCCCNC(=O)c3ccc(-c4c5nc(c(-c6ccccc6)c6ccc([nH]6)c(-c6ccccc6)c6nc(c(-c7ccccc7)c7ccc4[nH]7)C=C6)C=C5)cc3)CN1CC2
REMARK SMILES IDX 23 1 22 2 21 3 20 4 18 5 19 6 17 8 16 9 3 10 4 11 8 12 5 13
REMARK SMILES IDX 7 14 6 15 81 16 11 17 80 18 12 19 79 20 15 21 78 22 2 24
REMARK SMILES IDX 1 25 9 26 10 27 13 28 14 29 24 30 25 31 26 32 27 33 28 34
REMARK SMILES IDX 29 36 30 37 31 38 77 39 32 40 76 41 33 42 34 43 35 44 70 45
REMARK SMILES IDX 36 46 75 47 69 48 71 49 37 50 74 51 68 52 67 53 38 55 60 56
REMARK SMILES IDX 45 57 59 58 46 59 49 60 58 61 72 62 47 63 48 64 57 66 73 67
REMARK SMILES IDX 50 68 39 69 40 70 44 71 41 72 43 73 42 74 61 75 62 76 66 77
REMARK SMILES IDX 63 78 65 79 64 80 51 81 52 82 56 83 53 84 55 85 54 86
REMARK H PARENT 20 7 16 23 27 35 71 54 49 65
REMARK Flexibility Score: inf
ROOT
ATOM      1  C   UNL A   1      32.518  29.705  27.200  1.00  0.00     0.002 C 
ENDROOT
BRANCH   1   2
ATOM      2  C   UNL A   1      31.897  28.335  27.464  1.00  0.00     0.021 C 
BRANCH   2   3
ATOM      3  C   UNL A   1      31.428  27.524  26.260  1.00  0.00     0.116 C 
BRANCH   3   4
ATOM      4  N   UNL A   1      31.066  26.181  26.678  1.00  0.00    -0.351 N 
ATOM      5  C   UNL A   1      30.192  25.288  26.125  1.00  0.00     0.275 C 
ATOM      6  O   UNL A   1      29.888  24.296  26.797  1.00  0.00    -0.269 OA
ATOM      7  H   UNL A   1      31.524  25.863  27.490  1.00  0.00     0.163 HD
BRANCH   5   8
ATOM      8  C   UNL A   1      29.691  25.449  24.688  1.00  0.00     0.365 C 
BRANCH   8   9
ATOM      9  N   UNL A   1      30.522  24.873  23.623  1.00  0.00    -0.306 N 
ATOM     10  C   UNL A   1      36.920  22.119  25.739  1.00  0.00     0.161 A 
ATOM     11  C   UNL A   1      36.562  23.470  25.834  1.00  0.00     0.055 A 
ATOM     12  C   UNL A   1      36.048  21.235  25.102  1.00  0.00     0.161 A 
ATOM     13  C   UNL A   1      35.324  23.934  25.342  1.00  0.00    -0.033 A 
ATOM     14  C   UNL A   1      34.825  21.718  24.600  1.00  0.00     0.061 A 
ATOM     15  C   UNL A   1      34.392  23.043  24.778  1.00  0.00     0.006 A 
ATOM     16  C   UNL A   1      35.000  25.409  25.372  1.00  0.00     0.058 C 
ATOM     17  C   UNL A   1      33.051  23.572  24.321  1.00  0.00     0.068 C 
ATOM     18  C   UNL A   1      34.189  25.791  24.128  1.00  0.00     0.127 C 
ATOM     19  C   UNL A   1      31.909  22.848  24.220  1.00  0.00     0.108 C 
ATOM     20  N   UNL A   1      33.003  24.939  24.028  1.00  0.00    -0.323 N 
ATOM     21  C   UNL A   1      30.647  23.421  23.645  1.00  0.00     0.314 C 
ATOM     22  C   UNL A   1      31.816  25.519  23.405  1.00  0.00     0.390 C 
ATOM     23  H   UNL A   1      29.960  25.098  22.802  1.00  0.00     0.350 HD
BRANCH  10  24
ATOM     24  O   UNL A   1      38.160  21.682  26.124  1.00  0.00    -0.493 OA
ATOM     25  C   UNL A   1      39.128  22.712  26.297  1.00  0.00     0.278 C 
ENDBRANCH  10  24
BRANCH  12  26
ATOM     26  O   UNL A   1      36.228  19.897  24.857  1.00  0.00    -0.493 OA
ATOM     27  C   UNL A   1      35.077  19.099  24.614  1.00  0.00     0.278 C 
ENDBRANCH  12  26
BRANCH  19  28
ATOM     28  C   UNL A   1      31.902  21.385  24.633  1.00  0.00     0.103 C 
ATOM     29  N   UNL A   1      31.896  20.172  24.974  1.00  0.00    -0.192 NA
ENDBRANCH  19  28
ENDBRANCH   8   9
ENDBRANCH   5   8
ENDBRANCH   3   4
ENDBRANCH   2   3
ENDBRANCH   1   2
BRANCH   1  30
ATOM     30  C   UNL A   1      31.697  30.619  26.281  1.00  0.00     0.002 C 
BRANCH  30  31
ATOM     31  C   UNL A   1      31.473  32.062  26.760  1.00  0.00     0.021 C 
BRANCH  31  32
ATOM     32  C   UNL A   1      32.721  32.826  27.206  1.00  0.00     0.116 C 
BRANCH  32  33
ATOM     33  N   UNL A   1      32.437  34.166  27.689  1.00  0.00    -0.352 N 
ATOM     34  C   UNL A   1      33.034  34.895  28.688  1.00  0.00     0.251 C 
ATOM     35  H   UNL A   1      31.698  34.625  27.227  1.00  0.00     0.163 HD
ATOM     36  O   UNL A   1      32.565  35.987  29.007  1.00  0.00    -0.269 OA
BRANCH  34  37
ATOM     37  C   UNL A   1      34.208  34.370  29.426  1.00  0.00     0.039 A 
ATOM     38  C   UNL A   1      35.514  34.545  28.964  1.00  0.00     0.014 A 
ATOM     39  C   UNL A   1      33.988  33.712  30.642  1.00  0.00     0.014 A 
ATOM     40  C   UNL A   1      36.577  33.934  29.633  1.00  0.00     0.010 A 
ATOM     41  C   UNL A   1      35.064  33.164  31.349  1.00  0.00     0.010 A 
ATOM     42  C   UNL A   1      36.366  33.230  30.829  1.00  0.00    -0.014 A 
BRANCH  42  43
ATOM     43  C   UNL A   1      37.504  32.570  31.528  1.00  0.00     0.031 A 
ATOM     44  C   UNL A   1      37.979  33.066  32.869  1.00  0.00     0.074 A 
ATOM     45  C   UNL A   1      38.106  31.504  30.965  1.00  0.00     0.049 A 
ATOM     46  N   UNL A   1      38.951  32.610  33.620  1.00  0.00    -0.248 NA
ATOM     47  C   UNL A   1      37.275  34.225  33.443  1.00  0.00     0.031 C 
ATOM     48  C   UNL A   1      37.738  30.914  29.678  1.00  0.00     0.029 A 
ATOM     49  N   UNL A   1      39.140  30.715  31.409  1.00  0.00    -0.354 N 
ATOM     50  C   UNL A   1      38.983  33.429  34.743  1.00  0.00     0.074 A 
ATOM     51  C   UNL A   1      37.958  34.434  34.561  1.00  0.00     0.031 C 
ATOM     52  C   UNL A   1      38.499  29.831  29.459  1.00  0.00     0.029 A 
ATOM     53  C   UNL A   1      39.452  29.684  30.556  1.00  0.00     0.049 A 
ATOM     54  H   UNL A   1      39.612  30.874  32.258  1.00  0.00     0.167 HD
ATOM     55  C   UNL A   1      39.780  33.341  35.835  1.00  0.00     0.031 A 
ATOM     56  C   UNL A   1      40.400  28.729  30.634  1.00  0.00     0.031 A 
ATOM     57  C   UNL A   1      40.794  32.334  36.022  1.00  0.00     0.049 A 
ATOM     58  C   UNL A   1      41.312  28.689  31.828  1.00  0.00     0.074 A 
ATOM     59  C   UNL A   1      41.626  32.152  37.113  1.00  0.00     0.029 A 
ATOM     60  N   UNL A   1      41.113  31.346  35.105  1.00  0.00    -0.354 N 
ATOM     61  N   UNL A   1      41.309  29.454  32.893  1.00  0.00    -0.248 NA
ATOM     62  C   UNL A   1      42.356  27.655  31.835  1.00  0.00     0.031 C 
ATOM     63  C   UNL A   1      42.498  31.100  36.827  1.00  0.00     0.029 A 
ATOM     64  C   UNL A   1      42.155  30.573  35.592  1.00  0.00     0.049 A 
ATOM     65  H   UNL A   1      40.666  31.213  34.238  1.00  0.00     0.167 HD
ATOM     66  C   UNL A   1      42.334  28.983  33.702  1.00  0.00     0.074 A 
ATOM     67  C   UNL A   1      42.926  27.854  33.017  1.00  0.00     0.031 C 
ATOM     68  C   UNL A   1      42.745  29.453  34.905  1.00  0.00     0.031 A 
BRANCH  55  69
ATOM     69  C   UNL A   1      39.605  34.358  36.931  1.00  0.00    -0.014 A 
ATOM     70  C   UNL A   1      40.303  35.577  36.870  1.00  0.00     0.009 A 
ATOM     71  C   UNL A   1      38.847  34.070  38.076  1.00  0.00     0.009 A 
ATOM     72  C   UNL A   1      40.261  36.475  37.938  1.00  0.00     0.001 A 
ATOM     73  C   UNL A   1      38.781  34.986  39.130  1.00  0.00     0.001 A 
ATOM     74  C   UNL A   1      39.497  36.180  39.066  1.00  0.00     0.000 A 
ENDBRANCH  55  69
BRANCH  56  75
ATOM     75  C   UNL A   1      40.514  27.726  29.541  1.00  0.00    -0.014 A 
ATOM     76  C   UNL A   1      41.584  27.778  28.632  1.00  0.00     0.009 A 
ATOM     77  C   UNL A   1      39.523  26.749  29.363  1.00  0.00     0.009 A 
ATOM     78  C   UNL A   1      41.641  26.898  27.549  1.00  0.00     0.001 A 
ATOM     79  C   UNL A   1      39.601  25.847  28.299  1.00  0.00     0.001 A 
ATOM     80  C   UNL A   1      40.652  25.931  27.386  1.00  0.00     0.000 A 
ENDBRANCH  56  75
BRANCH  68  81
ATOM     81  C   UNL A   1      43.890  28.751  35.585  1.00  0.00    -0.014 A 
ATOM     82  C   UNL A   1      43.631  27.704  36.486  1.00  0.00     0.009 A 
ATOM     83  C   UNL A   1      45.210  29.199  35.428  1.00  0.00     0.009 A 
ATOM     84  C   UNL A   1      44.666  27.134  37.229  1.00  0.00     0.001 A 
ATOM     85  C   UNL A   1      46.249  28.605  36.150  1.00  0.00     0.001 A 
ATOM     86  C   UNL A   1      45.974  27.583  37.059  1.00  0.00     0.000 A 
ENDBRANCH  68  81
ENDBRANCH  42  43
ENDBRANCH  34  37
ENDBRANCH  32  33
ENDBRANCH  31  32
ENDBRANCH  30  31
ENDBRANCH   1  30
TORSDOF 17
ENDMDL
MODEL 2
REMARK VINA RESULT:     -11.0      2.259      3.351
REMARK SMILES COc1cc2c(cc1OC)C1=C(C#N)C[N@@H+](CC(=O)NCCCCCCNC(=O)c3ccc(-c4c5nc(c(-c6ccccc6)c6ccc([nH]6)c(-c6ccccc6)c6nc(c(-c7ccccc7)c7ccc4[nH]7)C=C6)C=C5)cc3)CN1CC2
REMARK SMILES IDX 23 1 22 2 21 3 20 4 18 5 19 6 17 8 16 9 3 10 4 11 8 12 5 13
REMARK SMILES IDX 7 14 6 15 81 16 11 17 80 18 12 19 79 20 15 21 78 22 2 24
REMARK SMILES IDX 1 25 9 26 10 27 13 28 14 29 24 30 25 31 26 32 27 33 28 34
REMARK SMILES IDX 29 36 30 37 31 38 77 39 32 40 76 41 33 42 34 43 35 44 70 45
REMARK SMILES IDX 36 46 75 47 69 48 71 49 37 50 74 51 68 52 67 53 38 55 60 56
REMARK SMILES IDX 45 57 59 58 46 59 49 60 58 61 72 62 47 63 48 64 57 66 73 67
REMARK SMILES IDX 50 68 39 69 40 70 44 71 41 72 43 73 42 74 61 75 62 76 66 77
REMARK SMILES IDX 63 78 65 79 64 80 51 81 52 82 56 83 53 84 55 85 54 86
REMARK H PARENT 20 7 16 23 27 35 71 54 49 65
REMARK Flexibility Score: inf
ROOT
ATOM      1  C   UNL A   1      30.590  29.491  24.195  1.00  0.00     0.002 C 
ENDROOT
BRANCH   1   2
ATOM      2  C   UNL A   1      31.203  29.139  22.842  1.00  0.00     0.021 C 
BRANCH   2   3
ATOM      3  C   UNL A   1      32.689  28.798  22.802  1.00  0.00     0.116 C 
BRANCH   3   4
ATOM      4  N   UNL A   1      32.925  27.724  21.855  1.00  0.00    -0.351 N 
ATOM      5  C   UNL A   1      32.784  26.371  21.997  1.00  0.00     0.275 C 
ATOM      6  O   UNL A   1      33.267  25.651  21.118  1.00  0.00    -0.269 OA
ATOM      7  H   UNL A   1      33.238  28.015  20.968  1.00  0.00     0.163 HD
BRANCH   5   8
ATOM      8  C   UNL A   1      31.964  25.773  23.143  1.00  0.00     0.365 C 
BRANCH   8   9
ATOM      9  N   UNL A   1      32.695  25.395  24.359  1.00  0.00    -0.306 N 
ATOM     10  C   UNL A   1      34.869  18.457  24.718  1.00  0.00     0.161 A 
ATOM     11  C   UNL A   1      33.532  18.873  24.683  1.00  0.00     0.055 A 
ATOM     12  C   UNL A   1      35.873  19.422  24.796  1.00  0.00     0.161 A 
ATOM     13  C   UNL A   1      33.193  20.243  24.678  1.00  0.00    -0.033 A 
ATOM     14  C   UNL A   1      35.517  20.784  24.808  1.00  0.00     0.061 A 
ATOM     15  C   UNL A   1      34.193  21.233  24.664  1.00  0.00     0.006 A 
ATOM     16  C   UNL A   1      31.744  20.667  24.734  1.00  0.00     0.058 C 
ATOM     17  C   UNL A   1      33.787  22.688  24.594  1.00  0.00     0.068 C 
ATOM     18  C   UNL A   1      31.607  21.945  25.569  1.00  0.00     0.127 C 
ATOM     19  C   UNL A   1      34.548  23.698  24.102  1.00  0.00     0.108 C 
ATOM     20  N   UNL A   1      32.494  22.982  25.039  1.00  0.00    -0.323 N 
ATOM     21  C   UNL A   1      34.118  25.133  24.177  1.00  0.00     0.314 C 
ATOM     22  C   UNL A   1      32.064  24.370  25.188  1.00  0.00     0.390 C 
ATOM     23  H   UNL A   1      32.632  26.261  24.895  1.00  0.00     0.350 HD
BRANCH  10  24
ATOM     24  O   UNL A   1      35.199  17.131  24.824  1.00  0.00    -0.493 OA
ATOM     25  C   UNL A   1      34.102  16.262  25.088  1.00  0.00     0.278 C 
ENDBRANCH  10  24
BRANCH  12  26
ATOM     26  O   UNL A   1      37.228  19.230  24.892  1.00  0.00    -0.493 OA
ATOM     27  C   UNL A   1      38.067  20.376  24.943  1.00  0.00     0.278 C 
ENDBRANCH  12  26
BRANCH  19  28
ATOM     28  C   UNL A   1      35.916  23.396  23.512  1.00  0.00     0.103 C 
ATOM     29  N   UNL A   1      37.050  23.146  23.024  1.00  0.00    -0.192 NA
ENDBRANCH  19  28
ENDBRANCH   8   9
ENDBRANCH   5   8
ENDBRANCH   3   4
ENDBRANCH   2   3
ENDBRANCH   1   2
BRANCH   1  30
ATOM     30  C   UNL A   1      31.601  29.881  25.280  1.00  0.00     0.002 C 
BRANCH  30  31
ATOM     31  C   UNL A   1      31.287  31.142  26.100  1.00  0.00     0.021 C 
BRANCH  31  32
ATOM     32  C   UNL A   1      32.440  31.715  26.924  1.00  0.00     0.116 C 
BRANCH  32  33
ATOM     33  N   UNL A   1      32.206  33.075  27.379  1.00  0.00    -0.352 N 
ATOM     34  C   UNL A   1      32.984  33.896  28.158  1.00  0.00     0.251 C 
ATOM     35  H   UNL A   1      31.355  33.470  27.082  1.00  0.00     0.163 HD
ATOM     36  O   UNL A   1      32.545  34.990  28.514  1.00  0.00    -0.269 OA
BRANCH  34  37
ATOM     37  C   UNL A   1      34.326  33.472  28.622  1.00  0.00     0.039 A 
ATOM     38  C   UNL A   1      35.490  33.792  27.918  1.00  0.00     0.014 A 
ATOM     39  C   UNL A   1      34.421  32.760  29.823  1.00  0.00     0.014 A 
ATOM     40  C   UNL A   1      36.719  33.273  28.331  1.00  0.00     0.010 A 
ATOM     41  C   UNL A   1      35.664  32.304  30.275  1.00  0.00     0.010 A 
ATOM     42  C   UNL A   1      36.821  32.516  29.510  1.00  0.00    -0.014 A 
BRANCH  42  43
ATOM     43  C   UNL A   1      38.134  31.955  29.935  1.00  0.00     0.031 A 
ATOM     44  C   UNL A   1      39.000  32.685  30.929  1.00  0.00     0.074 A 
ATOM     45  C   UNL A   1      38.546  30.771  29.441  1.00  0.00     0.049 A 
ATOM     46  N   UNL A   1      40.169  32.342  31.413  1.00  0.00    -0.248 NA
ATOM     47  C   UNL A   1      38.493  33.968  31.446  1.00  0.00     0.031 C 
ATOM     48  C   UNL A   1      37.800  29.955  28.483  1.00  0.00     0.029 A 
ATOM     49  N   UNL A   1      39.682  30.039  29.689  1.00  0.00    -0.354 N 
ATOM     50  C   UNL A   1      40.539  33.365  32.278  1.00  0.00     0.074 A 
ATOM     51  C   UNL A   1      39.492  34.362  32.226  1.00  0.00     0.031 C 
ATOM     52  C   UNL A   1      38.472  28.816  28.262  1.00  0.00     0.029 A 
ATOM     53  C   UNL A   1      39.726  28.845  29.011  1.00  0.00     0.049 A 
ATOM     54  H   UNL A   1      40.396  30.340  30.296  1.00  0.00     0.167 HD
ATOM     55  C   UNL A   1      41.643  33.459  33.058  1.00  0.00     0.031 A 
ATOM     56  C   UNL A   1      40.667  27.881  28.979  1.00  0.00     0.031 A 
ATOM     57  C   UNL A   1      42.682  32.463  33.118  1.00  0.00     0.049 A 
ATOM     58  C   UNL A   1      41.911  28.035  29.809  1.00  0.00     0.074 A 
ATOM     59  C   UNL A   1      43.820  32.461  33.906  1.00  0.00     0.029 A 
ATOM     60  N   UNL A   1      42.712  31.297  32.370  1.00  0.00    -0.354 N 
ATOM     61  N   UNL A   1      42.232  28.996  30.641  1.00  0.00    -0.248 NA
ATOM     62  C   UNL A   1      42.922  26.974  29.698  1.00  0.00     0.031 C 
ATOM     63  C   UNL A   1      44.575  31.333  33.581  1.00  0.00     0.029 A 
ATOM     64  C   UNL A   1      43.868  30.588  32.651  1.00  0.00     0.049 A 
ATOM     65  H   UNL A   1      42.016  31.016  31.732  1.00  0.00     0.167 HD
ATOM     66  C   UNL A   1      43.469  28.648  31.166  1.00  0.00     0.074 A 
ATOM     67  C   UNL A   1      43.834  27.377  30.575  1.00  0.00     0.031 C 
ATOM     68  C   UNL A   1      44.231  29.327  32.057  1.00  0.00     0.031 A 
BRANCH  55  69
ATOM     69  C   UNL A   1      41.806  34.681  33.922  1.00  0.00    -0.014 A 
ATOM     70  C   UNL A   1      42.530  35.785  33.441  1.00  0.00     0.009 A 
ATOM     71  C   UNL A   1      41.347  34.700  35.248  1.00  0.00     0.009 A 
ATOM     72  C   UNL A   1      42.807  36.871  34.272  1.00  0.00     0.001 A 
ATOM     73  C   UNL A   1      41.598  35.803  36.068  1.00  0.00     0.001 A 
ATOM     74  C   UNL A   1      42.338  36.882  35.585  1.00  0.00     0.000 A 
ENDBRANCH  55  69
BRANCH  56  75
ATOM     75  C   UNL A   1      40.448  26.676  28.135  1.00  0.00    -0.014 A 
ATOM     76  C   UNL A   1      40.941  26.625  26.819  1.00  0.00     0.009 A 
ATOM     77  C   UNL A   1      39.693  25.596  28.615  1.00  0.00     0.009 A 
ATOM     78  C   UNL A   1      40.653  25.537  25.994  1.00  0.00     0.001 A 
ATOM     79  C   UNL A   1      39.436  24.492  27.797  1.00  0.00     0.001 A 
ATOM     80  C   UNL A   1      39.904  24.470  26.484  1.00  0.00     0.000 A 
ENDBRANCH  56  75
BRANCH  68  81
ATOM     81  C   UNL A   1      45.546  28.721  32.472  1.00  0.00    -0.014 A 
ATOM     82  C   UNL A   1      45.607  27.898  33.609  1.00  0.00     0.009 A 
ATOM     83  C   UNL A   1      46.738  29.056  31.812  1.00  0.00     0.009 A 
ATOM     84  C   UNL A   1      46.835  27.439  34.089  1.00  0.00     0.001 A 
ATOM     85  C   UNL A   1      47.963  28.569  32.276  1.00  0.00     0.001 A 
ATOM     86  C   UNL A   1      48.011  27.773  33.421  1.00  0.00     0.000 A 
ENDBRANCH  68  81
ENDBRANCH  42  43
ENDBRANCH  34  37
ENDBRANCH  32  33
ENDBRANCH  31  32
ENDBRANCH  30  31
ENDBRANCH   1  30
TORSDOF 17
ENDMDL
MODEL 3
REMARK VINA RESULT:     -11.0      0.847      5.759
REMARK SMILES COc1cc2c(cc1OC)C1=C(C#N)C[N@@H+](CC(=O)NCCCCCCNC(=O)c3ccc(-c4c5nc(c(-c6ccccc6)c6ccc([nH]6)c(-c6ccccc6)c6nc(c(-c7ccccc7)c7ccc4[nH]7)C=C6)C=C5)cc3)CN1CC2
REMARK SMILES IDX 23 1 22 2 21 3 20 4 18 5 19 6 17 8 16 9 3 10 4 11 8 12 5 13
REMARK SMILES IDX 7 14 6 15 81 16 11 17 80 18 12 19 79 20 15 21 78 22 2 24
REMARK SMILES IDX 1 25 9 26 10 27 13 28 14 29 24 30 25 31 26 32 27 33 28 34
REMARK SMILES IDX 29 36 30 37 31 38 77 39 32 40 76 41 33 42 34 43 35 44 70 45
REMARK SMILES IDX 36 46 75 47 69 48 71 49 37 50 74 51 68 52 67 53 38 55 60 56
REMARK SMILES IDX 45 57 59 58 46 59 49 60 58 61 72 62 47 63 48 64 57 66 73 67
REMARK SMILES IDX 50 68 39 69 40 70 44 71 41 72 43 73 42 74 61 75 62 76 66 77
REMARK SMILES IDX 63 78 65 79 64 80 51 81 52 82 56 83 53 84 55 85 54 86
REMARK H PARENT 20 7 16 23 27 35 71 54 49 65
REMARK Flexibility Score: inf
ROOT
ATOM      1  C   UNL A   1      32.951  29.619  26.457  1.00  0.00     0.002 C 
ENDROOT
BRANCH   1   2
ATOM      2  C   UNL A   1      32.916  28.095  26.526  1.00  0.00     0.021 C 
BRANCH   2   3
ATOM      3  C   UNL A   1      31.652  27.390  26.043  1.00  0.00     0.116 C 
BRANCH   3   4
ATOM      4  N   UNL A   1      31.557  26.074  26.648  1.00  0.00    -0.351 N 
ATOM      5  C   UNL A   1      30.744  25.018  26.345  1.00  0.00     0.275 C 
ATOM      6  O   UNL A   1      30.693  24.085  27.154  1.00  0.00    -0.269 OA
ATOM      7  H   UNL A   1      32.176  25.917  27.397  1.00  0.00     0.163 HD
BRANCH   5   8
ATOM      8  C   UNL A   1      30.007  24.939  25.005  1.00  0.00     0.365 C 
BRANCH   8   9
ATOM      9  N   UNL A   1      30.707  24.275  23.897  1.00  0.00    -0.306 N 
ATOM     10  C   UNL A   1      37.267  21.543  25.476  1.00  0.00     0.161 A 
ATOM     11  C   UNL A   1      36.938  22.904  25.516  1.00  0.00     0.055 A 
ATOM     12  C   UNL A   1      36.318  20.635  25.003  1.00  0.00     0.161 A 
ATOM     13  C   UNL A   1      35.659  23.359  25.133  1.00  0.00    -0.033 A 
ATOM     14  C   UNL A   1      35.052  21.108  24.608  1.00  0.00     0.061 A 
ATOM     15  C   UNL A   1      34.659  22.450  24.740  1.00  0.00     0.006 A 
ATOM     16  C   UNL A   1      35.359  24.839  25.096  1.00  0.00     0.058 C 
ATOM     17  C   UNL A   1      33.282  22.974  24.399  1.00  0.00     0.068 C 
ATOM     18  C   UNL A   1      34.418  25.151  23.926  1.00  0.00     0.127 C 
ATOM     19  C   UNL A   1      32.126  22.268  24.477  1.00  0.00     0.108 C 
ATOM     20  N   UNL A   1      33.217  24.319  24.018  1.00  0.00    -0.323 N 
ATOM     21  C   UNL A   1      30.814  22.825  24.007  1.00  0.00     0.314 C 
ATOM     22  C   UNL A   1      31.975  24.878  23.493  1.00  0.00     0.390 C 
ATOM     23  H   UNL A   1      30.058  24.455  23.131  1.00  0.00     0.350 HD
BRANCH  10  24
ATOM     24  O   UNL A   1      38.536  21.108  25.751  1.00  0.00    -0.493 OA
ATOM     25  C   UNL A   1      39.357  22.054  26.429  1.00  0.00     0.278 C 
ENDBRANCH  10  24
BRANCH  12  26
ATOM     26  O   UNL A   1      36.452  19.281  24.834  1.00  0.00    -0.493 OA
ATOM     27  C   UNL A   1      35.276  18.510  24.625  1.00  0.00     0.278 C 
ENDBRANCH  12  26
BRANCH  19  28
ATOM     28  C   UNL A   1      32.147  20.837  24.989  1.00  0.00     0.103 C 
ATOM     29  N   UNL A   1      32.164  19.651  25.414  1.00  0.00    -0.192 NA
ENDBRANCH  19  28
ENDBRANCH   8   9
ENDBRANCH   5   8
ENDBRANCH   3   4
ENDBRANCH   2   3
ENDBRANCH   1   2
BRANCH   1  30
ATOM     30  C   UNL A   1      31.634  30.276  26.022  1.00  0.00     0.002 C 
BRANCH  30  31
ATOM     31  C   UNL A   1      31.441  31.754  26.395  1.00  0.00     0.021 C 
BRANCH  31  32
ATOM     32  C   UNL A   1      32.661  32.467  26.981  1.00  0.00     0.116 C 
BRANCH  32  33
ATOM     33  N   UNL A   1      32.372  33.807  27.463  1.00  0.00    -0.352 N 
ATOM     34  C   UNL A   1      32.997  34.557  28.429  1.00  0.00     0.251 C 
ATOM     35  H   UNL A   1      31.606  34.247  27.027  1.00  0.00     0.163 HD
ATOM     36  O   UNL A   1      32.521  35.644  28.756  1.00  0.00    -0.269 OA
BRANCH  34  37
ATOM     37  C   UNL A   1      34.210  34.062  29.122  1.00  0.00     0.039 A 
ATOM     38  C   UNL A   1      35.497  34.415  28.709  1.00  0.00     0.014 A 
ATOM     39  C   UNL A   1      34.046  33.244  30.246  1.00  0.00     0.014 A 
ATOM     40  C   UNL A   1      36.609  33.832  29.321  1.00  0.00     0.010 A 
ATOM     41  C   UNL A   1      35.165  32.720  30.903  1.00  0.00     0.010 A 
ATOM     42  C   UNL A   1      36.458  32.972  30.420  1.00  0.00    -0.014 A 
BRANCH  42  43
ATOM     43  C   UNL A   1      37.649  32.345  31.057  1.00  0.00     0.031 A 
ATOM     44  C   UNL A   1      38.316  31.145  30.435  1.00  0.00     0.074 A 
ATOM     45  C   UNL A   1      38.152  32.866  32.194  1.00  0.00     0.049 A 
ATOM     46  N   UNL A   1      39.362  30.474  30.851  1.00  0.00    -0.248 NA
ATOM     47  C   UNL A   1      37.733  30.626  29.186  1.00  0.00     0.031 C 
ATOM     48  C   UNL A   1      37.612  34.032  32.893  1.00  0.00     0.029 A 
ATOM     49  N   UNL A   1      39.238  32.497  32.950  1.00  0.00    -0.354 N 
ATOM     50  C   UNL A   1      39.555  29.455  29.926  1.00  0.00     0.074 A 
ATOM     51  C   UNL A   1      38.496  29.568  28.946  1.00  0.00     0.031 C 
ATOM     52  C   UNL A   1      38.394  34.312  33.947  1.00  0.00     0.029 A 
ATOM     53  C   UNL A   1      39.454  33.310  34.036  1.00  0.00     0.049 A 
ATOM     54  H   UNL A   1      39.807  31.724  32.735  1.00  0.00     0.167 HD
ATOM     55  C   UNL A   1      40.535  28.520  29.886  1.00  0.00     0.031 A 
ATOM     56  C   UNL A   1      40.389  33.260  35.006  1.00  0.00     0.031 A 
ATOM     57  C   UNL A   1      41.595  28.412  30.855  1.00  0.00     0.049 A 
ATOM     58  C   UNL A   1      41.431  32.177  34.972  1.00  0.00     0.074 A 
ATOM     59  C   UNL A   1      42.649  27.514  30.873  1.00  0.00     0.029 A 
ATOM     60  N   UNL A   1      41.740  29.222  31.970  1.00  0.00    -0.354 N 
ATOM     61  N   UNL A   1      41.614  31.238  34.075  1.00  0.00    -0.248 NA
ATOM     62  C   UNL A   1      42.396  32.145  36.080  1.00  0.00     0.031 C 
ATOM     63  C   UNL A   1      43.388  27.732  32.037  1.00  0.00     0.029 A 
ATOM     64  C   UNL A   1      42.845  28.819  32.702  1.00  0.00     0.049 A 
ATOM     65  H   UNL A   1      41.146  29.970  32.207  1.00  0.00     0.167 HD
ATOM     66  C   UNL A   1      42.722  30.517  34.500  1.00  0.00     0.074 A 
ATOM     67  C   UNL A   1      43.184  31.138  35.723  1.00  0.00     0.031 C 
ATOM     68  C   UNL A   1      43.299  29.436  33.922  1.00  0.00     0.031 A 
BRANCH  55  69
ATOM     69  C   UNL A   1      40.523  27.521  28.759  1.00  0.00    -0.014 A 
ATOM     70  C   UNL A   1      41.208  27.807  27.566  1.00  0.00     0.009 A 
ATOM     71  C   UNL A   1      39.746  26.354  28.830  1.00  0.00     0.009 A 
ATOM     72  C   UNL A   1      41.100  26.959  26.463  1.00  0.00     0.001 A 
ATOM     73  C   UNL A   1      39.666  25.491  27.734  1.00  0.00     0.001 A 
ATOM     74  C   UNL A   1      40.332  25.799  26.549  1.00  0.00     0.000 A 
ENDBRANCH  55  69
BRANCH  56  75
ATOM     75  C   UNL A   1      40.379  34.288  36.081  1.00  0.00    -0.014 A 
ATOM     76  C   UNL A   1      39.613  34.099  37.244  1.00  0.00     0.009 A 
ATOM     77  C   UNL A   1      41.086  35.489  35.926  1.00  0.00     0.009 A 
ATOM     78  C   UNL A   1      39.526  35.104  38.209  1.00  0.00     0.001 A 
ATOM     79  C   UNL A   1      41.025  36.479  36.911  1.00  0.00     0.001 A 
ATOM     80  C   UNL A   1      40.234  36.291  38.044  1.00  0.00     0.000 A 
ENDBRANCH  56  75
BRANCH  68  81
ATOM     81  C   UNL A   1      44.509  28.838  34.589  1.00  0.00    -0.014 A 
ATOM     82  C   UNL A   1      45.794  29.275  34.225  1.00  0.00     0.009 A 
ATOM     83  C   UNL A   1      44.386  27.767  35.487  1.00  0.00     0.009 A 
ATOM     84  C   UNL A   1      46.930  28.639  34.729  1.00  0.00     0.001 A 
ATOM     85  C   UNL A   1      45.526  27.153  36.015  1.00  0.00     0.001 A 
ATOM     86  C   UNL A   1      46.795  27.581  35.626  1.00  0.00     0.000 A 
ENDBRANCH  68  81
ENDBRANCH  42  43
ENDBRANCH  34  37
ENDBRANCH  32  33
ENDBRANCH  31  32
ENDBRANCH  30  31
ENDBRANCH   1  30
TORSDOF 17
ENDMDL
