MODEL 1
REMARK VINA RESULT:     -10.2      0.000      0.000
REMARK SMILES C/C=C/C(=O)N[C@@H](Cc1ccc(F)cc1)C(=O)NCCCCCCNC(=O)c1ccc(-c2c3nc(c(-c4ccccc4)c4ccc([nH]4)c(-c4ccccc4)c4nc(c(-c5ccccc5)c5ccc2[nH]5)C=C4)C=C3)cc1
REMARK SMILES IDX 21 1 20 2 19 3 18 4 16 5 17 6 7 8 6 9 4 10 5 11 3 13 1 14
REMARK SMILES IDX 2 15 8 16 9 17 10 18 15 19 11 20 14 21 12 22 13 23 22 24
REMARK SMILES IDX 23 25 24 26 25 27 26 28 27 30 28 31 29 32 75 33 30 34 74 35
REMARK SMILES IDX 31 36 32 37 33 38 68 39 34 40 73 41 67 42 69 43 35 44 72 45
REMARK SMILES IDX 66 46 65 47 36 49 58 50 43 51 57 52 44 53 47 54 56 55 70 56
REMARK SMILES IDX 45 57 46 58 55 60 71 61 48 62 37 63 38 64 42 65 39 66 41 67
REMARK SMILES IDX 40 68 59 69 60 70 64 71 61 72 63 73 62 74 49 75 50 76 54 77
REMARK SMILES IDX 51 78 53 79 52 80
REMARK H PARENT 18 7 6 12 25 29 69 48 47 59
REMARK Flexibility Score: inf
ROOT
ATOM      1  C   UNL A   1      33.768  29.118  27.408  1.00  0.00     0.002 C 
ENDROOT
BRANCH   1   2
ATOM      2  C   UNL A   1      32.371  28.562  27.113  1.00  0.00     0.021 C 
BRANCH   2   3
ATOM      3  C   UNL A   1      32.324  27.108  26.659  1.00  0.00     0.116 C 
BRANCH   3   4
ATOM      4  N   UNL A   1      31.044  26.458  26.857  1.00  0.00    -0.354 N 
ATOM      5  C   UNL A   1      30.174  25.930  25.947  1.00  0.00     0.242 C 
ATOM      6  O   UNL A   1      29.384  25.077  26.371  1.00  0.00    -0.273 OA
ATOM      7  H   UNL A   1      30.757  26.386  27.796  1.00  0.00     0.163 HD
BRANCH   5   8
ATOM      8  C   UNL A   1      30.200  26.258  24.432  1.00  0.00     0.176 C 
BRANCH   8   9
ATOM      9  N   UNL A   1      30.886  25.248  23.629  1.00  0.00    -0.340 N 
ATOM     10  C   UNL A   1      32.039  25.242  22.926  1.00  0.00     0.244 C 
ATOM     11  O   UNL A   1      32.414  24.157  22.475  1.00  0.00    -0.270 OA
ATOM     12  H   UNL A   1      30.405  24.389  23.593  1.00  0.00     0.164 HD
BRANCH  10  13
ATOM     13  C   UNL A   1      32.822  26.449  22.551  1.00  0.00     0.066 C 
ATOM     14  C   UNL A   1      34.166  28.550  22.619  1.00  0.00     0.036 C 
ATOM     15  C   UNL A   1      33.447  27.401  23.261  1.00  0.00    -0.025 C 
ENDBRANCH  10  13
ENDBRANCH   8   9
BRANCH   8  16
ATOM     16  C   UNL A   1      28.858  26.732  23.843  1.00  0.00     0.070 C 
BRANCH  16  17
ATOM     17  C   UNL A   1      28.809  28.066  23.140  1.00  0.00    -0.045 A 
ATOM     18  C   UNL A   1      29.983  28.607  22.585  1.00  0.00     0.007 A 
ATOM     19  C   UNL A   1      27.603  28.772  23.014  1.00  0.00     0.007 A 
ATOM     20  C   UNL A   1      29.955  29.843  21.940  1.00  0.00     0.039 A 
ATOM     21  C   UNL A   1      27.581  30.013  22.373  1.00  0.00     0.039 A 
ATOM     22  C   UNL A   1      28.756  30.537  21.845  1.00  0.00     0.123 A 
ATOM     23  F   UNL A   1      28.736  31.741  21.258  1.00  0.00    -0.207 F 
ENDBRANCH  16  17
ENDBRANCH   8  16
ENDBRANCH   5   8
ENDBRANCH   3   4
ENDBRANCH   2   3
ENDBRANCH   1   2
BRANCH   1  24
ATOM     24  C   UNL A   1      33.970  30.622  27.187  1.00  0.00     0.002 C 
BRANCH  24  25
ATOM     25  C   UNL A   1      32.800  31.532  27.569  1.00  0.00     0.021 C 
BRANCH  25  26
ATOM     26  C   UNL A   1      32.734  32.875  26.855  1.00  0.00     0.116 C 
BRANCH  26  27
ATOM     27  N   UNL A   1      32.471  33.983  27.752  1.00  0.00    -0.352 N 
ATOM     28  C   UNL A   1      33.185  34.426  28.836  1.00  0.00     0.251 C 
ATOM     29  H   UNL A   1      31.655  34.495  27.554  1.00  0.00     0.163 HD
ATOM     30  O   UNL A   1      32.717  35.316  29.542  1.00  0.00    -0.269 OA
BRANCH  28  31
ATOM     31  C   UNL A   1      34.502  33.839  29.181  1.00  0.00     0.039 A 
ATOM     32  C   UNL A   1      34.579  33.005  30.301  1.00  0.00     0.014 A 
ATOM     33  C   UNL A   1      35.664  34.141  28.465  1.00  0.00     0.014 A 
ATOM     34  C   UNL A   1      35.806  32.460  30.686  1.00  0.00     0.010 A 
ATOM     35  C   UNL A   1      36.874  33.536  28.802  1.00  0.00     0.010 A 
ATOM     36  C   UNL A   1      36.963  32.709  29.932  1.00  0.00    -0.014 A 
BRANCH  36  37
ATOM     37  C   UNL A   1      38.274  32.149  30.350  1.00  0.00     0.031 A 
ATOM     38  C   UNL A   1      38.758  30.844  29.777  1.00  0.00     0.074 A 
ATOM     39  C   UNL A   1      39.024  32.805  31.255  1.00  0.00     0.049 A 
ATOM     40  N   UNL A   1      39.882  30.210  30.000  1.00  0.00    -0.248 NA
ATOM     41  C   UNL A   1      37.853  30.146  28.848  1.00  0.00     0.031 C 
ATOM     42  C   UNL A   1      38.653  34.056  31.918  1.00  0.00     0.029 A 
ATOM     43  N   UNL A   1      40.264  32.513  31.766  1.00  0.00    -0.354 N 
ATOM     44  C   UNL A   1      39.812  29.040  29.254  1.00  0.00     0.074 A 
ATOM     45  C   UNL A   1      38.515  29.024  28.615  1.00  0.00     0.031 C 
ATOM     46  C   UNL A   1      39.659  34.444  32.718  1.00  0.00     0.029 A 
ATOM     47  C   UNL A   1      40.732  33.457  32.648  1.00  0.00     0.049 A 
ATOM     48  H   UNL A   1      40.770  31.704  31.525  1.00  0.00     0.167 HD
ATOM     49  C   UNL A   1      40.750  28.076  29.091  1.00  0.00     0.031 A 
ATOM     50  C   UNL A   1      41.897  33.525  33.317  1.00  0.00     0.031 A 
ATOM     51  C   UNL A   1      42.047  28.097  29.710  1.00  0.00     0.049 A 
ATOM     52  C   UNL A   1      42.924  32.444  33.118  1.00  0.00     0.074 A 
ATOM     53  C   UNL A   1      43.089  27.197  29.564  1.00  0.00     0.029 A 
ATOM     54  N   UNL A   1      42.480  29.070  30.597  1.00  0.00    -0.354 N 
ATOM     55  N   UNL A   1      42.870  31.384  32.350  1.00  0.00    -0.248 NA
ATOM     56  C   UNL A   1      44.181  32.584  33.867  1.00  0.00     0.031 C 
ATOM     57  C   UNL A   1      44.137  27.602  30.398  1.00  0.00     0.029 A 
ATOM     58  C   UNL A   1      43.766  28.781  31.024  1.00  0.00     0.049 A 
ATOM     59  H   UNL A   1      41.953  29.851  30.882  1.00  0.00     0.167 HD
ATOM     60  C   UNL A   1      44.091  30.740  32.507  1.00  0.00     0.074 A 
ATOM     61  C   UNL A   1      44.873  31.544  33.423  1.00  0.00     0.031 C 
ATOM     62  C   UNL A   1      44.527  29.587  31.943  1.00  0.00     0.031 A 
BRANCH  49  63
ATOM     63  C   UNL A   1      40.398  26.912  28.204  1.00  0.00    -0.014 A 
ATOM     64  C   UNL A   1      40.866  26.838  26.882  1.00  0.00     0.009 A 
ATOM     65  C   UNL A   1      39.607  25.866  28.704  1.00  0.00     0.009 A 
ATOM     66  C   UNL A   1      40.516  25.759  26.067  1.00  0.00     0.001 A 
ATOM     67  C   UNL A   1      39.284  24.775  27.896  1.00  0.00     0.001 A 
ATOM     68  C   UNL A   1      39.730  24.727  26.575  1.00  0.00     0.000 A 
ENDBRANCH  49  63
BRANCH  50  69
ATOM     69  C   UNL A   1      42.173  34.672  34.220  1.00  0.00    -0.014 A 
ATOM     70  C   UNL A   1      41.880  34.586  35.591  1.00  0.00     0.009 A 
ATOM     71  C   UNL A   1      42.722  35.862  33.717  1.00  0.00     0.009 A 
ATOM     72  C   UNL A   1      42.105  35.677  36.432  1.00  0.00     0.001 A 
ATOM     73  C   UNL A   1      42.971  36.942  34.567  1.00  0.00     0.001 A 
ATOM     74  C   UNL A   1      42.653  36.852  35.921  1.00  0.00     0.000 A 
ENDBRANCH  50  69
BRANCH  62  75
ATOM     75  C   UNL A   1      45.919  29.142  32.290  1.00  0.00    -0.014 A 
ATOM     76  C   UNL A   1      46.160  28.288  33.377  1.00  0.00     0.009 A 
ATOM     77  C   UNL A   1      47.001  29.565  31.502  1.00  0.00     0.009 A 
ATOM     78  C   UNL A   1      47.464  27.899  33.692  1.00  0.00     0.001 A 
ATOM     79  C   UNL A   1      48.299  29.151  31.803  1.00  0.00     0.001 A 
ATOM     80  C   UNL A   1      48.531  28.328  32.903  1.00  0.00     0.000 A 
ENDBRANCH  62  75
ENDBRANCH  36  37
ENDBRANCH  28  31
ENDBRANCH  26  27
ENDBRANCH  25  26
ENDBRANCH  24  25
ENDBRANCH   1  24
TORSDOF 17
ENDMDL
MODEL 2
REMARK VINA RESULT:     -10.2      2.005      6.643
REMARK SMILES C/C=C/C(=O)N[C@@H](Cc1ccc(F)cc1)C(=O)NCCCCCCNC(=O)c1ccc(-c2c3nc(c(-c4ccccc4)c4ccc([nH]4)c(-c4ccccc4)c4nc(c(-c5ccccc5)c5ccc2[nH]5)C=C4)C=C3)cc1
REMARK SMILES IDX 21 1 20 2 19 3 18 4 16 5 17 6 7 8 6 9 4 10 5 11 3 13 1 14
REMARK SMILES IDX 2 15 8 16 9 17 10 18 15 19 11 20 14 21 12 22 13 23 22 24
REMARK SMILES IDX 23 25 24 26 25 27 26 28 27 30 28 31 29 32 75 33 30 34 74 35
REMARK SMILES IDX 31 36 32 37 33 38 68 39 34 40 73 41 67 42 69 43 35 44 72 45
REMARK SMILES IDX 66 46 65 47 36 49 58 50 43 51 57 52 44 53 47 54 56 55 70 56
REMARK SMILES IDX 45 57 46 58 55 60 71 61 48 62 37 63 38 64 42 65 39 66 41 67
REMARK SMILES IDX 40 68 59 69 60 70 64 71 61 72 63 73 62 74 49 75 50 76 54 77
REMARK SMILES IDX 51 78 53 79 52 80
REMARK H PARENT 18 7 6 12 25 29 69 48 47 59
REMARK Flexibility Score: inf
ROOT
ATOM      1  C   UNL A   1      30.258  29.749  23.897  1.00  0.00     0.002 C 
ENDROOT
BRANCH   1   2
ATOM      2  C   UNL A   1      30.812  29.208  22.575  1.00  0.00     0.021 C 
BRANCH   2   3
ATOM      3  C   UNL A   1      30.779  27.692  22.418  1.00  0.00     0.116 C 
BRANCH   3   4
ATOM      4  N   UNL A   1      31.791  27.157  21.531  1.00  0.00    -0.354 N 
ATOM      5  C   UNL A   1      32.413  25.941  21.534  1.00  0.00     0.242 C 
ATOM      6  O   UNL A   1      32.906  25.571  20.461  1.00  0.00    -0.273 OA
ATOM      7  H   UNL A   1      32.076  27.766  20.812  1.00  0.00     0.163 HD
BRANCH   5   8
ATOM      8  C   UNL A   1      32.436  24.984  22.753  1.00  0.00     0.176 C 
BRANCH   8   9
ATOM      9  N   UNL A   1      32.465  23.571  22.383  1.00  0.00    -0.340 N 
ATOM     10  C   UNL A   1      32.369  22.421  23.087  1.00  0.00     0.244 C 
ATOM     11  O   UNL A   1      32.277  21.375  22.439  1.00  0.00    -0.270 OA
ATOM     12  H   UNL A   1      32.577  23.426  21.415  1.00  0.00     0.164 HD
BRANCH  10  13
ATOM     13  C   UNL A   1      32.488  22.306  24.564  1.00  0.00     0.066 C 
ATOM     14  C   UNL A   1      33.244  21.725  26.868  1.00  0.00     0.036 C 
ATOM     15  C   UNL A   1      33.370  21.703  25.375  1.00  0.00    -0.025 C 
ENDBRANCH  10  13
ENDBRANCH   8   9
BRANCH   8  16
ATOM     16  C   UNL A   1      33.428  25.368  23.867  1.00  0.00     0.070 C 
BRANCH  16  17
ATOM     17  C   UNL A   1      32.920  26.162  25.044  1.00  0.00    -0.045 A 
ATOM     18  C   UNL A   1      31.584  26.020  25.459  1.00  0.00     0.007 A 
ATOM     19  C   UNL A   1      33.767  27.033  25.747  1.00  0.00     0.007 A 
ATOM     20  C   UNL A   1      31.098  26.755  26.540  1.00  0.00     0.039 A 
ATOM     21  C   UNL A   1      33.275  27.771  26.826  1.00  0.00     0.039 A 
ATOM     22  C   UNL A   1      31.946  27.628  27.209  1.00  0.00     0.123 A 
ATOM     23  F   UNL A   1      31.470  28.361  28.224  1.00  0.00    -0.207 F 
ENDBRANCH  16  17
ENDBRANCH   8  16
ENDBRANCH   5   8
ENDBRANCH   3   4
ENDBRANCH   2   3
ENDBRANCH   1   2
BRANCH   1  24
ATOM     24  C   UNL A   1      31.283  30.072  24.991  1.00  0.00     0.002 C 
BRANCH  24  25
ATOM     25  C   UNL A   1      31.044  31.351  25.796  1.00  0.00     0.021 C 
BRANCH  25  26
ATOM     26  C   UNL A   1      32.177  31.789  26.714  1.00  0.00     0.116 C 
BRANCH  26  27
ATOM     27  N   UNL A   1      32.054  33.166  27.150  1.00  0.00    -0.352 N 
ATOM     28  C   UNL A   1      32.867  33.904  27.971  1.00  0.00     0.251 C 
ATOM     29  H   UNL A   1      31.267  33.643  26.804  1.00  0.00     0.163 HD
ATOM     30  O   UNL A   1      32.512  35.029  28.316  1.00  0.00    -0.269 OA
BRANCH  28  31
ATOM     31  C   UNL A   1      34.157  33.365  28.464  1.00  0.00     0.039 A 
ATOM     32  C   UNL A   1      34.130  32.475  29.544  1.00  0.00     0.014 A 
ATOM     33  C   UNL A   1      35.385  33.762  27.928  1.00  0.00     0.014 A 
ATOM     34  C   UNL A   1      35.324  31.971  30.065  1.00  0.00     0.010 A 
ATOM     35  C   UNL A   1      36.572  33.199  28.398  1.00  0.00     0.010 A 
ATOM     36  C   UNL A   1      36.555  32.318  29.489  1.00  0.00    -0.014 A 
BRANCH  36  37
ATOM     37  C   UNL A   1      37.827  31.800  30.055  1.00  0.00     0.031 A 
ATOM     38  C   UNL A   1      38.412  32.420  31.296  1.00  0.00     0.074 A 
ATOM     39  C   UNL A   1      38.464  30.781  29.448  1.00  0.00     0.049 A 
ATOM     40  N   UNL A   1      39.498  32.090  31.951  1.00  0.00    -0.248 NA
ATOM     41  C   UNL A   1      37.700  33.576  31.864  1.00  0.00     0.031 C 
ATOM     42  C   UNL A   1      38.027  30.120  28.218  1.00  0.00     0.029 A 
ATOM     43  N   UNL A   1      39.615  30.117  29.791  1.00  0.00    -0.354 N 
ATOM     44  C   UNL A   1      39.603  33.003  32.994  1.00  0.00     0.074 A 
ATOM     45  C   UNL A   1      38.504  33.932  32.854  1.00  0.00     0.031 C 
ATOM     46  C   UNL A   1      38.876  29.120  27.931  1.00  0.00     0.029 A 
ATOM     47  C   UNL A   1      39.932  29.089  28.938  1.00  0.00     0.049 A 
ATOM     48  H   UNL A   1      40.162  30.356  30.575  1.00  0.00     0.167 HD
ATOM     49  C   UNL A   1      40.515  33.050  33.995  1.00  0.00     0.031 A 
ATOM     50  C   UNL A   1      40.953  28.212  28.968  1.00  0.00     0.031 A 
ATOM     51  C   UNL A   1      41.598  32.118  34.147  1.00  0.00     0.049 A 
ATOM     52  C   UNL A   1      41.951  28.284  30.091  1.00  0.00     0.074 A 
ATOM     53  C   UNL A   1      42.541  32.047  35.158  1.00  0.00     0.029 A 
ATOM     54  N   UNL A   1      41.884  31.092  33.261  1.00  0.00    -0.354 N 
ATOM     55  N   UNL A   1      41.991  29.106  31.110  1.00  0.00    -0.248 NA
ATOM     56  C   UNL A   1      43.034  27.290  30.074  1.00  0.00     0.031 C 
ATOM     57  C   UNL A   1      43.426  31.006  34.859  1.00  0.00     0.029 A 
ATOM     58  C   UNL A   1      43.003  30.396  33.689  1.00  0.00     0.049 A 
ATOM     59  H   UNL A   1      41.369  30.887  32.447  1.00  0.00     0.167 HD
ATOM     60  C   UNL A   1      43.090  28.719  31.867  1.00  0.00     0.074 A 
ATOM     61  C   UNL A   1      43.672  27.571  31.201  1.00  0.00     0.031 C 
ATOM     62  C   UNL A   1      43.574  29.262  33.010  1.00  0.00     0.031 A 
BRANCH  49  63
ATOM     63  C   UNL A   1      40.375  34.157  35.004  1.00  0.00    -0.014 A 
ATOM     64  C   UNL A   1      39.688  33.956  36.213  1.00  0.00     0.009 A 
ATOM     65  C   UNL A   1      40.955  35.410  34.754  1.00  0.00     0.009 A 
ATOM     66  C   UNL A   1      39.553  35.000  37.132  1.00  0.00     0.001 A 
ATOM     67  C   UNL A   1      40.843  36.442  35.688  1.00  0.00     0.001 A 
ATOM     68  C   UNL A   1      40.134  36.239  36.871  1.00  0.00     0.000 A 
ENDBRANCH  49  63
BRANCH  50  69
ATOM     69  C   UNL A   1      41.072  27.169  27.916  1.00  0.00    -0.014 A 
ATOM     70  C   UNL A   1      41.791  27.426  26.738  1.00  0.00     0.009 A 
ATOM     71  C   UNL A   1      40.462  25.916  28.080  1.00  0.00     0.009 A 
ATOM     72  C   UNL A   1      41.871  26.459  25.734  1.00  0.00     0.001 A 
ATOM     73  C   UNL A   1      40.567  24.942  27.085  1.00  0.00     0.001 A 
ATOM     74  C   UNL A   1      41.264  25.217  25.910  1.00  0.00     0.000 A 
ENDBRANCH  50  69
BRANCH  62  75
ATOM     75  C   UNL A   1      44.781  28.607  33.619  1.00  0.00    -0.014 A 
ATOM     76  C   UNL A   1      44.650  27.604  34.592  1.00  0.00     0.009 A 
ATOM     77  C   UNL A   1      46.066  28.984  33.198  1.00  0.00     0.009 A 
ATOM     78  C   UNL A   1      45.784  27.019  35.158  1.00  0.00     0.001 A 
ATOM     79  C   UNL A   1      47.196  28.376  33.744  1.00  0.00     0.001 A 
ATOM     80  C   UNL A   1      47.055  27.403  34.732  1.00  0.00     0.000 A 
ENDBRANCH  62  75
ENDBRANCH  36  37
ENDBRANCH  28  31
ENDBRANCH  26  27
ENDBRANCH  25  26
ENDBRANCH  24  25
ENDBRANCH   1  24
TORSDOF 17
ENDMDL
MODEL 3
REMARK VINA RESULT:     -10.2      2.159      3.421
REMARK SMILES C/C=C/C(=O)N[C@@H](Cc1ccc(F)cc1)C(=O)NCCCCCCNC(=O)c1ccc(-c2c3nc(c(-c4ccccc4)c4ccc([nH]4)c(-c4ccccc4)c4nc(c(-c5ccccc5)c5ccc2[nH]5)C=C4)C=C3)cc1
REMARK SMILES IDX 21 1 20 2 19 3 18 4 16 5 17 6 7 8 6 9 4 10 5 11 3 13 1 14
REMARK SMILES IDX 2 15 8 16 9 17 10 18 15 19 11 20 14 21 12 22 13 23 22 24
REMARK SMILES IDX 23 25 24 26 25 27 26 28 27 30 28 31 29 32 75 33 30 34 74 35
REMARK SMILES IDX 31 36 32 37 33 38 68 39 34 40 73 41 67 42 69 43 35 44 72 45
REMARK SMILES IDX 66 46 65 47 36 49 58 50 43 51 57 52 44 53 47 54 56 55 70 56
REMARK SMILES IDX 45 57 46 58 55 60 71 61 48 62 37 63 38 64 42 65 39 66 41 67
REMARK SMILES IDX 40 68 59 69 60 70 64 71 61 72 63 73 62 74 49 75 50 76 54 77
REMARK SMILES IDX 51 78 53 79 52 80
REMARK H PARENT 18 7 6 12 25 29 69 48 47 59
REMARK Flexibility Score: inf
ROOT
ATOM      1  C   UNL A   1      34.113  29.114  27.413  1.00  0.00     0.002 C 
ENDROOT
BRANCH   1   2
ATOM      2  C   UNL A   1      33.359  28.328  26.335  1.00  0.00     0.021 C 
BRANCH   2   3
ATOM      3  C   UNL A   1      31.885  28.066  26.621  1.00  0.00     0.116 C 
BRANCH   3   4
ATOM      4  N   UNL A   1      31.081  27.811  25.443  1.00  0.00    -0.354 N 
ATOM      5  C   UNL A   1      30.642  26.631  24.914  1.00  0.00     0.242 C 
ATOM      6  O   UNL A   1      29.649  26.692  24.179  1.00  0.00    -0.273 OA
ATOM      7  H   UNL A   1      30.808  28.615  24.945  1.00  0.00     0.163 HD
BRANCH   5   8
ATOM      8  C   UNL A   1      31.245  25.247  25.267  1.00  0.00     0.176 C 
BRANCH   8   9
ATOM      9  N   UNL A   1      30.342  24.399  26.043  1.00  0.00    -0.340 N 
ATOM     10  C   UNL A   1      30.529  23.331  26.849  1.00  0.00     0.244 C 
ATOM     11  O   UNL A   1      29.551  22.932  27.485  1.00  0.00    -0.270 OA
ATOM     12  H   UNL A   1      29.397  24.664  25.962  1.00  0.00     0.164 HD
BRANCH  10  13
ATOM     13  C   UNL A   1      31.778  22.529  26.935  1.00  0.00     0.066 C 
ATOM     14  C   UNL A   1      34.067  21.713  27.495  1.00  0.00     0.036 C 
ATOM     15  C   UNL A   1      32.932  22.685  27.602  1.00  0.00    -0.025 C 
ENDBRANCH  10  13
ENDBRANCH   8   9
BRANCH   8  16
ATOM     16  C   UNL A   1      31.948  24.524  24.103  1.00  0.00     0.070 C 
BRANCH  16  17
ATOM     17  C   UNL A   1      33.392  24.123  24.269  1.00  0.00    -0.045 A 
ATOM     18  C   UNL A   1      34.234  24.872  25.111  1.00  0.00     0.007 A 
ATOM     19  C   UNL A   1      33.910  22.998  23.609  1.00  0.00     0.007 A 
ATOM     20  C   UNL A   1      35.573  24.518  25.267  1.00  0.00     0.039 A 
ATOM     21  C   UNL A   1      35.254  22.650  23.764  1.00  0.00     0.039 A 
ATOM     22  C   UNL A   1      36.073  23.415  24.588  1.00  0.00     0.123 A 
ATOM     23  F   UNL A   1      37.368  23.096  24.709  1.00  0.00    -0.207 F 
ENDBRANCH  16  17
ENDBRANCH   8  16
ENDBRANCH   5   8
ENDBRANCH   3   4
ENDBRANCH   2   3
ENDBRANCH   1   2
BRANCH   1  24
ATOM     24  C   UNL A   1      34.169  30.636  27.241  1.00  0.00     0.002 C 
BRANCH  24  25
ATOM     25  C   UNL A   1      32.909  31.415  27.628  1.00  0.00     0.021 C 
BRANCH  25  26
ATOM     26  C   UNL A   1      32.599  32.649  26.791  1.00  0.00     0.116 C 
BRANCH  26  27
ATOM     27  N   UNL A   1      32.387  33.838  27.592  1.00  0.00    -0.352 N 
ATOM     28  C   UNL A   1      33.142  34.359  28.611  1.00  0.00     0.251 C 
ATOM     29  H   UNL A   1      31.576  34.350  27.370  1.00  0.00     0.163 HD
ATOM     30  O   UNL A   1      32.714  35.320  29.246  1.00  0.00    -0.269 OA
BRANCH  28  31
ATOM     31  C   UNL A   1      34.456  33.774  28.971  1.00  0.00     0.039 A 
ATOM     32  C   UNL A   1      34.544  33.026  30.149  1.00  0.00     0.014 A 
ATOM     33  C   UNL A   1      35.606  33.998  28.208  1.00  0.00     0.014 A 
ATOM     34  C   UNL A   1      35.770  32.487  30.547  1.00  0.00     0.010 A 
ATOM     35  C   UNL A   1      36.813  33.396  28.564  1.00  0.00     0.010 A 
ATOM     36  C   UNL A   1      36.913  32.656  29.752  1.00  0.00    -0.014 A 
BRANCH  36  37
ATOM     37  C   UNL A   1      38.222  32.103  30.183  1.00  0.00     0.031 A 
ATOM     38  C   UNL A   1      38.704  30.784  29.639  1.00  0.00     0.074 A 
ATOM     39  C   UNL A   1      38.974  32.778  31.072  1.00  0.00     0.049 A 
ATOM     40  N   UNL A   1      39.827  30.153  29.876  1.00  0.00    -0.248 NA
ATOM     41  C   UNL A   1      37.798  30.067  28.727  1.00  0.00     0.031 C 
ATOM     42  C   UNL A   1      38.605  34.045  31.706  1.00  0.00     0.029 A 
ATOM     43  N   UNL A   1      40.214  32.496  31.590  1.00  0.00    -0.354 N 
ATOM     44  C   UNL A   1      39.755  28.966  29.158  1.00  0.00     0.074 A 
ATOM     45  C   UNL A   1      38.457  28.938  28.520  1.00  0.00     0.031 C 
ATOM     46  C   UNL A   1      39.612  34.450  32.497  1.00  0.00     0.029 A 
ATOM     47  C   UNL A   1      40.683  33.458  32.449  1.00  0.00     0.049 A 
ATOM     48  H   UNL A   1      40.718  31.680  31.367  1.00  0.00     0.167 HD
ATOM     49  C   UNL A   1      40.691  27.997  29.017  1.00  0.00     0.031 A 
ATOM     50  C   UNL A   1      41.849  33.540  33.117  1.00  0.00     0.031 A 
ATOM     51  C   UNL A   1      41.988  28.030  29.636  1.00  0.00     0.049 A 
ATOM     52  C   UNL A   1      42.873  32.453  32.942  1.00  0.00     0.074 A 
ATOM     53  C   UNL A   1      43.028  27.125  29.510  1.00  0.00     0.029 A 
ATOM     54  N   UNL A   1      42.423  29.022  30.500  1.00  0.00    -0.354 N 
ATOM     55  N   UNL A   1      42.817  31.375  32.199  1.00  0.00    -0.248 NA
ATOM     56  C   UNL A   1      44.131  32.607  33.688  1.00  0.00     0.031 C 
ATOM     57  C   UNL A   1      44.077  27.547  30.335  1.00  0.00     0.029 A 
ATOM     58  C   UNL A   1      43.708  28.741  30.933  1.00  0.00     0.049 A 
ATOM     59  H   UNL A   1      41.898  29.811  30.767  1.00  0.00     0.167 HD
ATOM     60  C   UNL A   1      44.037  30.733  32.371  1.00  0.00     0.074 A 
ATOM     61  C   UNL A   1      44.821  31.557  33.268  1.00  0.00     0.031 C 
ATOM     62  C   UNL A   1      44.471  29.566  31.834  1.00  0.00     0.031 A 
BRANCH  49  63
ATOM     63  C   UNL A   1      40.336  26.814  28.158  1.00  0.00    -0.014 A 
ATOM     64  C   UNL A   1      40.750  26.739  26.818  1.00  0.00     0.009 A 
ATOM     65  C   UNL A   1      39.599  25.751  28.700  1.00  0.00     0.009 A 
ATOM     66  C   UNL A   1      40.399  25.641  26.029  1.00  0.00     0.001 A 
ATOM     67  C   UNL A   1      39.274  24.642  27.917  1.00  0.00     0.001 A 
ATOM     68  C   UNL A   1      39.665  24.593  26.580  1.00  0.00     0.000 A 
ENDBRANCH  49  63
BRANCH  50  69
ATOM     69  C   UNL A   1      42.127  34.707  33.993  1.00  0.00    -0.014 A 
ATOM     70  C   UNL A   1      41.797  34.668  35.357  1.00  0.00     0.009 A 
ATOM     71  C   UNL A   1      42.716  35.869  33.470  1.00  0.00     0.009 A 
ATOM     72  C   UNL A   1      42.024  35.779  36.172  1.00  0.00     0.001 A 
ATOM     73  C   UNL A   1      42.967  36.968  34.295  1.00  0.00     0.001 A 
ATOM     74  C   UNL A   1      42.612  36.925  35.642  1.00  0.00     0.000 A 
ENDBRANCH  50  69
BRANCH  62  75
ATOM     75  C   UNL A   1      45.862  29.127  32.190  1.00  0.00    -0.014 A 
ATOM     76  C   UNL A   1      46.967  29.516  31.418  1.00  0.00     0.009 A 
ATOM     77  C   UNL A   1      46.072  28.331  33.327  1.00  0.00     0.009 A 
ATOM     78  C   UNL A   1      48.251  29.083  31.756  1.00  0.00     0.001 A 
ATOM     79  C   UNL A   1      47.359  27.925  33.679  1.00  0.00     0.001 A 
ATOM     80  C   UNL A   1      48.446  28.291  32.887  1.00  0.00     0.000 A 
ENDBRANCH  62  75
ENDBRANCH  36  37
ENDBRANCH  28  31
ENDBRANCH  26  27
ENDBRANCH  25  26
ENDBRANCH  24  25
ENDBRANCH   1  24
TORSDOF 17
ENDMDL
