MODEL 1
REMARK VINA RESULT:     -11.9      0.000      0.000
REMARK SMILES C[NH2+][C@@]1(C(=O)NCCCCCCNC(=O)c2ccc(-c3c4nc(c(-c5ccccc5)c5ccc([nH]5)c(-c5ccccc5)c5nc(c(-c6ccccc6)c6ccc3[nH]6)C=C5)C=C4)cc2)CC[C@H]([NH+]2CC[NH+](C)CC2)C1
REMARK SMILES IDX 10 1 9 2 8 3 7 4 6 5 4 6 5 7 3 9 64 10 74 11 65 12 66 13
REMARK SMILES IDX 2 14 1 15 67 18 68 19 73 20 69 22 72 23 70 24 71 25 11 27
REMARK SMILES IDX 12 28 13 29 14 30 15 32 16 33 17 34 63 35 18 36 62 37 19 38
REMARK SMILES IDX 20 39 21 40 56 41 22 42 61 43 55 44 57 45 23 46 60 47 54 48
REMARK SMILES IDX 53 49 24 51 46 52 31 53 45 54 32 55 35 56 44 57 58 58 33 59
REMARK SMILES IDX 34 60 43 62 59 63 36 64 25 65 26 66 30 67 27 68 29 69 28 70
REMARK SMILES IDX 47 71 48 72 52 73 49 74 51 75 50 76 37 77 38 78 42 79 39 80
REMARK SMILES IDX 41 81 40 82
REMARK H PARENT 6 8 2 16 2 17 67 21 70 26 13 31 57 50 35 61
REMARK Flexibility Score: inf
ROOT
ATOM      1  C   UNL A   1      31.384  30.584  25.696  1.00  0.00     0.002 C 
ENDROOT
BRANCH   1   2
ATOM      2  C   UNL A   1      32.656  29.745  25.972  1.00  0.00     0.002 C 
BRANCH   2   3
ATOM      3  C   UNL A   1      33.260  28.616  24.828  1.00  0.00     0.021 C 
BRANCH   3   4
ATOM      4  C   UNL A   1      32.564  27.607  23.085  1.00  0.00     0.116 C 
BRANCH   4   5
ATOM      5  N   UNL A   1      32.710  26.112  22.572  1.00  0.00    -0.351 N 
ATOM      6  C   UNL A   1      32.519  24.842  23.000  1.00  0.00     0.281 C 
ATOM      7  O   UNL A   1      33.122  24.012  22.305  1.00  0.00    -0.268 OA
ATOM      8  H   UNL A   1      33.047  26.108  21.647  1.00  0.00     0.163 HD
BRANCH   6   9
ATOM      9  C   UNL A   1      31.665  24.451  24.236  1.00  0.00     0.181 C 
ATOM     10  C   UNL A   1      32.132  25.195  25.498  1.00  0.00     0.085 C 
ATOM     11  C   UNL A   1      31.824  22.956  24.586  1.00  0.00     0.144 C 
ATOM     12  C   UNL A   1      32.740  24.125  26.401  1.00  0.00     0.072 C 
ATOM     13  C   UNL A   1      33.037  22.891  25.514  1.00  0.00     0.191 C 
BRANCH   9  14
ATOM     14  N   UNL A   1      30.216  24.703  23.972  1.00  0.00    -0.336 N 
ATOM     15  C   UNL A   1      29.694  25.954  24.517  1.00  0.00     0.331 C 
ATOM     16  H   UNL A   1      30.076  24.715  22.962  1.00  0.00     0.346 HD
ATOM     17  H   UNL A   1      29.707  23.953  24.442  1.00  0.00     0.346 HD
ENDBRANCH   9  14
BRANCH  13  18
ATOM     18  N   UNL A   1      34.348  22.800  24.861  1.00  0.00    -0.323 N 
ATOM     19  C   UNL A   1      34.989  21.093  24.626  1.00  0.00     0.324 C 
ATOM     20  C   UNL A   1      35.565  24.207  24.985  1.00  0.00     0.324 C 
ATOM     21  H   UNL A   1      34.081  23.075  23.915  1.00  0.00     0.348 HD
ATOM     22  C   UNL A   1      36.851  20.687  25.035  1.00  0.00     0.324 C 
ATOM     23  C   UNL A   1      37.474  23.799  25.362  1.00  0.00     0.324 C 
ATOM     24  N   UNL A   1      38.078  22.056  25.163  1.00  0.00    -0.328 N 
ATOM     25  C   UNL A   1      39.163  21.719  26.075  1.00  0.00     0.333 C 
ATOM     26  H   UNL A   1      38.434  22.105  24.208  1.00  0.00     0.348 HD
ENDBRANCH  13  18
ENDBRANCH   6   9
ENDBRANCH   4   5
ENDBRANCH   3   4
ENDBRANCH   2   3
ENDBRANCH   1   2
BRANCH   1  27
ATOM     27  C   UNL A   1      31.233  31.856  26.522  1.00  0.00     0.021 C 
BRANCH  27  28
ATOM     28  C   UNL A   1      32.561  32.459  26.930  1.00  0.00     0.116 C 
BRANCH  28  29
ATOM     29  N   UNL A   1      32.398  33.856  27.300  1.00  0.00    -0.352 N 
ATOM     30  C   UNL A   1      33.055  34.524  28.303  1.00  0.00     0.251 C 
ATOM     31  H   UNL A   1      31.748  34.377  26.777  1.00  0.00     0.163 HD
ATOM     32  O   UNL A   1      32.648  35.594  28.736  1.00  0.00    -0.269 OA
BRANCH  30  33
ATOM     33  C   UNL A   1      34.280  33.909  28.846  1.00  0.00     0.039 A 
ATOM     34  C   UNL A   1      35.529  34.358  28.417  1.00  0.00     0.014 A 
ATOM     35  C   UNL A   1      34.169  32.906  29.817  1.00  0.00     0.014 A 
ATOM     36  C   UNL A   1      36.679  33.801  28.975  1.00  0.00     0.010 A 
ATOM     37  C   UNL A   1      35.311  32.415  30.429  1.00  0.00     0.010 A 
ATOM     38  C   UNL A   1      36.575  32.829  29.984  1.00  0.00    -0.014 A 
BRANCH  38  39
ATOM     39  C   UNL A   1      37.774  32.152  30.525  1.00  0.00     0.031 A 
ATOM     40  C   UNL A   1      38.376  32.653  31.810  1.00  0.00     0.074 A 
ATOM     41  C   UNL A   1      38.342  31.137  29.851  1.00  0.00     0.049 A 
ATOM     42  N   UNL A   1      39.452  32.247  32.433  1.00  0.00    -0.248 NA
ATOM     43  C   UNL A   1      37.696  33.786  32.463  1.00  0.00     0.031 C 
ATOM     44  C   UNL A   1      37.871  30.593  28.575  1.00  0.00     0.029 A 
ATOM     45  N   UNL A   1      39.446  30.382  30.148  1.00  0.00    -0.354 N 
ATOM     46  C   UNL A   1      39.588  33.089  33.530  1.00  0.00     0.074 A 
ATOM     47  C   UNL A   1      38.524  34.064  33.457  1.00  0.00     0.031 C 
ATOM     48  C   UNL A   1      38.663  29.568  28.217  1.00  0.00     0.029 A 
ATOM     49  C   UNL A   1      39.712  29.405  29.220  1.00  0.00     0.049 A 
ATOM     50  H   UNL A   1      39.997  30.526  30.951  1.00  0.00     0.167 HD
ATOM     51  C   UNL A   1      40.501  33.038  34.527  1.00  0.00     0.031 A 
ATOM     52  C   UNL A   1      40.688  28.480  29.190  1.00  0.00     0.031 A 
ATOM     53  C   UNL A   1      41.536  32.048  34.613  1.00  0.00     0.049 A 
ATOM     54  C   UNL A   1      41.682  28.432  30.317  1.00  0.00     0.074 A 
ATOM     55  C   UNL A   1      42.477  31.865  35.610  1.00  0.00     0.029 A 
ATOM     56  N   UNL A   1      41.758  31.063  33.663  1.00  0.00    -0.354 N 
ATOM     57  N   UNL A   1      41.762  29.196  31.381  1.00  0.00    -0.248 NA
ATOM     58  C   UNL A   1      42.710  27.386  30.248  1.00  0.00     0.031 C 
ATOM     59  C   UNL A   1      43.294  30.791  35.243  1.00  0.00     0.029 A 
ATOM     60  C   UNL A   1      42.831  30.278  34.041  1.00  0.00     0.049 A 
ATOM     61  H   UNL A   1      41.231  30.942  32.840  1.00  0.00     0.167 HD
ATOM     62  C   UNL A   1      42.832  28.706  32.119  1.00  0.00     0.074 A 
ATOM     63  C   UNL A   1      43.359  27.572  31.388  1.00  0.00     0.031 C 
ATOM     64  C   UNL A   1      43.334  29.153  33.296  1.00  0.00     0.031 A 
BRANCH  51  65
ATOM     65  C   UNL A   1      40.409  34.088  35.599  1.00  0.00    -0.014 A 
ATOM     66  C   UNL A   1      41.085  35.314  35.476  1.00  0.00     0.009 A 
ATOM     67  C   UNL A   1      39.630  33.854  36.742  1.00  0.00     0.009 A 
ATOM     68  C   UNL A   1      41.015  36.266  36.496  1.00  0.00     0.001 A 
ATOM     69  C   UNL A   1      39.538  34.820  37.746  1.00  0.00     0.001 A 
ATOM     70  C   UNL A   1      40.238  36.020  37.627  1.00  0.00     0.000 A 
ENDBRANCH  51  65
BRANCH  52  71
ATOM     71  C   UNL A   1      40.754  27.501  28.075  1.00  0.00    -0.014 A 
ATOM     72  C   UNL A   1      40.090  26.269  28.174  1.00  0.00     0.009 A 
ATOM     73  C   UNL A   1      41.476  27.791  26.908  1.00  0.00     0.009 A 
ATOM     74  C   UNL A   1      40.169  25.336  27.138  1.00  0.00     0.001 A 
ATOM     75  C   UNL A   1      41.532  26.867  25.861  1.00  0.00     0.001 A 
ATOM     76  C   UNL A   1      40.887  25.637  25.980  1.00  0.00     0.000 A 
ENDBRANCH  52  71
BRANCH  64  77
ATOM     77  C   UNL A   1      44.490  28.394  33.878  1.00  0.00    -0.014 A 
ATOM     78  C   UNL A   1      44.286  27.251  34.664  1.00  0.00     0.009 A 
ATOM     79  C   UNL A   1      45.802  28.803  33.591  1.00  0.00     0.009 A 
ATOM     80  C   UNL A   1      45.376  26.548  35.179  1.00  0.00     0.001 A 
ATOM     81  C   UNL A   1      46.889  28.083  34.086  1.00  0.00     0.001 A 
ATOM     82  C   UNL A   1      46.675  26.961  34.886  1.00  0.00     0.000 A 
ENDBRANCH  64  77
ENDBRANCH  38  39
ENDBRANCH  30  33
ENDBRANCH  28  29
ENDBRANCH  27  28
ENDBRANCH   1  27
TORSDOF 15
ENDMDL
MODEL 2
REMARK VINA RESULT:     -11.9      0.873      6.024
REMARK SMILES C[NH2+][C@@]1(C(=O)NCCCCCCNC(=O)c2ccc(-c3c4nc(c(-c5ccccc5)c5ccc([nH]5)c(-c5ccccc5)c5nc(c(-c6ccccc6)c6ccc3[nH]6)C=C5)C=C4)cc2)CC[C@H]([NH+]2CC[NH+](C)CC2)C1
REMARK SMILES IDX 10 1 9 2 8 3 7 4 6 5 4 6 5 7 3 9 64 10 74 11 65 12 66 13
REMARK SMILES IDX 2 14 1 15 67 18 68 19 73 20 69 22 72 23 70 24 71 25 11 27
REMARK SMILES IDX 12 28 13 29 14 30 15 32 16 33 17 34 63 35 18 36 62 37 19 38
REMARK SMILES IDX 20 39 21 40 56 41 22 42 61 43 55 44 57 45 23 46 60 47 54 48
REMARK SMILES IDX 53 49 24 51 46 52 31 53 45 54 32 55 35 56 44 57 58 58 33 59
REMARK SMILES IDX 34 60 43 62 59 63 36 64 25 65 26 66 30 67 27 68 29 69 28 70
REMARK SMILES IDX 47 71 48 72 52 73 49 74 51 75 50 76 37 77 38 78 42 79 39 80
REMARK SMILES IDX 41 81 40 82
REMARK H PARENT 6 8 2 16 2 17 67 21 70 26 13 31 57 50 35 61
REMARK Flexibility Score: inf
ROOT
ATOM      1  C   UNL A   1      31.552  30.509  26.241  1.00  0.00     0.002 C 
ENDROOT
BRANCH   1   2
ATOM      2  C   UNL A   1      33.009  30.032  26.020  1.00  0.00     0.002 C 
BRANCH   2   3
ATOM      3  C   UNL A   1      33.411  28.889  24.804  1.00  0.00     0.021 C 
BRANCH   3   4
ATOM      4  C   UNL A   1      32.392  27.559  23.488  1.00  0.00     0.116 C 
BRANCH   4   5
ATOM      5  N   UNL A   1      32.723  26.099  22.959  1.00  0.00    -0.351 N 
ATOM      6  C   UNL A   1      32.669  24.809  23.364  1.00  0.00     0.281 C 
ATOM      7  O   UNL A   1      33.381  24.065  22.675  1.00  0.00    -0.268 OA
ATOM      8  H   UNL A   1      33.082  26.149  22.044  1.00  0.00     0.163 HD
BRANCH   6   9
ATOM      9  C   UNL A   1      31.833  24.302  24.571  1.00  0.00     0.181 C 
ATOM     10  C   UNL A   1      32.286  24.964  25.883  1.00  0.00     0.085 C 
ATOM     11  C   UNL A   1      32.038  22.791  24.808  1.00  0.00     0.144 C 
ATOM     12  C   UNL A   1      32.929  23.848  26.702  1.00  0.00     0.072 C 
ATOM     13  C   UNL A   1      33.257  22.693  25.724  1.00  0.00     0.191 C 
BRANCH   9  14
ATOM     14  N   UNL A   1      30.376  24.529  24.331  1.00  0.00    -0.336 N 
ATOM     15  C   UNL A   1      29.770  25.582  25.144  1.00  0.00     0.331 C 
ATOM     16  H   UNL A   1      30.252  24.777  23.349  1.00  0.00     0.346 HD
ATOM     17  H   UNL A   1      29.906  23.662  24.592  1.00  0.00     0.346 HD
ENDBRANCH   9  14
BRANCH  13  18
ATOM     18  N   UNL A   1      34.567  22.689  25.062  1.00  0.00    -0.323 N 
ATOM     19  C   UNL A   1      35.226  21.026  24.638  1.00  0.00     0.324 C 
ATOM     20  C   UNL A   1      35.768  24.088  25.337  1.00  0.00     0.324 C 
ATOM     21  H   UNL A   1      34.293  23.063  24.153  1.00  0.00     0.348 HD
ATOM     22  C   UNL A   1      37.095  20.599  24.996  1.00  0.00     0.324 C 
ATOM     23  C   UNL A   1      37.684  23.663  25.662  1.00  0.00     0.324 C 
ATOM     24  N   UNL A   1      38.307  21.959  25.270  1.00  0.00    -0.328 N 
ATOM     25  C   UNL A   1      39.398  21.537  26.137  1.00  0.00     0.333 C 
ATOM     26  H   UNL A   1      38.657  22.117  24.326  1.00  0.00     0.348 HD
ENDBRANCH  13  18
ENDBRANCH   6   9
ENDBRANCH   4   5
ENDBRANCH   3   4
ENDBRANCH   2   3
ENDBRANCH   1   2
BRANCH   1  27
ATOM     27  C   UNL A   1      31.383  31.974  26.628  1.00  0.00     0.021 C 
BRANCH  27  28
ATOM     28  C   UNL A   1      32.599  32.548  27.325  1.00  0.00     0.116 C 
BRANCH  28  29
ATOM     29  N   UNL A   1      32.454  33.983  27.511  1.00  0.00    -0.352 N 
ATOM     30  C   UNL A   1      33.058  34.753  28.472  1.00  0.00     0.251 C 
ATOM     31  H   UNL A   1      31.861  34.451  26.881  1.00  0.00     0.163 HD
ATOM     32  O   UNL A   1      32.656  35.877  28.742  1.00  0.00    -0.269 OA
BRANCH  30  33
ATOM     33  C   UNL A   1      34.222  34.181  29.176  1.00  0.00     0.039 A 
ATOM     34  C   UNL A   1      35.511  34.466  28.726  1.00  0.00     0.014 A 
ATOM     35  C   UNL A   1      34.012  33.391  30.312  1.00  0.00     0.014 A 
ATOM     36  C   UNL A   1      36.603  33.958  29.430  1.00  0.00     0.010 A 
ATOM     37  C   UNL A   1      35.098  32.958  31.056  1.00  0.00     0.010 A 
ATOM     38  C   UNL A   1      36.401  33.204  30.598  1.00  0.00    -0.014 A 
BRANCH  38  39
ATOM     39  C   UNL A   1      37.534  32.573  31.310  1.00  0.00     0.031 A 
ATOM     40  C   UNL A   1      38.235  31.404  30.674  1.00  0.00     0.074 A 
ATOM     41  C   UNL A   1      37.897  33.011  32.529  1.00  0.00     0.049 A 
ATOM     42  N   UNL A   1      39.210  30.669  31.141  1.00  0.00    -0.248 NA
ATOM     43  C   UNL A   1      37.749  30.983  29.347  1.00  0.00     0.031 C 
ATOM     44  C   UNL A   1      37.265  34.109  33.263  1.00  0.00     0.029 A 
ATOM     45  N   UNL A   1      38.891  32.578  33.367  1.00  0.00    -0.354 N 
ATOM     46  C   UNL A   1      39.434  29.690  30.181  1.00  0.00     0.074 A 
ATOM     47  C   UNL A   1      38.457  29.885  29.134  1.00  0.00     0.031 C 
ATOM     48  C   UNL A   1      37.910  34.285  34.429  1.00  0.00     0.029 A 
ATOM     49  C   UNL A   1      38.976  33.295  34.536  1.00  0.00     0.049 A 
ATOM     50  H   UNL A   1      39.487  31.825  33.153  1.00  0.00     0.167 HD
ATOM     51  C   UNL A   1      40.387  28.730  30.158  1.00  0.00     0.031 A 
ATOM     52  C   UNL A   1      39.827  33.167  35.570  1.00  0.00     0.031 A 
ATOM     53  C   UNL A   1      41.376  28.562  31.183  1.00  0.00     0.049 A 
ATOM     54  C   UNL A   1      40.888  32.104  35.515  1.00  0.00     0.074 A 
ATOM     55  C   UNL A   1      42.426  27.662  31.231  1.00  0.00     0.029 A 
ATOM     56  N   UNL A   1      41.441  29.321  32.341  1.00  0.00    -0.354 N 
ATOM     57  N   UNL A   1      41.128  31.223  34.572  1.00  0.00    -0.248 NA
ATOM     58  C   UNL A   1      41.807  32.026  36.659  1.00  0.00     0.031 C 
ATOM     59  C   UNL A   1      43.104  27.853  32.440  1.00  0.00     0.029 A 
ATOM     60  C   UNL A   1      42.504  28.902  33.119  1.00  0.00     0.049 A 
ATOM     61  H   UNL A   1      40.822  30.050  32.574  1.00  0.00     0.167 HD
ATOM     62  C   UNL A   1      42.238  30.506  34.997  1.00  0.00     0.074 A 
ATOM     63  C   UNL A   1      42.633  31.064  36.274  1.00  0.00     0.031 C 
ATOM     64  C   UNL A   1      42.876  29.477  34.386  1.00  0.00     0.031 A 
BRANCH  51  65
ATOM     65  C   UNL A   1      40.395  27.796  28.980  1.00  0.00    -0.014 A 
ATOM     66  C   UNL A   1      41.181  28.063  27.846  1.00  0.00     0.009 A 
ATOM     67  C   UNL A   1      39.616  26.630  29.006  1.00  0.00     0.009 A 
ATOM     68  C   UNL A   1      41.154  27.202  26.747  1.00  0.00     0.001 A 
ATOM     69  C   UNL A   1      39.614  25.755  27.918  1.00  0.00     0.001 A 
ATOM     70  C   UNL A   1      40.374  26.047  26.786  1.00  0.00     0.000 A 
ENDBRANCH  51  65
BRANCH  52  71
ATOM     71  C   UNL A   1      39.735  34.091  36.729  1.00  0.00    -0.014 A 
ATOM     72  C   UNL A   1      40.346  35.353  36.680  1.00  0.00     0.009 A 
ATOM     73  C   UNL A   1      39.037  33.721  37.889  1.00  0.00     0.009 A 
ATOM     74  C   UNL A   1      40.282  36.215  37.777  1.00  0.00     0.001 A 
ATOM     75  C   UNL A   1      38.951  34.595  38.975  1.00  0.00     0.001 A 
ATOM     76  C   UNL A   1      39.581  35.837  38.922  1.00  0.00     0.000 A 
ENDBRANCH  52  71
BRANCH  64  77
ATOM     77  C   UNL A   1      44.083  28.914  35.078  1.00  0.00    -0.014 A 
ATOM     78  C   UNL A   1      43.970  27.842  35.976  1.00  0.00     0.009 A 
ATOM     79  C   UNL A   1      45.353  29.434  34.787  1.00  0.00     0.009 A 
ATOM     80  C   UNL A   1      45.108  27.320  36.594  1.00  0.00     0.001 A 
ATOM     81  C   UNL A   1      46.491  28.892  35.387  1.00  0.00     0.001 A 
ATOM     82  C   UNL A   1      46.366  27.842  36.295  1.00  0.00     0.000 A 
ENDBRANCH  64  77
ENDBRANCH  38  39
ENDBRANCH  30  33
ENDBRANCH  28  29
ENDBRANCH  27  28
ENDBRANCH   1  27
TORSDOF 15
ENDMDL
MODEL 3
REMARK VINA RESULT:     -11.7      2.188      6.796
REMARK SMILES C[NH2+][C@@]1(C(=O)NCCCCCCNC(=O)c2ccc(-c3c4nc(c(-c5ccccc5)c5ccc([nH]5)c(-c5ccccc5)c5nc(c(-c6ccccc6)c6ccc3[nH]6)C=C5)C=C4)cc2)CC[C@H]([NH+]2CC[NH+](C)CC2)C1
REMARK SMILES IDX 10 1 9 2 8 3 7 4 6 5 4 6 5 7 3 9 64 10 74 11 65 12 66 13
REMARK SMILES IDX 2 14 1 15 67 18 68 19 73 20 69 22 72 23 70 24 71 25 11 27
REMARK SMILES IDX 12 28 13 29 14 30 15 32 16 33 17 34 63 35 18 36 62 37 19 38
REMARK SMILES IDX 20 39 21 40 56 41 22 42 61 43 55 44 57 45 23 46 60 47 54 48
REMARK SMILES IDX 53 49 24 51 46 52 31 53 45 54 32 55 35 56 44 57 58 58 33 59
REMARK SMILES IDX 34 60 43 62 59 63 36 64 25 65 26 66 30 67 27 68 29 69 28 70
REMARK SMILES IDX 47 71 48 72 52 73 49 74 51 75 50 76 37 77 38 78 42 79 39 80
REMARK SMILES IDX 41 81 40 82
REMARK H PARENT 6 8 2 16 2 17 67 21 70 26 13 31 57 50 35 61
REMARK Flexibility Score: inf
ROOT
ATOM      1  C   UNL A   1      34.174  33.734  29.361  1.00  0.00     0.002 C 
ENDROOT
BRANCH   1   2
ATOM      2  C   UNL A   1      34.897  33.226  28.089  1.00  0.00     0.002 C 
BRANCH   2   3
ATOM      3  C   UNL A   1      35.130  31.552  27.790  1.00  0.00     0.021 C 
BRANCH   3   4
ATOM      4  C   UNL A   1      34.071  29.948  26.871  1.00  0.00     0.116 C 
BRANCH   4   5
ATOM      5  N   UNL A   1      34.051  29.376  25.390  1.00  0.00    -0.351 N 
ATOM      6  C   UNL A   1      33.237  28.696  24.549  1.00  0.00     0.281 C 
ATOM      7  O   UNL A   1      33.852  28.200  23.593  1.00  0.00    -0.268 OA
ATOM      8  H   UNL A   1      34.901  29.583  24.941  1.00  0.00     0.163 HD
BRANCH   6   9
ATOM      9  C   UNL A   1      31.708  28.523  24.754  1.00  0.00     0.181 C 
ATOM     10  C   UNL A   1      31.389  27.979  26.156  1.00  0.00     0.085 C 
ATOM     11  C   UNL A   1      31.121  27.472  23.787  1.00  0.00     0.144 C 
ATOM     12  C   UNL A   1      30.855  26.566  25.933  1.00  0.00     0.072 C 
ATOM     13  C   UNL A   1      31.280  26.135  24.509  1.00  0.00     0.191 C 
BRANCH   9  14
ATOM     14  N   UNL A   1      30.997  29.814  24.506  1.00  0.00    -0.336 N 
ATOM     15  C   UNL A   1      29.894  29.742  23.551  1.00  0.00     0.331 C 
ATOM     16  H   UNL A   1      30.624  30.145  25.396  1.00  0.00     0.346 HD
ATOM     17  H   UNL A   1      31.688  30.444  24.097  1.00  0.00     0.346 HD
ENDBRANCH   9  14
BRANCH  13  18
ATOM     18  N   UNL A   1      32.571  25.457  24.340  1.00  0.00    -0.323 N 
ATOM     19  C   UNL A   1      32.630  24.206  22.994  1.00  0.00     0.324 C 
ATOM     20  C   UNL A   1      33.740  25.281  25.782  1.00  0.00     0.324 C 
ATOM     21  H   UNL A   1      33.114  26.231  23.956  1.00  0.00     0.348 HD
ATOM     22  C   UNL A   1      33.477  22.478  23.307  1.00  0.00     0.324 C 
ATOM     23  C   UNL A   1      34.640  23.533  26.084  1.00  0.00     0.324 C 
ATOM     24  N   UNL A   1      34.639  22.272  24.722  1.00  0.00    -0.328 N 
ATOM     25  C   UNL A   1      34.647  20.901  25.213  1.00  0.00     0.333 C 
ATOM     26  H   UNL A   1      35.535  22.488  24.287  1.00  0.00     0.348 HD
ENDBRANCH  13  18
ENDBRANCH   6   9
ENDBRANCH   4   5
ENDBRANCH   3   4
ENDBRANCH   2   3
ENDBRANCH   1   2
BRANCH   1  27
ATOM     27  C   UNL A   1      33.109  34.802  29.139  1.00  0.00     0.021 C 
BRANCH  27  28
ATOM     28  C   UNL A   1      33.422  36.107  29.841  1.00  0.00     0.116 C 
BRANCH  28  29
ATOM     29  N   UNL A   1      32.515  36.320  30.957  1.00  0.00    -0.352 N 
ATOM     30  C   UNL A   1      32.538  35.680  32.170  1.00  0.00     0.251 C 
ATOM     31  H   UNL A   1      31.810  36.995  30.829  1.00  0.00     0.163 HD
ATOM     32  O   UNL A   1      31.576  35.700  32.926  1.00  0.00    -0.269 OA
BRANCH  30  33
ATOM     33  C   UNL A   1      33.772  34.962  32.542  1.00  0.00     0.039 A 
ATOM     34  C   UNL A   1      33.700  33.632  32.956  1.00  0.00     0.014 A 
ATOM     35  C   UNL A   1      35.003  35.618  32.435  1.00  0.00     0.014 A 
ATOM     36  C   UNL A   1      34.878  32.950  33.257  1.00  0.00     0.010 A 
ATOM     37  C   UNL A   1      36.176  34.914  32.654  1.00  0.00     0.010 A 
ATOM     38  C   UNL A   1      36.121  33.588  33.106  1.00  0.00    -0.014 A 
BRANCH  38  39
ATOM     39  C   UNL A   1      37.380  32.923  33.509  1.00  0.00     0.031 A 
ATOM     40  C   UNL A   1      38.010  31.926  32.574  1.00  0.00     0.074 A 
ATOM     41  C   UNL A   1      37.923  33.172  34.714  1.00  0.00     0.049 A 
ATOM     42  N   UNL A   1      39.077  31.190  32.746  1.00  0.00    -0.248 NA
ATOM     43  C   UNL A   1      37.328  31.704  31.286  1.00  0.00     0.031 C 
ATOM     44  C   UNL A   1      37.379  34.087  35.720  1.00  0.00     0.029 A 
ATOM     45  N   UNL A   1      39.057  32.671  35.297  1.00  0.00    -0.354 N 
ATOM     46  C   UNL A   1      39.176  30.403  31.605  1.00  0.00     0.074 A 
ATOM     47  C   UNL A   1      38.032  30.707  30.775  1.00  0.00     0.031 C 
ATOM     48  C   UNL A   1      38.200  34.106  36.784  1.00  0.00     0.029 A 
ATOM     49  C   UNL A   1      39.307  33.184  36.546  1.00  0.00     0.049 A 
ATOM     50  H   UNL A   1      39.638  32.006  34.862  1.00  0.00     0.167 HD
ATOM     51  C   UNL A   1      40.147  29.527  31.263  1.00  0.00     0.031 A 
ATOM     52  C   UNL A   1      40.321  32.941  37.396  1.00  0.00     0.031 A 
ATOM     53  C   UNL A   1      41.298  29.253  32.076  1.00  0.00     0.049 A 
ATOM     54  C   UNL A   1      41.398  31.975  36.988  1.00  0.00     0.074 A 
ATOM     55  C   UNL A   1      42.375  28.430  31.799  1.00  0.00     0.029 A 
ATOM     56  N   UNL A   1      41.525  29.810  33.325  1.00  0.00    -0.354 N 
ATOM     57  N   UNL A   1      41.512  31.283  35.879  1.00  0.00    -0.248 NA
ATOM     58  C   UNL A   1      42.496  31.767  37.943  1.00  0.00     0.031 C 
ATOM     59  C   UNL A   1      43.236  28.459  32.902  1.00  0.00     0.029 A 
ATOM     60  C   UNL A   1      42.716  29.337  33.841  1.00  0.00     0.049 A 
ATOM     61  H   UNL A   1      40.925  30.446  33.778  1.00  0.00     0.167 HD
ATOM     62  C   UNL A   1      42.704  30.580  35.991  1.00  0.00     0.074 A 
ATOM     63  C   UNL A   1      43.282  30.940  37.269  1.00  0.00     0.031 C 
ATOM     64  C   UNL A   1      43.270  29.713  35.116  1.00  0.00     0.031 A 
BRANCH  51  65
ATOM     65  C   UNL A   1      39.996  28.807  29.952  1.00  0.00    -0.014 A 
ATOM     66  C   UNL A   1      39.430  27.523  29.888  1.00  0.00     0.009 A 
ATOM     67  C   UNL A   1      40.415  29.423  28.764  1.00  0.00     0.009 A 
ATOM     68  C   UNL A   1      39.326  26.855  28.666  1.00  0.00     0.001 A 
ATOM     69  C   UNL A   1      40.282  28.765  27.540  1.00  0.00     0.001 A 
ATOM     70  C   UNL A   1      39.748  27.478  27.493  1.00  0.00     0.000 A 
ENDBRANCH  51  65
BRANCH  52  71
ATOM     71  C   UNL A   1      40.386  33.648  38.700  1.00  0.00    -0.014 A 
ATOM     72  C   UNL A   1      40.907  34.949  38.776  1.00  0.00     0.009 A 
ATOM     73  C   UNL A   1      39.929  33.032  39.874  1.00  0.00     0.009 A 
ATOM     74  C   UNL A   1      40.993  35.608  40.004  1.00  0.00     0.001 A 
ATOM     75  C   UNL A   1      39.991  33.703  41.098  1.00  0.00     0.001 A 
ATOM     76  C   UNL A   1      40.531  34.986  41.164  1.00  0.00     0.000 A 
ENDBRANCH  52  71
BRANCH  64  77
ATOM     77  C   UNL A   1      44.596  29.123  35.500  1.00  0.00    -0.014 A 
ATOM     78  C   UNL A   1      44.676  27.892  36.168  1.00  0.00     0.009 A 
ATOM     79  C   UNL A   1      45.779  29.787  35.144  1.00  0.00     0.009 A 
ATOM     80  C   UNL A   1      45.919  27.351  36.499  1.00  0.00     0.001 A 
ATOM     81  C   UNL A   1      47.020  29.231  35.453  1.00  0.00     0.001 A 
ATOM     82  C   UNL A   1      47.089  28.018  36.137  1.00  0.00     0.000 A 
ENDBRANCH  64  77
ENDBRANCH  38  39
ENDBRANCH  30  33
ENDBRANCH  28  29
ENDBRANCH  27  28
ENDBRANCH   1  27
TORSDOF 15
ENDMDL
