MODEL 1
REMARK VINA RESULT:     -11.0      0.000      0.000
REMARK SMILES C[C@@H](C(=O)NCCCCCCNC(=O)c1ccc(-c2c3nc(c(-c4ccccc4)c4ccc([nH]4)c(-c4ccccc4)c4nc(c(-c5ccccc5)c5ccc2[nH]5)C=C4)C=C3)cc1)c1ccc(C[C@H]2CCCC2=O)cc1[N+](=O)[O-]
REMARK SMILES IDX 8 1 7 2 6 3 5 4 3 5 4 6 2 8 1 9 63 10 64 11 75 12 65 13
REMARK SMILES IDX 74 14 66 15 76 16 77 17 78 18 67 19 68 20 69 21 72 22 70 23
REMARK SMILES IDX 71 24 73 25 9 26 10 27 11 28 12 29 13 30 14 32 15 33 16 34
REMARK SMILES IDX 62 35 17 36 61 37 18 38 19 39 20 40 55 41 21 42 60 43 54 44
REMARK SMILES IDX 56 45 22 46 59 47 53 48 52 49 23 51 45 52 30 53 44 54 31 55
REMARK SMILES IDX 34 56 43 57 57 58 32 59 33 60 42 62 58 63 35 64 24 65 25 66
REMARK SMILES IDX 29 67 26 68 28 69 27 70 46 71 47 72 51 73 48 74 50 75 49 76
REMARK SMILES IDX 36 77 37 78 41 79 38 80 40 81 39 82
REMARK H PARENT 5 7 12 31 56 50 34 61
REMARK Flexibility Score: inf
ROOT
ATOM      1  C   UNL A   1      32.905  29.294  24.637  1.00  0.00     0.002 C 
ENDROOT
BRANCH   1   2
ATOM      2  C   UNL A   1      32.589  28.496  23.366  1.00  0.00     0.021 C 
BRANCH   2   3
ATOM      3  C   UNL A   1      33.624  27.414  23.048  1.00  0.00     0.116 C 
BRANCH   3   4
ATOM      4  N   UNL A   1      33.993  26.722  24.265  1.00  0.00    -0.356 N 
ATOM      5  C   UNL A   1      33.275  25.835  25.008  1.00  0.00     0.227 C 
ATOM      6  O   UNL A   1      33.708  25.551  26.128  1.00  0.00    -0.274 OA
ATOM      7  H   UNL A   1      34.896  26.921  24.605  1.00  0.00     0.163 HD
BRANCH   5   8
ATOM      8  C   UNL A   1      32.006  25.184  24.425  1.00  0.00     0.112 C 
ATOM      9  C   UNL A   1      30.783  25.691  25.211  1.00  0.00     0.023 C 
BRANCH   8  10
ATOM     10  C   UNL A   1      32.139  23.649  24.398  1.00  0.00     0.042 A 
ATOM     11  C   UNL A   1      31.356  22.860  25.261  1.00  0.00     0.012 A 
ATOM     12  C   UNL A   1      33.069  22.956  23.581  1.00  0.00     0.273 A 
ATOM     13  C   UNL A   1      31.542  21.483  25.374  1.00  0.00     0.004 A 
ATOM     14  C   UNL A   1      33.292  21.572  23.737  1.00  0.00     0.089 A 
ATOM     15  C   UNL A   1      32.554  20.834  24.668  1.00  0.00    -0.040 A 
BRANCH  12  16
ATOM     16  N   UNL A   1      33.837  23.628  22.519  1.00  0.00     0.063 N 
ATOM     17  O   UNL A   1      35.020  23.912  22.754  1.00  0.00    -0.258 OA
ATOM     18  O   UNL A   1      33.275  23.810  21.428  1.00  0.00    -0.258 OA
ENDBRANCH  12  16
BRANCH  15  19
ATOM     19  C   UNL A   1      32.840  19.373  24.918  1.00  0.00     0.047 C 
BRANCH  19  20
ATOM     20  C   UNL A   1      33.860  18.708  23.980  1.00  0.00     0.060 C 
ATOM     21  C   UNL A   1      35.070  18.049  24.649  1.00  0.00     0.012 C 
ATOM     22  C   UNL A   1      33.280  17.562  23.182  1.00  0.00     0.136 C 
ATOM     23  C   UNL A   1      34.764  16.558  24.730  1.00  0.00     0.009 C 
ATOM     24  C   UNL A   1      33.933  16.242  23.495  1.00  0.00     0.076 C 
ATOM     25  O   UNL A   1      32.377  17.692  22.362  1.00  0.00    -0.299 OA
ENDBRANCH  19  20
ENDBRANCH  15  19
ENDBRANCH   8  10
ENDBRANCH   5   8
ENDBRANCH   3   4
ENDBRANCH   2   3
ENDBRANCH   1   2
BRANCH   1  26
ATOM     26  C   UNL A   1      31.817  29.236  25.714  1.00  0.00     0.002 C 
BRANCH  26  27
ATOM     27  C   UNL A   1      32.273  28.629  27.042  1.00  0.00     0.021 C 
BRANCH  27  28
ATOM     28  C   UNL A   1      33.682  29.033  27.455  1.00  0.00     0.116 C 
BRANCH  28  29
ATOM     29  N   UNL A   1      33.731  30.402  27.949  1.00  0.00    -0.352 N 
ATOM     30  C   UNL A   1      34.743  31.028  28.631  1.00  0.00     0.251 C 
ATOM     31  H   UNL A   1      32.933  30.950  27.769  1.00  0.00     0.163 HD
ATOM     32  O   UNL A   1      34.564  32.119  29.163  1.00  0.00    -0.269 OA
BRANCH  30  33
ATOM     33  C   UNL A   1      36.054  30.360  28.731  1.00  0.00     0.039 A 
ATOM     34  C   UNL A   1      36.907  30.359  27.625  1.00  0.00     0.014 A 
ATOM     35  C   UNL A   1      36.446  29.770  29.936  1.00  0.00     0.014 A 
ATOM     36  C   UNL A   1      38.188  29.816  27.747  1.00  0.00     0.010 A 
ATOM     37  C   UNL A   1      37.746  29.302  30.077  1.00  0.00     0.010 A 
ATOM     38  C   UNL A   1      38.627  29.315  28.983  1.00  0.00    -0.014 A 
BRANCH  38  39
ATOM     39  C   UNL A   1      40.000  28.786  29.170  1.00  0.00     0.031 A 
ATOM     40  C   UNL A   1      41.102  29.712  29.598  1.00  0.00     0.074 A 
ATOM     41  C   UNL A   1      40.276  27.508  28.849  1.00  0.00     0.049 A 
ATOM     42  N   UNL A   1      42.388  29.487  29.677  1.00  0.00    -0.248 NA
ATOM     43  C   UNL A   1      40.707  31.086  29.947  1.00  0.00     0.031 C 
ATOM     44  C   UNL A   1      39.301  26.520  28.385  1.00  0.00     0.029 A 
ATOM     45  N   UNL A   1      41.469  26.829  28.839  1.00  0.00    -0.354 N 
ATOM     46  C   UNL A   1      42.957  30.696  30.053  1.00  0.00     0.074 A 
ATOM     47  C   UNL A   1      41.883  31.662  30.138  1.00  0.00     0.031 C 
ATOM     48  C   UNL A   1      39.934  25.362  28.139  1.00  0.00     0.029 A 
ATOM     49  C   UNL A   1      41.363  25.539  28.382  1.00  0.00     0.049 A 
ATOM     50  H   UNL A   1      42.319  27.230  29.132  1.00  0.00     0.167 HD
ATOM     51  C   UNL A   1      44.255  30.976  30.317  1.00  0.00     0.031 A 
ATOM     52  C   UNL A   1      42.310  24.609  28.158  1.00  0.00     0.031 A 
ATOM     53  C   UNL A   1      45.317  30.011  30.236  1.00  0.00     0.049 A 
ATOM     54  C   UNL A   1      43.749  24.940  28.445  1.00  0.00     0.074 A 
ATOM     55  C   UNL A   1      46.655  30.174  30.548  1.00  0.00     0.029 A 
ATOM     56  N   UNL A   1      45.162  28.703  29.800  1.00  0.00    -0.354 N 
ATOM     57  N   UNL A   1      44.266  26.066  28.872  1.00  0.00    -0.248 NA
ATOM     58  C   UNL A   1      44.733  23.869  28.228  1.00  0.00     0.031 C 
ATOM     59  C   UNL A   1      47.321  28.982  30.243  1.00  0.00     0.029 A 
ATOM     60  C   UNL A   1      46.386  28.056  29.805  1.00  0.00     0.049 A 
ATOM     61  H   UNL A   1      44.308  28.295  29.529  1.00  0.00     0.167 HD
ATOM     62  C   UNL A   1      45.628  25.835  29.003  1.00  0.00     0.074 A 
ATOM     63  C   UNL A   1      45.858  24.457  28.615  1.00  0.00     0.031 C 
ATOM     64  C   UNL A   1      46.599  26.685  29.416  1.00  0.00     0.031 A 
BRANCH  51  65
ATOM     65  C   UNL A   1      44.591  32.395  30.686  1.00  0.00    -0.014 A 
ATOM     66  C   UNL A   1      45.054  33.314  29.729  1.00  0.00     0.009 A 
ATOM     67  C   UNL A   1      44.445  32.821  32.015  1.00  0.00     0.009 A 
ATOM     68  C   UNL A   1      45.418  34.608  30.107  1.00  0.00     0.001 A 
ATOM     69  C   UNL A   1      44.774  34.126  32.384  1.00  0.00     0.001 A 
ATOM     70  C   UNL A   1      45.275  35.013  31.433  1.00  0.00     0.000 A 
ENDBRANCH  51  65
BRANCH  52  71
ATOM     71  C   UNL A   1      41.916  23.277  27.630  1.00  0.00    -0.014 A 
ATOM     72  C   UNL A   1      41.551  22.243  28.504  1.00  0.00     0.009 A 
ATOM     73  C   UNL A   1      41.861  23.049  26.246  1.00  0.00     0.009 A 
ATOM     74  C   UNL A   1      41.151  21.001  28.001  1.00  0.00     0.001 A 
ATOM     75  C   UNL A   1      41.435  21.816  25.746  1.00  0.00     0.001 A 
ATOM     76  C   UNL A   1      41.085  20.792  26.624  1.00  0.00     0.000 A 
ENDBRANCH  52  71
BRANCH  64  77
ATOM     77  C   UNL A   1      48.001  26.151  29.512  1.00  0.00    -0.014 A 
ATOM     78  C   UNL A   1      48.867  26.168  28.409  1.00  0.00     0.009 A 
ATOM     79  C   UNL A   1      48.486  25.706  30.752  1.00  0.00     0.009 A 
ATOM     80  C   UNL A   1      50.188  25.735  28.544  1.00  0.00     0.001 A 
ATOM     81  C   UNL A   1      49.813  25.301  30.891  1.00  0.00     0.001 A 
ATOM     82  C   UNL A   1      50.662  25.312  29.786  1.00  0.00     0.000 A 
ENDBRANCH  64  77
ENDBRANCH  38  39
ENDBRANCH  30  33
ENDBRANCH  28  29
ENDBRANCH  27  28
ENDBRANCH  26  27
ENDBRANCH   1  26
TORSDOF 17
ENDMDL
MODEL 2
REMARK VINA RESULT:     -10.8      3.114      7.013
REMARK SMILES C[C@@H](C(=O)NCCCCCCNC(=O)c1ccc(-c2c3nc(c(-c4ccccc4)c4ccc([nH]4)c(-c4ccccc4)c4nc(c(-c5ccccc5)c5ccc2[nH]5)C=C4)C=C3)cc1)c1ccc(C[C@H]2CCCC2=O)cc1[N+](=O)[O-]
REMARK SMILES IDX 8 1 7 2 6 3 5 4 3 5 4 6 2 8 1 9 63 10 64 11 75 12 65 13
REMARK SMILES IDX 74 14 66 15 76 16 77 17 78 18 67 19 68 20 69 21 72 22 70 23
REMARK SMILES IDX 71 24 73 25 9 26 10 27 11 28 12 29 13 30 14 32 15 33 16 34
REMARK SMILES IDX 62 35 17 36 61 37 18 38 19 39 20 40 55 41 21 42 60 43 54 44
REMARK SMILES IDX 56 45 22 46 59 47 53 48 52 49 23 51 45 52 30 53 44 54 31 55
REMARK SMILES IDX 34 56 43 57 57 58 32 59 33 60 42 62 58 63 35 64 24 65 25 66
REMARK SMILES IDX 29 67 26 68 28 69 27 70 46 71 47 72 51 73 48 74 50 75 49 76
REMARK SMILES IDX 36 77 37 78 41 79 38 80 40 81 39 82
REMARK H PARENT 5 7 12 31 56 50 34 61
REMARK Flexibility Score: inf
ROOT
ATOM      1  C   UNL A   1      30.385  29.766  23.995  1.00  0.00     0.002 C 
ENDROOT
BRANCH   1   2
ATOM      2  C   UNL A   1      30.983  29.157  22.721  1.00  0.00     0.021 C 
BRANCH   2   3
ATOM      3  C   UNL A   1      30.547  27.711  22.469  1.00  0.00     0.116 C 
BRANCH   3   4
ATOM      4  N   UNL A   1      31.615  26.988  21.812  1.00  0.00    -0.356 N 
ATOM      5  C   UNL A   1      32.753  26.459  22.339  1.00  0.00     0.227 C 
ATOM      6  O   UNL A   1      33.626  26.087  21.549  1.00  0.00    -0.274 OA
ATOM      7  H   UNL A   1      31.502  26.860  20.842  1.00  0.00     0.163 HD
BRANCH   5   8
ATOM      8  C   UNL A   1      32.897  26.289  23.864  1.00  0.00     0.112 C 
ATOM      9  C   UNL A   1      33.947  27.290  24.377  1.00  0.00     0.023 C 
BRANCH   8  10
ATOM     10  C   UNL A   1      33.200  24.823  24.228  1.00  0.00     0.042 A 
ATOM     11  C   UNL A   1      34.225  24.129  23.558  1.00  0.00     0.012 A 
ATOM     12  C   UNL A   1      32.453  24.080  25.179  1.00  0.00     0.273 A 
ATOM     13  C   UNL A   1      34.441  22.766  23.751  1.00  0.00     0.004 A 
ATOM     14  C   UNL A   1      32.639  22.690  25.331  1.00  0.00     0.089 A 
ATOM     15  C   UNL A   1      33.610  22.017  24.584  1.00  0.00    -0.040 A 
BRANCH  12  16
ATOM     16  N   UNL A   1      31.463  24.711  26.068  1.00  0.00     0.063 N 
ATOM     17  O   UNL A   1      31.864  25.584  26.850  1.00  0.00    -0.258 OA
ATOM     18  O   UNL A   1      30.275  24.380  25.936  1.00  0.00    -0.258 OA
ENDBRANCH  12  16
BRANCH  15  19
ATOM     19  C   UNL A   1      33.763  20.517  24.662  1.00  0.00     0.047 C 
BRANCH  19  20
ATOM     20  C   UNL A   1      32.522  19.686  24.298  1.00  0.00     0.060 C 
ATOM     21  C   UNL A   1      32.307  19.404  22.808  1.00  0.00     0.012 C 
ATOM     22  C   UNL A   1      32.544  18.291  24.882  1.00  0.00     0.136 C 
ATOM     23  C   UNL A   1      32.838  17.998  22.551  1.00  0.00     0.009 C 
ATOM     24  C   UNL A   1      32.566  17.216  23.828  1.00  0.00     0.076 C 
ATOM     25  O   UNL A   1      32.539  18.058  26.086  1.00  0.00    -0.299 OA
ENDBRANCH  19  20
ENDBRANCH  15  19
ENDBRANCH   8  10
ENDBRANCH   5   8
ENDBRANCH   3   4
ENDBRANCH   2   3
ENDBRANCH   1   2
BRANCH   1  26
ATOM     26  C   UNL A   1      31.401  30.038  25.110  1.00  0.00     0.002 C 
BRANCH  26  27
ATOM     27  C   UNL A   1      31.083  31.261  25.971  1.00  0.00     0.021 C 
BRANCH  27  28
ATOM     28  C   UNL A   1      32.255  31.746  26.814  1.00  0.00     0.116 C 
BRANCH  28  29
ATOM     29  N   UNL A   1      32.122  33.151  27.171  1.00  0.00    -0.352 N 
ATOM     30  C   UNL A   1      32.928  33.906  27.985  1.00  0.00     0.251 C 
ATOM     31  H   UNL A   1      31.352  33.621  26.776  1.00  0.00     0.163 HD
ATOM     32  O   UNL A   1      32.579  35.021  28.358  1.00  0.00    -0.269 OA
BRANCH  30  33
ATOM     33  C   UNL A   1      34.222  33.348  28.420  1.00  0.00     0.039 A 
ATOM     34  C   UNL A   1      35.401  33.822  27.843  1.00  0.00     0.014 A 
ATOM     35  C   UNL A   1      34.260  32.381  29.429  1.00  0.00     0.014 A 
ATOM     36  C   UNL A   1      36.631  33.370  28.323  1.00  0.00     0.010 A 
ATOM     37  C   UNL A   1      35.484  31.990  29.957  1.00  0.00     0.010 A 
ATOM     38  C   UNL A   1      36.681  32.477  29.406  1.00  0.00    -0.014 A 
BRANCH  38  39
ATOM     39  C   UNL A   1      37.967  32.019  29.985  1.00  0.00     0.031 A 
ATOM     40  C   UNL A   1      38.604  30.758  29.475  1.00  0.00     0.074 A 
ATOM     41  C   UNL A   1      38.500  32.669  31.036  1.00  0.00     0.049 A 
ATOM     42  N   UNL A   1      39.641  30.108  29.937  1.00  0.00    -0.248 NA
ATOM     43  C   UNL A   1      37.964  30.123  28.311  1.00  0.00     0.031 C 
ATOM     44  C   UNL A   1      37.956  33.882  31.648  1.00  0.00     0.029 A 
ATOM     45  N   UNL A   1      39.608  32.380  31.794  1.00  0.00    -0.354 N 
ATOM     46  C   UNL A   1      39.757  28.976  29.143  1.00  0.00     0.074 A 
ATOM     47  C   UNL A   1      38.659  29.002  28.203  1.00  0.00     0.031 C 
ATOM     48  C   UNL A   1      38.733  34.235  32.684  1.00  0.00     0.029 A 
ATOM     49  C   UNL A   1      39.799  33.250  32.839  1.00  0.00     0.049 A 
ATOM     50  H   UNL A   1      40.207  31.622  31.605  1.00  0.00     0.167 HD
ATOM     51  C   UNL A   1      40.702  28.006  29.183  1.00  0.00     0.031 A 
ATOM     52  C   UNL A   1      40.714  33.243  33.827  1.00  0.00     0.031 A 
ATOM     53  C   UNL A   1      41.795  27.989  30.117  1.00  0.00     0.049 A 
ATOM     54  C   UNL A   1      41.749  32.153  33.864  1.00  0.00     0.074 A 
ATOM     55  C   UNL A   1      42.844  27.091  30.198  1.00  0.00     0.029 A 
ATOM     56  N   UNL A   1      41.973  28.909  31.140  1.00  0.00    -0.354 N 
ATOM     57  N   UNL A   1      41.894  31.127  33.061  1.00  0.00    -0.248 NA
ATOM     58  C   UNL A   1      42.752  32.225  34.937  1.00  0.00     0.031 C 
ATOM     59  C   UNL A   1      43.623  27.432  31.309  1.00  0.00     0.029 A 
ATOM     60  C   UNL A   1      43.097  28.581  31.879  1.00  0.00     0.049 A 
ATOM     61  H   UNL A   1      41.387  29.681  31.315  1.00  0.00     0.167 HD
ATOM     62  C   UNL A   1      43.018  30.448  33.511  1.00  0.00     0.074 A 
ATOM     63  C   UNL A   1      43.520  31.181  34.656  1.00  0.00     0.031 C 
ATOM     64  C   UNL A   1      43.585  29.322  33.015  1.00  0.00     0.031 A 
BRANCH  51  65
ATOM     65  C   UNL A   1      40.566  26.873  28.205  1.00  0.00    -0.014 A 
ATOM     66  C   UNL A   1      41.201  26.903  26.952  1.00  0.00     0.009 A 
ATOM     67  C   UNL A   1      39.787  25.754  28.541  1.00  0.00     0.009 A 
ATOM     68  C   UNL A   1      41.010  25.866  26.036  1.00  0.00     0.001 A 
ATOM     69  C   UNL A   1      39.628  24.702  27.638  1.00  0.00     0.001 A 
ATOM     70  C   UNL A   1      40.225  24.766  26.381  1.00  0.00     0.000 A 
ENDBRANCH  51  65
BRANCH  52  71
ATOM     71  C   UNL A   1      40.680  34.310  34.860  1.00  0.00    -0.014 A 
ATOM     72  C   UNL A   1      41.354  35.523  34.656  1.00  0.00     0.009 A 
ATOM     73  C   UNL A   1      39.937  34.136  36.038  1.00  0.00     0.009 A 
ATOM     74  C   UNL A   1      41.294  36.536  35.617  1.00  0.00     0.001 A 
ATOM     75  C   UNL A   1      39.856  35.160  36.985  1.00  0.00     0.001 A 
ATOM     76  C   UNL A   1      40.539  36.357  36.776  1.00  0.00     0.000 A 
ENDBRANCH  52  71
BRANCH  64  77
ATOM     77  C   UNL A   1      44.840  28.822  33.675  1.00  0.00    -0.014 A 
ATOM     78  C   UNL A   1      46.106  29.282  33.283  1.00  0.00     0.009 A 
ATOM     79  C   UNL A   1      44.743  27.943  34.765  1.00  0.00     0.009 A 
ATOM     80  C   UNL A   1      47.251  28.859  33.962  1.00  0.00     0.001 A 
ATOM     81  C   UNL A   1      45.885  27.543  35.460  1.00  0.00     0.001 A 
ATOM     82  C   UNL A   1      47.138  27.998  35.055  1.00  0.00     0.000 A 
ENDBRANCH  64  77
ENDBRANCH  38  39
ENDBRANCH  30  33
ENDBRANCH  28  29
ENDBRANCH  27  28
ENDBRANCH  26  27
ENDBRANCH   1  26
TORSDOF 17
ENDMDL
MODEL 3
REMARK VINA RESULT:     -10.8      2.392      8.311
REMARK SMILES C[C@@H](C(=O)NCCCCCCNC(=O)c1ccc(-c2c3nc(c(-c4ccccc4)c4ccc([nH]4)c(-c4ccccc4)c4nc(c(-c5ccccc5)c5ccc2[nH]5)C=C4)C=C3)cc1)c1ccc(C[C@H]2CCCC2=O)cc1[N+](=O)[O-]
REMARK SMILES IDX 8 1 7 2 6 3 5 4 3 5 4 6 2 8 1 9 63 10 64 11 75 12 65 13
REMARK SMILES IDX 74 14 66 15 76 16 77 17 78 18 67 19 68 20 69 21 72 22 70 23
REMARK SMILES IDX 71 24 73 25 9 26 10 27 11 28 12 29 13 30 14 32 15 33 16 34
REMARK SMILES IDX 62 35 17 36 61 37 18 38 19 39 20 40 55 41 21 42 60 43 54 44
REMARK SMILES IDX 56 45 22 46 59 47 53 48 52 49 23 51 45 52 30 53 44 54 31 55
REMARK SMILES IDX 34 56 43 57 57 58 32 59 33 60 42 62 58 63 35 64 24 65 25 66
REMARK SMILES IDX 29 67 26 68 28 69 27 70 46 71 47 72 51 73 48 74 50 75 49 76
REMARK SMILES IDX 36 77 37 78 41 79 38 80 40 81 39 82
REMARK H PARENT 5 7 12 31 56 50 34 61
REMARK Flexibility Score: inf
ROOT
ATOM      1  C   UNL A   1      35.476  21.731  25.286  1.00  0.00     0.002 C 
ENDROOT
BRANCH   1   2
ATOM      2  C   UNL A   1      34.204  21.353  24.517  1.00  0.00     0.021 C 
BRANCH   2   3
ATOM      3  C   UNL A   1      33.794  22.388  23.466  1.00  0.00     0.116 C 
BRANCH   3   4
ATOM      4  N   UNL A   1      32.480  22.909  23.783  1.00  0.00    -0.356 N 
ATOM      5  C   UNL A   1      32.138  24.046  24.449  1.00  0.00     0.227 C 
ATOM      6  O   UNL A   1      30.961  24.166  24.799  1.00  0.00    -0.274 OA
ATOM      7  H   UNL A   1      31.724  22.361  23.470  1.00  0.00     0.163 HD
BRANCH   5   8
ATOM      8  C   UNL A   1      33.186  25.148  24.692  1.00  0.00     0.112 C 
ATOM      9  C   UNL A   1      33.810  24.941  26.084  1.00  0.00     0.023 C 
BRANCH   8  10
ATOM     10  C   UNL A   1      32.573  26.546  24.483  1.00  0.00     0.042 A 
ATOM     11  C   UNL A   1      32.253  27.347  25.595  1.00  0.00     0.012 A 
ATOM     12  C   UNL A   1      32.239  27.075  23.209  1.00  0.00     0.273 A 
ATOM     13  C   UNL A   1      31.569  28.554  25.462  1.00  0.00     0.004 A 
ATOM     14  C   UNL A   1      31.500  28.269  23.082  1.00  0.00     0.089 A 
ATOM     15  C   UNL A   1      31.123  28.995  24.217  1.00  0.00    -0.040 A 
BRANCH  12  16
ATOM     16  N   UNL A   1      32.658  26.426  21.954  1.00  0.00     0.063 N 
ATOM     17  O   UNL A   1      33.852  26.508  21.633  1.00  0.00    -0.258 OA
ATOM     18  O   UNL A   1      31.806  25.780  21.327  1.00  0.00    -0.258 OA
ENDBRANCH  12  16
BRANCH  15  19
ATOM     19  C   UNL A   1      30.252  30.224  24.111  1.00  0.00     0.047 C 
BRANCH  19  20
ATOM     20  C   UNL A   1      28.980  30.085  23.260  1.00  0.00     0.060 C 
ATOM     21  C   UNL A   1      27.753  30.868  23.739  1.00  0.00     0.012 C 
ATOM     22  C   UNL A   1      29.147  30.597  21.847  1.00  0.00     0.136 C 
ATOM     23  C   UNL A   1      27.699  32.143  22.905  1.00  0.00     0.009 C 
ATOM     24  C   UNL A   1      28.245  31.763  21.537  1.00  0.00     0.076 C 
ATOM     25  O   UNL A   1      29.929  30.114  21.036  1.00  0.00    -0.299 OA
ENDBRANCH  19  20
ENDBRANCH  15  19
ENDBRANCH   8  10
ENDBRANCH   5   8
ENDBRANCH   3   4
ENDBRANCH   2   3
ENDBRANCH   1   2
BRANCH   1  26
ATOM     26  C   UNL A   1      36.777  21.549  24.496  1.00  0.00     0.002 C 
BRANCH  26  27
ATOM     27  C   UNL A   1      37.612  20.341  24.920  1.00  0.00     0.021 C 
BRANCH  27  28
ATOM     28  C   UNL A   1      38.839  20.696  25.749  1.00  0.00     0.116 C 
BRANCH  28  29
ATOM     29  N   UNL A   1      39.801  19.605  25.789  1.00  0.00    -0.352 N 
ATOM     30  C   UNL A   1      41.147  19.662  26.049  1.00  0.00     0.251 C 
ATOM     31  H   UNL A   1      39.439  18.709  25.604  1.00  0.00     0.163 HD
ATOM     32  O   UNL A   1      41.870  18.693  25.846  1.00  0.00    -0.269 OA
BRANCH  30  33
ATOM     33  C   UNL A   1      41.720  20.920  26.565  1.00  0.00     0.039 A 
ATOM     34  C   UNL A   1      42.156  21.894  25.664  1.00  0.00     0.014 A 
ATOM     35  C   UNL A   1      41.785  21.143  27.943  1.00  0.00     0.014 A 
ATOM     36  C   UNL A   1      42.604  23.124  26.147  1.00  0.00     0.010 A 
ATOM     37  C   UNL A   1      42.157  22.394  28.418  1.00  0.00     0.010 A 
ATOM     38  C   UNL A   1      42.575  23.395  27.525  1.00  0.00    -0.014 A 
BRANCH  38  39
ATOM     39  C   UNL A   1      42.986  24.710  28.074  1.00  0.00     0.031 A 
ATOM     40  C   UNL A   1      41.946  25.757  28.350  1.00  0.00     0.074 A 
ATOM     41  C   UNL A   1      44.292  24.999  28.216  1.00  0.00     0.049 A 
ATOM     42  N   UNL A   1      42.103  27.010  28.689  1.00  0.00    -0.248 NA
ATOM     43  C   UNL A   1      40.542  25.348  28.185  1.00  0.00     0.031 C 
ATOM     44  C   UNL A   1      45.400  24.082  27.944  1.00  0.00     0.029 A 
ATOM     45  N   UNL A   1      44.910  26.164  28.600  1.00  0.00    -0.354 N 
ATOM     46  C   UNL A   1      40.823  27.545  28.747  1.00  0.00     0.074 A 
ATOM     47  C   UNL A   1      39.906  26.496  28.361  1.00  0.00     0.031 C 
ATOM     48  C   UNL A   1      46.560  24.716  28.174  1.00  0.00     0.029 A 
ATOM     49  C   UNL A   1      46.282  26.096  28.561  1.00  0.00     0.049 A 
ATOM     50  H   UNL A   1      44.417  26.969  28.877  1.00  0.00     0.167 HD
ATOM     51  C   UNL A   1      40.443  28.796  29.102  1.00  0.00     0.031 A 
ATOM     52  C   UNL A   1      47.211  27.043  28.786  1.00  0.00     0.031 A 
ATOM     53  C   UNL A   1      41.359  29.834  29.490  1.00  0.00     0.049 A 
ATOM     54  C   UNL A   1      46.772  28.430  29.169  1.00  0.00     0.074 A 
ATOM     55  C   UNL A   1      41.073  31.113  29.933  1.00  0.00     0.029 A 
ATOM     56  N   UNL A   1      42.740  29.714  29.470  1.00  0.00    -0.354 N 
ATOM     57  N   UNL A   1      45.556  28.903  29.293  1.00  0.00    -0.248 NA
ATOM     58  C   UNL A   1      47.832  29.408  29.451  1.00  0.00     0.031 C 
ATOM     59  C   UNL A   1      42.284  31.788  30.122  1.00  0.00     0.029 A 
ATOM     60  C   UNL A   1      43.323  30.907  29.862  1.00  0.00     0.049 A 
ATOM     61  H   UNL A   1      43.234  28.901  29.214  1.00  0.00     0.167 HD
ATOM     62  C   UNL A   1      45.702  30.224  29.695  1.00  0.00     0.074 A 
ATOM     63  C   UNL A   1      47.125  30.476  29.798  1.00  0.00     0.031 C 
ATOM     64  C   UNL A   1      44.741  31.142  29.961  1.00  0.00     0.031 A 
BRANCH  51  65
ATOM     65  C   UNL A   1      38.972  29.107  29.052  1.00  0.00    -0.014 A 
ATOM     66  C   UNL A   1      38.358  29.572  27.878  1.00  0.00     0.009 A 
ATOM     67  C   UNL A   1      38.186  28.935  30.203  1.00  0.00     0.009 A 
ATOM     68  C   UNL A   1      37.004  29.912  27.872  1.00  0.00     0.001 A 
ATOM     69  C   UNL A   1      36.825  29.241  30.186  1.00  0.00     0.001 A 
ATOM     70  C   UNL A   1      36.238  29.745  29.026  1.00  0.00     0.000 A 
ENDBRANCH  51  65
BRANCH  52  71
ATOM     71  C   UNL A   1      48.650  26.700  28.651  1.00  0.00    -0.014 A 
ATOM     72  C   UNL A   1      49.376  26.217  29.750  1.00  0.00     0.009 A 
ATOM     73  C   UNL A   1      49.295  26.814  27.409  1.00  0.00     0.009 A 
ATOM     74  C   UNL A   1      50.722  25.866  29.609  1.00  0.00     0.001 A 
ATOM     75  C   UNL A   1      50.632  26.438  27.265  1.00  0.00     0.001 A 
ATOM     76  C   UNL A   1      51.346  25.969  28.366  1.00  0.00     0.000 A 
ENDBRANCH  52  71
BRANCH  64  77
ATOM     77  C   UNL A   1      45.183  32.501  30.429  1.00  0.00    -0.014 A 
ATOM     78  C   UNL A   1      45.387  32.775  31.790  1.00  0.00     0.009 A 
ATOM     79  C   UNL A   1      45.484  33.492  29.482  1.00  0.00     0.009 A 
ATOM     80  C   UNL A   1      45.870  34.022  32.192  1.00  0.00     0.001 A 
ATOM     81  C   UNL A   1      45.992  34.728  29.884  1.00  0.00     0.001 A 
ATOM     82  C   UNL A   1      46.181  34.993  31.239  1.00  0.00     0.000 A 
ENDBRANCH  64  77
ENDBRANCH  38  39
ENDBRANCH  30  33
ENDBRANCH  28  29
ENDBRANCH  27  28
ENDBRANCH  26  27
ENDBRANCH   1  26
TORSDOF 17
ENDMDL
