MODEL 1
REMARK VINA RESULT:     -11.4      0.000      0.000
REMARK SMILES Cc1c(Cl)cc2c(c1C)O[C@H](C(F)(F)F)C(C(=O)NCCCCCCNC(=O)c1ccc(-c3c4nc(c(-c5ccccc5)c5ccc([nH]5)c(-c5ccccc5)c5nc(c(-c6ccccc6)c6ccc3[nH]6)C=C5)C=C4)cc1)=C2
REMARK SMILES IDX 23 1 22 2 21 3 20 4 19 5 17 6 18 7 16 9 1 10 2 11 3 12 8 13
REMARK SMILES IDX 4 14 5 15 7 16 9 17 6 18 10 19 77 20 11 21 12 22 13 23 14 24
REMARK SMILES IDX 15 25 24 26 25 27 26 28 27 29 28 31 29 32 30 33 76 34 31 35
REMARK SMILES IDX 75 36 32 37 33 38 34 39 69 40 35 41 74 42 68 43 70 44 36 45
REMARK SMILES IDX 73 46 67 47 66 48 37 50 59 51 44 52 58 53 45 54 48 55 57 56
REMARK SMILES IDX 71 57 46 58 47 59 56 61 72 62 49 63 38 64 39 65 43 66 40 67
REMARK SMILES IDX 42 68 41 69 60 70 61 71 65 72 62 73 64 74 63 75 50 76 51 77
REMARK SMILES IDX 55 78 52 79 54 80 53 81
REMARK H PARENT 19 8 26 30 70 49 48 60
REMARK Flexibility Score: inf
ROOT
ATOM      1  C   UNL A   1      33.314  29.281  24.820  1.00  0.00     0.002 C 
ENDROOT
BRANCH   1   2
ATOM      2  C   UNL A   1      33.116  28.699  23.415  1.00  0.00     0.002 C 
BRANCH   2   3
ATOM      3  C   UNL A   1      32.874  27.190  23.369  1.00  0.00     0.021 C 
BRANCH   3   4
ATOM      4  C   UNL A   1      31.403  26.806  23.486  1.00  0.00     0.116 C 
BRANCH   4   5
ATOM      5  N   UNL A   1      31.041  26.447  24.846  1.00  0.00    -0.352 N 
ATOM      6  C   UNL A   1      31.364  25.480  25.736  1.00  0.00     0.251 C 
ATOM      7  O   UNL A   1      30.829  25.582  26.844  1.00  0.00    -0.270 OA
ATOM      8  H   UNL A   1      30.384  27.077  25.221  1.00  0.00     0.163 HD
BRANCH   6   9
ATOM      9  C   UNL A   1      32.289  24.338  25.466  1.00  0.00     0.067 C 
ATOM     10  C   UNL A   1      37.275  20.114  25.107  1.00  0.00     0.046 C 
ATOM     11  C   UNL A   1      36.335  21.284  25.250  1.00  0.00    -0.026 A 
ATOM     12  C   UNL A   1      36.790  22.571  25.606  1.00  0.00     0.045 A 
ATOM     13  C   UNL A   1      34.947  21.092  25.052  1.00  0.00    -0.004 A 
ATOM     14  Cl  UNL A   1      38.462  22.913  25.890  1.00  0.00    -0.084 Cl
ATOM     15  C   UNL A   1      35.899  23.640  25.762  1.00  0.00     0.032 A 
ATOM     16  C   UNL A   1      34.073  22.185  25.209  1.00  0.00     0.131 A 
ATOM     17  C   UNL A   1      34.344  19.758  24.681  1.00  0.00     0.049 C 
ATOM     18  C   UNL A   1      34.533  23.450  25.570  1.00  0.00     0.019 A 
ATOM     19  O   UNL A   1      32.744  21.920  25.044  1.00  0.00    -0.475 OA
ATOM     20  C   UNL A   1      33.580  24.531  25.793  1.00  0.00     0.025 C 
ATOM     21  C   UNL A   1      31.855  23.042  24.850  1.00  0.00     0.314 C 
BRANCH  21  22
ATOM     22  C   UNL A   1      31.530  23.172  23.352  1.00  0.00     0.429 C 
ATOM     23  F   UNL A   1      31.504  21.948  22.766  1.00  0.00    -0.167 F 
ATOM     24  F   UNL A   1      30.317  23.727  23.123  1.00  0.00    -0.167 F 
ATOM     25  F   UNL A   1      32.437  23.921  22.686  1.00  0.00    -0.167 F 
ENDBRANCH  21  22
ENDBRANCH   6   9
ENDBRANCH   4   5
ENDBRANCH   3   4
ENDBRANCH   2   3
ENDBRANCH   1   2
BRANCH   1  26
ATOM     26  C   UNL A   1      34.024  28.357  25.817  1.00  0.00     0.021 C 
BRANCH  26  27
ATOM     27  C   UNL A   1      33.610  28.561  27.269  1.00  0.00     0.116 C 
BRANCH  27  28
ATOM     28  N   UNL A   1      33.565  29.971  27.622  1.00  0.00    -0.352 N 
ATOM     29  C   UNL A   1      34.498  30.730  28.275  1.00  0.00     0.251 C 
ATOM     30  H   UNL A   1      32.747  30.447  27.353  1.00  0.00     0.163 HD
ATOM     31  O   UNL A   1      34.202  31.851  28.693  1.00  0.00    -0.269 OA
BRANCH  29  32
ATOM     32  C   UNL A   1      35.859  30.204  28.484  1.00  0.00     0.039 A 
ATOM     33  C   UNL A   1      36.777  30.266  27.433  1.00  0.00     0.014 A 
ATOM     34  C   UNL A   1      36.219  29.630  29.708  1.00  0.00     0.014 A 
ATOM     35  C   UNL A   1      38.075  29.792  27.625  1.00  0.00     0.010 A 
ATOM     36  C   UNL A   1      37.530  29.218  29.918  1.00  0.00     0.010 A 
ATOM     37  C   UNL A   1      38.467  29.288  28.876  1.00  0.00    -0.014 A 
BRANCH  37  38
ATOM     38  C   UNL A   1      39.848  28.811  29.115  1.00  0.00     0.031 A 
ATOM     39  C   UNL A   1      40.860  29.729  29.740  1.00  0.00     0.074 A 
ATOM     40  C   UNL A   1      40.203  27.575  28.719  1.00  0.00     0.049 A 
ATOM     41  N   UNL A   1      42.136  29.528  29.953  1.00  0.00    -0.248 NA
ATOM     42  C   UNL A   1      40.382  31.055  30.164  1.00  0.00     0.031 C 
ATOM     43  C   UNL A   1      39.312  26.596  28.095  1.00  0.00     0.029 A 
ATOM     44  N   UNL A   1      41.413  26.931  28.783  1.00  0.00    -0.354 N 
ATOM     45  C   UNL A   1      42.610  30.699  30.529  1.00  0.00     0.074 A 
ATOM     46  C   UNL A   1      41.501  31.625  30.584  1.00  0.00     0.031 C 
ATOM     47  C   UNL A   1      39.998  25.466  27.859  1.00  0.00     0.029 A 
ATOM     48  C   UNL A   1      41.385  25.657  28.270  1.00  0.00     0.049 A 
ATOM     49  H   UNL A   1      42.224  27.343  29.160  1.00  0.00     0.167 HD
ATOM     50  C   UNL A   1      43.854  30.970  30.988  1.00  0.00     0.031 A 
ATOM     51  C   UNL A   1      42.369  24.748  28.138  1.00  0.00     0.031 A 
ATOM     52  C   UNL A   1      44.955  30.046  30.930  1.00  0.00     0.049 A 
ATOM     53  C   UNL A   1      43.754  25.093  28.608  1.00  0.00     0.074 A 
ATOM     54  C   UNL A   1      46.249  30.220  31.390  1.00  0.00     0.029 A 
ATOM     55  N   UNL A   1      44.891  28.776  30.381  1.00  0.00    -0.354 N 
ATOM     56  N   UNL A   1      44.182  26.196  29.174  1.00  0.00    -0.248 NA
ATOM     57  C   UNL A   1      44.789  24.067  28.429  1.00  0.00     0.031 C 
ATOM     58  C   UNL A   1      46.982  29.073  31.072  1.00  0.00     0.029 A 
ATOM     59  C   UNL A   1      46.128  28.161  30.472  1.00  0.00     0.049 A 
ATOM     60  H   UNL A   1      44.086  28.369  29.986  1.00  0.00     0.167 HD
ATOM     61  C   UNL A   1      45.528  25.986  29.443  1.00  0.00     0.074 A 
ATOM     62  C   UNL A   1      45.840  24.644  28.993  1.00  0.00     0.031 C 
ATOM     63  C   UNL A   1      46.424  26.828  30.014  1.00  0.00     0.031 A 
BRANCH  50  64
ATOM     64  C   UNL A   1      44.092  32.325  31.595  1.00  0.00    -0.014 A 
ATOM     65  C   UNL A   1      44.366  33.442  30.789  1.00  0.00     0.009 A 
ATOM     66  C   UNL A   1      43.984  32.501  32.984  1.00  0.00     0.009 A 
ATOM     67  C   UNL A   1      44.550  34.701  31.362  1.00  0.00     0.001 A 
ATOM     68  C   UNL A   1      44.141  33.766  33.551  1.00  0.00     0.001 A 
ATOM     69  C   UNL A   1      44.431  34.864  32.742  1.00  0.00     0.000 A 
ENDBRANCH  50  64
BRANCH  51  70
ATOM     70  C   UNL A   1      42.070  23.414  27.554  1.00  0.00    -0.014 A 
ATOM     71  C   UNL A   1      42.365  23.149  26.207  1.00  0.00     0.009 A 
ATOM     72  C   UNL A   1      41.508  22.395  28.339  1.00  0.00     0.009 A 
ATOM     73  C   UNL A   1      42.088  21.896  25.656  1.00  0.00     0.001 A 
ATOM     74  C   UNL A   1      41.259  21.135  27.792  1.00  0.00     0.001 A 
ATOM     75  C   UNL A   1      41.543  20.888  26.450  1.00  0.00     0.000 A 
ENDBRANCH  51  70
BRANCH  63  76
ATOM     76  C   UNL A   1      47.824  26.316  30.213  1.00  0.00    -0.014 A 
ATOM     77  C   UNL A   1      48.239  25.790  31.447  1.00  0.00     0.009 A 
ATOM     78  C   UNL A   1      48.720  26.306  29.134  1.00  0.00     0.009 A 
ATOM     79  C   UNL A   1      49.533  25.293  31.601  1.00  0.00     0.001 A 
ATOM     80  C   UNL A   1      50.003  25.779  29.282  1.00  0.00     0.001 A 
ATOM     81  C   UNL A   1      50.412  25.281  30.517  1.00  0.00     0.000 A 
ENDBRANCH  63  76
ENDBRANCH  37  38
ENDBRANCH  29  32
ENDBRANCH  27  28
ENDBRANCH  26  27
ENDBRANCH   1  26
TORSDOF 14
ENDMDL
MODEL 2
REMARK VINA RESULT:     -11.2      2.564      7.720
REMARK SMILES Cc1c(Cl)cc2c(c1C)O[C@H](C(F)(F)F)C(C(=O)NCCCCCCNC(=O)c1ccc(-c3c4nc(c(-c5ccccc5)c5ccc([nH]5)c(-c5ccccc5)c5nc(c(-c6ccccc6)c6ccc3[nH]6)C=C5)C=C4)cc1)=C2
REMARK SMILES IDX 23 1 22 2 21 3 20 4 19 5 17 6 18 7 16 9 1 10 2 11 3 12 8 13
REMARK SMILES IDX 4 14 5 15 7 16 9 17 6 18 10 19 77 20 11 21 12 22 13 23 14 24
REMARK SMILES IDX 15 25 24 26 25 27 26 28 27 29 28 31 29 32 30 33 76 34 31 35
REMARK SMILES IDX 75 36 32 37 33 38 34 39 69 40 35 41 74 42 68 43 70 44 36 45
REMARK SMILES IDX 73 46 67 47 66 48 37 50 59 51 44 52 58 53 45 54 48 55 57 56
REMARK SMILES IDX 71 57 46 58 47 59 56 61 72 62 49 63 38 64 39 65 43 66 40 67
REMARK SMILES IDX 42 68 41 69 60 70 61 71 65 72 62 73 64 74 63 75 50 76 51 77
REMARK SMILES IDX 55 78 52 79 54 80 53 81
REMARK H PARENT 19 8 26 30 70 49 48 60
REMARK Flexibility Score: inf
ROOT
ATOM      1  C   UNL A   1      35.572  21.978  26.331  1.00  0.00     0.002 C 
ENDROOT
BRANCH   1   2
ATOM      2  C   UNL A   1      34.845  21.131  25.279  1.00  0.00     0.002 C 
BRANCH   2   3
ATOM      3  C   UNL A   1      33.335  21.003  25.485  1.00  0.00     0.021 C 
BRANCH   3   4
ATOM      4  C   UNL A   1      32.532  22.097  24.790  1.00  0.00     0.116 C 
BRANCH   4   5
ATOM      5  N   UNL A   1      33.213  22.607  23.613  1.00  0.00    -0.352 N 
ATOM      6  C   UNL A   1      33.420  23.811  23.031  1.00  0.00     0.251 C 
ATOM      7  O   UNL A   1      34.124  23.793  22.016  1.00  0.00    -0.270 OA
ATOM      8  H   UNL A   1      33.638  21.882  23.102  1.00  0.00     0.163 HD
BRANCH   6   9
ATOM      9  C   UNL A   1      32.865  25.109  23.520  1.00  0.00     0.067 C 
ATOM     10  C   UNL A   1      31.785  30.975  26.212  1.00  0.00     0.046 C 
ATOM     11  C   UNL A   1      32.250  29.606  25.788  1.00  0.00    -0.026 A 
ATOM     12  C   UNL A   1      33.367  28.979  26.380  1.00  0.00     0.045 A 
ATOM     13  C   UNL A   1      31.574  28.931  24.746  1.00  0.00    -0.004 A 
ATOM     14  Cl  UNL A   1      34.279  29.721  27.649  1.00  0.00    -0.084 Cl
ATOM     15  C   UNL A   1      33.804  27.718  25.953  1.00  0.00     0.032 A 
ATOM     16  C   UNL A   1      32.028  27.661  24.340  1.00  0.00     0.131 A 
ATOM     17  C   UNL A   1      30.375  29.508  24.030  1.00  0.00     0.049 C 
ATOM     18  C   UNL A   1      33.139  27.055  24.926  1.00  0.00     0.019 A 
ATOM     19  O   UNL A   1      31.355  27.085  23.301  1.00  0.00    -0.475 OA
ATOM     20  C   UNL A   1      33.615  25.773  24.419  1.00  0.00     0.025 C 
ATOM     21  C   UNL A   1      31.547  25.670  23.079  1.00  0.00     0.314 C 
BRANCH  21  22
ATOM     22  C   UNL A   1      30.347  24.903  23.662  1.00  0.00     0.429 C 
ATOM     23  F   UNL A   1      29.221  25.657  23.582  1.00  0.00    -0.167 F 
ATOM     24  F   UNL A   1      30.083  23.756  22.996  1.00  0.00    -0.167 F 
ATOM     25  F   UNL A   1      30.522  24.573  24.961  1.00  0.00    -0.167 F 
ENDBRANCH  21  22
ENDBRANCH   6   9
ENDBRANCH   4   5
ENDBRANCH   3   4
ENDBRANCH   2   3
ENDBRANCH   1   2
BRANCH   1  26
ATOM     26  C   UNL A   1      35.838  23.433  25.929  1.00  0.00     0.021 C 
BRANCH  26  27
ATOM     27  C   UNL A   1      37.130  23.645  25.149  1.00  0.00     0.116 C 
BRANCH  27  28
ATOM     28  N   UNL A   1      38.148  22.677  25.522  1.00  0.00    -0.352 N 
ATOM     29  C   UNL A   1      39.346  22.880  26.153  1.00  0.00     0.251 C 
ATOM     30  H   UNL A   1      37.949  21.743  25.288  1.00  0.00     0.163 HD
ATOM     31  O   UNL A   1      40.187  21.981  26.188  1.00  0.00    -0.269 OA
BRANCH  29  32
ATOM     32  C   UNL A   1      39.631  24.179  26.788  1.00  0.00     0.039 A 
ATOM     33  C   UNL A   1      39.184  24.409  28.091  1.00  0.00     0.014 A 
ATOM     34  C   UNL A   1      40.319  25.176  26.088  1.00  0.00     0.014 A 
ATOM     35  C   UNL A   1      39.467  25.626  28.711  1.00  0.00     0.010 A 
ATOM     36  C   UNL A   1      40.657  26.363  26.730  1.00  0.00     0.010 A 
ATOM     37  C   UNL A   1      40.226  26.601  28.044  1.00  0.00    -0.014 A 
BRANCH  37  38
ATOM     38  C   UNL A   1      40.570  27.886  28.693  1.00  0.00     0.031 A 
ATOM     39  C   UNL A   1      41.937  28.086  29.284  1.00  0.00     0.074 A 
ATOM     40  C   UNL A   1      39.635  28.849  28.800  1.00  0.00     0.049 A 
ATOM     41  N   UNL A   1      42.401  29.103  29.965  1.00  0.00    -0.248 NA
ATOM     42  C   UNL A   1      42.905  26.992  29.102  1.00  0.00     0.031 C 
ATOM     43  C   UNL A   1      38.271  28.768  28.273  1.00  0.00     0.029 A 
ATOM     44  N   UNL A   1      39.691  30.086  29.390  1.00  0.00    -0.354 N 
ATOM     45  C   UNL A   1      43.708  28.769  30.295  1.00  0.00     0.074 A 
ATOM     46  C   UNL A   1      43.948  27.437  29.787  1.00  0.00     0.031 C 
ATOM     47  C   UNL A   1      37.630  29.917  28.539  1.00  0.00     0.029 A 
ATOM     48  C   UNL A   1      38.518  30.794  29.295  1.00  0.00     0.049 A 
ATOM     49  H   UNL A   1      40.496  30.433  29.840  1.00  0.00     0.167 HD
ATOM     50  C   UNL A   1      44.630  29.515  30.946  1.00  0.00     0.031 A 
ATOM     51  C   UNL A   1      38.193  32.010  29.771  1.00  0.00     0.031 A 
ATOM     52  C   UNL A   1      44.387  30.840  31.450  1.00  0.00     0.049 A 
ATOM     53  C   UNL A   1      39.219  32.797  30.537  1.00  0.00     0.074 A 
ATOM     54  C   UNL A   1      45.266  31.686  32.105  1.00  0.00     0.029 A 
ATOM     55  N   UNL A   1      43.179  31.512  31.355  1.00  0.00    -0.354 N 
ATOM     56  N   UNL A   1      40.460  32.479  30.820  1.00  0.00    -0.248 NA
ATOM     57  C   UNL A   1      38.804  34.112  31.041  1.00  0.00     0.031 C 
ATOM     58  C   UNL A   1      44.573  32.850  32.451  1.00  0.00     0.029 A 
ATOM     59  C   UNL A   1      43.282  32.755  31.956  1.00  0.00     0.049 A 
ATOM     60  H   UNL A   1      42.367  31.159  30.923  1.00  0.00     0.167 HD
ATOM     61  C   UNL A   1      40.981  33.565  31.511  1.00  0.00     0.074 A 
ATOM     62  C   UNL A   1      39.927  34.556  31.589  1.00  0.00     0.031 C 
ATOM     63  C   UNL A   1      42.222  33.727  32.031  1.00  0.00     0.031 A 
BRANCH  50  64
ATOM     64  C   UNL A   1      45.993  28.913  31.152  1.00  0.00    -0.014 A 
ATOM     65  C   UNL A   1      47.026  29.127  30.226  1.00  0.00     0.009 A 
ATOM     66  C   UNL A   1      46.264  28.172  32.313  1.00  0.00     0.009 A 
ATOM     67  C   UNL A   1      48.296  28.591  30.446  1.00  0.00     0.001 A 
ATOM     68  C   UNL A   1      47.542  27.662  32.544  1.00  0.00     0.001 A 
ATOM     69  C   UNL A   1      48.555  27.865  31.608  1.00  0.00     0.000 A 
ENDBRANCH  50  64
BRANCH  51  70
ATOM     70  C   UNL A   1      36.838  32.566  29.516  1.00  0.00    -0.014 A 
ATOM     71  C   UNL A   1      36.559  33.222  28.306  1.00  0.00     0.009 A 
ATOM     72  C   UNL A   1      35.813  32.428  30.465  1.00  0.00     0.009 A 
ATOM     73  C   UNL A   1      35.287  33.743  28.062  1.00  0.00     0.001 A 
ATOM     74  C   UNL A   1      34.535  32.925  30.204  1.00  0.00     0.001 A 
ATOM     75  C   UNL A   1      34.274  33.587  29.006  1.00  0.00     0.000 A 
ENDBRANCH  51  70
BRANCH  63  76
ATOM     76  C   UNL A   1      42.522  35.036  32.707  1.00  0.00    -0.014 A 
ATOM     77  C   UNL A   1      42.120  35.282  34.030  1.00  0.00     0.009 A 
ATOM     78  C   UNL A   1      43.269  36.012  32.030  1.00  0.00     0.009 A 
ATOM     79  C   UNL A   1      42.436  36.493  34.648  1.00  0.00     0.001 A 
ATOM     80  C   UNL A   1      43.610  37.209  32.661  1.00  0.00     0.001 A 
ATOM     81  C   UNL A   1      43.186  37.452  33.966  1.00  0.00     0.000 A 
ENDBRANCH  63  76
ENDBRANCH  37  38
ENDBRANCH  29  32
ENDBRANCH  27  28
ENDBRANCH  26  27
ENDBRANCH   1  26
TORSDOF 14
ENDMDL
MODEL 3
REMARK VINA RESULT:     -11.1      2.556      7.539
REMARK SMILES Cc1c(Cl)cc2c(c1C)O[C@H](C(F)(F)F)C(C(=O)NCCCCCCNC(=O)c1ccc(-c3c4nc(c(-c5ccccc5)c5ccc([nH]5)c(-c5ccccc5)c5nc(c(-c6ccccc6)c6ccc3[nH]6)C=C5)C=C4)cc1)=C2
REMARK SMILES IDX 23 1 22 2 21 3 20 4 19 5 17 6 18 7 16 9 1 10 2 11 3 12 8 13
REMARK SMILES IDX 4 14 5 15 7 16 9 17 6 18 10 19 77 20 11 21 12 22 13 23 14 24
REMARK SMILES IDX 15 25 24 26 25 27 26 28 27 29 28 31 29 32 30 33 76 34 31 35
REMARK SMILES IDX 75 36 32 37 33 38 34 39 69 40 35 41 74 42 68 43 70 44 36 45
REMARK SMILES IDX 73 46 67 47 66 48 37 50 59 51 44 52 58 53 45 54 48 55 57 56
REMARK SMILES IDX 71 57 46 58 47 59 56 61 72 62 49 63 38 64 39 65 43 66 40 67
REMARK SMILES IDX 42 68 41 69 60 70 61 71 65 72 62 73 64 74 63 75 50 76 51 77
REMARK SMILES IDX 55 78 52 79 54 80 53 81
REMARK H PARENT 19 8 26 30 70 49 48 60
REMARK Flexibility Score: inf
ROOT
ATOM      1  C   UNL A   1      35.398  22.296  26.509  1.00  0.00     0.002 C 
ENDROOT
BRANCH   1   2
ATOM      2  C   UNL A   1      34.415  21.599  25.561  1.00  0.00     0.002 C 
BRANCH   2   3
ATOM      3  C   UNL A   1      32.953  22.021  25.721  1.00  0.00     0.021 C 
BRANCH   3   4
ATOM      4  C   UNL A   1      32.163  21.985  24.417  1.00  0.00     0.116 C 
BRANCH   4   5
ATOM      5  N   UNL A   1      32.924  22.528  23.306  1.00  0.00    -0.352 N 
ATOM      6  C   UNL A   1      33.237  23.753  22.823  1.00  0.00     0.251 C 
ATOM      7  O   UNL A   1      33.977  23.758  21.835  1.00  0.00    -0.270 OA
ATOM      8  H   UNL A   1      33.318  21.813  22.756  1.00  0.00     0.163 HD
BRANCH   6   9
ATOM      9  C   UNL A   1      32.755  25.049  23.389  1.00  0.00     0.067 C 
ATOM     10  C   UNL A   1      32.014  30.820  26.384  1.00  0.00     0.046 C 
ATOM     11  C   UNL A   1      32.406  29.454  25.882  1.00  0.00    -0.026 A 
ATOM     12  C   UNL A   1      33.510  28.752  26.409  1.00  0.00     0.045 A 
ATOM     13  C   UNL A   1      31.670  28.859  24.831  1.00  0.00    -0.004 A 
ATOM     14  Cl  UNL A   1      34.491  29.393  27.682  1.00  0.00    -0.084 Cl
ATOM     15  C   UNL A   1      33.878  27.496  25.911  1.00  0.00     0.032 A 
ATOM     16  C   UNL A   1      32.056  27.592  24.352  1.00  0.00     0.131 A 
ATOM     17  C   UNL A   1      30.478  29.521  24.181  1.00  0.00     0.049 C 
ATOM     18  C   UNL A   1      33.155  26.912  24.875  1.00  0.00     0.019 A 
ATOM     19  O   UNL A   1      31.328  27.096  23.310  1.00  0.00    -0.475 OA
ATOM     20  C   UNL A   1      33.559  25.636  24.294  1.00  0.00     0.025 C 
ATOM     21  C   UNL A   1      31.450  25.687  23.016  1.00  0.00     0.314 C 
BRANCH  21  22
ATOM     22  C   UNL A   1      30.235  24.945  23.599  1.00  0.00     0.429 C 
ATOM     23  F   UNL A   1      29.133  25.736  23.554  1.00  0.00    -0.167 F 
ATOM     24  F   UNL A   1      29.924  23.823  22.910  1.00  0.00    -0.167 F 
ATOM     25  F   UNL A   1      30.419  24.578  24.887  1.00  0.00    -0.167 F 
ENDBRANCH  21  22
ENDBRANCH   6   9
ENDBRANCH   4   5
ENDBRANCH   3   4
ENDBRANCH   2   3
ENDBRANCH   1   2
BRANCH   1  26
ATOM     26  C   UNL A   1      35.868  23.684  26.060  1.00  0.00     0.021 C 
BRANCH  26  27
ATOM     27  C   UNL A   1      37.050  23.667  25.097  1.00  0.00     0.116 C 
BRANCH  27  28
ATOM     28  N   UNL A   1      38.026  22.655  25.462  1.00  0.00    -0.352 N 
ATOM     29  C   UNL A   1      39.232  22.802  26.092  1.00  0.00     0.251 C 
ATOM     30  H   UNL A   1      37.786  21.731  25.222  1.00  0.00     0.163 HD
ATOM     31  O   UNL A   1      40.034  21.867  26.119  1.00  0.00    -0.269 OA
BRANCH  29  32
ATOM     32  C   UNL A   1      39.574  24.083  26.734  1.00  0.00     0.039 A 
ATOM     33  C   UNL A   1      39.159  24.314  28.048  1.00  0.00     0.014 A 
ATOM     34  C   UNL A   1      40.283  25.063  26.032  1.00  0.00     0.014 A 
ATOM     35  C   UNL A   1      39.497  25.513  28.676  1.00  0.00     0.010 A 
ATOM     36  C   UNL A   1      40.674  26.230  26.680  1.00  0.00     0.010 A 
ATOM     37  C   UNL A   1      40.277  26.468  28.005  1.00  0.00    -0.014 A 
BRANCH  37  38
ATOM     38  C   UNL A   1      40.676  27.734  28.661  1.00  0.00     0.031 A 
ATOM     39  C   UNL A   1      39.681  28.850  28.806  1.00  0.00     0.074 A 
ATOM     40  C   UNL A   1      41.947  27.898  29.073  1.00  0.00     0.049 A 
ATOM     41  N   UNL A   1      39.860  30.060  29.273  1.00  0.00    -0.248 NA
ATOM     42  C   UNL A   1      38.308  28.578  28.349  1.00  0.00     0.031 C 
ATOM     43  C   UNL A   1      43.005  26.890  28.979  1.00  0.00     0.029 A 
ATOM     44  N   UNL A   1      42.565  28.976  29.654  1.00  0.00    -0.354 N 
ATOM     45  C   UNL A   1      38.627  30.691  29.161  1.00  0.00     0.074 A 
ATOM     46  C   UNL A   1      37.723  29.752  28.536  1.00  0.00     0.031 C 
ATOM     47  C   UNL A   1      44.133  27.389  29.510  1.00  0.00     0.029 A 
ATOM     48  C   UNL A   1      43.891  28.763  29.937  1.00  0.00     0.049 A 
ATOM     49  H   UNL A   1      42.101  29.823  29.849  1.00  0.00     0.167 HD
ATOM     50  C   UNL A   1      38.278  31.935  29.563  1.00  0.00     0.031 A 
ATOM     51  C   UNL A   1      44.812  29.586  30.473  1.00  0.00     0.031 A 
ATOM     52  C   UNL A   1      39.181  32.867  30.184  1.00  0.00     0.049 A 
ATOM     53  C   UNL A   1      44.411  30.981  30.862  1.00  0.00     0.074 A 
ATOM     54  C   UNL A   1      38.915  34.143  30.647  1.00  0.00     0.029 A 
ATOM     55  N   UNL A   1      40.522  32.620  30.431  1.00  0.00    -0.354 N 
ATOM     56  N   UNL A   1      43.235  31.556  30.774  1.00  0.00    -0.248 NA
ATOM     57  C   UNL A   1      45.460  31.837  31.431  1.00  0.00     0.031 C 
ATOM     58  C   UNL A   1      40.110  34.690  31.127  1.00  0.00     0.029 A 
ATOM     59  C   UNL A   1      41.103  33.730  31.022  1.00  0.00     0.049 A 
ATOM     60  H   UNL A   1      40.992  31.782  30.219  1.00  0.00     0.167 HD
ATOM     61  C   UNL A   1      43.398  32.831  31.301  1.00  0.00     0.074 A 
ATOM     62  C   UNL A   1      44.780  32.937  31.722  1.00  0.00     0.031 C 
ATOM     63  C   UNL A   1      42.482  33.822  31.428  1.00  0.00     0.031 A 
BRANCH  50  64
ATOM     64  C   UNL A   1      36.854  32.363  29.341  1.00  0.00    -0.014 A 
ATOM     65  C   UNL A   1      35.878  32.175  30.333  1.00  0.00     0.009 A 
ATOM     66  C   UNL A   1      36.494  33.016  28.151  1.00  0.00     0.009 A 
ATOM     67  C   UNL A   1      34.567  32.608  30.128  1.00  0.00     0.001 A 
ATOM     68  C   UNL A   1      35.190  33.474  27.961  1.00  0.00     0.001 A 
ATOM     69  C   UNL A   1      34.225  33.263  28.946  1.00  0.00     0.000 A 
ENDBRANCH  50  64
BRANCH  51  70
ATOM     70  C   UNL A   1      46.200  29.100  30.692  1.00  0.00    -0.014 A 
ATOM     71  C   UNL A   1      46.549  28.480  31.902  1.00  0.00     0.009 A 
ATOM     72  C   UNL A   1      47.175  29.233  29.692  1.00  0.00     0.009 A 
ATOM     73  C   UNL A   1      47.851  28.019  32.111  1.00  0.00     0.001 A 
ATOM     74  C   UNL A   1      48.468  28.745  29.893  1.00  0.00     0.001 A 
ATOM     75  C   UNL A   1      48.806  28.145  31.104  1.00  0.00     0.000 A 
ENDBRANCH  51  70
BRANCH  63  76
ATOM     76  C   UNL A   1      42.935  35.102  32.074  1.00  0.00    -0.014 A 
ATOM     77  C   UNL A   1      43.556  36.115  31.327  1.00  0.00     0.009 A 
ATOM     78  C   UNL A   1      42.683  35.319  33.437  1.00  0.00     0.009 A 
ATOM     79  C   UNL A   1      43.942  37.308  31.941  1.00  0.00     0.001 A 
ATOM     80  C   UNL A   1      43.040  36.525  34.042  1.00  0.00     0.001 A 
ATOM     81  C   UNL A   1      43.677  37.514  33.296  1.00  0.00     0.000 A 
ENDBRANCH  63  76
ENDBRANCH  37  38
ENDBRANCH  29  32
ENDBRANCH  27  28
ENDBRANCH  26  27
ENDBRANCH   1  26
TORSDOF 14
ENDMDL
