MODEL 1
REMARK VINA RESULT:      -9.5      0.000      0.000
REMARK SMILES Cn1cnnc1S[C@@H]1CCC[C@]([NH3+])(C(=O)NCCCCCCNC(=O)c2ccc(-c3c4nc(c(-c5ccccc5)c5ccc([nH]5)c(-c5ccccc5)c5nc(c(-c6ccccc6)c6ccc3[nH]6)C=C5)C=C4)cc2)C1
REMARK SMILES IDX 19 1 18 2 17 3 16 4 14 5 15 6 12 8 8 9 9 10 74 11 10 12
REMARK SMILES IDX 11 13 7 14 6 15 1 16 2 17 3 18 4 19 5 20 13 21 20 25 21 26
REMARK SMILES IDX 22 27 23 28 24 29 25 31 26 32 27 33 73 34 28 35 72 36 29 37
REMARK SMILES IDX 30 38 31 39 66 40 32 41 71 42 65 43 67 44 33 45 70 46 64 47
REMARK SMILES IDX 63 48 34 50 56 51 41 52 55 53 42 54 45 55 54 56 68 57 43 58
REMARK SMILES IDX 44 59 53 61 69 62 46 63 35 64 36 65 40 66 37 67 39 68 38 69
REMARK SMILES IDX 57 70 58 71 62 72 59 73 61 74 60 75 47 76 48 77 52 78 49 79
REMARK SMILES IDX 51 80 50 81
REMARK H PARENT 16 7 13 22 13 23 13 24 23 30 67 49 45 60
REMARK Flexibility Score: inf
ROOT
ATOM      1  C   UNL A   1      35.184  34.951  32.805  1.00  0.00     0.002 C 
ENDROOT
BRANCH   1   2
ATOM      2  C   UNL A   1      34.912  34.008  33.979  1.00  0.00     0.021 C 
BRANCH   2   3
ATOM      3  C   UNL A   1      36.109  33.798  34.900  1.00  0.00     0.116 C 
BRANCH   3   4
ATOM      4  N   UNL A   1      37.005  32.764  34.438  1.00  0.00    -0.351 N 
ATOM      5  C   UNL A   1      37.998  32.095  35.086  1.00  0.00     0.281 C 
ATOM      6  O   UNL A   1      38.578  31.210  34.443  1.00  0.00    -0.268 OA
ATOM      7  H   UNL A   1      36.875  32.498  33.498  1.00  0.00     0.163 HD
BRANCH   5   8
ATOM      8  C   UNL A   1      38.436  32.422  36.561  1.00  0.00     0.175 C 
ATOM      9  C   UNL A   1      37.839  32.172  39.049  1.00  0.00     0.061 C 
ATOM     10  C   UNL A   1      38.135  33.661  39.281  1.00  0.00     0.015 C 
ATOM     11  C   UNL A   1      37.526  31.739  37.610  1.00  0.00     0.094 C 
ATOM     12  C   UNL A   1      38.997  34.303  38.201  1.00  0.00     0.008 C 
ATOM     13  C   UNL A   1      38.549  33.942  36.785  1.00  0.00     0.079 C 
BRANCH   9  14
ATOM     14  S   UNL A   1      36.691  31.591  40.336  1.00  0.00    -0.082 SA
BRANCH  14  15
ATOM     15  C   UNL A   1      35.321  32.621  40.554  1.00  0.00     0.191 A 
ATOM     16  C   UNL A   1      35.528  33.615  42.905  1.00  0.00     0.153 C 
ATOM     17  N   UNL A   1      34.896  33.307  41.658  1.00  0.00    -0.312 N 
ATOM     18  C   UNL A   1      33.618  33.715  41.380  1.00  0.00     0.226 A 
ATOM     19  N   UNL A   1      33.284  33.336  40.174  1.00  0.00    -0.138 NA
ATOM     20  N   UNL A   1      34.352  32.647  39.657  1.00  0.00    -0.124 NA
ENDBRANCH  14  15
ENDBRANCH   9  14
BRANCH   8  21
ATOM     21  N   UNL A   1      39.819  31.879  36.735  1.00  0.00    -0.345 N 
ATOM     22  H   UNL A   1      40.267  31.791  35.822  1.00  0.00     0.345 HD
ATOM     23  H   UNL A   1      39.772  30.963  37.181  1.00  0.00     0.345 HD
ATOM     24  H   UNL A   1      40.362  32.515  37.320  1.00  0.00     0.345 HD
ENDBRANCH   8  21
ENDBRANCH   5   8
ENDBRANCH   3   4
ENDBRANCH   2   3
ENDBRANCH   1   2
BRANCH   1  25
ATOM     25  C   UNL A   1      34.236  36.151  32.703  1.00  0.00     0.002 C 
BRANCH  25  26
ATOM     26  C   UNL A   1      33.039  35.969  31.766  1.00  0.00     0.021 C 
BRANCH  26  27
ATOM     27  C   UNL A   1      33.271  36.442  30.333  1.00  0.00     0.116 C 
BRANCH  27  28
ATOM     28  N   UNL A   1      32.671  35.547  29.357  1.00  0.00    -0.352 N 
ATOM     29  C   UNL A   1      33.203  34.449  28.735  1.00  0.00     0.251 C 
ATOM     30  H   UNL A   1      31.744  35.762  29.107  1.00  0.00     0.163 HD
ATOM     31  O   UNL A   1      32.613  33.935  27.782  1.00  0.00    -0.269 OA
BRANCH  29  32
ATOM     32  C   UNL A   1      34.488  33.885  29.189  1.00  0.00     0.039 A 
ATOM     33  C   UNL A   1      34.480  32.856  30.135  1.00  0.00     0.014 A 
ATOM     34  C   UNL A   1      35.701  34.382  28.702  1.00  0.00     0.014 A 
ATOM     35  C   UNL A   1      35.685  32.286  30.548  1.00  0.00     0.010 A 
ATOM     36  C   UNL A   1      36.896  33.763  29.057  1.00  0.00     0.010 A 
ATOM     37  C   UNL A   1      36.902  32.712  29.987  1.00  0.00    -0.014 A 
BRANCH  37  38
ATOM     38  C   UNL A   1      38.185  32.070  30.361  1.00  0.00     0.031 A 
ATOM     39  C   UNL A   1      39.129  32.752  31.312  1.00  0.00     0.074 A 
ATOM     40  C   UNL A   1      38.530  30.896  29.794  1.00  0.00     0.049 A 
ATOM     41  N   UNL A   1      40.314  32.368  31.717  1.00  0.00    -0.248 NA
ATOM     42  C   UNL A   1      38.697  34.046  31.862  1.00  0.00     0.031 C 
ATOM     43  C   UNL A   1      37.720  30.149  28.831  1.00  0.00     0.029 A 
ATOM     44  N   UNL A   1      39.657  30.128  29.947  1.00  0.00    -0.354 N 
ATOM     45  C   UNL A   1      40.771  33.378  32.555  1.00  0.00     0.074 A 
ATOM     46  C   UNL A   1      39.763  34.415  32.555  1.00  0.00     0.031 C 
ATOM     47  C   UNL A   1      38.361  29.016  28.503  1.00  0.00     0.029 A 
ATOM     48  C   UNL A   1      39.644  28.976  29.198  1.00  0.00     0.049 A 
ATOM     49  H   UNL A   1      40.403  30.377  30.539  1.00  0.00     0.167 HD
ATOM     50  C   UNL A   1      41.918  33.430  33.275  1.00  0.00     0.031 A 
ATOM     51  C   UNL A   1      40.562  28.001  29.078  1.00  0.00     0.031 A 
ATOM     52  C   UNL A   1      42.919  32.397  33.275  1.00  0.00     0.049 A 
ATOM     53  C   UNL A   1      41.841  28.095  29.864  1.00  0.00     0.074 A 
ATOM     54  C   UNL A   1      44.089  32.330  34.012  1.00  0.00     0.029 A 
ATOM     55  N   UNL A   1      42.871  31.250  32.497  1.00  0.00    -0.354 N 
ATOM     56  N   UNL A   1      42.226  29.024  30.705  1.00  0.00    -0.248 NA
ATOM     57  C   UNL A   1      42.804  26.999  29.691  1.00  0.00     0.031 C 
ATOM     58  C   UNL A   1      44.779  31.175  33.632  1.00  0.00     0.029 A 
ATOM     59  C   UNL A   1      44.006  30.487  32.709  1.00  0.00     0.049 A 
ATOM     60  H   UNL A   1      42.138  31.014  31.883  1.00  0.00     0.167 HD
ATOM     61  C   UNL A   1      43.464  28.611  31.183  1.00  0.00     0.074 A 
ATOM     62  C   UNL A   1      43.754  27.340  30.551  1.00  0.00     0.031 C 
ATOM     63  C   UNL A   1      44.285  29.227  32.068  1.00  0.00     0.031 A 
BRANCH  50  64
ATOM     64  C   UNL A   1      42.154  34.659  34.111  1.00  0.00    -0.014 A 
ATOM     65  C   UNL A   1      41.818  34.691  35.474  1.00  0.00     0.009 A 
ATOM     66  C   UNL A   1      42.743  35.794  33.532  1.00  0.00     0.009 A 
ATOM     67  C   UNL A   1      42.027  35.849  36.229  1.00  0.00     0.001 A 
ATOM     68  C   UNL A   1      42.982  36.938  34.297  1.00  0.00     0.001 A 
ATOM     69  C   UNL A   1      42.612  36.968  35.641  1.00  0.00     0.000 A 
ENDBRANCH  50  64
BRANCH  51  70
ATOM     70  C   UNL A   1      40.302  26.839  28.186  1.00  0.00    -0.014 A 
ATOM     71  C   UNL A   1      40.816  26.815  26.881  1.00  0.00     0.009 A 
ATOM     72  C   UNL A   1      39.540  25.749  28.635  1.00  0.00     0.009 A 
ATOM     73  C   UNL A   1      40.551  25.736  26.036  1.00  0.00     0.001 A 
ATOM     74  C   UNL A   1      39.303  24.657  27.798  1.00  0.00     0.001 A 
ATOM     75  C   UNL A   1      39.800  24.656  26.496  1.00  0.00     0.000 A 
ENDBRANCH  51  70
BRANCH  63  76
ATOM     76  C   UNL A   1      45.562  28.520  32.429  1.00  0.00    -0.014 A 
ATOM     77  C   UNL A   1      46.754  28.759  31.728  1.00  0.00     0.009 A 
ATOM     78  C   UNL A   1      45.579  27.630  33.515  1.00  0.00     0.009 A 
ATOM     79  C   UNL A   1      47.929  28.091  32.085  1.00  0.00     0.001 A 
ATOM     80  C   UNL A   1      46.760  26.990  33.890  1.00  0.00     0.001 A 
ATOM     81  C   UNL A   1      47.932  27.214  33.169  1.00  0.00     0.000 A 
ENDBRANCH  63  76
ENDBRANCH  37  38
ENDBRANCH  29  32
ENDBRANCH  27  28
ENDBRANCH  26  27
ENDBRANCH  25  26
ENDBRANCH   1  25
TORSDOF 16
ENDMDL
MODEL 2
REMARK VINA RESULT:      -9.4      5.145     10.765
REMARK SMILES Cn1cnnc1S[C@@H]1CCC[C@]([NH3+])(C(=O)NCCCCCCNC(=O)c2ccc(-c3c4nc(c(-c5ccccc5)c5ccc([nH]5)c(-c5ccccc5)c5nc(c(-c6ccccc6)c6ccc3[nH]6)C=C5)C=C4)cc2)C1
REMARK SMILES IDX 19 1 18 2 17 3 16 4 14 5 15 6 12 8 8 9 9 10 74 11 10 12
REMARK SMILES IDX 11 13 7 14 6 15 1 16 2 17 3 18 4 19 5 20 13 21 20 25 21 26
REMARK SMILES IDX 22 27 23 28 24 29 25 31 26 32 27 33 73 34 28 35 72 36 29 37
REMARK SMILES IDX 30 38 31 39 66 40 32 41 71 42 65 43 67 44 33 45 70 46 64 47
REMARK SMILES IDX 63 48 34 50 56 51 41 52 55 53 42 54 45 55 54 56 68 57 43 58
REMARK SMILES IDX 44 59 53 61 69 62 46 63 35 64 36 65 40 66 37 67 39 68 38 69
REMARK SMILES IDX 57 70 58 71 62 72 59 73 61 74 60 75 47 76 48 77 52 78 49 79
REMARK SMILES IDX 51 80 50 81
REMARK H PARENT 16 7 13 22 13 23 13 24 23 30 67 49 45 60
REMARK Flexibility Score: inf
ROOT
ATOM      1  C   UNL A   1      33.079  30.167  26.754  1.00  0.00     0.002 C 
ENDROOT
BRANCH   1   2
ATOM      2  C   UNL A   1      33.132  28.737  27.293  1.00  0.00     0.021 C 
BRANCH   2   3
ATOM      3  C   UNL A   1      33.439  27.683  26.235  1.00  0.00     0.116 C 
BRANCH   3   4
ATOM      4  N   UNL A   1      34.051  28.234  25.048  1.00  0.00    -0.351 N 
ATOM      5  C   UNL A   1      33.632  28.238  23.753  1.00  0.00     0.281 C 
ATOM      6  O   UNL A   1      34.349  28.838  22.942  1.00  0.00    -0.268 OA
ATOM      7  H   UNL A   1      34.915  28.682  25.202  1.00  0.00     0.163 HD
BRANCH   5   8
ATOM      8  C   UNL A   1      32.328  27.503  23.268  1.00  0.00     0.175 C 
ATOM      9  C   UNL A   1      29.796  27.722  22.878  1.00  0.00     0.061 C 
ATOM     10  C   UNL A   1      29.561  26.376  23.577  1.00  0.00     0.015 C 
ATOM     11  C   UNL A   1      31.109  28.453  23.196  1.00  0.00     0.094 C 
ATOM     12  C   UNL A   1      30.799  25.491  23.665  1.00  0.00     0.008 C 
ATOM     13  C   UNL A   1      32.045  26.250  24.119  1.00  0.00     0.079 C 
BRANCH   9  14
ATOM     14  S   UNL A   1      28.274  28.715  22.980  1.00  0.00    -0.082 SA
BRANCH  14  15
ATOM     15  C   UNL A   1      28.376  30.221  22.141  1.00  0.00     0.191 A 
ATOM     16  C   UNL A   1      29.076  31.971  23.874  1.00  0.00     0.153 C 
ATOM     17  N   UNL A   1      28.607  31.484  22.613  1.00  0.00    -0.312 N 
ATOM     18  C   UNL A   1      28.289  32.334  21.587  1.00  0.00     0.226 A 
ATOM     19  N   UNL A   1      27.916  31.646  20.539  1.00  0.00    -0.138 NA
ATOM     20  N   UNL A   1      27.969  30.320  20.889  1.00  0.00    -0.124 NA
ENDBRANCH  14  15
ENDBRANCH   9  14
BRANCH   8  21
ATOM     21  N   UNL A   1      32.599  27.003  21.884  1.00  0.00    -0.345 N 
ATOM     22  H   UNL A   1      32.012  26.190  21.695  1.00  0.00     0.345 HD
ATOM     23  H   UNL A   1      33.581  26.739  21.804  1.00  0.00     0.345 HD
ATOM     24  H   UNL A   1      32.389  27.739  21.210  1.00  0.00     0.345 HD
ENDBRANCH   8  21
ENDBRANCH   5   8
ENDBRANCH   3   4
ENDBRANCH   2   3
ENDBRANCH   1   2
BRANCH   1  25
ATOM     25  C   UNL A   1      31.670  30.712  26.496  1.00  0.00     0.002 C 
BRANCH  25  26
ATOM     26  C   UNL A   1      31.477  32.205  26.777  1.00  0.00     0.021 C 
BRANCH  26  27
ATOM     27  C   UNL A   1      32.753  32.956  27.147  1.00  0.00     0.116 C 
BRANCH  27  28
ATOM     28  N   UNL A   1      32.478  34.309  27.604  1.00  0.00    -0.352 N 
ATOM     29  C   UNL A   1      33.022  35.005  28.650  1.00  0.00     0.251 C 
ATOM     30  H   UNL A   1      31.800  34.797  27.084  1.00  0.00     0.163 HD
ATOM     31  O   UNL A   1      32.516  36.069  29.011  1.00  0.00    -0.269 OA
BRANCH  29  32
ATOM     32  C   UNL A   1      34.206  34.480  29.359  1.00  0.00     0.039 A 
ATOM     33  C   UNL A   1      34.033  33.863  30.601  1.00  0.00     0.014 A 
ATOM     34  C   UNL A   1      35.486  34.614  28.813  1.00  0.00     0.014 A 
ATOM     35  C   UNL A   1      35.137  33.328  31.267  1.00  0.00     0.010 A 
ATOM     36  C   UNL A   1      36.573  34.015  29.441  1.00  0.00     0.010 A 
ATOM     37  C   UNL A   1      36.412  33.370  30.677  1.00  0.00    -0.014 A 
BRANCH  37  38
ATOM     38  C   UNL A   1      37.583  32.744  31.337  1.00  0.00     0.031 A 
ATOM     39  C   UNL A   1      38.259  31.552  30.718  1.00  0.00     0.074 A 
ATOM     40  C   UNL A   1      38.004  33.213  32.529  1.00  0.00     0.049 A 
ATOM     41  N   UNL A   1      39.262  30.843  31.172  1.00  0.00    -0.248 NA
ATOM     42  C   UNL A   1      37.721  31.077  29.434  1.00  0.00     0.031 C 
ATOM     43  C   UNL A   1      37.413  34.341  33.252  1.00  0.00     0.029 A 
ATOM     44  N   UNL A   1      39.026  32.796  33.343  1.00  0.00    -0.354 N 
ATOM     45  C   UNL A   1      39.465  29.835  30.237  1.00  0.00     0.074 A 
ATOM     46  C   UNL A   1      38.446  29.989  29.223  1.00  0.00     0.031 C 
ATOM     47  C   UNL A   1      38.102  34.545  34.385  1.00  0.00     0.029 A 
ATOM     48  C   UNL A   1      39.154  33.539  34.491  1.00  0.00     0.049 A 
ATOM     49  H   UNL A   1      39.613  32.036  33.124  1.00  0.00     0.167 HD
ATOM     50  C   UNL A   1      40.424  28.878  30.215  1.00  0.00     0.031 A 
ATOM     51  C   UNL A   1      40.016  33.421  35.518  1.00  0.00     0.031 A 
ATOM     52  C   UNL A   1      41.438  28.728  31.224  1.00  0.00     0.049 A 
ATOM     53  C   UNL A   1      41.053  32.333  35.485  1.00  0.00     0.074 A 
ATOM     54  C   UNL A   1      42.487  27.825  31.264  1.00  0.00     0.029 A 
ATOM     55  N   UNL A   1      41.528  29.496  32.374  1.00  0.00    -0.354 N 
ATOM     56  N   UNL A   1      41.274  31.431  34.559  1.00  0.00    -0.248 NA
ATOM     57  C   UNL A   1      41.965  32.256  36.633  1.00  0.00     0.031 C 
ATOM     58  C   UNL A   1      43.173  28.006  32.469  1.00  0.00     0.029 A 
ATOM     59  C   UNL A   1      42.594  29.067  33.148  1.00  0.00     0.049 A 
ATOM     60  H   UNL A   1      40.924  30.238  32.608  1.00  0.00     0.167 HD
ATOM     61  C   UNL A   1      42.368  30.697  35.001  1.00  0.00     0.074 A 
ATOM     62  C   UNL A   1      42.774  31.272  36.267  1.00  0.00     0.031 C 
ATOM     63  C   UNL A   1      42.982  29.644  34.409  1.00  0.00     0.031 A 
BRANCH  50  64
ATOM     64  C   UNL A   1      40.406  27.909  29.063  1.00  0.00    -0.014 A 
ATOM     65  C   UNL A   1      41.122  28.165  27.882  1.00  0.00     0.009 A 
ATOM     66  C   UNL A   1      39.684  26.711  29.171  1.00  0.00     0.009 A 
ATOM     67  C   UNL A   1      41.076  27.262  26.817  1.00  0.00     0.001 A 
ATOM     68  C   UNL A   1      39.668  25.794  28.117  1.00  0.00     0.001 A 
ATOM     69  C   UNL A   1      40.354  26.076  26.937  1.00  0.00     0.000 A 
ENDBRANCH  50  64
BRANCH  51  70
ATOM     70  C   UNL A   1      39.945  34.370  36.661  1.00  0.00    -0.014 A 
ATOM     71  C   UNL A   1      40.651  35.582  36.624  1.00  0.00     0.009 A 
ATOM     72  C   UNL A   1      39.172  34.070  37.793  1.00  0.00     0.009 A 
ATOM     73  C   UNL A   1      40.604  36.462  37.708  1.00  0.00     0.001 A 
ATOM     74  C   UNL A   1      39.102  34.966  38.862  1.00  0.00     0.001 A 
ATOM     75  C   UNL A   1      39.826  36.156  38.823  1.00  0.00     0.000 A 
ENDBRANCH  51  70
BRANCH  63  76
ATOM     76  C   UNL A   1      44.180  29.063  35.110  1.00  0.00    -0.014 A 
ATOM     77  C   UNL A   1      45.474  29.554  34.875  1.00  0.00     0.009 A 
ATOM     78  C   UNL A   1      44.004  28.034  36.048  1.00  0.00     0.009 A 
ATOM     79  C   UNL A   1      46.570  29.000  35.541  1.00  0.00     0.001 A 
ATOM     80  C   UNL A   1      45.096  27.505  36.735  1.00  0.00     0.001 A 
ATOM     81  C   UNL A   1      46.380  27.981  36.474  1.00  0.00     0.000 A 
ENDBRANCH  63  76
ENDBRANCH  37  38
ENDBRANCH  29  32
ENDBRANCH  27  28
ENDBRANCH  26  27
ENDBRANCH  25  26
ENDBRANCH   1  25
TORSDOF 16
ENDMDL
MODEL 3
REMARK VINA RESULT:      -9.4      5.167     10.852
REMARK SMILES Cn1cnnc1S[C@@H]1CCC[C@]([NH3+])(C(=O)NCCCCCCNC(=O)c2ccc(-c3c4nc(c(-c5ccccc5)c5ccc([nH]5)c(-c5ccccc5)c5nc(c(-c6ccccc6)c6ccc3[nH]6)C=C5)C=C4)cc2)C1
REMARK SMILES IDX 19 1 18 2 17 3 16 4 14 5 15 6 12 8 8 9 9 10 74 11 10 12
REMARK SMILES IDX 11 13 7 14 6 15 1 16 2 17 3 18 4 19 5 20 13 21 20 25 21 26
REMARK SMILES IDX 22 27 23 28 24 29 25 31 26 32 27 33 73 34 28 35 72 36 29 37
REMARK SMILES IDX 30 38 31 39 66 40 32 41 71 42 65 43 67 44 33 45 70 46 64 47
REMARK SMILES IDX 63 48 34 50 56 51 41 52 55 53 42 54 45 55 54 56 68 57 43 58
REMARK SMILES IDX 44 59 53 61 69 62 46 63 35 64 36 65 40 66 37 67 39 68 38 69
REMARK SMILES IDX 57 70 58 71 62 72 59 73 61 74 60 75 47 76 48 77 52 78 49 79
REMARK SMILES IDX 51 80 50 81
REMARK H PARENT 16 7 13 22 13 23 13 24 23 30 67 49 45 60
REMARK Flexibility Score: inf
ROOT
ATOM      1  C   UNL A   1      31.809  29.353  27.111  1.00  0.00     0.002 C 
ENDROOT
BRANCH   1   2
ATOM      2  C   UNL A   1      33.084  28.521  26.969  1.00  0.00     0.021 C 
BRANCH   2   3
ATOM      3  C   UNL A   1      32.847  27.096  26.482  1.00  0.00     0.116 C 
BRANCH   3   4
ATOM      4  N   UNL A   1      31.530  26.599  26.804  1.00  0.00    -0.351 N 
ATOM      5  C   UNL A   1      30.600  25.980  26.027  1.00  0.00     0.281 C 
ATOM      6  O   UNL A   1      29.561  25.614  26.593  1.00  0.00    -0.268 OA
ATOM      7  H   UNL A   1      31.260  26.730  27.743  1.00  0.00     0.163 HD
BRANCH   5   8
ATOM      8  C   UNL A   1      30.783  25.751  24.481  1.00  0.00     0.175 C 
ATOM      9  C   UNL A   1      32.140  24.531  22.669  1.00  0.00     0.061 C 
ATOM     10  C   UNL A   1      32.271  25.837  21.873  1.00  0.00     0.015 C 
ATOM     11  C   UNL A   1      31.832  24.657  24.168  1.00  0.00     0.094 C 
ATOM     12  C   UNL A   1      31.247  26.903  22.245  1.00  0.00     0.008 C 
ATOM     13  C   UNL A   1      31.085  27.076  23.754  1.00  0.00     0.079 C 
BRANCH   9  14
ATOM     14  S   UNL A   1      33.510  23.423  22.217  1.00  0.00    -0.082 SA
BRANCH  14  15
ATOM     15  C   UNL A   1      34.077  22.455  23.531  1.00  0.00     0.191 A 
ATOM     16  C   UNL A   1      36.546  23.052  23.859  1.00  0.00     0.153 C 
ATOM     17  N   UNL A   1      35.337  22.309  24.044  1.00  0.00    -0.312 N 
ATOM     18  C   UNL A   1      35.284  21.214  24.865  1.00  0.00     0.226 A 
ATOM     19  N   UNL A   1      34.069  20.733  24.887  1.00  0.00    -0.138 NA
ATOM     20  N   UNL A   1      33.312  21.511  24.047  1.00  0.00    -0.124 NA
ENDBRANCH  14  15
ENDBRANCH   9  14
BRANCH   8  21
ATOM     21  N   UNL A   1      29.465  25.285  23.950  1.00  0.00    -0.345 N 
ATOM     22  H   UNL A   1      28.949  24.809  24.690  1.00  0.00     0.345 HD
ATOM     23  H   UNL A   1      29.619  24.641  23.174  1.00  0.00     0.345 HD
ATOM     24  H   UNL A   1      28.927  26.088  23.623  1.00  0.00     0.345 HD
ENDBRANCH   8  21
ENDBRANCH   5   8
ENDBRANCH   3   4
ENDBRANCH   2   3
ENDBRANCH   1   2
BRANCH   1  25
ATOM     25  C   UNL A   1      31.609  30.424  26.033  1.00  0.00     0.002 C 
BRANCH  25  26
ATOM     26  C   UNL A   1      31.451  31.858  26.548  1.00  0.00     0.021 C 
BRANCH  26  27
ATOM     27  C   UNL A   1      32.687  32.430  27.237  1.00  0.00     0.116 C 
BRANCH  27  28
ATOM     28  N   UNL A   1      32.498  33.814  27.641  1.00  0.00    -0.352 N 
ATOM     29  C   UNL A   1      33.193  34.561  28.553  1.00  0.00     0.251 C 
ATOM     30  H   UNL A   1      31.759  34.283  27.191  1.00  0.00     0.163 HD
ATOM     31  O   UNL A   1      32.757  35.657  28.912  1.00  0.00    -0.269 OA
BRANCH  29  32
ATOM     32  C   UNL A   1      34.458  34.056  29.121  1.00  0.00     0.039 A 
ATOM     33  C   UNL A   1      34.421  33.319  30.308  1.00  0.00     0.014 A 
ATOM     34  C   UNL A   1      35.681  34.324  28.498  1.00  0.00     0.014 A 
ATOM     35  C   UNL A   1      35.604  32.802  30.838  1.00  0.00     0.010 A 
ATOM     36  C   UNL A   1      36.848  33.745  28.985  1.00  0.00     0.010 A 
ATOM     37  C   UNL A   1      36.824  32.982  30.163  1.00  0.00    -0.014 A 
BRANCH  37  38
ATOM     38  C   UNL A   1      38.080  32.380  30.674  1.00  0.00     0.031 A 
ATOM     39  C   UNL A   1      38.607  31.103  30.080  1.00  0.00     0.074 A 
ATOM     40  C   UNL A   1      38.715  32.952  31.716  1.00  0.00     0.049 A 
ATOM     41  N   UNL A   1      39.659  30.404  30.427  1.00  0.00    -0.248 NA
ATOM     42  C   UNL A   1      37.839  30.520  28.968  1.00  0.00     0.031 C 
ATOM     43  C   UNL A   1      38.288  34.172  32.403  1.00  0.00     0.029 A 
ATOM     44  N   UNL A   1      39.856  32.579  32.380  1.00  0.00    -0.354 N 
ATOM     45  C   UNL A   1      39.670  29.296  29.587  1.00  0.00     0.074 A 
ATOM     46  C   UNL A   1      38.491  29.387  28.754  1.00  0.00     0.031 C 
ATOM     47  C   UNL A   1      39.172  34.463  33.370  1.00  0.00     0.029 A 
ATOM     48  C   UNL A   1      40.202  33.431  33.401  1.00  0.00     0.049 A 
ATOM     49  H   UNL A   1      40.378  31.777  32.147  1.00  0.00     0.167 HD
ATOM     50  C   UNL A   1      40.587  28.304  29.502  1.00  0.00     0.031 A 
ATOM     51  C   UNL A   1      41.229  33.384  34.268  1.00  0.00     0.031 A 
ATOM     52  C   UNL A   1      41.761  28.216  30.330  1.00  0.00     0.049 A 
ATOM     53  C   UNL A   1      42.220  32.256  34.174  1.00  0.00     0.074 A 
ATOM     54  C   UNL A   1      42.779  27.280  30.286  1.00  0.00     0.029 A 
ATOM     55  N   UNL A   1      42.071  29.095  31.357  1.00  0.00    -0.354 N 
ATOM     56  N   UNL A   1      42.252  31.254  33.329  1.00  0.00    -0.248 NA
ATOM     57  C   UNL A   1      43.319  32.260  35.148  1.00  0.00     0.031 C 
ATOM     58  C   UNL A   1      43.672  27.556  31.326  1.00  0.00     0.029 A 
ATOM     59  C   UNL A   1      43.247  28.704  31.975  1.00  0.00     0.049 A 
ATOM     60  H   UNL A   1      41.534  29.881  31.609  1.00  0.00     0.167 HD
ATOM     61  C   UNL A   1      43.390  30.525  33.650  1.00  0.00     0.074 A 
ATOM     62  C   UNL A   1      44.028  31.210  34.756  1.00  0.00     0.031 C 
ATOM     63  C   UNL A   1      43.866  29.391  33.080  1.00  0.00     0.031 A 
BRANCH  50  64
ATOM     64  C   UNL A   1      40.344  27.222  28.484  1.00  0.00    -0.014 A 
ATOM     65  C   UNL A   1      40.879  27.306  27.188  1.00  0.00     0.009 A 
ATOM     66  C   UNL A   1      39.590  26.092  28.834  1.00  0.00     0.009 A 
ATOM     67  C   UNL A   1      40.624  26.301  26.251  1.00  0.00     0.001 A 
ATOM     68  C   UNL A   1      39.366  25.072  27.906  1.00  0.00     0.001 A 
ATOM     69  C   UNL A   1      39.873  25.184  26.612  1.00  0.00     0.000 A 
ENDBRANCH  50  64
BRANCH  51  70
ATOM     70  C   UNL A   1      41.384  34.447  35.296  1.00  0.00    -0.014 A 
ATOM     71  C   UNL A   1      40.753  34.328  36.543  1.00  0.00     0.009 A 
ATOM     72  C   UNL A   1      42.164  35.585  35.037  1.00  0.00     0.009 A 
ATOM     73  C   UNL A   1      40.879  35.338  37.500  1.00  0.00     0.001 A 
ATOM     74  C   UNL A   1      42.313  36.579  36.006  1.00  0.00     0.001 A 
ATOM     75  C   UNL A   1      41.663  36.460  37.232  1.00  0.00     0.000 A 
ENDBRANCH  51  70
BRANCH  63  76
ATOM     76  C   UNL A   1      45.155  28.837  33.620  1.00  0.00    -0.014 A 
ATOM     77  C   UNL A   1      46.398  29.254  33.119  1.00  0.00     0.009 A 
ATOM     78  C   UNL A   1      45.124  27.911  34.675  1.00  0.00     0.009 A 
ATOM     79  C   UNL A   1      47.582  28.726  33.640  1.00  0.00     0.001 A 
ATOM     80  C   UNL A   1      46.309  27.411  35.216  1.00  0.00     0.001 A 
ATOM     81  C   UNL A   1      47.537  27.811  34.691  1.00  0.00     0.000 A 
ENDBRANCH  63  76
ENDBRANCH  37  38
ENDBRANCH  29  32
ENDBRANCH  27  28
ENDBRANCH  26  27
ENDBRANCH  25  26
ENDBRANCH   1  25
TORSDOF 16
ENDMDL
