MODEL 1
REMARK VINA RESULT:     -12.5      0.000      0.000
REMARK SMILES Cc1c(CC(=O)NCCCCCCNC(=O)c2ccc(-c3c4nc(c(-c5ccccc5)c5ccc([nH]5)c(-c5ccccc5)c5nc(c(-c6ccccc6)c6ccc3[nH]6)C=C5)C=C4)cc2)cc(-c2ccccc2)cc1-c1ccccc1
REMARK SMILES IDX 10 1 9 2 8 3 7 4 5 5 6 6 4 8 3 9 1 10 2 11 74 12 65 13 73 14
REMARK SMILES IDX 66 15 75 16 76 17 80 18 77 19 79 20 78 21 67 22 68 23 72 24
REMARK SMILES IDX 69 25 71 26 70 27 11 28 12 29 13 30 14 31 15 32 16 34 17 35
REMARK SMILES IDX 18 36 64 37 19 38 63 39 20 40 21 41 22 42 57 43 23 44 62 45
REMARK SMILES IDX 56 46 58 47 24 48 61 49 55 50 54 51 25 53 47 54 32 55 46 56
REMARK SMILES IDX 33 57 36 58 45 59 59 60 34 61 35 62 44 64 60 65 37 66 26 67
REMARK SMILES IDX 27 68 31 69 28 70 30 71 29 72 48 73 49 74 53 75 50 76 52 77
REMARK SMILES IDX 51 78 38 79 39 80 43 81 40 82 42 83 41 84
REMARK H PARENT 7 7 14 33 58 52 36 63
REMARK Flexibility Score: inf
ROOT
ATOM      1  C   UNL A   1      33.628  26.425  26.109  1.00  0.00     0.002 C 
ENDROOT
BRANCH   1   2
ATOM      2  C   UNL A   1      34.043  26.226  24.646  1.00  0.00     0.021 C 
BRANCH   2   3
ATOM      3  C   UNL A   1      32.883  26.075  23.660  1.00  0.00     0.116 C 
BRANCH   3   4
ATOM      4  N   UNL A   1      33.268  25.390  22.446  1.00  0.00    -0.356 N 
ATOM      5  C   UNL A   1      33.086  24.079  22.107  1.00  0.00     0.224 C 
ATOM      6  O   UNL A   1      33.463  23.707  20.993  1.00  0.00    -0.275 OA
ATOM      7  H   UNL A   1      33.723  25.944  21.771  1.00  0.00     0.163 HD
BRANCH   5   8
ATOM      8  C   UNL A   1      32.391  23.118  23.065  1.00  0.00     0.135 C 
BRANCH   8   9
ATOM      9  C   UNL A   1      33.322  22.113  23.722  1.00  0.00    -0.035 A 
ATOM     10  C   UNL A   1      31.862  20.130  23.070  1.00  0.00     0.045 C 
ATOM     11  C   UNL A   1      33.063  20.718  23.780  1.00  0.00    -0.040 A 
ATOM     12  C   UNL A   1      33.974  19.873  24.469  1.00  0.00    -0.015 A 
ATOM     13  C   UNL A   1      34.506  22.622  24.294  1.00  0.00     0.013 A 
ATOM     14  C   UNL A   1      35.133  20.437  25.043  1.00  0.00     0.017 A 
ATOM     15  C   UNL A   1      35.425  21.803  24.955  1.00  0.00    -0.017 A 
BRANCH  12  16
ATOM     16  C   UNL A   1      33.755  18.422  24.648  1.00  0.00    -0.018 A 
ATOM     17  C   UNL A   1      32.708  17.959  25.466  1.00  0.00     0.009 A 
ATOM     18  C   UNL A   1      34.574  17.471  24.021  1.00  0.00     0.009 A 
ATOM     19  C   UNL A   1      32.479  16.593  25.638  1.00  0.00     0.001 A 
ATOM     20  C   UNL A   1      34.336  16.103  24.180  1.00  0.00     0.001 A 
ATOM     21  C   UNL A   1      33.288  15.665  24.987  1.00  0.00     0.000 A 
ENDBRANCH  12  16
BRANCH  15  22
ATOM     22  C   UNL A   1      36.661  22.364  25.520  1.00  0.00    -0.018 A 
ATOM     23  C   UNL A   1      36.716  23.692  25.974  1.00  0.00     0.009 A 
ATOM     24  C   UNL A   1      37.831  21.590  25.595  1.00  0.00     0.009 A 
ATOM     25  C   UNL A   1      37.903  24.231  26.478  1.00  0.00     0.001 A 
ATOM     26  C   UNL A   1      39.019  22.129  26.096  1.00  0.00     0.001 A 
ATOM     27  C   UNL A   1      39.054  23.450  26.536  1.00  0.00     0.000 A 
ENDBRANCH  15  22
ENDBRANCH   8   9
ENDBRANCH   5   8
ENDBRANCH   3   4
ENDBRANCH   2   3
ENDBRANCH   1   2
BRANCH   1  28
ATOM     28  C   UNL A   1      32.768  27.662  26.419  1.00  0.00     0.002 C 
BRANCH  28  29
ATOM     29  C   UNL A   1      33.347  28.657  27.429  1.00  0.00     0.021 C 
BRANCH  29  30
ATOM     30  C   UNL A   1      34.037  29.858  26.796  1.00  0.00     0.116 C 
BRANCH  30  31
ATOM     31  N   UNL A   1      34.420  30.892  27.750  1.00  0.00    -0.352 N 
ATOM     32  C   UNL A   1      35.540  30.968  28.558  1.00  0.00     0.251 C 
ATOM     33  H   UNL A   1      33.791  31.645  27.829  1.00  0.00     0.163 HD
ATOM     34  O   UNL A   1      35.685  31.907  29.323  1.00  0.00    -0.269 OA
BRANCH  32  35
ATOM     35  C   UNL A   1      36.631  29.976  28.386  1.00  0.00     0.039 A 
ATOM     36  C   UNL A   1      36.877  29.097  29.448  1.00  0.00     0.014 A 
ATOM     37  C   UNL A   1      37.518  30.045  27.314  1.00  0.00     0.014 A 
ATOM     38  C   UNL A   1      38.126  28.493  29.557  1.00  0.00     0.010 A 
ATOM     39  C   UNL A   1      38.788  29.525  27.464  1.00  0.00     0.010 A 
ATOM     40  C   UNL A   1      39.110  28.815  28.621  1.00  0.00    -0.014 A 
BRANCH  40  41
ATOM     41  C   UNL A   1      40.524  28.555  28.856  1.00  0.00     0.031 A 
ATOM     42  C   UNL A   1      41.159  27.352  28.293  1.00  0.00     0.074 A 
ATOM     43  C   UNL A   1      41.244  29.417  29.607  1.00  0.00     0.049 A 
ATOM     44  N   UNL A   1      42.120  26.702  28.860  1.00  0.00    -0.248 NA
ATOM     45  C   UNL A   1      40.703  26.752  27.046  1.00  0.00     0.031 C 
ATOM     46  C   UNL A   1      42.689  29.411  29.820  1.00  0.00     0.029 A 
ATOM     47  N   UNL A   1      40.768  30.343  30.537  1.00  0.00    -0.354 N 
ATOM     48  C   UNL A   1      42.596  25.798  27.937  1.00  0.00     0.074 A 
ATOM     49  C   UNL A   1      41.623  25.800  26.867  1.00  0.00     0.031 C 
ATOM     50  C   UNL A   1      42.947  30.023  30.988  1.00  0.00     0.029 A 
ATOM     51  C   UNL A   1      41.667  30.317  31.613  1.00  0.00     0.049 A 
ATOM     52  H   UNL A   1      39.962  30.903  30.455  1.00  0.00     0.167 HD
ATOM     53  C   UNL A   1      43.838  25.258  28.090  1.00  0.00     0.031 A 
ATOM     54  C   UNL A   1      41.309  29.975  32.884  1.00  0.00     0.031 A 
ATOM     55  C   UNL A   1      44.484  25.714  29.317  1.00  0.00     0.049 A 
ATOM     56  C   UNL A   1      42.106  28.808  33.423  1.00  0.00     0.074 A 
ATOM     57  C   UNL A   1      45.411  26.715  29.562  1.00  0.00     0.029 A 
ATOM     58  N   UNL A   1      43.973  25.336  30.552  1.00  0.00    -0.354 N 
ATOM     59  N   UNL A   1      42.761  27.969  32.671  1.00  0.00    -0.248 NA
ATOM     60  C   UNL A   1      42.163  28.454  34.840  1.00  0.00     0.031 C 
ATOM     61  C   UNL A   1      45.393  26.996  30.951  1.00  0.00     0.029 A 
ATOM     62  C   UNL A   1      44.480  26.146  31.550  1.00  0.00     0.049 A 
ATOM     63  H   UNL A   1      43.339  24.596  30.696  1.00  0.00     0.167 HD
ATOM     64  C   UNL A   1      43.319  26.995  33.457  1.00  0.00     0.074 A 
ATOM     65  C   UNL A   1      42.918  27.341  34.808  1.00  0.00     0.031 C 
ATOM     66  C   UNL A   1      44.057  25.977  32.931  1.00  0.00     0.031 A 
BRANCH  53  67
ATOM     67  C   UNL A   1      44.582  24.590  26.958  1.00  0.00    -0.014 A 
ATOM     68  C   UNL A   1      44.671  23.185  26.918  1.00  0.00     0.009 A 
ATOM     69  C   UNL A   1      45.267  25.278  25.942  1.00  0.00     0.009 A 
ATOM     70  C   UNL A   1      45.488  22.517  25.996  1.00  0.00     0.001 A 
ATOM     71  C   UNL A   1      46.119  24.620  25.044  1.00  0.00     0.001 A 
ATOM     72  C   UNL A   1      46.242  23.238  25.080  1.00  0.00     0.000 A 
ENDBRANCH  53  67
BRANCH  54  73
ATOM     73  C   UNL A   1      39.880  30.218  33.222  1.00  0.00    -0.014 A 
ATOM     74  C   UNL A   1      39.434  31.546  33.360  1.00  0.00     0.009 A 
ATOM     75  C   UNL A   1      38.927  29.202  33.066  1.00  0.00     0.009 A 
ATOM     76  C   UNL A   1      38.075  31.859  33.247  1.00  0.00     0.001 A 
ATOM     77  C   UNL A   1      37.568  29.520  32.962  1.00  0.00     0.001 A 
ATOM     78  C   UNL A   1      37.147  30.848  33.021  1.00  0.00     0.000 A 
ENDBRANCH  54  73
BRANCH  66  79
ATOM     79  C   UNL A   1      44.525  24.762  33.683  1.00  0.00    -0.014 A 
ATOM     80  C   UNL A   1      43.668  23.762  34.162  1.00  0.00     0.009 A 
ATOM     81  C   UNL A   1      45.913  24.527  33.803  1.00  0.00     0.009 A 
ATOM     82  C   UNL A   1      44.171  22.606  34.774  1.00  0.00     0.001 A 
ATOM     83  C   UNL A   1      46.419  23.357  34.375  1.00  0.00     0.001 A 
ATOM     84  C   UNL A   1      45.545  22.400  34.872  1.00  0.00     0.000 A 
ENDBRANCH  66  79
ENDBRANCH  40  41
ENDBRANCH  32  35
ENDBRANCH  30  31
ENDBRANCH  29  30
ENDBRANCH  28  29
ENDBRANCH   1  28
TORSDOF 16
ENDMDL
MODEL 2
REMARK VINA RESULT:     -12.5      1.653      2.709
REMARK SMILES Cc1c(CC(=O)NCCCCCCNC(=O)c2ccc(-c3c4nc(c(-c5ccccc5)c5ccc([nH]5)c(-c5ccccc5)c5nc(c(-c6ccccc6)c6ccc3[nH]6)C=C5)C=C4)cc2)cc(-c2ccccc2)cc1-c1ccccc1
REMARK SMILES IDX 10 1 9 2 8 3 7 4 5 5 6 6 4 8 3 9 1 10 2 11 74 12 65 13 73 14
REMARK SMILES IDX 66 15 75 16 76 17 80 18 77 19 79 20 78 21 67 22 68 23 72 24
REMARK SMILES IDX 69 25 71 26 70 27 11 28 12 29 13 30 14 31 15 32 16 34 17 35
REMARK SMILES IDX 18 36 64 37 19 38 63 39 20 40 21 41 22 42 57 43 23 44 62 45
REMARK SMILES IDX 56 46 58 47 24 48 61 49 55 50 54 51 25 53 47 54 32 55 46 56
REMARK SMILES IDX 33 57 36 58 45 59 59 60 34 61 35 62 44 64 60 65 37 66 26 67
REMARK SMILES IDX 27 68 31 69 28 70 30 71 29 72 48 73 49 74 53 75 50 76 52 77
REMARK SMILES IDX 51 78 38 79 39 80 43 81 40 82 42 83 41 84
REMARK H PARENT 7 7 14 33 58 52 36 63
REMARK Flexibility Score: inf
ROOT
ATOM      1  C   UNL A   1      33.500  26.955  25.896  1.00  0.00     0.002 C 
ENDROOT
BRANCH   1   2
ATOM      2  C   UNL A   1      33.983  26.893  24.442  1.00  0.00     0.021 C 
BRANCH   2   3
ATOM      3  C   UNL A   1      32.886  26.632  23.408  1.00  0.00     0.116 C 
BRANCH   3   4
ATOM      4  N   UNL A   1      33.304  25.714  22.371  1.00  0.00    -0.356 N 
ATOM      5  C   UNL A   1      33.261  24.348  22.366  1.00  0.00     0.224 C 
ATOM      6  O   UNL A   1      33.639  23.757  21.353  1.00  0.00    -0.275 OA
ATOM      7  H   UNL A   1      33.668  26.130  21.556  1.00  0.00     0.163 HD
BRANCH   5   8
ATOM      8  C   UNL A   1      32.715  23.585  23.568  1.00  0.00     0.135 C 
BRANCH   8   9
ATOM      9  C   UNL A   1      33.634  22.488  24.078  1.00  0.00    -0.035 A 
ATOM     10  C   UNL A   1      32.026  20.635  23.392  1.00  0.00     0.045 C 
ATOM     11  C   UNL A   1      33.303  21.107  24.052  1.00  0.00    -0.040 A 
ATOM     12  C   UNL A   1      34.213  20.167  24.607  1.00  0.00    -0.015 A 
ATOM     13  C   UNL A   1      34.881  22.892  24.596  1.00  0.00     0.013 A 
ATOM     14  C   UNL A   1      35.439  20.628  25.133  1.00  0.00     0.017 A 
ATOM     15  C   UNL A   1      35.798  21.980  25.124  1.00  0.00    -0.017 A 
BRANCH  12  16
ATOM     16  C   UNL A   1      33.929  18.720  24.695  1.00  0.00    -0.018 A 
ATOM     17  C   UNL A   1      32.984  18.238  25.619  1.00  0.00     0.009 A 
ATOM     18  C   UNL A   1      34.585  17.789  23.875  1.00  0.00     0.009 A 
ATOM     19  C   UNL A   1      32.693  16.875  25.708  1.00  0.00     0.001 A 
ATOM     20  C   UNL A   1      34.284  16.426  23.952  1.00  0.00     0.001 A 
ATOM     21  C   UNL A   1      33.338  15.971  24.868  1.00  0.00     0.000 A 
ENDBRANCH  12  16
BRANCH  15  22
ATOM     22  C   UNL A   1      37.100  22.434  25.635  1.00  0.00    -0.018 A 
ATOM     23  C   UNL A   1      38.197  21.561  25.710  1.00  0.00     0.009 A 
ATOM     24  C   UNL A   1      37.271  23.752  26.091  1.00  0.00     0.009 A 
ATOM     25  C   UNL A   1      39.422  21.987  26.230  1.00  0.00     0.001 A 
ATOM     26  C   UNL A   1      38.495  24.178  26.614  1.00  0.00     0.001 A 
ATOM     27  C   UNL A   1      39.569  23.295  26.685  1.00  0.00     0.000 A 
ENDBRANCH  15  22
ENDBRANCH   8   9
ENDBRANCH   5   8
ENDBRANCH   3   4
ENDBRANCH   2   3
ENDBRANCH   1   2
BRANCH   1  28
ATOM     28  C   UNL A   1      33.010  28.324  26.402  1.00  0.00     0.002 C 
BRANCH  28  29
ATOM     29  C   UNL A   1      33.993  29.490  26.268  1.00  0.00     0.021 C 
BRANCH  29  30
ATOM     30  C   UNL A   1      34.251  30.240  27.569  1.00  0.00     0.116 C 
BRANCH  30  31
ATOM     31  N   UNL A   1      33.618  31.552  27.631  1.00  0.00    -0.352 N 
ATOM     32  C   UNL A   1      33.987  32.671  28.356  1.00  0.00     0.251 C 
ATOM     33  H   UNL A   1      32.813  31.657  27.075  1.00  0.00     0.163 HD
ATOM     34  O   UNL A   1      33.316  33.688  28.304  1.00  0.00    -0.269 OA
BRANCH  32  35
ATOM     35  C   UNL A   1      35.281  32.672  29.084  1.00  0.00     0.039 A 
ATOM     36  C   UNL A   1      36.330  33.417  28.534  1.00  0.00     0.014 A 
ATOM     37  C   UNL A   1      35.520  31.804  30.148  1.00  0.00     0.014 A 
ATOM     38  C   UNL A   1      37.642  33.099  28.872  1.00  0.00     0.010 A 
ATOM     39  C   UNL A   1      36.818  31.420  30.417  1.00  0.00     0.010 A 
ATOM     40  C   UNL A   1      37.872  32.017  29.722  1.00  0.00    -0.014 A 
BRANCH  40  41
ATOM     41  C   UNL A   1      39.172  31.370  29.828  1.00  0.00     0.031 A 
ATOM     42  C   UNL A   1      39.385  30.034  29.246  1.00  0.00     0.074 A 
ATOM     43  C   UNL A   1      40.178  31.997  30.477  1.00  0.00     0.049 A 
ATOM     44  N   UNL A   1      40.177  29.142  29.739  1.00  0.00    -0.248 NA
ATOM     45  C   UNL A   1      38.654  29.582  28.070  1.00  0.00     0.031 C 
ATOM     46  C   UNL A   1      41.577  31.585  30.550  1.00  0.00     0.029 A 
ATOM     47  N   UNL A   1      40.078  33.024  31.418  1.00  0.00    -0.354 N 
ATOM     48  C   UNL A   1      40.284  28.136  28.806  1.00  0.00     0.074 A 
ATOM     49  C   UNL A   1      39.248  28.408  27.835  1.00  0.00     0.031 C 
ATOM     50  C   UNL A   1      42.114  32.104  31.667  1.00  0.00     0.029 A 
ATOM     51  C   UNL A   1      41.038  32.750  32.402  1.00  0.00     0.049 A 
ATOM     52  H   UNL A   1      39.457  33.788  31.395  1.00  0.00     0.167 HD
ATOM     53  C   UNL A   1      41.334  27.268  28.856  1.00  0.00     0.031 A 
ATOM     54  C   UNL A   1      40.730  32.529  33.713  1.00  0.00     0.031 A 
ATOM     55  C   UNL A   1      42.203  27.530  29.999  1.00  0.00     0.049 A 
ATOM     56  C   UNL A   1      41.219  31.187  34.211  1.00  0.00     0.074 A 
ATOM     57  C   UNL A   1      43.394  28.229  30.120  1.00  0.00     0.029 A 
ATOM     58  N   UNL A   1      41.735  27.317  31.289  1.00  0.00    -0.354 N 
ATOM     59  N   UNL A   1      41.532  30.194  33.427  1.00  0.00    -0.248 NA
ATOM     60  C   UNL A   1      41.319  30.838  35.626  1.00  0.00     0.031 C 
ATOM     61  C   UNL A   1      43.597  28.511  31.494  1.00  0.00     0.029 A 
ATOM     62  C   UNL A   1      42.548  27.955  32.206  1.00  0.00     0.049 A 
ATOM     63  H   UNL A   1      40.938  26.786  31.518  1.00  0.00     0.167 HD
ATOM     64  C   UNL A   1      41.872  29.106  34.187  1.00  0.00     0.074 A 
ATOM     65  C   UNL A   1      41.724  29.557  35.559  1.00  0.00     0.031 C 
ATOM     66  C   UNL A   1      42.237  27.919  33.626  1.00  0.00     0.031 A 
BRANCH  53  67
ATOM     67  C   UNL A   1      41.742  26.412  27.679  1.00  0.00    -0.014 A 
ATOM     68  C   UNL A   1      42.622  25.331  27.879  1.00  0.00     0.009 A 
ATOM     69  C   UNL A   1      41.352  26.650  26.351  1.00  0.00     0.009 A 
ATOM     70  C   UNL A   1      43.171  24.611  26.810  1.00  0.00     0.001 A 
ATOM     71  C   UNL A   1      41.929  25.963  25.273  1.00  0.00     0.001 A 
ATOM     72  C   UNL A   1      42.852  24.951  25.502  1.00  0.00     0.000 A 
ENDBRANCH  53  67
BRANCH  54  73
ATOM     73  C   UNL A   1      39.469  33.167  34.178  1.00  0.00    -0.014 A 
ATOM     74  C   UNL A   1      38.242  32.557  33.855  1.00  0.00     0.009 A 
ATOM     75  C   UNL A   1      39.491  34.137  35.192  1.00  0.00     0.009 A 
ATOM     76  C   UNL A   1      37.088  32.839  34.593  1.00  0.00     0.001 A 
ATOM     77  C   UNL A   1      38.330  34.421  35.921  1.00  0.00     0.001 A 
ATOM     78  C   UNL A   1      37.140  33.750  35.643  1.00  0.00     0.000 A 
ENDBRANCH  54  73
BRANCH  66  79
ATOM     79  C   UNL A   1      42.421  26.624  34.370  1.00  0.00    -0.014 A 
ATOM     80  C   UNL A   1      41.423  26.024  35.149  1.00  0.00     0.009 A 
ATOM     81  C   UNL A   1      43.610  25.887  34.173  1.00  0.00     0.009 A 
ATOM     82  C   UNL A   1      41.621  24.770  35.742  1.00  0.00     0.001 A 
ATOM     83  C   UNL A   1      43.795  24.619  34.729  1.00  0.00     0.001 A 
ATOM     84  C   UNL A   1      42.802  24.065  35.525  1.00  0.00     0.000 A 
ENDBRANCH  66  79
ENDBRANCH  40  41
ENDBRANCH  32  35
ENDBRANCH  30  31
ENDBRANCH  29  30
ENDBRANCH  28  29
ENDBRANCH   1  28
TORSDOF 16
ENDMDL
MODEL 3
REMARK VINA RESULT:     -12.3      3.927      9.560
REMARK SMILES Cc1c(CC(=O)NCCCCCCNC(=O)c2ccc(-c3c4nc(c(-c5ccccc5)c5ccc([nH]5)c(-c5ccccc5)c5nc(c(-c6ccccc6)c6ccc3[nH]6)C=C5)C=C4)cc2)cc(-c2ccccc2)cc1-c1ccccc1
REMARK SMILES IDX 10 1 9 2 8 3 7 4 5 5 6 6 4 8 3 9 1 10 2 11 74 12 65 13 73 14
REMARK SMILES IDX 66 15 75 16 76 17 80 18 77 19 79 20 78 21 67 22 68 23 72 24
REMARK SMILES IDX 69 25 71 26 70 27 11 28 12 29 13 30 14 31 15 32 16 34 17 35
REMARK SMILES IDX 18 36 64 37 19 38 63 39 20 40 21 41 22 42 57 43 23 44 62 45
REMARK SMILES IDX 56 46 58 47 24 48 61 49 55 50 54 51 25 53 47 54 32 55 46 56
REMARK SMILES IDX 33 57 36 58 45 59 59 60 34 61 35 62 44 64 60 65 37 66 26 67
REMARK SMILES IDX 27 68 31 69 28 70 30 71 29 72 48 73 49 74 53 75 50 76 52 77
REMARK SMILES IDX 51 78 38 79 39 80 43 81 40 82 42 83 41 84
REMARK H PARENT 7 7 14 33 58 52 36 63
REMARK Flexibility Score: inf
ROOT
ATOM      1  C   UNL A   1      34.697  24.136  25.253  1.00  0.00     0.002 C 
ENDROOT
BRANCH   1   2
ATOM      2  C   UNL A   1      33.777  24.075  26.478  1.00  0.00     0.021 C 
BRANCH   2   3
ATOM      3  C   UNL A   1      32.533  23.201  26.310  1.00  0.00     0.116 C 
BRANCH   3   4
ATOM      4  N   UNL A   1      31.325  23.857  26.759  1.00  0.00    -0.356 N 
ATOM      5  C   UNL A   1      30.629  24.872  26.165  1.00  0.00     0.224 C 
ATOM      6  O   UNL A   1      29.593  25.263  26.707  1.00  0.00    -0.275 OA
ATOM      7  H   UNL A   1      30.953  23.527  27.609  1.00  0.00     0.163 HD
BRANCH   5   8
ATOM      8  C   UNL A   1      31.101  25.468  24.843  1.00  0.00     0.135 C 
BRANCH   8   9
ATOM      9  C   UNL A   1      31.142  26.986  24.825  1.00  0.00    -0.035 A 
ATOM     10  C   UNL A   1      29.075  27.159  23.346  1.00  0.00     0.045 C 
ATOM     11  C   UNL A   1      30.234  27.791  24.086  1.00  0.00    -0.040 A 
ATOM     12  C   UNL A   1      30.397  29.202  24.093  1.00  0.00    -0.015 A 
ATOM     13  C   UNL A   1      32.145  27.605  25.598  1.00  0.00     0.013 A 
ATOM     14  C   UNL A   1      31.432  29.769  24.867  1.00  0.00     0.017 A 
ATOM     15  C   UNL A   1      32.306  28.992  25.636  1.00  0.00    -0.017 A 
BRANCH  12  16
ATOM     16  C   UNL A   1      29.552  30.119  23.299  1.00  0.00    -0.018 A 
ATOM     17  C   UNL A   1      29.041  31.294  23.880  1.00  0.00     0.009 A 
ATOM     18  C   UNL A   1      29.232  29.850  21.960  1.00  0.00     0.009 A 
ATOM     19  C   UNL A   1      28.251  32.177  23.142  1.00  0.00     0.001 A 
ATOM     20  C   UNL A   1      28.455  30.742  21.215  1.00  0.00     0.001 A 
ATOM     21  C   UNL A   1      27.966  31.905  21.806  1.00  0.00     0.000 A 
ENDBRANCH  12  16
BRANCH  15  22
ATOM     22  C   UNL A   1      33.349  29.606  26.471  1.00  0.00    -0.018 A 
ATOM     23  C   UNL A   1      34.542  28.924  26.763  1.00  0.00     0.009 A 
ATOM     24  C   UNL A   1      33.165  30.883  27.025  1.00  0.00     0.009 A 
ATOM     25  C   UNL A   1      35.515  29.496  27.586  1.00  0.00     0.001 A 
ATOM     26  C   UNL A   1      34.136  31.456  27.851  1.00  0.00     0.001 A 
ATOM     27  C   UNL A   1      35.310  30.761  28.132  1.00  0.00     0.000 A 
ENDBRANCH  15  22
ENDBRANCH   8   9
ENDBRANCH   5   8
ENDBRANCH   3   4
ENDBRANCH   2   3
ENDBRANCH   1   2
BRANCH   1  28
ATOM     28  C   UNL A   1      35.520  22.872  24.944  1.00  0.00     0.002 C 
BRANCH  28  29
ATOM     29  C   UNL A   1      37.038  23.053  24.861  1.00  0.00     0.021 C 
BRANCH  29  30
ATOM     30  C   UNL A   1      37.637  23.835  26.023  1.00  0.00     0.116 C 
BRANCH  30  31
ATOM     31  N   UNL A   1      39.047  23.551  26.264  1.00  0.00    -0.352 N 
ATOM     32  C   UNL A   1      40.010  24.338  26.869  1.00  0.00     0.251 C 
ATOM     33  H   UNL A   1      39.357  22.670  25.951  1.00  0.00     0.163 HD
ATOM     34  O   UNL A   1      41.160  23.942  26.963  1.00  0.00    -0.269 OA
BRANCH  32  35
ATOM     35  C   UNL A   1      39.605  25.604  27.530  1.00  0.00     0.039 A 
ATOM     36  C   UNL A   1      39.815  26.795  26.825  1.00  0.00     0.014 A 
ATOM     37  C   UNL A   1      39.233  25.641  28.871  1.00  0.00     0.014 A 
ATOM     38  C   UNL A   1      39.909  27.994  27.525  1.00  0.00     0.010 A 
ATOM     39  C   UNL A   1      39.417  26.809  29.584  1.00  0.00     0.010 A 
ATOM     40  C   UNL A   1      39.829  27.965  28.918  1.00  0.00    -0.014 A 
BRANCH  40  41
ATOM     41  C   UNL A   1      40.291  29.067  29.749  1.00  0.00     0.031 A 
ATOM     42  C   UNL A   1      39.349  30.116  30.178  1.00  0.00     0.074 A 
ATOM     43  C   UNL A   1      41.591  29.131  30.110  1.00  0.00     0.049 A 
ATOM     44  N   UNL A   1      39.669  31.354  30.354  1.00  0.00    -0.248 NA
ATOM     45  C   UNL A   1      37.934  29.841  30.388  1.00  0.00     0.031 C 
ATOM     46  C   UNL A   1      42.202  30.061  31.057  1.00  0.00     0.029 A 
ATOM     47  N   UNL A   1      42.679  28.508  29.497  1.00  0.00    -0.354 N 
ATOM     48  C   UNL A   1      38.600  31.964  30.970  1.00  0.00     0.074 A 
ATOM     49  C   UNL A   1      37.516  31.011  30.880  1.00  0.00     0.031 C 
ATOM     50  C   UNL A   1      43.504  30.182  30.751  1.00  0.00     0.029 A 
ATOM     51  C   UNL A   1      43.729  29.437  29.521  1.00  0.00     0.049 A 
ATOM     52  H   UNL A   1      42.705  27.598  29.121  1.00  0.00     0.167 HD
ATOM     53  C   UNL A   1      38.776  33.141  31.634  1.00  0.00     0.031 A 
ATOM     54  C   UNL A   1      44.327  29.927  28.397  1.00  0.00     0.031 A 
ATOM     55  C   UNL A   1      40.149  33.624  31.532  1.00  0.00     0.049 A 
ATOM     56  C   UNL A   1      44.258  31.435  28.306  1.00  0.00     0.074 A 
ATOM     57  C   UNL A   1      41.234  33.529  32.390  1.00  0.00     0.029 A 
ATOM     58  N   UNL A   1      40.650  34.037  30.304  1.00  0.00    -0.354 N 
ATOM     59  N   UNL A   1      43.409  32.163  28.974  1.00  0.00    -0.248 NA
ATOM     60  C   UNL A   1      45.086  32.229  27.400  1.00  0.00     0.031 C 
ATOM     61  C   UNL A   1      42.406  33.807  31.644  1.00  0.00     0.029 A 
ATOM     62  C   UNL A   1      42.029  34.100  30.345  1.00  0.00     0.049 A 
ATOM     63  H   UNL A   1      40.100  34.253  29.517  1.00  0.00     0.167 HD
ATOM     64  C   UNL A   1      43.561  33.477  28.621  1.00  0.00     0.074 A 
ATOM     65  C   UNL A   1      44.623  33.470  27.632  1.00  0.00     0.031 C 
ATOM     66  C   UNL A   1      42.792  34.465  29.161  1.00  0.00     0.031 A 
BRANCH  53  67
ATOM     67  C   UNL A   1      37.784  33.663  32.648  1.00  0.00    -0.014 A 
ATOM     68  C   UNL A   1      37.798  33.150  33.960  1.00  0.00     0.009 A 
ATOM     69  C   UNL A   1      36.778  34.601  32.365  1.00  0.00     0.009 A 
ATOM     70  C   UNL A   1      36.799  33.465  34.891  1.00  0.00     0.001 A 
ATOM     71  C   UNL A   1      35.752  34.888  33.277  1.00  0.00     0.001 A 
ATOM     72  C   UNL A   1      35.754  34.307  34.537  1.00  0.00     0.000 A 
ENDBRANCH  53  67
BRANCH  54  73
ATOM     73  C   UNL A   1      44.265  29.029  27.211  1.00  0.00    -0.014 A 
ATOM     74  C   UNL A   1      45.098  27.895  27.176  1.00  0.00     0.009 A 
ATOM     75  C   UNL A   1      43.183  29.096  26.321  1.00  0.00     0.009 A 
ATOM     76  C   UNL A   1      44.799  26.814  26.340  1.00  0.00     0.001 A 
ATOM     77  C   UNL A   1      42.893  28.015  25.481  1.00  0.00     0.001 A 
ATOM     78  C   UNL A   1      43.681  26.864  25.513  1.00  0.00     0.000 A 
ENDBRANCH  54  73
BRANCH  66  79
ATOM     79  C   UNL A   1      42.744  35.891  28.685  1.00  0.00    -0.014 A 
ATOM     80  C   UNL A   1      41.999  36.319  27.578  1.00  0.00     0.009 A 
ATOM     81  C   UNL A   1      43.364  36.891  29.465  1.00  0.00     0.009 A 
ATOM     82  C   UNL A   1      41.918  37.675  27.238  1.00  0.00     0.001 A 
ATOM     83  C   UNL A   1      43.251  38.248  29.153  1.00  0.00     0.001 A 
ATOM     84  C   UNL A   1      42.536  38.640  28.030  1.00  0.00     0.000 A 
ENDBRANCH  66  79
ENDBRANCH  40  41
ENDBRANCH  32  35
ENDBRANCH  30  31
ENDBRANCH  29  30
ENDBRANCH  28  29
ENDBRANCH   1  28
TORSDOF 16
ENDMDL
