MODEL 1
REMARK VINA RESULT:     -10.4      0.000      0.000
REMARK SMILES C[C@@](NC(=O)c1cc(Br)c[nH]1)(C(=O)NCCCCCCNC(=O)c1ccc(-c2c3nc(c(-c4ccccc4)c4ccc([nH]4)c(-c4ccccc4)c4nc(c(-c5ccccc5)c5ccc2[nH]5)C=C4)C=C3)cc1)C(F)(F)F
REMARK SMILES IDX 17 1 16 2 15 3 14 4 12 5 13 6 2 8 1 9 3 10 4 11 5 13 6 14
REMARK SMILES IDX 7 15 11 16 8 17 10 18 9 20 72 21 73 22 74 23 75 24 18 25
REMARK SMILES IDX 19 26 20 27 21 28 22 29 23 31 24 32 25 33 71 34 26 35 70 36
REMARK SMILES IDX 27 37 28 38 29 39 64 40 30 41 69 42 63 43 65 44 31 45 68 46
REMARK SMILES IDX 62 47 61 48 32 50 54 51 39 52 53 53 40 54 43 55 52 56 66 57
REMARK SMILES IDX 41 58 42 59 51 61 67 62 44 63 33 64 34 65 38 66 35 67 37 68
REMARK SMILES IDX 36 69 55 70 56 71 60 72 57 73 59 74 58 75 45 76 46 77 50 78
REMARK SMILES IDX 47 79 49 80 48 81
REMARK H PARENT 14 7 3 12 11 19 21 30 65 49 43 60
REMARK Flexibility Score: inf
ROOT
ATOM      1  C   UNL A   1      36.193  22.043  25.533  1.00  0.00     0.002 C 
ENDROOT
BRANCH   1   2
ATOM      2  C   UNL A   1      36.197  23.563  25.743  1.00  0.00     0.021 C 
BRANCH   2   3
ATOM      3  C   UNL A   1      35.263  24.332  24.812  1.00  0.00     0.116 C 
BRANCH   3   4
ATOM      4  N   UNL A   1      34.011  24.650  25.474  1.00  0.00    -0.354 N 
ATOM      5  C   UNL A   1      32.716  24.453  25.097  1.00  0.00     0.254 C 
ATOM      6  O   UNL A   1      31.856  24.830  25.900  1.00  0.00    -0.272 OA
ATOM      7  H   UNL A   1      34.115  25.087  26.352  1.00  0.00     0.163 HD
BRANCH   5   8
ATOM      8  C   UNL A   1      32.336  23.911  23.709  1.00  0.00     0.212 C 
ATOM      9  C   UNL A   1      30.795  23.957  23.602  1.00  0.00     0.056 C 
BRANCH   8  10
ATOM     10  N   UNL A   1      32.898  24.695  22.568  1.00  0.00    -0.329 N 
ATOM     11  C   UNL A   1      32.974  26.045  22.334  1.00  0.00     0.268 C 
ATOM     12  H   UNL A   1      33.286  24.141  21.852  1.00  0.00     0.165 HD
ATOM     13  O   UNL A   1      33.794  26.407  21.491  1.00  0.00    -0.268 OA
BRANCH  11  14
ATOM     14  C   UNL A   1      32.007  26.951  22.907  1.00  0.00     0.105 A 
ATOM     15  C   UNL A   1      30.884  27.453  22.260  1.00  0.00     0.049 A 
ATOM     16  N   UNL A   1      32.024  27.537  24.156  1.00  0.00    -0.356 N 
ATOM     17  C   UNL A   1      30.159  28.214  23.190  1.00  0.00     0.036 A 
ATOM     18  C   UNL A   1      30.867  28.247  24.361  1.00  0.00     0.098 A 
ATOM     19  H   UNL A   1      32.759  27.459  24.806  1.00  0.00     0.166 HD
ATOM     20  Br  UNL A   1      28.499  29.006  22.846  1.00  0.00    -0.049 Br
ENDBRANCH  11  14
ENDBRANCH   8  10
BRANCH   8  21
ATOM     21  C   UNL A   1      32.743  22.421  23.641  1.00  0.00     0.420 C 
ATOM     22  F   UNL A   1      32.813  21.829  24.852  1.00  0.00    -0.168 F 
ATOM     23  F   UNL A   1      31.815  21.726  22.928  1.00  0.00    -0.168 F 
ATOM     24  F   UNL A   1      33.925  22.236  23.010  1.00  0.00    -0.168 F 
ENDBRANCH   8  21
ENDBRANCH   5   8
ENDBRANCH   3   4
ENDBRANCH   2   3
ENDBRANCH   1   2
BRANCH   1  25
ATOM     25  C   UNL A   1      37.182  21.521  24.487  1.00  0.00     0.002 C 
BRANCH  25  26
ATOM     26  C   UNL A   1      37.880  20.204  24.835  1.00  0.00     0.021 C 
BRANCH  26  27
ATOM     27  C   UNL A   1      38.890  20.284  25.974  1.00  0.00     0.116 C 
BRANCH  27  28
ATOM     28  N   UNL A   1      40.017  19.383  25.802  1.00  0.00    -0.352 N 
ATOM     29  C   UNL A   1      41.351  19.627  26.017  1.00  0.00     0.251 C 
ATOM     30  H   UNL A   1      39.794  18.477  25.492  1.00  0.00     0.163 HD
ATOM     31  O   UNL A   1      42.193  18.784  25.724  1.00  0.00    -0.269 OA
BRANCH  29  32
ATOM     32  C   UNL A   1      41.774  20.929  26.572  1.00  0.00     0.039 A 
ATOM     33  C   UNL A   1      42.181  21.934  25.690  1.00  0.00     0.014 A 
ATOM     34  C   UNL A   1      41.757  21.164  27.950  1.00  0.00     0.014 A 
ATOM     35  C   UNL A   1      42.514  23.195  26.186  1.00  0.00     0.010 A 
ATOM     36  C   UNL A   1      42.031  22.439  28.437  1.00  0.00     0.010 A 
ATOM     37  C   UNL A   1      42.412  23.465  27.560  1.00  0.00    -0.014 A 
BRANCH  37  38
ATOM     38  C   UNL A   1      42.697  24.819  28.095  1.00  0.00     0.031 A 
ATOM     39  C   UNL A   1      44.092  25.186  28.518  1.00  0.00     0.074 A 
ATOM     40  C   UNL A   1      41.689  25.696  28.256  1.00  0.00     0.049 A 
ATOM     41  N   UNL A   1      44.524  26.300  29.052  1.00  0.00    -0.248 NA
ATOM     42  C   UNL A   1      45.130  24.159  28.340  1.00  0.00     0.031 C 
ATOM     43  C   UNL A   1      40.284  25.447  27.923  1.00  0.00     0.029 A 
ATOM     44  N   UNL A   1      41.692  26.978  28.747  1.00  0.00    -0.354 N 
ATOM     45  C   UNL A   1      45.877  26.101  29.291  1.00  0.00     0.074 A 
ATOM     46  C   UNL A   1      46.185  24.746  28.884  1.00  0.00     0.031 C 
ATOM     47  C   UNL A   1      39.567  26.549  28.196  1.00  0.00     0.029 A 
ATOM     48  C   UNL A   1      40.452  27.568  28.750  1.00  0.00     0.049 A 
ATOM     49  H   UNL A   1      42.506  27.430  29.067  1.00  0.00     0.167 HD
ATOM     50  C   UNL A   1      46.787  26.971  29.791  1.00  0.00     0.031 A 
ATOM     51  C   UNL A   1      40.071  28.794  29.155  1.00  0.00     0.031 A 
ATOM     52  C   UNL A   1      46.488  28.323  30.179  1.00  0.00     0.049 A 
ATOM     53  C   UNL A   1      41.100  29.744  29.697  1.00  0.00     0.074 A 
ATOM     54  C   UNL A   1      47.354  29.301  30.636  1.00  0.00     0.029 A 
ATOM     55  N   UNL A   1      45.222  28.887  30.152  1.00  0.00    -0.354 N 
ATOM     56  N   UNL A   1      42.388  29.562  29.858  1.00  0.00    -0.248 NA
ATOM     57  C   UNL A   1      40.623  31.074  30.102  1.00  0.00     0.031 C 
ATOM     58  C   UNL A   1      46.604  30.447  30.924  1.00  0.00     0.029 A 
ATOM     59  C   UNL A   1      45.280  30.195  30.604  1.00  0.00     0.049 A 
ATOM     60  H   UNL A   1      44.404  28.427  29.857  1.00  0.00     0.167 HD
ATOM     61  C   UNL A   1      42.879  30.759  30.362  1.00  0.00     0.074 A 
ATOM     62  C   UNL A   1      41.752  31.664  30.466  1.00  0.00     0.031 C 
ATOM     63  C   UNL A   1      44.149  31.079  30.706  1.00  0.00     0.031 A 
BRANCH  50  64
ATOM     64  C   UNL A   1      48.197  26.477  29.947  1.00  0.00    -0.014 A 
ATOM     65  C   UNL A   1      49.145  26.655  28.927  1.00  0.00     0.009 A 
ATOM     66  C   UNL A   1      48.589  25.846  31.138  1.00  0.00     0.009 A 
ATOM     67  C   UNL A   1      50.448  26.176  29.082  1.00  0.00     0.001 A 
ATOM     68  C   UNL A   1      49.899  25.392  31.300  1.00  0.00     0.001 A 
ATOM     69  C   UNL A   1      50.824  25.548  30.270  1.00  0.00     0.000 A 
ENDBRANCH  50  64
BRANCH  51  70
ATOM     70  C   UNL A   1      38.648  29.203  29.038  1.00  0.00    -0.014 A 
ATOM     71  C   UNL A   1      38.142  29.657  27.811  1.00  0.00     0.009 A 
ATOM     72  C   UNL A   1      37.792  29.138  30.147  1.00  0.00     0.009 A 
ATOM     73  C   UNL A   1      36.808  30.057  27.702  1.00  0.00     0.001 A 
ATOM     74  C   UNL A   1      36.453  29.518  30.029  1.00  0.00     0.001 A 
ATOM     75  C   UNL A   1      35.964  29.984  28.809  1.00  0.00     0.000 A 
ENDBRANCH  51  70
BRANCH  63  76
ATOM     76  C   UNL A   1      44.390  32.475  31.203  1.00  0.00    -0.014 A 
ATOM     77  C   UNL A   1      44.686  33.520  30.314  1.00  0.00     0.009 A 
ATOM     78  C   UNL A   1      44.283  32.753  32.573  1.00  0.00     0.009 A 
ATOM     79  C   UNL A   1      44.899  34.813  30.795  1.00  0.00     0.001 A 
ATOM     80  C   UNL A   1      44.475  34.051  33.049  1.00  0.00     0.001 A 
ATOM     81  C   UNL A   1      44.790  35.078  32.159  1.00  0.00     0.000 A 
ENDBRANCH  63  76
ENDBRANCH  37  38
ENDBRANCH  29  32
ENDBRANCH  27  28
ENDBRANCH  26  27
ENDBRANCH  25  26
ENDBRANCH   1  25
TORSDOF 16
ENDMDL
MODEL 2
REMARK VINA RESULT:     -10.4      3.878      8.975
REMARK SMILES C[C@@](NC(=O)c1cc(Br)c[nH]1)(C(=O)NCCCCCCNC(=O)c1ccc(-c2c3nc(c(-c4ccccc4)c4ccc([nH]4)c(-c4ccccc4)c4nc(c(-c5ccccc5)c5ccc2[nH]5)C=C4)C=C3)cc1)C(F)(F)F
REMARK SMILES IDX 17 1 16 2 15 3 14 4 12 5 13 6 2 8 1 9 3 10 4 11 5 13 6 14
REMARK SMILES IDX 7 15 11 16 8 17 10 18 9 20 72 21 73 22 74 23 75 24 18 25
REMARK SMILES IDX 19 26 20 27 21 28 22 29 23 31 24 32 25 33 71 34 26 35 70 36
REMARK SMILES IDX 27 37 28 38 29 39 64 40 30 41 69 42 63 43 65 44 31 45 68 46
REMARK SMILES IDX 62 47 61 48 32 50 54 51 39 52 53 53 40 54 43 55 52 56 66 57
REMARK SMILES IDX 41 58 42 59 51 61 67 62 44 63 33 64 34 65 38 66 35 67 37 68
REMARK SMILES IDX 36 69 55 70 56 71 60 72 57 73 59 74 58 75 45 76 46 77 50 78
REMARK SMILES IDX 47 79 49 80 48 81
REMARK H PARENT 14 7 3 12 11 19 21 30 65 49 43 60
REMARK Flexibility Score: inf
ROOT
ATOM      1  C   UNL A   1      32.150  29.601  26.991  1.00  0.00     0.002 C 
ENDROOT
BRANCH   1   2
ATOM      2  C   UNL A   1      33.361  28.800  26.495  1.00  0.00     0.021 C 
BRANCH   2   3
ATOM      3  C   UNL A   1      33.175  27.285  26.535  1.00  0.00     0.116 C 
BRANCH   3   4
ATOM      4  N   UNL A   1      33.748  26.656  25.358  1.00  0.00    -0.354 N 
ATOM      5  C   UNL A   1      33.168  26.008  24.310  1.00  0.00     0.254 C 
ATOM      6  O   UNL A   1      33.937  25.588  23.441  1.00  0.00    -0.272 OA
ATOM      7  H   UNL A   1      34.731  26.707  25.309  1.00  0.00     0.163 HD
BRANCH   5   8
ATOM      8  C   UNL A   1      31.661  25.705  24.261  1.00  0.00     0.212 C 
ATOM      9  C   UNL A   1      31.420  24.745  23.074  1.00  0.00     0.056 C 
BRANCH   8  10
ATOM     10  N   UNL A   1      31.125  25.052  25.494  1.00  0.00    -0.329 N 
ATOM     11  C   UNL A   1      31.553  23.964  26.213  1.00  0.00     0.268 C 
ATOM     12  H   UNL A   1      30.316  25.480  25.858  1.00  0.00     0.165 HD
ATOM     13  O   UNL A   1      31.130  23.872  27.365  1.00  0.00    -0.268 OA
BRANCH  11  14
ATOM     14  C   UNL A   1      32.295  22.903  25.577  1.00  0.00     0.105 A 
ATOM     15  C   UNL A   1      31.793  21.650  25.243  1.00  0.00     0.049 A 
ATOM     16  N   UNL A   1      33.631  22.884  25.233  1.00  0.00    -0.356 N 
ATOM     17  C   UNL A   1      32.801  20.954  24.558  1.00  0.00     0.036 A 
ATOM     18  C   UNL A   1      33.927  21.732  24.548  1.00  0.00     0.098 A 
ATOM     19  H   UNL A   1      34.279  23.593  25.449  1.00  0.00     0.166 HD
ATOM     20  Br  UNL A   1      32.584  19.263  23.788  1.00  0.00    -0.049 Br
ENDBRANCH  11  14
ENDBRANCH   8  10
BRANCH   8  21
ATOM     21  C   UNL A   1      30.911  27.016  23.932  1.00  0.00     0.420 C 
ATOM     22  F   UNL A   1      31.692  27.946  23.343  1.00  0.00    -0.168 F 
ATOM     23  F   UNL A   1      29.899  26.758  23.058  1.00  0.00    -0.168 F 
ATOM     24  F   UNL A   1      30.338  27.574  25.023  1.00  0.00    -0.168 F 
ENDBRANCH   8  21
ENDBRANCH   5   8
ENDBRANCH   3   4
ENDBRANCH   2   3
ENDBRANCH   1   2
BRANCH   1  25
ATOM     25  C   UNL A   1      31.639  30.681  26.034  1.00  0.00     0.002 C 
BRANCH  25  26
ATOM     26  C   UNL A   1      31.417  32.063  26.652  1.00  0.00     0.021 C 
BRANCH  26  27
ATOM     27  C   UNL A   1      32.673  32.754  27.170  1.00  0.00     0.116 C 
BRANCH  27  28
ATOM     28  N   UNL A   1      32.421  34.091  27.682  1.00  0.00    -0.352 N 
ATOM     29  C   UNL A   1      33.124  34.796  28.626  1.00  0.00     0.251 C 
ATOM     30  H   UNL A   1      31.641  34.552  27.298  1.00  0.00     0.163 HD
ATOM     31  O   UNL A   1      32.717  35.882  29.024  1.00  0.00    -0.269 OA
BRANCH  29  32
ATOM     32  C   UNL A   1      34.363  34.222  29.190  1.00  0.00     0.039 A 
ATOM     33  C   UNL A   1      34.282  33.489  30.378  1.00  0.00     0.014 A 
ATOM     34  C   UNL A   1      35.593  34.393  28.549  1.00  0.00     0.014 A 
ATOM     35  C   UNL A   1      35.426  32.876  30.890  1.00  0.00     0.010 A 
ATOM     36  C   UNL A   1      36.721  33.732  29.028  1.00  0.00     0.010 A 
ATOM     37  C   UNL A   1      36.647  32.967  30.202  1.00  0.00    -0.014 A 
BRANCH  37  38
ATOM     38  C   UNL A   1      37.857  32.266  30.697  1.00  0.00     0.031 A 
ATOM     39  C   UNL A   1      38.642  32.834  31.846  1.00  0.00     0.074 A 
ATOM     40  C   UNL A   1      38.280  31.151  30.074  1.00  0.00     0.049 A 
ATOM     41  N   UNL A   1      39.750  32.390  32.384  1.00  0.00    -0.248 NA
ATOM     42  C   UNL A   1      38.131  34.073  32.450  1.00  0.00     0.031 C 
ATOM     43  C   UNL A   1      37.630  30.522  28.922  1.00  0.00     0.029 A 
ATOM     44  N   UNL A   1      39.367  30.349  30.321  1.00  0.00    -0.354 N 
ATOM     45  C   UNL A   1      40.077  33.305  33.376  1.00  0.00     0.074 A 
ATOM     46  C   UNL A   1      39.076  34.350  33.337  1.00  0.00     0.031 C 
ATOM     47  C   UNL A   1      38.316  29.419  28.579  1.00  0.00     0.029 A 
ATOM     48  C   UNL A   1      39.468  29.281  29.463  1.00  0.00     0.049 A 
ATOM     49  H   UNL A   1      40.012  30.524  31.044  1.00  0.00     0.167 HD
ATOM     50  C   UNL A   1      41.109  33.273  34.253  1.00  0.00     0.031 A 
ATOM     51  C   UNL A   1      40.387  28.299  29.398  1.00  0.00     0.031 A 
ATOM     52  C   UNL A   1      42.094  32.228  34.307  1.00  0.00     0.049 A 
ATOM     53  C   UNL A   1      41.517  28.281  30.386  1.00  0.00     0.074 A 
ATOM     54  C   UNL A   1      43.141  32.074  35.199  1.00  0.00     0.029 A 
ATOM     55  N   UNL A   1      42.153  31.155  33.430  1.00  0.00    -0.354 N 
ATOM     56  N   UNL A   1      41.776  29.120  31.359  1.00  0.00    -0.248 NA
ATOM     57  C   UNL A   1      42.474  27.171  30.274  1.00  0.00     0.031 C 
ATOM     58  C   UNL A   1      43.857  30.926  34.838  1.00  0.00     0.029 A 
ATOM     59  C   UNL A   1      43.230  30.344  33.748  1.00  0.00     0.049 A 
ATOM     60  H   UNL A   1      41.523  30.994  32.692  1.00  0.00     0.167 HD
ATOM     61  C   UNL A   1      42.912  28.629  31.988  1.00  0.00     0.074 A 
ATOM     62  C   UNL A   1      43.283  27.412  31.296  1.00  0.00     0.031 C 
ATOM     63  C   UNL A   1      43.586  29.140  33.046  1.00  0.00     0.031 A 
BRANCH  50  64
ATOM     64  C   UNL A   1      41.221  34.412  35.225  1.00  0.00    -0.014 A 
ATOM     65  C   UNL A   1      41.991  35.547  34.928  1.00  0.00     0.009 A 
ATOM     66  C   UNL A   1      40.528  34.361  36.445  1.00  0.00     0.009 A 
ATOM     67  C   UNL A   1      42.096  36.592  35.849  1.00  0.00     0.001 A 
ATOM     68  C   UNL A   1      40.615  35.417  37.353  1.00  0.00     0.001 A 
ATOM     69  C   UNL A   1      41.406  36.527  37.059  1.00  0.00     0.000 A 
ENDBRANCH  50  64
BRANCH  51  70
ATOM     70  C   UNL A   1      40.260  27.235  28.370  1.00  0.00    -0.014 A 
ATOM     71  C   UNL A   1      39.533  26.067  28.647  1.00  0.00     0.009 A 
ATOM     72  C   UNL A   1      40.860  27.382  27.110  1.00  0.00     0.009 A 
ATOM     73  C   UNL A   1      39.427  25.058  27.688  1.00  0.00     0.001 A 
ATOM     74  C   UNL A   1      40.732  26.381  26.146  1.00  0.00     0.001 A 
ATOM     75  C   UNL A   1      40.022  25.216  26.437  1.00  0.00     0.000 A 
ENDBRANCH  51  70
BRANCH  63  76
ATOM     76  C   UNL A   1      44.779  28.370  33.533  1.00  0.00    -0.014 A 
ATOM     77  C   UNL A   1      44.644  27.353  34.490  1.00  0.00     0.009 A 
ATOM     78  C   UNL A   1      46.048  28.641  32.999  1.00  0.00     0.009 A 
ATOM     79  C   UNL A   1      45.763  26.642  34.925  1.00  0.00     0.001 A 
ATOM     80  C   UNL A   1      47.162  27.913  33.418  1.00  0.00     0.001 A 
ATOM     81  C   UNL A   1      47.020  26.919  34.386  1.00  0.00     0.000 A 
ENDBRANCH  63  76
ENDBRANCH  37  38
ENDBRANCH  29  32
ENDBRANCH  27  28
ENDBRANCH  26  27
ENDBRANCH  25  26
ENDBRANCH   1  25
TORSDOF 16
ENDMDL
MODEL 3
REMARK VINA RESULT:     -10.3      3.690      8.642
REMARK SMILES C[C@@](NC(=O)c1cc(Br)c[nH]1)(C(=O)NCCCCCCNC(=O)c1ccc(-c2c3nc(c(-c4ccccc4)c4ccc([nH]4)c(-c4ccccc4)c4nc(c(-c5ccccc5)c5ccc2[nH]5)C=C4)C=C3)cc1)C(F)(F)F
REMARK SMILES IDX 17 1 16 2 15 3 14 4 12 5 13 6 2 8 1 9 3 10 4 11 5 13 6 14
REMARK SMILES IDX 7 15 11 16 8 17 10 18 9 20 72 21 73 22 74 23 75 24 18 25
REMARK SMILES IDX 19 26 20 27 21 28 22 29 23 31 24 32 25 33 71 34 26 35 70 36
REMARK SMILES IDX 27 37 28 38 29 39 64 40 30 41 69 42 63 43 65 44 31 45 68 46
REMARK SMILES IDX 62 47 61 48 32 50 54 51 39 52 53 53 40 54 43 55 52 56 66 57
REMARK SMILES IDX 41 58 42 59 51 61 67 62 44 63 33 64 34 65 38 66 35 67 37 68
REMARK SMILES IDX 36 69 55 70 56 71 60 72 57 73 59 74 58 75 45 76 46 77 50 78
REMARK SMILES IDX 47 79 49 80 48 81
REMARK H PARENT 14 7 3 12 11 19 21 30 65 49 43 60
REMARK Flexibility Score: inf
ROOT
ATOM      1  C   UNL A   1      33.225  29.233  27.089  1.00  0.00     0.002 C 
ENDROOT
BRANCH   1   2
ATOM      2  C   UNL A   1      33.728  28.358  25.934  1.00  0.00     0.021 C 
BRANCH   2   3
ATOM      3  C   UNL A   1      33.431  26.869  26.093  1.00  0.00     0.116 C 
BRANCH   3   4
ATOM      4  N   UNL A   1      33.678  26.150  24.856  1.00  0.00    -0.354 N 
ATOM      5  C   UNL A   1      32.836  25.489  24.014  1.00  0.00     0.254 C 
ATOM      6  O   UNL A   1      33.358  24.981  23.017  1.00  0.00    -0.272 OA
ATOM      7  H   UNL A   1      34.623  26.138  24.576  1.00  0.00     0.163 HD
BRANCH   5   8
ATOM      8  C   UNL A   1      31.348  25.276  24.337  1.00  0.00     0.212 C 
ATOM      9  C   UNL A   1      30.771  24.332  23.258  1.00  0.00     0.056 C 
BRANCH   8  10
ATOM     10  N   UNL A   1      31.091  24.656  25.673  1.00  0.00    -0.329 N 
ATOM     11  C   UNL A   1      31.721  23.639  26.346  1.00  0.00     0.268 C 
ATOM     12  H   UNL A   1      30.331  25.048  26.159  1.00  0.00     0.165 HD
ATOM     13  O   UNL A   1      31.518  23.580  27.557  1.00  0.00    -0.268 OA
BRANCH  11  14
ATOM     14  C   UNL A   1      32.415  22.596  25.629  1.00  0.00     0.105 A 
ATOM     15  C   UNL A   1      31.884  21.360  25.282  1.00  0.00     0.049 A 
ATOM     16  N   UNL A   1      33.728  22.582  25.204  1.00  0.00    -0.356 N 
ATOM     17  C   UNL A   1      32.844  20.682  24.513  1.00  0.00     0.036 A 
ATOM     18  C   UNL A   1      33.973  21.454  24.462  1.00  0.00     0.098 A 
ATOM     19  H   UNL A   1      34.393  23.280  25.404  1.00  0.00     0.166 HD
ATOM     20  Br  UNL A   1      32.568  19.021  23.698  1.00  0.00    -0.049 Br
ENDBRANCH  11  14
ENDBRANCH   8  10
BRANCH   8  21
ATOM     21  C   UNL A   1      30.618  26.630  24.181  1.00  0.00     0.420 C 
ATOM     22  F   UNL A   1      29.397  26.518  23.617  1.00  0.00    -0.168 F 
ATOM     23  F   UNL A   1      30.422  27.189  25.407  1.00  0.00    -0.168 F 
ATOM     24  F   UNL A   1      31.335  27.525  23.465  1.00  0.00    -0.168 F 
ENDBRANCH   8  21
ENDBRANCH   5   8
ENDBRANCH   3   4
ENDBRANCH   2   3
ENDBRANCH   1   2
BRANCH   1  25
ATOM     25  C   UNL A   1      31.796  29.763  26.939  1.00  0.00     0.002 C 
BRANCH  25  26
ATOM     26  C   UNL A   1      31.674  31.246  26.584  1.00  0.00     0.021 C 
BRANCH  26  27
ATOM     27  C   UNL A   1      32.873  32.107  26.966  1.00  0.00     0.116 C 
BRANCH  27  28
ATOM     28  N   UNL A   1      32.499  33.425  27.451  1.00  0.00    -0.352 N 
ATOM     29  C   UNL A   1      33.138  34.213  28.374  1.00  0.00     0.251 C 
ATOM     30  H   UNL A   1      31.676  33.803  27.064  1.00  0.00     0.163 HD
ATOM     31  O   UNL A   1      32.632  35.265  28.753  1.00  0.00    -0.269 OA
BRANCH  29  32
ATOM     32  C   UNL A   1      34.429  33.771  28.941  1.00  0.00     0.039 A 
ATOM     33  C   UNL A   1      34.419  32.962  30.081  1.00  0.00     0.014 A 
ATOM     34  C   UNL A   1      35.640  34.140  28.348  1.00  0.00     0.014 A 
ATOM     35  C   UNL A   1      35.622  32.471  30.590  1.00  0.00     0.010 A 
ATOM     36  C   UNL A   1      36.833  33.601  28.821  1.00  0.00     0.010 A 
ATOM     37  C   UNL A   1      36.835  32.763  29.945  1.00  0.00    -0.014 A 
BRANCH  37  38
ATOM     38  C   UNL A   1      38.115  32.194  30.434  1.00  0.00     0.031 A 
ATOM     39  C   UNL A   1      38.637  30.907  29.861  1.00  0.00     0.074 A 
ATOM     40  C   UNL A   1      38.775  32.805  31.435  1.00  0.00     0.049 A 
ATOM     41  N   UNL A   1      39.709  30.232  30.194  1.00  0.00    -0.248 NA
ATOM     42  C   UNL A   1      37.840  30.284  28.794  1.00  0.00     0.031 C 
ATOM     43  C   UNL A   1      38.351  34.037  32.105  1.00  0.00     0.029 A 
ATOM     44  N   UNL A   1      39.944  32.468  32.070  1.00  0.00    -0.354 N 
ATOM     45  C   UNL A   1      39.703  29.099  29.391  1.00  0.00     0.074 A 
ATOM     46  C   UNL A   1      38.501  29.155  28.586  1.00  0.00     0.031 C 
ATOM     47  C   UNL A   1      39.260  34.365  33.038  1.00  0.00     0.029 A 
ATOM     48  C   UNL A   1      40.311  33.353  33.054  1.00  0.00     0.049 A 
ATOM     49  H   UNL A   1      40.469  31.668  31.840  1.00  0.00     0.167 HD
ATOM     50  C   UNL A   1      40.623  28.107  29.318  1.00  0.00     0.031 A 
ATOM     51  C   UNL A   1      41.376  33.350  33.877  1.00  0.00     0.031 A 
ATOM     52  C   UNL A   1      41.826  28.059  30.102  1.00  0.00     0.049 A 
ATOM     53  C   UNL A   1      42.386  32.243  33.770  1.00  0.00     0.074 A 
ATOM     54  C   UNL A   1      42.850  27.128  30.055  1.00  0.00     0.029 A 
ATOM     55  N   UNL A   1      42.169  28.982  31.077  1.00  0.00    -0.354 N 
ATOM     56  N   UNL A   1      42.398  31.212  32.962  1.00  0.00    -0.248 NA
ATOM     57  C   UNL A   1      43.536  32.309  34.683  1.00  0.00     0.031 C 
ATOM     58  C   UNL A   1      43.795  27.468  31.030  1.00  0.00     0.029 A 
ATOM     59  C   UNL A   1      43.379  28.634  31.653  1.00  0.00     0.049 A 
ATOM     60  H   UNL A   1      41.631  29.769  31.324  1.00  0.00     0.167 HD
ATOM     61  C   UNL A   1      43.565  30.518  33.252  1.00  0.00     0.074 A 
ATOM     62  C   UNL A   1      44.241  31.254  34.301  1.00  0.00     0.031 C 
ATOM     63  C   UNL A   1      44.034  29.375  32.698  1.00  0.00     0.031 A 
BRANCH  50  64
ATOM     64  C   UNL A   1      40.353  26.990  28.351  1.00  0.00    -0.014 A 
ATOM     65  C   UNL A   1      39.600  25.868  28.730  1.00  0.00     0.009 A 
ATOM     66  C   UNL A   1      40.838  27.071  27.036  1.00  0.00     0.009 A 
ATOM     67  C   UNL A   1      39.370  24.831  27.823  1.00  0.00     0.001 A 
ATOM     68  C   UNL A   1      40.585  26.045  26.124  1.00  0.00     0.001 A 
ATOM     69  C   UNL A   1      39.861  24.922  26.521  1.00  0.00     0.000 A 
ENDBRANCH  50  64
BRANCH  51  70
ATOM     70  C   UNL A   1      41.555  34.448  34.860  1.00  0.00    -0.014 A 
ATOM     71  C   UNL A   1      41.009  34.340  36.148  1.00  0.00     0.009 A 
ATOM     72  C   UNL A   1      42.273  35.604  34.518  1.00  0.00     0.009 A 
ATOM     73  C   UNL A   1      41.163  35.378  37.069  1.00  0.00     0.001 A 
ATOM     74  C   UNL A   1      42.444  36.630  35.450  1.00  0.00     0.001 A 
ATOM     75  C   UNL A   1      41.882  36.520  36.721  1.00  0.00     0.000 A 
ENDBRANCH  51  70
BRANCH  63  76
ATOM     76  C   UNL A   1      45.354  28.864  33.200  1.00  0.00    -0.014 A 
ATOM     77  C   UNL A   1      46.563  29.310  32.644  1.00  0.00     0.009 A 
ATOM     78  C   UNL A   1      45.387  27.955  34.267  1.00  0.00     0.009 A 
ATOM     79  C   UNL A   1      47.780  28.830  33.129  1.00  0.00     0.001 A 
ATOM     80  C   UNL A   1      46.607  27.494  34.766  1.00  0.00     0.001 A 
ATOM     81  C   UNL A   1      47.801  27.926  34.191  1.00  0.00     0.000 A 
ENDBRANCH  63  76
ENDBRANCH  37  38
ENDBRANCH  29  32
ENDBRANCH  27  28
ENDBRANCH  26  27
ENDBRANCH  25  26
ENDBRANCH   1  25
TORSDOF 16
ENDMDL
