MODEL 1
REMARK VINA RESULT:      -9.7      0.000      0.000
REMARK SMILES COC(=O)[C@@H]1CCN(C(=O)NC(=O)COCC(=O)NCCCCCCNC(=O)c2ccc(-c3c4nc(c(-c5ccccc5)c5ccc([nH]5)c(-c5ccccc5)c5nc(c(-c6ccccc6)c6ccc3[nH]6)C=C5)C=C4)cc2)C1
REMARK SMILES IDX 20 1 19 2 17 3 18 4 16 6 15 7 14 8 12 9 9 10 10 11 11 12
REMARK SMILES IDX 13 14 8 15 5 16 6 17 77 18 7 19 3 20 4 21 2 22 1 23 21 24
REMARK SMILES IDX 22 25 23 26 24 27 25 28 26 29 27 30 28 32 29 33 30 34 76 35
REMARK SMILES IDX 31 36 75 37 32 38 33 39 34 40 69 41 35 42 74 43 68 44 70 45
REMARK SMILES IDX 36 46 73 47 67 48 66 49 37 51 59 52 44 53 58 54 45 55 48 56
REMARK SMILES IDX 57 57 71 58 46 59 47 60 56 62 72 63 49 64 38 65 39 66 43 67
REMARK SMILES IDX 40 68 42 69 41 70 60 71 61 72 65 73 62 74 64 75 63 76 50 77
REMARK SMILES IDX 51 78 55 79 52 80 54 81 53 82
REMARK H PARENT 19 5 11 13 26 31 70 50 48 61
REMARK Flexibility Score: inf
ROOT
ATOM      1  C   UNL A   1      33.799  29.417  26.654  1.00  0.00     0.116 C 
ENDROOT
BRANCH   1   2
ATOM      2  N   UNL A   1      32.754  28.663  27.325  1.00  0.00    -0.354 N 
ATOM      3  C   UNL A   1      31.801  27.851  26.780  1.00  0.00     0.246 C 
ATOM      4  O   UNL A   1      30.982  27.307  27.519  1.00  0.00    -0.272 OA
ATOM      5  H   UNL A   1      32.730  28.750  28.305  1.00  0.00     0.163 HD
BRANCH   3   6
ATOM      6  C   UNL A   1      31.788  27.635  25.267  1.00  0.00     0.260 C 
BRANCH   6   7
ATOM      7  O   UNL A   1      30.485  27.360  24.781  1.00  0.00    -0.362 OA
BRANCH   7   8
ATOM      8  C   UNL A   1      30.464  26.507  23.656  1.00  0.00     0.261 C 
BRANCH   8   9
ATOM      9  C   UNL A   1      30.870  27.210  22.378  1.00  0.00     0.254 C 
ATOM     10  C   UNL A   1      32.647  25.616  21.276  1.00  0.00     0.324 C 
ATOM     11  O   UNL A   1      32.895  25.403  20.082  1.00  0.00    -0.248 OA
ATOM     12  N   UNL A   1      31.830  26.693  21.522  1.00  0.00    -0.276 N 
ATOM     13  H   UNL A   1      31.990  27.358  20.814  1.00  0.00     0.174 HD
ATOM     14  O   UNL A   1      30.335  28.278  22.059  1.00  0.00    -0.272 OA
BRANCH  10  15
ATOM     15  N   UNL A   1      33.214  24.854  22.247  1.00  0.00    -0.324 N 
ATOM     16  C   UNL A   1      34.146  22.859  23.184  1.00  0.00     0.120 C 
ATOM     17  C   UNL A   1      34.815  24.087  23.798  1.00  0.00     0.039 C 
ATOM     18  C   UNL A   1      33.430  23.434  21.967  1.00  0.00     0.136 C 
ATOM     19  C   UNL A   1      33.822  25.205  23.511  1.00  0.00     0.122 C 
BRANCH  16  20
ATOM     20  C   UNL A   1      33.189  22.174  24.141  1.00  0.00     0.310 C 
ATOM     21  O   UNL A   1      32.033  22.502  24.354  1.00  0.00    -0.252 OA
BRANCH  20  22
ATOM     22  O   UNL A   1      33.797  21.088  24.705  1.00  0.00    -0.469 OA
ATOM     23  C   UNL A   1      33.037  20.474  25.749  1.00  0.00     0.282 C 
ENDBRANCH  20  22
ENDBRANCH  16  20
ENDBRANCH  10  15
ENDBRANCH   8   9
ENDBRANCH   7   8
ENDBRANCH   6   7
ENDBRANCH   3   6
ENDBRANCH   1   2
BRANCH   1  24
ATOM     24  C   UNL A   1      35.011  29.641  27.561  1.00  0.00     0.021 C 
BRANCH  24  25
ATOM     25  C   UNL A   1      34.941  30.907  28.426  1.00  0.00     0.002 C 
BRANCH  25  26
ATOM     26  C   UNL A   1      34.729  32.215  27.656  1.00  0.00     0.002 C 
BRANCH  26  27
ATOM     27  C   UNL A   1      33.490  33.012  28.066  1.00  0.00     0.021 C 
BRANCH  27  28
ATOM     28  C   UNL A   1      33.732  34.504  28.265  1.00  0.00     0.116 C 
BRANCH  28  29
ATOM     29  N   UNL A   1      33.266  34.971  29.562  1.00  0.00    -0.352 N 
ATOM     30  C   UNL A   1      33.668  34.602  30.822  1.00  0.00     0.251 C 
ATOM     31  H   UNL A   1      32.558  35.653  29.531  1.00  0.00     0.163 HD
ATOM     32  O   UNL A   1      33.028  34.964  31.803  1.00  0.00    -0.269 OA
BRANCH  30  33
ATOM     33  C   UNL A   1      34.863  33.749  30.997  1.00  0.00     0.039 A 
ATOM     34  C   UNL A   1      36.086  34.187  30.483  1.00  0.00     0.014 A 
ATOM     35  C   UNL A   1      34.779  32.519  31.655  1.00  0.00     0.014 A 
ATOM     36  C   UNL A   1      37.236  33.421  30.684  1.00  0.00     0.010 A 
ATOM     37  C   UNL A   1      35.938  31.795  31.921  1.00  0.00     0.010 A 
ATOM     38  C   UNL A   1      37.179  32.236  31.437  1.00  0.00    -0.014 A 
BRANCH  38  39
ATOM     39  C   UNL A   1      38.406  31.455  31.734  1.00  0.00     0.031 A 
ATOM     40  C   UNL A   1      39.263  31.805  32.920  1.00  0.00     0.074 A 
ATOM     41  C   UNL A   1      38.785  30.467  30.898  1.00  0.00     0.049 A 
ATOM     42  N   UNL A   1      40.396  31.273  33.304  1.00  0.00    -0.248 NA
ATOM     43  C   UNL A   1      38.801  32.912  33.774  1.00  0.00     0.031 C 
ATOM     44  C   UNL A   1      38.065  30.054  29.691  1.00  0.00     0.029 A 
ATOM     45  N   UNL A   1      39.875  29.633  30.934  1.00  0.00    -0.354 N 
ATOM     46  C   UNL A   1      40.789  31.990  34.428  1.00  0.00     0.074 A 
ATOM     47  C   UNL A   1      39.800  33.024  34.639  1.00  0.00     0.031 C 
ATOM     48  C   UNL A   1      38.719  29.032  29.115  1.00  0.00     0.029 A 
ATOM     49  C   UNL A   1      39.927  28.747  29.884  1.00  0.00     0.049 A 
ATOM     50  H   UNL A   1      40.555  29.667  31.644  1.00  0.00     0.167 HD
ATOM     51  C   UNL A   1      41.867  31.795  35.223  1.00  0.00     0.031 A 
ATOM     52  C   UNL A   1      40.847  27.816  29.567  1.00  0.00     0.031 A 
ATOM     53  C   UNL A   1      42.844  30.757  35.024  1.00  0.00     0.049 A 
ATOM     54  C   UNL A   1      42.043  27.633  30.461  1.00  0.00     0.074 A 
ATOM     55  C   UNL A   1      43.933  30.439  35.816  1.00  0.00     0.029 A 
ATOM     56  N   UNL A   1      42.853  29.874  33.956  1.00  0.00    -0.354 N 
ATOM     57  N   UNL A   1      42.354  28.267  31.565  1.00  0.00    -0.248 NA
ATOM     58  C   UNL A   1      43.007  26.594  30.071  1.00  0.00     0.031 C 
ATOM     59  C   UNL A   1      44.640  29.406  35.191  1.00  0.00     0.029 A 
ATOM     60  C   UNL A   1      43.950  29.034  34.050  1.00  0.00     0.049 A 
ATOM     61  H   UNL A   1      42.181  29.849  33.237  1.00  0.00     0.167 HD
ATOM     62  C   UNL A   1      43.531  27.683  32.018  1.00  0.00     0.074 A 
ATOM     63  C   UNL A   1      43.866  26.632  31.079  1.00  0.00     0.031 C 
ATOM     64  C   UNL A   1      44.270  27.991  33.112  1.00  0.00     0.031 A 
BRANCH  51  65
ATOM     65  C   UNL A   1      42.061  32.731  36.385  1.00  0.00    -0.014 A 
ATOM     66  C   UNL A   1      41.545  32.436  37.656  1.00  0.00     0.009 A 
ATOM     67  C   UNL A   1      42.835  33.892  36.220  1.00  0.00     0.009 A 
ATOM     68  C   UNL A   1      41.774  33.298  38.731  1.00  0.00     0.001 A 
ATOM     69  C   UNL A   1      43.088  34.735  37.302  1.00  0.00     0.001 A 
ATOM     70  C   UNL A   1      42.552  34.442  38.555  1.00  0.00     0.000 A 
ENDBRANCH  51  65
BRANCH  52  71
ATOM     71  C   UNL A   1      40.688  26.989  28.341  1.00  0.00    -0.014 A 
ATOM     72  C   UNL A   1      39.962  25.787  28.375  1.00  0.00     0.009 A 
ATOM     73  C   UNL A   1      41.290  27.379  27.135  1.00  0.00     0.009 A 
ATOM     74  C   UNL A   1      39.879  24.976  27.240  1.00  0.00     0.001 A 
ATOM     75  C   UNL A   1      41.174  26.586  25.992  1.00  0.00     0.001 A 
ATOM     76  C   UNL A   1      40.481  25.378  26.049  1.00  0.00     0.000 A 
ENDBRANCH  52  71
BRANCH  64  77
ATOM     77  C   UNL A   1      45.490  27.153  33.379  1.00  0.00    -0.014 A 
ATOM     78  C   UNL A   1      46.755  27.524  32.898  1.00  0.00     0.009 A 
ATOM     79  C   UNL A   1      45.374  25.993  34.164  1.00  0.00     0.009 A 
ATOM     80  C   UNL A   1      47.873  26.730  33.165  1.00  0.00     0.001 A 
ATOM     81  C   UNL A   1      46.498  25.220  34.458  1.00  0.00     0.001 A 
ATOM     82  C   UNL A   1      47.744  25.584  33.949  1.00  0.00     0.000 A 
ENDBRANCH  64  77
ENDBRANCH  38  39
ENDBRANCH  30  33
ENDBRANCH  28  29
ENDBRANCH  27  28
ENDBRANCH  26  27
ENDBRANCH  25  26
ENDBRANCH  24  25
ENDBRANCH   1  24
TORSDOF 19
ENDMDL
MODEL 2
REMARK VINA RESULT:      -9.5      4.347      9.467
REMARK SMILES COC(=O)[C@@H]1CCN(C(=O)NC(=O)COCC(=O)NCCCCCCNC(=O)c2ccc(-c3c4nc(c(-c5ccccc5)c5ccc([nH]5)c(-c5ccccc5)c5nc(c(-c6ccccc6)c6ccc3[nH]6)C=C5)C=C4)cc2)C1
REMARK SMILES IDX 20 1 19 2 17 3 18 4 16 6 15 7 14 8 12 9 9 10 10 11 11 12
REMARK SMILES IDX 13 14 8 15 5 16 6 17 77 18 7 19 3 20 4 21 2 22 1 23 21 24
REMARK SMILES IDX 22 25 23 26 24 27 25 28 26 29 27 30 28 32 29 33 30 34 76 35
REMARK SMILES IDX 31 36 75 37 32 38 33 39 34 40 69 41 35 42 74 43 68 44 70 45
REMARK SMILES IDX 36 46 73 47 67 48 66 49 37 51 59 52 44 53 58 54 45 55 48 56
REMARK SMILES IDX 57 57 71 58 46 59 47 60 56 62 72 63 49 64 38 65 39 66 43 67
REMARK SMILES IDX 40 68 42 69 41 70 60 71 61 72 65 73 62 74 64 75 63 76 50 77
REMARK SMILES IDX 51 78 55 79 52 80 54 81 53 82
REMARK H PARENT 19 5 11 13 26 31 70 50 48 61
REMARK Flexibility Score: inf
ROOT
ATOM      1  C   UNL A   1      37.509  23.530  26.086  1.00  0.00     0.116 C 
ENDROOT
BRANCH   1   2
ATOM      2  N   UNL A   1      37.397  23.462  24.639  1.00  0.00    -0.354 N 
ATOM      3  C   UNL A   1      36.389  22.935  23.883  1.00  0.00     0.246 C 
ATOM      4  O   UNL A   1      36.487  22.955  22.657  1.00  0.00    -0.272 OA
ATOM      5  H   UNL A   1      38.151  23.848  24.136  1.00  0.00     0.163 HD
BRANCH   3   6
ATOM      6  C   UNL A   1      35.168  22.344  24.584  1.00  0.00     0.260 C 
BRANCH   6   7
ATOM      7  O   UNL A   1      34.179  23.325  24.847  1.00  0.00    -0.362 OA
BRANCH   7   8
ATOM      8  C   UNL A   1      32.886  22.964  24.412  1.00  0.00     0.261 C 
BRANCH   8   9
ATOM      9  C   UNL A   1      32.740  23.006  22.905  1.00  0.00     0.254 C 
ATOM     10  C   UNL A   1      33.138  25.525  22.267  1.00  0.00     0.324 C 
ATOM     11  O   UNL A   1      33.644  26.020  21.252  1.00  0.00    -0.248 OA
ATOM     12  N   UNL A   1      32.847  24.185  22.185  1.00  0.00    -0.276 N 
ATOM     13  H   UNL A   1      32.630  23.983  21.245  1.00  0.00     0.174 HD
ATOM     14  O   UNL A   1      32.527  21.965  22.273  1.00  0.00    -0.272 OA
BRANCH  10  15
ATOM     15  N   UNL A   1      32.847  26.301  23.343  1.00  0.00    -0.324 N 
ATOM     16  C   UNL A   1      31.411  27.442  24.881  1.00  0.00     0.120 C 
ATOM     17  C   UNL A   1      32.682  26.983  25.594  1.00  0.00     0.039 C 
ATOM     18  C   UNL A   1      31.446  26.649  23.580  1.00  0.00     0.136 C 
ATOM     19  C   UNL A   1      33.661  26.754  24.450  1.00  0.00     0.122 C 
BRANCH  16  20
ATOM     20  C   UNL A   1      31.386  28.940  24.638  1.00  0.00     0.310 C 
ATOM     21  O   UNL A   1      30.627  29.530  23.885  1.00  0.00    -0.252 OA
BRANCH  20  22
ATOM     22  O   UNL A   1      32.315  29.553  25.431  1.00  0.00    -0.469 OA
ATOM     23  C   UNL A   1      31.778  30.588  26.259  1.00  0.00     0.282 C 
ENDBRANCH  20  22
ENDBRANCH  16  20
ENDBRANCH  10  15
ENDBRANCH   8   9
ENDBRANCH   7   8
ENDBRANCH   6   7
ENDBRANCH   3   6
ENDBRANCH   1   2
BRANCH   1  24
ATOM     24  C   UNL A   1      38.969  23.553  26.544  1.00  0.00     0.021 C 
BRANCH  24  25
ATOM     25  C   UNL A   1      39.746  22.257  26.276  1.00  0.00     0.002 C 
BRANCH  25  26
ATOM     26  C   UNL A   1      40.416  21.629  27.502  1.00  0.00     0.002 C 
BRANCH  26  27
ATOM     27  C   UNL A   1      41.127  20.301  27.241  1.00  0.00     0.021 C 
BRANCH  27  28
ATOM     28  C   UNL A   1      41.284  19.944  25.766  1.00  0.00     0.116 C 
BRANCH  28  29
ATOM     29  N   UNL A   1      42.654  19.596  25.426  1.00  0.00    -0.352 N 
ATOM     30  C   UNL A   1      43.769  20.395  25.351  1.00  0.00     0.251 C 
ATOM     31  H   UNL A   1      42.806  18.646  25.218  1.00  0.00     0.163 HD
ATOM     32  O   UNL A   1      44.806  19.962  24.861  1.00  0.00    -0.269 OA
BRANCH  30  33
ATOM     33  C   UNL A   1      43.714  21.789  25.842  1.00  0.00     0.039 A 
ATOM     34  C   UNL A   1      44.020  22.045  27.181  1.00  0.00     0.014 A 
ATOM     35  C   UNL A   1      43.352  22.838  24.992  1.00  0.00     0.014 A 
ATOM     36  C   UNL A   1      44.025  23.360  27.651  1.00  0.00     0.010 A 
ATOM     37  C   UNL A   1      43.433  24.153  25.442  1.00  0.00     0.010 A 
ATOM     38  C   UNL A   1      43.768  24.429  26.776  1.00  0.00    -0.014 A 
BRANCH  38  39
ATOM     39  C   UNL A   1      43.854  25.837  27.239  1.00  0.00     0.031 A 
ATOM     40  C   UNL A   1      45.186  26.531  27.319  1.00  0.00     0.074 A 
ATOM     41  C   UNL A   1      42.737  26.473  27.647  1.00  0.00     0.049 A 
ATOM     42  N   UNL A   1      45.463  27.737  27.750  1.00  0.00    -0.248 NA
ATOM     43  C   UNL A   1      46.365  25.767  26.880  1.00  0.00     0.031 C 
ATOM     44  C   UNL A   1      41.389  25.900  27.659  1.00  0.00     0.029 A 
ATOM     45  N   UNL A   1      42.560  27.743  28.139  1.00  0.00    -0.354 N 
ATOM     46  C   UNL A   1      46.843  27.866  27.652  1.00  0.00     0.074 A 
ATOM     47  C   UNL A   1      47.354  26.603  27.165  1.00  0.00     0.031 C 
ATOM     48  C   UNL A   1      40.522  26.820  28.110  1.00  0.00     0.029 A 
ATOM     49  C   UNL A   1      41.255  28.032  28.464  1.00  0.00     0.049 A 
ATOM     50  H   UNL A   1      43.297  28.385  28.249  1.00  0.00     0.167 HD
ATOM     51  C   UNL A   1      47.614  28.944  27.927  1.00  0.00     0.031 A 
ATOM     52  C   UNL A   1      40.710  29.141  28.997  1.00  0.00     0.031 A 
ATOM     53  C   UNL A   1      47.106  30.206  28.396  1.00  0.00     0.049 A 
ATOM     54  C   UNL A   1      41.595  30.317  29.306  1.00  0.00     0.074 A 
ATOM     55  C   UNL A   1      47.804  31.376  28.638  1.00  0.00     0.029 A 
ATOM     56  N   UNL A   1      45.779  30.459  28.701  1.00  0.00    -0.354 N 
ATOM     57  N   UNL A   1      42.887  30.449  29.130  1.00  0.00    -0.248 NA
ATOM     58  C   UNL A   1      40.942  31.505  29.876  1.00  0.00     0.031 C 
ATOM     59  C   UNL A   1      46.908  32.319  29.153  1.00  0.00     0.029 A 
ATOM     60  C   UNL A   1      45.643  31.758  29.162  1.00  0.00     0.049 A 
ATOM     61  H   UNL A   1      45.043  29.813  28.606  1.00  0.00     0.167 HD
ATOM     62  C   UNL A   1      43.195  31.742  29.536  1.00  0.00     0.074 A 
ATOM     63  C   UNL A   1      41.952  32.359  29.949  1.00  0.00     0.031 C 
ATOM     64  C   UNL A   1      44.400  32.362  29.567  1.00  0.00     0.031 A 
BRANCH  51  65
ATOM     65  C   UNL A   1      49.101  28.810  27.737  1.00  0.00    -0.014 A 
ATOM     66  C   UNL A   1      49.708  29.080  26.501  1.00  0.00     0.009 A 
ATOM     67  C   UNL A   1      49.914  28.477  28.833  1.00  0.00     0.009 A 
ATOM     68  C   UNL A   1      51.095  28.992  26.360  1.00  0.00     0.001 A 
ATOM     69  C   UNL A   1      51.301  28.419  28.696  1.00  0.00     0.001 A 
ATOM     70  C   UNL A   1      51.890  28.669  27.459  1.00  0.00     0.000 A 
ENDBRANCH  51  65
BRANCH  52  71
ATOM     71  C   UNL A   1      39.251  29.197  29.288  1.00  0.00    -0.014 A 
ATOM     72  C   UNL A   1      38.339  29.615  28.305  1.00  0.00     0.009 A 
ATOM     73  C   UNL A   1      38.766  28.865  30.562  1.00  0.00     0.009 A 
ATOM     74  C   UNL A   1      36.980  29.737  28.605  1.00  0.00     0.001 A 
ATOM     75  C   UNL A   1      37.402  28.952  30.849  1.00  0.00     0.001 A 
ATOM     76  C   UNL A   1      36.512  29.403  29.875  1.00  0.00     0.000 A 
ENDBRANCH  52  71
BRANCH  64  77
ATOM     77  C   UNL A   1      44.428  33.795  30.020  1.00  0.00    -0.014 A 
ATOM     78  C   UNL A   1      44.231  34.853  29.119  1.00  0.00     0.009 A 
ATOM     79  C   UNL A   1      44.611  34.087  31.381  1.00  0.00     0.009 A 
ATOM     80  C   UNL A   1      44.257  36.177  29.567  1.00  0.00     0.001 A 
ATOM     81  C   UNL A   1      44.602  35.408  31.832  1.00  0.00     0.001 A 
ATOM     82  C   UNL A   1      44.435  36.451  30.922  1.00  0.00     0.000 A 
ENDBRANCH  64  77
ENDBRANCH  38  39
ENDBRANCH  30  33
ENDBRANCH  28  29
ENDBRANCH  27  28
ENDBRANCH  26  27
ENDBRANCH  25  26
ENDBRANCH  24  25
ENDBRANCH   1  24
TORSDOF 19
ENDMDL
MODEL 3
REMARK VINA RESULT:      -9.4      4.161      9.289
REMARK SMILES COC(=O)[C@@H]1CCN(C(=O)NC(=O)COCC(=O)NCCCCCCNC(=O)c2ccc(-c3c4nc(c(-c5ccccc5)c5ccc([nH]5)c(-c5ccccc5)c5nc(c(-c6ccccc6)c6ccc3[nH]6)C=C5)C=C4)cc2)C1
REMARK SMILES IDX 20 1 19 2 17 3 18 4 16 6 15 7 14 8 12 9 9 10 10 11 11 12
REMARK SMILES IDX 13 14 8 15 5 16 6 17 77 18 7 19 3 20 4 21 2 22 1 23 21 24
REMARK SMILES IDX 22 25 23 26 24 27 25 28 26 29 27 30 28 32 29 33 30 34 76 35
REMARK SMILES IDX 31 36 75 37 32 38 33 39 34 40 69 41 35 42 74 43 68 44 70 45
REMARK SMILES IDX 36 46 73 47 67 48 66 49 37 51 59 52 44 53 58 54 45 55 48 56
REMARK SMILES IDX 57 57 71 58 46 59 47 60 56 62 72 63 49 64 38 65 39 66 43 67
REMARK SMILES IDX 40 68 42 69 41 70 60 71 61 72 65 73 62 74 64 75 63 76 50 77
REMARK SMILES IDX 51 78 55 79 52 80 54 81 53 82
REMARK H PARENT 19 5 11 13 26 31 70 50 48 61
REMARK Flexibility Score: inf
ROOT
ATOM      1  C   UNL A   1      37.948  22.879  26.047  1.00  0.00     0.116 C 
ENDROOT
BRANCH   1   2
ATOM      2  N   UNL A   1      37.630  23.001  24.634  1.00  0.00    -0.354 N 
ATOM      3  C   UNL A   1      36.406  22.975  24.028  1.00  0.00     0.246 C 
ATOM      4  O   UNL A   1      36.341  23.076  22.804  1.00  0.00    -0.272 OA
ATOM      5  H   UNL A   1      38.401  23.117  24.034  1.00  0.00     0.163 HD
BRANCH   3   6
ATOM      6  C   UNL A   1      35.154  22.829  24.891  1.00  0.00     0.260 C 
BRANCH   6   7
ATOM      7  O   UNL A   1      34.245  23.899  24.694  1.00  0.00    -0.362 OA
BRANCH   7   8
ATOM      8  C   UNL A   1      32.952  23.486  24.305  1.00  0.00     0.261 C 
BRANCH   8   9
ATOM      9  C   UNL A   1      32.846  23.208  22.821  1.00  0.00     0.254 C 
ATOM     10  C   UNL A   1      32.649  25.583  21.711  1.00  0.00     0.324 C 
ATOM     11  O   UNL A   1      33.052  25.986  20.612  1.00  0.00    -0.248 OA
ATOM     12  N   UNL A   1      32.690  24.222  21.888  1.00  0.00    -0.276 N 
ATOM     13  H   UNL A   1      32.556  23.801  21.007  1.00  0.00     0.174 HD
ATOM     14  O   UNL A   1      32.908  22.047  22.400  1.00  0.00    -0.272 OA
BRANCH  10  15
ATOM     15  N   UNL A   1      32.148  26.454  22.624  1.00  0.00    -0.324 N 
ATOM     16  C   UNL A   1      30.423  27.585  23.839  1.00  0.00     0.120 C 
ATOM     17  C   UNL A   1      31.659  27.416  24.721  1.00  0.00     0.039 C 
ATOM     18  C   UNL A   1      30.697  26.628  22.684  1.00  0.00     0.136 C 
ATOM     19  C   UNL A   1      32.775  27.170  23.714  1.00  0.00     0.122 C 
BRANCH  16  20
ATOM     20  C   UNL A   1      30.232  29.014  23.366  1.00  0.00     0.310 C 
ATOM     21  O   UNL A   1      30.520  30.020  23.994  1.00  0.00    -0.252 OA
BRANCH  20  22
ATOM     22  O   UNL A   1      29.729  29.017  22.095  1.00  0.00    -0.469 OA
ATOM     23  C   UNL A   1      28.478  29.697  21.969  1.00  0.00     0.282 C 
ENDBRANCH  20  22
ENDBRANCH  16  20
ENDBRANCH  10  15
ENDBRANCH   8   9
ENDBRANCH   7   8
ENDBRANCH   6   7
ENDBRANCH   3   6
ENDBRANCH   1   2
BRANCH   1  24
ATOM     24  C   UNL A   1      38.698  24.106  26.569  1.00  0.00     0.021 C 
BRANCH  24  25
ATOM     25  C   UNL A   1      40.198  23.887  26.810  1.00  0.00     0.002 C 
BRANCH  25  26
ATOM     26  C   UNL A   1      40.545  22.945  27.967  1.00  0.00     0.002 C 
BRANCH  26  27
ATOM     27  C   UNL A   1      41.091  21.579  27.546  1.00  0.00     0.021 C 
BRANCH  27  28
ATOM     28  C   UNL A   1      41.290  21.410  26.044  1.00  0.00     0.116 C 
BRANCH  28  29
ATOM     29  N   UNL A   1      42.608  20.891  25.717  1.00  0.00    -0.352 N 
ATOM     30  C   UNL A   1      43.820  21.536  25.684  1.00  0.00     0.251 C 
ATOM     31  H   UNL A   1      42.637  19.935  25.486  1.00  0.00     0.163 HD
ATOM     32  O   UNL A   1      44.801  20.980  25.200  1.00  0.00    -0.269 OA
BRANCH  30  33
ATOM     33  C   UNL A   1      43.941  22.911  26.212  1.00  0.00     0.039 A 
ATOM     34  C   UNL A   1      43.706  23.987  25.353  1.00  0.00     0.014 A 
ATOM     35  C   UNL A   1      44.294  23.141  27.545  1.00  0.00     0.014 A 
ATOM     36  C   UNL A   1      43.763  25.293  25.846  1.00  0.00     0.010 A 
ATOM     37  C   UNL A   1      44.274  24.438  28.053  1.00  0.00     0.010 A 
ATOM     38  C   UNL A   1      44.012  25.528  27.209  1.00  0.00    -0.014 A 
BRANCH  38  39
ATOM     39  C   UNL A   1      43.990  26.904  27.767  1.00  0.00     0.031 A 
ATOM     40  C   UNL A   1      42.686  27.552  28.142  1.00  0.00     0.074 A 
ATOM     41  C   UNL A   1      45.143  27.595  27.879  1.00  0.00     0.049 A 
ATOM     42  N   UNL A   1      42.466  28.763  28.591  1.00  0.00    -0.248 NA
ATOM     43  C   UNL A   1      41.465  26.748  27.970  1.00  0.00     0.031 C 
ATOM     44  C   UNL A   1      46.470  27.096  27.512  1.00  0.00     0.029 A 
ATOM     45  N   UNL A   1      45.382  28.870  28.327  1.00  0.00    -0.354 N 
ATOM     46  C   UNL A   1      41.088  28.869  28.735  1.00  0.00     0.074 A 
ATOM     47  C   UNL A   1      40.517  27.619  28.284  1.00  0.00     0.031 C 
ATOM     48  C   UNL A   1      47.385  28.044  27.772  1.00  0.00     0.029 A 
ATOM     49  C   UNL A   1      46.707  29.233  28.280  1.00  0.00     0.049 A 
ATOM     50  H   UNL A   1      44.671  29.468  28.652  1.00  0.00     0.167 HD
ATOM     51  C   UNL A   1      40.364  29.908  29.215  1.00  0.00     0.031 A 
ATOM     52  C   UNL A   1      47.310  30.395  28.597  1.00  0.00     0.031 A 
ATOM     53  C   UNL A   1      40.932  31.145  29.679  1.00  0.00     0.049 A 
ATOM     54  C   UNL A   1      46.477  31.536  29.114  1.00  0.00     0.074 A 
ATOM     55  C   UNL A   1      40.283  32.229  30.246  1.00  0.00     0.029 A 
ATOM     56  N   UNL A   1      42.278  31.467  29.624  1.00  0.00    -0.354 N 
ATOM     57  N   UNL A   1      45.183  31.588  29.320  1.00  0.00    -0.248 NA
ATOM     58  C   UNL A   1      47.191  32.775  29.455  1.00  0.00     0.031 C 
ATOM     59  C   UNL A   1      41.229  33.234  30.473  1.00  0.00     0.029 A 
ATOM     60  C   UNL A   1      42.475  32.748  30.115  1.00  0.00     0.049 A 
ATOM     61  H   UNL A   1      42.988  30.875  29.286  1.00  0.00     0.167 HD
ATOM     62  C   UNL A   1      44.935  32.851  29.844  1.00  0.00     0.074 A 
ATOM     63  C   UNL A   1      46.213  33.524  29.942  1.00  0.00     0.031 C 
ATOM     64  C   UNL A   1      43.753  33.405  30.210  1.00  0.00     0.031 A 
BRANCH  51  65
ATOM     65  C   UNL A   1      38.868  29.759  29.258  1.00  0.00    -0.014 A 
ATOM     66  C   UNL A   1      38.198  29.433  30.448  1.00  0.00     0.009 A 
ATOM     67  C   UNL A   1      38.110  30.021  28.104  1.00  0.00     0.009 A 
ATOM     68  C   UNL A   1      36.805  29.344  30.474  1.00  0.00     0.001 A 
ATOM     69  C   UNL A   1      36.717  29.960  28.141  1.00  0.00     0.001 A 
ATOM     70  C   UNL A   1      36.065  29.615  29.323  1.00  0.00     0.000 A 
ENDBRANCH  51  65
BRANCH  52  71
ATOM     71  C   UNL A   1      48.780  30.550  28.426  1.00  0.00    -0.014 A 
ATOM     72  C   UNL A   1      49.322  30.943  27.192  1.00  0.00     0.009 A 
ATOM     73  C   UNL A   1      49.653  30.271  29.489  1.00  0.00     0.009 A 
ATOM     74  C   UNL A   1      50.706  31.014  27.015  1.00  0.00     0.001 A 
ATOM     75  C   UNL A   1      51.035  30.378  29.321  1.00  0.00     0.001 A 
ATOM     76  C   UNL A   1      51.561  30.735  28.080  1.00  0.00     0.000 A 
ENDBRANCH  52  71
BRANCH  64  77
ATOM     77  C   UNL A   1      43.790  34.791  30.792  1.00  0.00    -0.014 A 
ATOM     78  C   UNL A   1      43.928  35.003  32.172  1.00  0.00     0.009 A 
ATOM     79  C   UNL A   1      43.731  35.902  29.936  1.00  0.00     0.009 A 
ATOM     80  C   UNL A   1      43.965  36.302  32.687  1.00  0.00     0.001 A 
ATOM     81  C   UNL A   1      43.802  37.198  30.449  1.00  0.00     0.001 A 
ATOM     82  C   UNL A   1      43.909  37.396  31.825  1.00  0.00     0.000 A 
ENDBRANCH  64  77
ENDBRANCH  38  39
ENDBRANCH  30  33
ENDBRANCH  28  29
ENDBRANCH  27  28
ENDBRANCH  26  27
ENDBRANCH  25  26
ENDBRANCH  24  25
ENDBRANCH   1  24
TORSDOF 19
ENDMDL
