MODEL 1
REMARK VINA RESULT:     -10.2      0.000      0.000
REMARK SMILES CCCCCCNC(=O)Nc1cccc(-c2ccc([C@@H](C)C(=O)NCCCCCCNC(=O)c3ccc(-c4c5nc(c(-c6ccccc6)c6ccc([nH]6)c(-c6ccccc6)c6nc(c(-c7ccccc7)c7ccc4[nH]7)C=C6)C=C5)cc3)cc2F)c1
REMARK SMILES IDX 22 1 23 2 24 3 20 5 21 6 19 7 16 8 17 9 83 10 18 11 82 12
REMARK SMILES IDX 84 13 15 14 11 15 12 16 85 17 13 18 14 19 10 20 7 21 8 22
REMARK SMILES IDX 9 24 6 26 5 27 4 28 3 29 2 30 1 31 25 32 26 33 27 34 28 35
REMARK SMILES IDX 29 36 30 37 31 38 32 39 33 41 34 42 35 43 81 44 36 45 80 46
REMARK SMILES IDX 37 47 38 48 39 49 74 50 40 51 79 52 73 53 75 54 41 55 78 56
REMARK SMILES IDX 72 57 71 58 42 60 64 61 49 62 63 63 50 64 53 65 62 66 76 67
REMARK SMILES IDX 51 68 52 69 61 71 77 72 54 73 43 74 44 75 48 76 45 77 47 78
REMARK SMILES IDX 46 79 65 80 66 81 70 82 67 83 69 84 68 85 55 86 56 87 60 88
REMARK SMILES IDX 57 89 59 90 58 91
REMARK H PARENT 24 4 7 23 10 25 31 40 75 59 53 70
REMARK Flexibility Score: inf
ROOT
ATOM      1  C   UNL A   1      36.615  22.650  23.920  1.00  0.00     0.227 C 
ATOM      2  O   UNL A   1      36.740  22.634  22.689  1.00  0.00    -0.274 OA
ATOM      3  N   UNL A   1      37.768  22.677  24.639  1.00  0.00    -0.356 N 
ATOM      4  H   UNL A   1      38.578  22.814  24.097  1.00  0.00     0.163 HD
ENDROOT
BRANCH   1   5
ATOM      5  C   UNL A   1      35.213  22.659  24.545  1.00  0.00     0.105 C 
ATOM      6  C   UNL A   1      34.252  21.621  23.966  1.00  0.00     0.023 C 
BRANCH   5   7
ATOM      7  C   UNL A   1      34.618  24.046  24.747  1.00  0.00    -0.033 A 
ATOM      8  C   UNL A   1      33.463  26.655  25.034  1.00  0.00     0.018 A 
ATOM      9  C   UNL A   1      33.695  25.824  26.140  1.00  0.00     0.012 A 
ATOM     10  C   UNL A   1      33.842  26.147  23.783  1.00  0.00     0.131 A 
ATOM     11  C   UNL A   1      34.288  24.562  26.003  1.00  0.00     0.005 A 
ATOM     12  C   UNL A   1      34.389  24.868  23.635  1.00  0.00     0.044 A 
ATOM     13  F   UNL A   1      33.689  26.886  22.674  1.00  0.00    -0.206 F 
BRANCH   8  14
ATOM     14  C   UNL A   1      32.794  27.964  25.206  1.00  0.00    -0.013 A 
ATOM     15  C   UNL A   1      31.316  29.706  24.330  1.00  0.00     0.043 A 
ATOM     16  C   UNL A   1      31.309  30.352  25.563  1.00  0.00     0.026 A 
ATOM     17  C   UNL A   1      32.112  28.571  24.139  1.00  0.00     0.035 A 
ATOM     18  C   UNL A   1      32.001  29.789  26.632  1.00  0.00     0.003 A 
ATOM     19  C   UNL A   1      32.721  28.603  26.458  1.00  0.00     0.009 A 
BRANCH  15  20
ATOM     20  N   UNL A   1      30.458  30.184  23.328  1.00  0.00    -0.308 N 
ATOM     21  N   UNL A   1      29.275  28.252  22.641  1.00  0.00    -0.338 N 
ATOM     22  C   UNL A   1      29.736  29.505  22.402  1.00  0.00     0.319 C 
ATOM     23  H   UNL A   1      28.956  27.772  21.843  1.00  0.00     0.165 HD
ATOM     24  O   UNL A   1      29.402  30.065  21.357  1.00  0.00    -0.249 OA
ATOM     25  H   UNL A   1      30.366  31.164  23.291  1.00  0.00     0.171 HD
BRANCH  21  26
ATOM     26  C   UNL A   1      29.174  27.502  23.885  1.00  0.00     0.117 C 
BRANCH  26  27
ATOM     27  C   UNL A   1      29.301  25.995  23.697  1.00  0.00     0.021 C 
BRANCH  27  28
ATOM     28  C   UNL A   1      30.148  25.278  24.748  1.00  0.00     0.002 C 
BRANCH  28  29
ATOM     29  C   UNL A   1      30.890  24.028  24.262  1.00  0.00    -0.000 C 
BRANCH  29  30
ATOM     30  C   UNL A   1      30.976  22.873  25.265  1.00  0.00    -0.003 C 
ATOM     31  C   UNL A   1      30.868  23.324  26.713  1.00  0.00     0.004 C 
ENDBRANCH  29  30
ENDBRANCH  28  29
ENDBRANCH  27  28
ENDBRANCH  26  27
ENDBRANCH  21  26
ENDBRANCH  15  20
ENDBRANCH   8  14
ENDBRANCH   5   7
ENDBRANCH   1   5
BRANCH   3  32
ATOM     32  C   UNL A   1      38.023  22.542  26.056  1.00  0.00     0.116 C 
BRANCH  32  33
ATOM     33  C   UNL A   1      38.841  23.723  26.580  1.00  0.00     0.021 C 
BRANCH  33  34
ATOM     34  C   UNL A   1      40.330  23.403  26.733  1.00  0.00     0.002 C 
BRANCH  34  35
ATOM     35  C   UNL A   1      40.675  22.462  27.892  1.00  0.00     0.002 C 
BRANCH  35  36
ATOM     36  C   UNL A   1      41.230  21.097  27.476  1.00  0.00     0.021 C 
BRANCH  36  37
ATOM     37  C   UNL A   1      41.364  20.897  25.969  1.00  0.00     0.116 C 
BRANCH  37  38
ATOM     38  N   UNL A   1      42.691  20.425  25.602  1.00  0.00    -0.352 N 
ATOM     39  C   UNL A   1      43.859  21.130  25.456  1.00  0.00     0.251 C 
ATOM     40  H   UNL A   1      42.760  19.457  25.434  1.00  0.00     0.163 HD
ATOM     41  O   UNL A   1      44.828  20.617  24.908  1.00  0.00    -0.269 OA
BRANCH  39  42
ATOM     42  C   UNL A   1      43.944  22.518  25.954  1.00  0.00     0.039 A 
ATOM     43  C   UNL A   1      43.673  23.572  25.079  1.00  0.00     0.014 A 
ATOM     44  C   UNL A   1      44.312  22.777  27.278  1.00  0.00     0.014 A 
ATOM     45  C   UNL A   1      43.714  24.887  25.549  1.00  0.00     0.010 A 
ATOM     46  C   UNL A   1      44.281  24.081  27.761  1.00  0.00     0.010 A 
ATOM     47  C   UNL A   1      43.988  25.150  26.901  1.00  0.00    -0.014 A 
BRANCH  47  48
ATOM     48  C   UNL A   1      43.974  26.535  27.434  1.00  0.00     0.031 A 
ATOM     49  C   UNL A   1      45.266  27.280  27.636  1.00  0.00     0.074 A 
ATOM     50  C   UNL A   1      42.806  27.100  27.795  1.00  0.00     0.049 A 
ATOM     51  N   UNL A   1      45.461  28.469  28.147  1.00  0.00    -0.248 NA
ATOM     52  C   UNL A   1      46.501  26.589  27.236  1.00  0.00     0.031 C 
ATOM     53  C   UNL A   1      41.489  26.470  27.682  1.00  0.00     0.029 A 
ATOM     54  N   UNL A   1      42.540  28.332  28.338  1.00  0.00    -0.354 N 
ATOM     55  C   UNL A   1      46.837  28.660  28.143  1.00  0.00     0.074 A 
ATOM     56  C   UNL A   1      47.432  27.446  27.629  1.00  0.00     0.031 C 
ATOM     57  C   UNL A   1      40.552  27.330  28.116  1.00  0.00     0.029 A 
ATOM     58  C   UNL A   1      41.204  28.550  28.577  1.00  0.00     0.049 A 
ATOM     59  H   UNL A   1      43.238  28.995  28.538  1.00  0.00     0.167 HD
ATOM     60  C   UNL A   1      47.543  29.755  28.516  1.00  0.00     0.031 A 
ATOM     61  C   UNL A   1      40.575  29.612  29.115  1.00  0.00     0.031 A 
ATOM     62  C   UNL A   1      46.952  30.965  29.020  1.00  0.00     0.049 A 
ATOM     63  C   UNL A   1      41.384  30.806  29.542  1.00  0.00     0.074 A 
ATOM     64  C   UNL A   1      47.578  32.148  29.375  1.00  0.00     0.029 A 
ATOM     65  N   UNL A   1      45.596  31.147  29.244  1.00  0.00    -0.354 N 
ATOM     66  N   UNL A   1      42.679  30.995  29.470  1.00  0.00    -0.248 NA
ATOM     67  C   UNL A   1      40.641  31.936  30.115  1.00  0.00     0.031 C 
ATOM     68  C   UNL A   1      46.606  33.026  29.867  1.00  0.00     0.029 A 
ATOM     69  C   UNL A   1      45.368  32.413  29.758  1.00  0.00     0.049 A 
ATOM     70  H   UNL A   1      44.898  30.476  29.064  1.00  0.00     0.167 HD
ATOM     71  C   UNL A   1      42.902  32.277  29.957  1.00  0.00     0.074 A 
ATOM     72  C   UNL A   1      41.607  32.823  30.308  1.00  0.00     0.031 C 
ATOM     73  C   UNL A   1      44.074  32.942  30.102  1.00  0.00     0.031 A 
BRANCH  60  74
ATOM     74  C   UNL A   1      49.041  29.687  28.399  1.00  0.00    -0.014 A 
ATOM     75  C   UNL A   1      49.701  30.099  27.230  1.00  0.00     0.009 A 
ATOM     76  C   UNL A   1      49.806  29.240  29.488  1.00  0.00     0.009 A 
ATOM     77  C   UNL A   1      51.093  30.029  27.141  1.00  0.00     0.001 A 
ATOM     78  C   UNL A   1      51.200  29.201  29.407  1.00  0.00     0.001 A 
ATOM     79  C   UNL A   1      51.841  29.585  28.230  1.00  0.00     0.000 A 
ENDBRANCH  60  74
BRANCH  61  80
ATOM     80  C   UNL A   1      39.096  29.604  29.272  1.00  0.00    -0.014 A 
ATOM     81  C   UNL A   1      38.511  29.212  30.486  1.00  0.00     0.009 A 
ATOM     82  C   UNL A   1      38.261  29.978  28.208  1.00  0.00     0.009 A 
ATOM     83  C   UNL A   1      37.122  29.162  30.619  1.00  0.00     0.001 A 
ATOM     84  C   UNL A   1      36.873  29.957  28.353  1.00  0.00     0.001 A 
ATOM     85  C   UNL A   1      36.305  29.539  29.555  1.00  0.00     0.000 A 
ENDBRANCH  61  80
BRANCH  73  86
ATOM     86  C   UNL A   1      44.006  34.351  30.623  1.00  0.00    -0.014 A 
ATOM     87  C   UNL A   1      44.114  34.630  31.994  1.00  0.00     0.009 A 
ATOM     88  C   UNL A   1      43.875  35.418  29.720  1.00  0.00     0.009 A 
ATOM     89  C   UNL A   1      44.057  35.947  32.452  1.00  0.00     0.001 A 
ATOM     90  C   UNL A   1      43.849  36.735  30.178  1.00  0.00     0.001 A 
ATOM     91  C   UNL A   1      43.931  36.998  31.544  1.00  0.00     0.000 A 
ENDBRANCH  73  86
ENDBRANCH  47  48
ENDBRANCH  39  42
ENDBRANCH  37  38
ENDBRANCH  36  37
ENDBRANCH  35  36
ENDBRANCH  34  35
ENDBRANCH  33  34
ENDBRANCH  32  33
ENDBRANCH   3  32
TORSDOF 21
ENDMDL
MODEL 2
REMARK VINA RESULT:     -10.0      0.551      5.592
REMARK SMILES CCCCCCNC(=O)Nc1cccc(-c2ccc([C@@H](C)C(=O)NCCCCCCNC(=O)c3ccc(-c4c5nc(c(-c6ccccc6)c6ccc([nH]6)c(-c6ccccc6)c6nc(c(-c7ccccc7)c7ccc4[nH]7)C=C6)C=C5)cc3)cc2F)c1
REMARK SMILES IDX 22 1 23 2 24 3 20 5 21 6 19 7 16 8 17 9 83 10 18 11 82 12
REMARK SMILES IDX 84 13 15 14 11 15 12 16 85 17 13 18 14 19 10 20 7 21 8 22
REMARK SMILES IDX 9 24 6 26 5 27 4 28 3 29 2 30 1 31 25 32 26 33 27 34 28 35
REMARK SMILES IDX 29 36 30 37 31 38 32 39 33 41 34 42 35 43 81 44 36 45 80 46
REMARK SMILES IDX 37 47 38 48 39 49 74 50 40 51 79 52 73 53 75 54 41 55 78 56
REMARK SMILES IDX 72 57 71 58 42 60 64 61 49 62 63 63 50 64 53 65 62 66 76 67
REMARK SMILES IDX 51 68 52 69 61 71 77 72 54 73 43 74 44 75 48 76 45 77 47 78
REMARK SMILES IDX 46 79 65 80 66 81 70 82 67 83 69 84 68 85 55 86 56 87 60 88
REMARK SMILES IDX 57 89 59 90 58 91
REMARK H PARENT 24 4 7 23 10 25 31 40 75 59 53 70
REMARK Flexibility Score: inf
ROOT
ATOM      1  C   UNL A   1      36.452  22.873  23.667  1.00  0.00     0.227 C 
ATOM      2  O   UNL A   1      36.607  22.958  22.442  1.00  0.00    -0.274 OA
ATOM      3  N   UNL A   1      37.588  22.804  24.411  1.00  0.00    -0.356 N 
ATOM      4  H   UNL A   1      38.414  22.962  23.900  1.00  0.00     0.163 HD
ENDROOT
BRANCH   1   5
ATOM      5  C   UNL A   1      35.036  22.870  24.260  1.00  0.00     0.105 C 
ATOM      6  C   UNL A   1      34.092  21.836  23.648  1.00  0.00     0.023 C 
BRANCH   5   7
ATOM      7  C   UNL A   1      34.432  24.253  24.462  1.00  0.00    -0.033 A 
ATOM      8  C   UNL A   1      33.248  26.848  24.756  1.00  0.00     0.018 A 
ATOM      9  C   UNL A   1      33.626  26.078  25.866  1.00  0.00     0.012 A 
ATOM     10  C   UNL A   1      33.497  26.286  23.495  1.00  0.00     0.131 A 
ATOM     11  C   UNL A   1      34.232  24.824  25.722  1.00  0.00     0.005 A 
ATOM     12  C   UNL A   1      34.056  25.013  23.346  1.00  0.00     0.044 A 
ATOM     13  F   UNL A   1      33.200  26.966  22.377  1.00  0.00    -0.206 F 
BRANCH   8  14
ATOM     14  C   UNL A   1      32.569  28.150  24.941  1.00  0.00    -0.013 A 
ATOM     15  C   UNL A   1      31.082  29.892  24.080  1.00  0.00     0.043 A 
ATOM     16  C   UNL A   1      31.065  30.522  25.322  1.00  0.00     0.026 A 
ATOM     17  C   UNL A   1      31.887  28.765  23.879  1.00  0.00     0.035 A 
ATOM     18  C   UNL A   1      31.756  29.952  26.387  1.00  0.00     0.003 A 
ATOM     19  C   UNL A   1      32.485  28.772  26.201  1.00  0.00     0.009 A 
BRANCH  15  20
ATOM     20  N   UNL A   1      30.225  30.376  23.081  1.00  0.00    -0.308 N 
ATOM     21  N   UNL A   1      28.858  28.513  22.569  1.00  0.00    -0.338 N 
ATOM     22  C   UNL A   1      29.411  29.704  22.230  1.00  0.00     0.319 C 
ATOM     23  H   UNL A   1      28.467  28.011  21.818  1.00  0.00     0.165 HD
ATOM     24  O   UNL A   1      29.081  30.222  21.162  1.00  0.00    -0.249 OA
ATOM     25  H   UNL A   1      30.213  31.356  22.981  1.00  0.00     0.171 HD
BRANCH  21  26
ATOM     26  C   UNL A   1      28.748  27.856  23.864  1.00  0.00     0.117 C 
BRANCH  26  27
ATOM     27  C   UNL A   1      28.796  26.335  23.779  1.00  0.00     0.021 C 
BRANCH  27  28
ATOM     28  C   UNL A   1      29.853  25.668  24.658  1.00  0.00     0.002 C 
BRANCH  28  29
ATOM     29  C   UNL A   1      30.527  24.428  24.060  1.00  0.00    -0.000 C 
BRANCH  29  30
ATOM     30  C   UNL A   1      30.896  23.325  25.057  1.00  0.00    -0.003 C 
ATOM     31  C   UNL A   1      30.741  23.748  26.509  1.00  0.00     0.004 C 
ENDBRANCH  29  30
ENDBRANCH  28  29
ENDBRANCH  27  28
ENDBRANCH  26  27
ENDBRANCH  21  26
ENDBRANCH  15  20
ENDBRANCH   8  14
ENDBRANCH   5   7
ENDBRANCH   1   5
BRANCH   3  32
ATOM     32  C   UNL A   1      37.804  22.541  25.816  1.00  0.00     0.116 C 
BRANCH  32  33
ATOM     33  C   UNL A   1      38.265  23.804  26.544  1.00  0.00     0.021 C 
BRANCH  33  34
ATOM     34  C   UNL A   1      39.787  23.966  26.563  1.00  0.00     0.002 C 
BRANCH  34  35
ATOM     35  C   UNL A   1      40.506  23.216  27.689  1.00  0.00     0.002 C 
BRANCH  35  36
ATOM     36  C   UNL A   1      40.879  21.766  27.367  1.00  0.00     0.021 C 
BRANCH  36  37
ATOM     37  C   UNL A   1      41.198  21.501  25.898  1.00  0.00     0.116 C 
BRANCH  37  38
ATOM     38  N   UNL A   1      42.525  20.931  25.726  1.00  0.00    -0.352 N 
ATOM     39  C   UNL A   1      43.751  21.547  25.764  1.00  0.00     0.251 C 
ATOM     40  H   UNL A   1      42.546  19.962  25.558  1.00  0.00     0.163 HD
ATOM     41  O   UNL A   1      44.750  20.963  25.360  1.00  0.00    -0.269 OA
BRANCH  39  42
ATOM     42  C   UNL A   1      43.864  22.924  26.287  1.00  0.00     0.039 A 
ATOM     43  C   UNL A   1      43.606  23.999  25.432  1.00  0.00     0.014 A 
ATOM     44  C   UNL A   1      44.243  23.153  27.613  1.00  0.00     0.014 A 
ATOM     45  C   UNL A   1      43.674  25.304  25.925  1.00  0.00     0.010 A 
ATOM     46  C   UNL A   1      44.239  24.448  28.120  1.00  0.00     0.010 A 
ATOM     47  C   UNL A   1      43.959  25.537  27.280  1.00  0.00    -0.014 A 
BRANCH  47  48
ATOM     48  C   UNL A   1      43.974  26.913  27.838  1.00  0.00     0.031 A 
ATOM     49  C   UNL A   1      42.685  27.584  28.230  1.00  0.00     0.074 A 
ATOM     50  C   UNL A   1      45.140  27.581  27.934  1.00  0.00     0.049 A 
ATOM     51  N   UNL A   1      42.491  28.799  28.675  1.00  0.00    -0.248 NA
ATOM     52  C   UNL A   1      41.453  26.795  28.079  1.00  0.00     0.031 C 
ATOM     53  C   UNL A   1      46.453  27.056  27.555  1.00  0.00     0.029 A 
ATOM     54  N   UNL A   1      45.406  28.853  28.374  1.00  0.00    -0.354 N 
ATOM     55  C   UNL A   1      41.117  28.924  28.841  1.00  0.00     0.074 A 
ATOM     56  C   UNL A   1      40.522  27.682  28.400  1.00  0.00     0.031 C 
ATOM     57  C   UNL A   1      47.388  27.987  27.804  1.00  0.00     0.029 A 
ATOM     58  C   UNL A   1      46.738  29.188  28.317  1.00  0.00     0.049 A 
ATOM     59  H   UNL A   1      44.709  29.469  28.698  1.00  0.00     0.167 HD
ATOM     60  C   UNL A   1      40.413  29.972  29.334  1.00  0.00     0.031 A 
ATOM     61  C   UNL A   1      47.364  30.336  28.637  1.00  0.00     0.031 A 
ATOM     62  C   UNL A   1      41.005  31.205  29.780  1.00  0.00     0.049 A 
ATOM     63  C   UNL A   1      46.558  31.492  29.160  1.00  0.00     0.074 A 
ATOM     64  C   UNL A   1      40.383  32.305  30.345  1.00  0.00     0.029 A 
ATOM     65  N   UNL A   1      42.358  31.502  29.710  1.00  0.00    -0.354 N 
ATOM     66  N   UNL A   1      45.266  31.570  29.372  1.00  0.00    -0.248 NA
ATOM     67  C   UNL A   1      47.299  32.715  29.497  1.00  0.00     0.031 C 
ATOM     68  C   UNL A   1      41.352  33.290  30.563  1.00  0.00     0.029 A 
ATOM     69  C   UNL A   1      42.585  32.779  30.194  1.00  0.00     0.049 A 
ATOM     70  H   UNL A   1      43.053  30.895  29.365  1.00  0.00     0.167 HD
ATOM     71  C   UNL A   1      45.046  32.836  29.898  1.00  0.00     0.074 A 
ATOM     72  C   UNL A   1      46.337  33.486  29.985  1.00  0.00     0.031 C 
ATOM     73  C   UNL A   1      43.877  33.411  30.275  1.00  0.00     0.031 A 
BRANCH  60  74
ATOM     74  C   UNL A   1      38.918  29.830  29.407  1.00  0.00    -0.014 A 
ATOM     75  C   UNL A   1      38.279  29.453  30.600  1.00  0.00     0.009 A 
ATOM     76  C   UNL A   1      38.133  30.114  28.279  1.00  0.00     0.009 A 
ATOM     77  C   UNL A   1      36.889  29.327  30.649  1.00  0.00     0.001 A 
ATOM     78  C   UNL A   1      36.741  30.018  28.340  1.00  0.00     0.001 A 
ATOM     79  C   UNL A   1      36.122  29.614  29.521  1.00  0.00     0.000 A 
ENDBRANCH  60  74
BRANCH  61  80
ATOM     80  C   UNL A   1      48.839  30.450  28.482  1.00  0.00    -0.014 A 
ATOM     81  C   UNL A   1      49.392  31.005  27.317  1.00  0.00     0.009 A 
ATOM     82  C   UNL A   1      49.702  29.995  29.491  1.00  0.00     0.009 A 
ATOM     83  C   UNL A   1      50.777  31.071  27.153  1.00  0.00     0.001 A 
ATOM     84  C   UNL A   1      51.086  30.092  29.339  1.00  0.00     0.001 A 
ATOM     85  C   UNL A   1      51.623  30.619  28.165  1.00  0.00     0.000 A 
ENDBRANCH  61  80
BRANCH  73  86
ATOM     86  C   UNL A   1      43.947  34.796  30.857  1.00  0.00    -0.014 A 
ATOM     87  C   UNL A   1      44.108  35.004  32.235  1.00  0.00     0.009 A 
ATOM     88  C   UNL A   1      43.892  35.909  30.003  1.00  0.00     0.009 A 
ATOM     89  C   UNL A   1      44.179  36.300  32.749  1.00  0.00     0.001 A 
ATOM     90  C   UNL A   1      43.994  37.202  30.516  1.00  0.00     0.001 A 
ATOM     91  C   UNL A   1      44.128  37.396  31.889  1.00  0.00     0.000 A 
ENDBRANCH  73  86
ENDBRANCH  47  48
ENDBRANCH  39  42
ENDBRANCH  37  38
ENDBRANCH  36  37
ENDBRANCH  35  36
ENDBRANCH  34  35
ENDBRANCH  33  34
ENDBRANCH  32  33
ENDBRANCH   3  32
TORSDOF 21
ENDMDL
MODEL 3
REMARK VINA RESULT:      -9.9      3.739      4.571
REMARK SMILES CCCCCCNC(=O)Nc1cccc(-c2ccc([C@@H](C)C(=O)NCCCCCCNC(=O)c3ccc(-c4c5nc(c(-c6ccccc6)c6ccc([nH]6)c(-c6ccccc6)c6nc(c(-c7ccccc7)c7ccc4[nH]7)C=C6)C=C5)cc3)cc2F)c1
REMARK SMILES IDX 22 1 23 2 24 3 20 5 21 6 19 7 16 8 17 9 83 10 18 11 82 12
REMARK SMILES IDX 84 13 15 14 11 15 12 16 85 17 13 18 14 19 10 20 7 21 8 22
REMARK SMILES IDX 9 24 6 26 5 27 4 28 3 29 2 30 1 31 25 32 26 33 27 34 28 35
REMARK SMILES IDX 29 36 30 37 31 38 32 39 33 41 34 42 35 43 81 44 36 45 80 46
REMARK SMILES IDX 37 47 38 48 39 49 74 50 40 51 79 52 73 53 75 54 41 55 78 56
REMARK SMILES IDX 72 57 71 58 42 60 64 61 49 62 63 63 50 64 53 65 62 66 76 67
REMARK SMILES IDX 51 68 52 69 61 71 77 72 54 73 43 74 44 75 48 76 45 77 47 78
REMARK SMILES IDX 46 79 65 80 66 81 70 82 67 83 69 84 68 85 55 86 56 87 60 88
REMARK SMILES IDX 57 89 59 90 58 91
REMARK H PARENT 24 4 7 23 10 25 31 40 75 59 53 70
REMARK Flexibility Score: inf
ROOT
ATOM      1  C   UNL A   1      36.564  22.717  24.017  1.00  0.00     0.227 C 
ATOM      2  O   UNL A   1      36.611  22.694  22.781  1.00  0.00    -0.274 OA
ATOM      3  N   UNL A   1      37.760  22.783  24.660  1.00  0.00    -0.356 N 
ATOM      4  H   UNL A   1      38.529  22.938  24.067  1.00  0.00     0.163 HD
ENDROOT
BRANCH   1   5
ATOM      5  C   UNL A   1      35.206  22.692  24.731  1.00  0.00     0.105 C 
ATOM      6  C   UNL A   1      34.248  21.608  24.238  1.00  0.00     0.023 C 
BRANCH   5   7
ATOM      7  C   UNL A   1      34.574  24.062  24.939  1.00  0.00    -0.033 A 
ATOM      8  C   UNL A   1      33.384  26.654  25.232  1.00  0.00     0.018 A 
ATOM      9  C   UNL A   1      33.222  25.653  26.201  1.00  0.00     0.012 A 
ATOM     10  C   UNL A   1      34.173  26.324  24.121  1.00  0.00     0.131 A 
ATOM     11  C   UNL A   1      33.829  24.397  26.072  1.00  0.00     0.005 A 
ATOM     12  C   UNL A   1      34.741  25.055  23.964  1.00  0.00     0.044 A 
ATOM     13  F   UNL A   1      34.411  27.232  23.162  1.00  0.00    -0.206 F 
BRANCH   8  14
ATOM     14  C   UNL A   1      32.693  27.956  25.375  1.00  0.00    -0.013 A 
ATOM     15  C   UNL A   1      31.277  29.706  24.417  1.00  0.00     0.043 A 
ATOM     16  C   UNL A   1      31.166  30.327  25.659  1.00  0.00     0.026 A 
ATOM     17  C   UNL A   1      32.094  28.580  24.269  1.00  0.00     0.035 A 
ATOM     18  C   UNL A   1      31.774  29.747  26.769  1.00  0.00     0.003 A 
ATOM     19  C   UNL A   1      32.515  28.569  26.630  1.00  0.00     0.009 A 
BRANCH  15  20
ATOM     20  N   UNL A   1      30.499  30.199  23.359  1.00  0.00    -0.308 N 
ATOM     21  N   UNL A   1      29.189  28.334  22.717  1.00  0.00    -0.338 N 
ATOM     22  C   UNL A   1      29.759  29.533  22.438  1.00  0.00     0.319 C 
ATOM     23  H   UNL A   1      28.863  27.840  21.930  1.00  0.00     0.165 HD
ATOM     24  O   UNL A   1      29.512  30.063  21.354  1.00  0.00    -0.249 OA
ATOM     25  H   UNL A   1      30.488  31.179  23.272  1.00  0.00     0.171 HD
BRANCH  21  26
ATOM     26  C   UNL A   1      28.981  27.659  23.990  1.00  0.00     0.117 C 
BRANCH  26  27
ATOM     27  C   UNL A   1      28.962  26.140  23.876  1.00  0.00     0.021 C 
BRANCH  27  28
ATOM     28  C   UNL A   1      30.299  25.451  24.148  1.00  0.00     0.002 C 
BRANCH  28  29
ATOM     29  C   UNL A   1      30.650  24.290  23.211  1.00  0.00    -0.000 C 
BRANCH  29  30
ATOM     30  C   UNL A   1      31.780  24.558  22.212  1.00  0.00    -0.003 C 
ATOM     31  C   UNL A   1      31.748  25.962  21.629  1.00  0.00     0.004 C 
ENDBRANCH  29  30
ENDBRANCH  28  29
ENDBRANCH  27  28
ENDBRANCH  26  27
ENDBRANCH  21  26
ENDBRANCH  15  20
ENDBRANCH   8  14
ENDBRANCH   5   7
ENDBRANCH   1   5
BRANCH   3  32
ATOM     32  C   UNL A   1      38.108  22.669  26.059  1.00  0.00     0.116 C 
BRANCH  32  33
ATOM     33  C   UNL A   1      38.955  23.858  26.511  1.00  0.00     0.021 C 
BRANCH  33  34
ATOM     34  C   UNL A   1      40.420  23.493  26.762  1.00  0.00     0.002 C 
BRANCH  34  35
ATOM     35  C   UNL A   1      40.691  21.999  26.971  1.00  0.00     0.002 C 
BRANCH  35  36
ATOM     36  C   UNL A   1      41.834  21.423  26.131  1.00  0.00     0.021 C 
BRANCH  36  37
ATOM     37  C   UNL A   1      42.654  22.464  25.373  1.00  0.00     0.116 C 
BRANCH  37  38
ATOM     38  N   UNL A   1      44.074  22.353  25.667  1.00  0.00    -0.352 N 
ATOM     39  C   UNL A   1      44.865  23.141  26.466  1.00  0.00     0.251 C 
ATOM     40  H   UNL A   1      44.536  21.602  25.230  1.00  0.00     0.163 HD
ATOM     41  O   UNL A   1      46.086  23.050  26.411  1.00  0.00    -0.269 OA
BRANCH  39  42
ATOM     42  C   UNL A   1      44.239  24.109  27.389  1.00  0.00     0.039 A 
ATOM     43  C   UNL A   1      43.570  23.635  28.521  1.00  0.00     0.014 A 
ATOM     44  C   UNL A   1      44.295  25.481  27.127  1.00  0.00     0.014 A 
ATOM     45  C   UNL A   1      43.005  24.543  29.420  1.00  0.00     0.010 A 
ATOM     46  C   UNL A   1      43.796  26.385  28.060  1.00  0.00     0.010 A 
ATOM     47  C   UNL A   1      43.142  25.925  29.213  1.00  0.00    -0.014 A 
BRANCH  47  48
ATOM     48  C   UNL A   1      42.605  26.906  30.188  1.00  0.00     0.031 A 
ATOM     49  C   UNL A   1      43.265  27.078  31.530  1.00  0.00     0.074 A 
ATOM     50  C   UNL A   1      41.487  27.598  29.893  1.00  0.00     0.049 A 
ATOM     51  N   UNL A   1      42.906  27.837  32.534  1.00  0.00    -0.248 NA
ATOM     52  C   UNL A   1      44.470  26.274  31.785  1.00  0.00     0.031 C 
ATOM     53  C   UNL A   1      40.733  27.496  28.642  1.00  0.00     0.029 A 
ATOM     54  N   UNL A   1      40.785  28.518  30.629  1.00  0.00    -0.354 N 
ATOM     55  C   UNL A   1      43.830  27.590  33.542  1.00  0.00     0.074 A 
ATOM     56  C   UNL A   1      44.733  26.574  33.049  1.00  0.00     0.031 C 
ATOM     57  C   UNL A   1      39.691  28.342  28.687  1.00  0.00     0.029 A 
ATOM     58  C   UNL A   1      39.677  29.011  29.983  1.00  0.00     0.049 A 
ATOM     59  H   UNL A   1      41.050  28.800  31.534  1.00  0.00     0.167 HD
ATOM     60  C   UNL A   1      43.930  28.170  34.762  1.00  0.00     0.031 A 
ATOM     61  C   UNL A   1      38.749  29.896  30.392  1.00  0.00     0.031 A 
ATOM     62  C   UNL A   1      43.037  29.186  35.250  1.00  0.00     0.049 A 
ATOM     63  C   UNL A   1      38.870  30.509  31.760  1.00  0.00     0.074 A 
ATOM     64  C   UNL A   1      43.086  29.873  36.451  1.00  0.00     0.029 A 
ATOM     65  N   UNL A   1      41.929  29.659  34.564  1.00  0.00    -0.354 N 
ATOM     66  N   UNL A   1      39.788  30.312  32.675  1.00  0.00    -0.248 NA
ATOM     67  C   UNL A   1      37.831  31.473  32.146  1.00  0.00     0.031 C 
ATOM     68  C   UNL A   1      41.976  30.722  36.515  1.00  0.00     0.029 A 
ATOM     69  C   UNL A   1      41.272  30.609  35.327  1.00  0.00     0.049 A 
ATOM     70  H   UNL A   1      41.651  29.363  33.667  1.00  0.00     0.167 HD
ATOM     71  C   UNL A   1      39.455  31.152  33.730  1.00  0.00     0.074 A 
ATOM     72  C   UNL A   1      38.260  31.869  33.336  1.00  0.00     0.031 C 
ATOM     73  C   UNL A   1      40.084  31.315  34.920  1.00  0.00     0.031 A 
BRANCH  60  74
ATOM     74  C   UNL A   1      45.045  27.709  35.659  1.00  0.00    -0.014 A 
ATOM     75  C   UNL A   1      46.291  28.358  35.668  1.00  0.00     0.009 A 
ATOM     76  C   UNL A   1      44.836  26.633  36.537  1.00  0.00     0.009 A 
ATOM     77  C   UNL A   1      47.314  27.915  36.509  1.00  0.00     0.001 A 
ATOM     78  C   UNL A   1      45.851  26.213  37.400  1.00  0.00     0.001 A 
ATOM     79  C   UNL A   1      47.092  26.847  37.377  1.00  0.00     0.000 A 
ENDBRANCH  60  74
BRANCH  61  80
ATOM     80  C   UNL A   1      37.625  30.270  29.492  1.00  0.00    -0.014 A 
ATOM     81  C   UNL A   1      36.573  29.371  29.256  1.00  0.00     0.009 A 
ATOM     82  C   UNL A   1      37.603  31.521  28.856  1.00  0.00     0.009 A 
ATOM     83  C   UNL A   1      35.540  29.705  28.377  1.00  0.00     0.001 A 
ATOM     84  C   UNL A   1      36.553  31.864  28.002  1.00  0.00     0.001 A 
ATOM     85  C   UNL A   1      35.529  30.952  27.754  1.00  0.00     0.000 A 
ENDBRANCH  61  80
BRANCH  73  86
ATOM     86  C   UNL A   1      39.515  32.337  35.865  1.00  0.00    -0.014 A 
ATOM     87  C   UNL A   1      38.448  32.029  36.721  1.00  0.00     0.009 A 
ATOM     88  C   UNL A   1      40.088  33.617  35.926  1.00  0.00     0.009 A 
ATOM     89  C   UNL A   1      37.944  32.994  37.595  1.00  0.00     0.001 A 
ATOM     90  C   UNL A   1      39.603  34.570  36.822  1.00  0.00     0.001 A 
ATOM     91  C   UNL A   1      38.525  34.260  37.649  1.00  0.00     0.000 A 
ENDBRANCH  73  86
ENDBRANCH  47  48
ENDBRANCH  39  42
ENDBRANCH  37  38
ENDBRANCH  36  37
ENDBRANCH  35  36
ENDBRANCH  34  35
ENDBRANCH  33  34
ENDBRANCH  32  33
ENDBRANCH   3  32
TORSDOF 21
ENDMDL
