MODEL 1
REMARK VINA RESULT:     -12.2      0.000      0.000
REMARK SMILES Cc1ccc(S(=O)(=O)n2cc(C(=O)C(=O)N[C@@H](Cc3cnc[nH]3)C(=O)NCCCCCCNC(=O)c3ccc(-c4c5nc(c(-c6ccccc6)c6ccc([nH]6)c(-c6ccccc6)c6nc(c(-c7ccccc7)c7ccc4[nH]7)C=C6)C=C5)cc3)c3ccccc32)cc1
REMARK SMILES IDX 28 1 27 2 26 3 24 4 25 5 17 7 16 8 14 9 15 10 12 12 13 13
REMARK SMILES IDX 11 14 9 15 10 16 89 17 84 18 88 19 85 20 87 21 86 22 6 23
REMARK SMILES IDX 7 24 8 25 5 26 1 27 2 28 3 29 91 30 4 31 90 32 18 33 19 34
REMARK SMILES IDX 20 35 23 36 21 37 22 38 29 40 30 41 31 42 32 43 33 44 34 45
REMARK SMILES IDX 35 47 36 48 37 49 83 50 38 51 82 52 39 53 40 54 41 55 76 56
REMARK SMILES IDX 42 57 81 58 75 59 77 60 43 61 80 62 74 63 73 64 44 66 66 67
REMARK SMILES IDX 51 68 65 69 52 70 55 71 64 72 78 73 53 74 54 75 63 77 79 78
REMARK SMILES IDX 56 79 45 80 46 81 50 82 47 83 49 84 48 85 67 86 68 87 72 88
REMARK SMILES IDX 69 89 71 90 70 91 57 92 58 93 62 94 59 95 61 96 60 97
REMARK H PARENT 26 6 16 11 23 39 33 46 77 65 55 76
REMARK Flexibility Score: inf
ROOT
ATOM      1  C   UNL A   1      33.187  30.916  27.004  1.00  0.00     0.021 C 
ENDROOT
BRANCH   1   2
ATOM      2  C   UNL A   1      32.072  29.896  27.181  1.00  0.00     0.116 C 
BRANCH   2   3
ATOM      3  N   UNL A   1      32.464  28.519  27.014  1.00  0.00    -0.354 N 
ATOM      4  C   UNL A   1      32.760  27.866  25.850  1.00  0.00     0.242 C 
ATOM      5  O   UNL A   1      33.572  26.938  25.932  1.00  0.00    -0.273 OA
ATOM      6  H   UNL A   1      32.528  27.984  27.838  1.00  0.00     0.163 HD
BRANCH   4   7
ATOM      7  C   UNL A   1      32.218  28.311  24.466  1.00  0.00     0.177 C 
BRANCH   7   8
ATOM      8  N   UNL A   1      33.149  28.061  23.356  1.00  0.00    -0.337 N 
ATOM      9  C   UNL A   1      33.237  27.019  22.459  1.00  0.00     0.293 C 
ATOM     10  O   UNL A   1      33.975  27.169  21.490  1.00  0.00    -0.265 OA
ATOM     11  H   UNL A   1      33.829  28.762  23.232  1.00  0.00     0.164 HD
BRANCH   9  12
ATOM     12  C   UNL A   1      32.478  25.687  22.675  1.00  0.00     0.252 C 
ATOM     13  O   UNL A   1      31.429  25.505  22.065  1.00  0.00    -0.283 OA
BRANCH  12  14
ATOM     14  C   UNL A   1      32.951  24.660  23.613  1.00  0.00     0.054 A 
ATOM     15  N   UNL A   1      34.184  23.135  24.682  1.00  0.00    -0.240 N 
ATOM     16  C   UNL A   1      34.144  23.960  23.586  1.00  0.00     0.117 A 
ATOM     17  C   UNL A   1      33.042  23.259  25.443  1.00  0.00     0.065 A 
ATOM     18  C   UNL A   1      32.235  24.187  24.772  1.00  0.00     0.012 A 
ATOM     19  C   UNL A   1      32.622  22.637  26.634  1.00  0.00     0.028 A 
ATOM     20  C   UNL A   1      30.962  24.482  25.310  1.00  0.00     0.011 A 
ATOM     21  C   UNL A   1      31.351  22.942  27.129  1.00  0.00     0.002 A 
ATOM     22  C   UNL A   1      30.529  23.850  26.477  1.00  0.00     0.001 A 
BRANCH  15  23
ATOM     23  S   UNL A   1      35.471  22.073  25.014  1.00  0.00     0.268 S 
ATOM     24  O   UNL A   1      35.734  22.227  26.428  1.00  0.00    -0.201 OA
ATOM     25  O   UNL A   1      36.483  22.349  24.006  1.00  0.00    -0.201 OA
BRANCH  23  26
ATOM     26  C   UNL A   1      34.906  20.415  24.742  1.00  0.00     0.088 A 
ATOM     27  C   UNL A   1      33.373  16.526  23.728  1.00  0.00     0.044 C 
ATOM     28  C   UNL A   1      33.907  17.877  24.108  1.00  0.00    -0.051 A 
ATOM     29  C   UNL A   1      33.077  19.001  24.028  1.00  0.00     0.005 A 
ATOM     30  C   UNL A   1      35.229  18.032  24.542  1.00  0.00     0.005 A 
ATOM     31  C   UNL A   1      33.573  20.267  24.339  1.00  0.00     0.022 A 
ATOM     32  C   UNL A   1      35.728  19.295  24.873  1.00  0.00     0.022 A 
ENDBRANCH  23  26
ENDBRANCH  15  23
ENDBRANCH  12  14
ENDBRANCH   9  12
ENDBRANCH   7   8
BRANCH   7  33
ATOM     33  C   UNL A   1      30.766  27.889  24.166  1.00  0.00     0.090 C 
BRANCH  33  34
ATOM     34  C   UNL A   1      29.990  28.754  23.234  1.00  0.00     0.037 A 
ATOM     35  C   UNL A   1      28.642  28.863  22.960  1.00  0.00     0.134 A 
ATOM     36  N   UNL A   1      30.588  29.645  22.373  1.00  0.00    -0.348 N 
ATOM     37  N   UNL A   1      28.410  29.867  22.055  1.00  0.00    -0.245 NA
ATOM     38  C   UNL A   1      29.597  30.302  21.703  1.00  0.00     0.196 A 
ATOM     39  H   UNL A   1      31.557  29.783  22.260  1.00  0.00     0.167 HD
ENDBRANCH  33  34
ENDBRANCH   7  33
ENDBRANCH   4   7
ENDBRANCH   2   3
ENDBRANCH   1   2
BRANCH   1  40
ATOM     40  C   UNL A   1      34.533  30.537  27.630  1.00  0.00     0.002 C 
BRANCH  40  41
ATOM     41  C   UNL A   1      35.580  31.655  27.762  1.00  0.00     0.002 C 
BRANCH  41  42
ATOM     42  C   UNL A   1      35.314  32.728  28.817  1.00  0.00     0.021 C 
BRANCH  42  43
ATOM     43  C   UNL A   1      34.998  32.198  30.202  1.00  0.00     0.116 C 
BRANCH  43  44
ATOM     44  N   UNL A   1      34.071  33.035  30.955  1.00  0.00    -0.352 N 
ATOM     45  C   UNL A   1      34.252  33.699  32.157  1.00  0.00     0.251 C 
ATOM     46  H   UNL A   1      33.183  33.145  30.547  1.00  0.00     0.163 HD
ATOM     47  O   UNL A   1      33.319  34.319  32.658  1.00  0.00    -0.269 OA
BRANCH  45  48
ATOM     48  C   UNL A   1      35.616  33.827  32.728  1.00  0.00     0.039 A 
ATOM     49  C   UNL A   1      36.518  34.586  31.972  1.00  0.00     0.014 A 
ATOM     50  C   UNL A   1      36.076  32.904  33.656  1.00  0.00     0.014 A 
ATOM     51  C   UNL A   1      37.827  34.148  31.861  1.00  0.00     0.010 A 
ATOM     52  C   UNL A   1      37.323  32.373  33.447  1.00  0.00     0.010 A 
ATOM     53  C   UNL A   1      38.155  32.951  32.489  1.00  0.00    -0.014 A 
BRANCH  53  54
ATOM     54  C   UNL A   1      39.371  32.217  32.230  1.00  0.00     0.031 A 
ATOM     55  C   UNL A   1      39.253  31.048  31.354  1.00  0.00     0.074 A 
ATOM     56  C   UNL A   1      40.535  32.687  32.726  1.00  0.00     0.049 A 
ATOM     57  N   UNL A   1      40.001  30.009  31.425  1.00  0.00    -0.248 NA
ATOM     58  C   UNL A   1      38.180  30.926  30.367  1.00  0.00     0.031 C 
ATOM     59  C   UNL A   1      41.899  32.289  32.403  1.00  0.00     0.029 A 
ATOM     60  N   UNL A   1      40.686  33.547  33.808  1.00  0.00    -0.354 N 
ATOM     61  C   UNL A   1      39.734  29.257  30.302  1.00  0.00     0.074 A 
ATOM     62  C   UNL A   1      38.505  29.781  29.765  1.00  0.00     0.031 C 
ATOM     63  C   UNL A   1      42.717  32.693  33.394  1.00  0.00     0.029 A 
ATOM     64  C   UNL A   1      41.884  33.230  34.462  1.00  0.00     0.049 A 
ATOM     65  H   UNL A   1      40.058  34.258  34.069  1.00  0.00     0.167 HD
ATOM     66  C   UNL A   1      40.694  28.408  29.846  1.00  0.00     0.031 A 
ATOM     67  C   UNL A   1      41.841  32.733  35.738  1.00  0.00     0.031 A 
ATOM     68  C   UNL A   1      41.848  28.428  30.743  1.00  0.00     0.049 A 
ATOM     69  C   UNL A   1      42.254  31.276  35.792  1.00  0.00     0.074 A 
ATOM     70  C   UNL A   1      43.017  29.170  30.710  1.00  0.00     0.029 A 
ATOM     71  N   UNL A   1      41.706  27.960  32.043  1.00  0.00    -0.354 N 
ATOM     72  N   UNL A   1      42.195  30.464  34.772  1.00  0.00    -0.248 NA
ATOM     73  C   UNL A   1      42.764  30.626  36.997  1.00  0.00     0.031 C 
ATOM     74  C   UNL A   1      43.523  29.233  32.036  1.00  0.00     0.029 A 
ATOM     75  C   UNL A   1      42.686  28.497  32.857  1.00  0.00     0.049 A 
ATOM     76  H   UNL A   1      41.006  27.336  32.343  1.00  0.00     0.167 HD
ATOM     77  C   UNL A   1      42.654  29.230  35.144  1.00  0.00     0.074 A 
ATOM     78  C   UNL A   1      42.998  29.380  36.547  1.00  0.00     0.031 C 
ATOM     79  C   UNL A   1      42.719  28.177  34.278  1.00  0.00     0.031 A 
BRANCH  66  80
ATOM     80  C   UNL A   1      40.737  27.844  28.449  1.00  0.00    -0.014 A 
ATOM     81  C   UNL A   1      40.301  26.521  28.242  1.00  0.00     0.009 A 
ATOM     82  C   UNL A   1      41.230  28.512  27.314  1.00  0.00     0.009 A 
ATOM     83  C   UNL A   1      40.406  25.885  27.000  1.00  0.00     0.001 A 
ATOM     84  C   UNL A   1      41.361  27.874  26.072  1.00  0.00     0.001 A 
ATOM     85  C   UNL A   1      40.953  26.557  25.916  1.00  0.00     0.000 A 
ENDBRANCH  66  80
BRANCH  67  86
ATOM     86  C   UNL A   1      40.730  33.331  36.544  1.00  0.00    -0.014 A 
ATOM     87  C   UNL A   1      39.568  32.553  36.733  1.00  0.00     0.009 A 
ATOM     88  C   UNL A   1      40.989  34.375  37.443  1.00  0.00     0.009 A 
ATOM     89  C   UNL A   1      38.798  32.689  37.893  1.00  0.00     0.001 A 
ATOM     90  C   UNL A   1      40.195  34.525  38.587  1.00  0.00     0.001 A 
ATOM     91  C   UNL A   1      39.140  33.648  38.841  1.00  0.00     0.000 A 
ENDBRANCH  67  86
BRANCH  79  92
ATOM     92  C   UNL A   1      42.906  26.739  34.685  1.00  0.00    -0.014 A 
ATOM     93  C   UNL A   1      44.147  26.089  34.695  1.00  0.00     0.009 A 
ATOM     94  C   UNL A   1      41.811  26.027  35.224  1.00  0.00     0.009 A 
ATOM     95  C   UNL A   1      44.272  24.770  35.148  1.00  0.00     0.001 A 
ATOM     96  C   UNL A   1      41.944  24.736  35.735  1.00  0.00     0.001 A 
ATOM     97  C   UNL A   1      43.174  24.098  35.674  1.00  0.00     0.000 A 
ENDBRANCH  79  92
ENDBRANCH  53  54
ENDBRANCH  45  48
ENDBRANCH  43  44
ENDBRANCH  42  43
ENDBRANCH  41  42
ENDBRANCH  40  41
ENDBRANCH   1  40
TORSDOF 20
ENDMDL
MODEL 2
REMARK VINA RESULT:     -12.1      2.789      5.299
REMARK SMILES Cc1ccc(S(=O)(=O)n2cc(C(=O)C(=O)N[C@@H](Cc3cnc[nH]3)C(=O)NCCCCCCNC(=O)c3ccc(-c4c5nc(c(-c6ccccc6)c6ccc([nH]6)c(-c6ccccc6)c6nc(c(-c7ccccc7)c7ccc4[nH]7)C=C6)C=C5)cc3)c3ccccc32)cc1
REMARK SMILES IDX 28 1 27 2 26 3 24 4 25 5 17 7 16 8 14 9 15 10 12 12 13 13
REMARK SMILES IDX 11 14 9 15 10 16 89 17 84 18 88 19 85 20 87 21 86 22 6 23
REMARK SMILES IDX 7 24 8 25 5 26 1 27 2 28 3 29 91 30 4 31 90 32 18 33 19 34
REMARK SMILES IDX 20 35 23 36 21 37 22 38 29 40 30 41 31 42 32 43 33 44 34 45
REMARK SMILES IDX 35 47 36 48 37 49 83 50 38 51 82 52 39 53 40 54 41 55 76 56
REMARK SMILES IDX 42 57 81 58 75 59 77 60 43 61 80 62 74 63 73 64 44 66 66 67
REMARK SMILES IDX 51 68 65 69 52 70 55 71 64 72 78 73 53 74 54 75 63 77 79 78
REMARK SMILES IDX 56 79 45 80 46 81 50 82 47 83 49 84 48 85 67 86 68 87 72 88
REMARK SMILES IDX 69 89 71 90 70 91 57 92 58 93 62 94 59 95 61 96 60 97
REMARK H PARENT 26 6 16 11 23 39 33 46 77 65 55 76
REMARK Flexibility Score: inf
ROOT
ATOM      1  C   UNL A   1      33.638  27.253  24.390  1.00  0.00     0.021 C 
ENDROOT
BRANCH   1   2
ATOM      2  C   UNL A   1      32.951  26.095  23.683  1.00  0.00     0.116 C 
BRANCH   2   3
ATOM      3  N   UNL A   1      33.818  25.243  22.909  1.00  0.00    -0.354 N 
ATOM      4  C   UNL A   1      33.867  23.877  22.903  1.00  0.00     0.242 C 
ATOM      5  O   UNL A   1      34.226  23.344  21.847  1.00  0.00    -0.273 OA
ATOM      6  H   UNL A   1      34.454  25.700  22.311  1.00  0.00     0.163 HD
BRANCH   4   7
ATOM      7  C   UNL A   1      33.392  23.006  24.096  1.00  0.00     0.177 C 
BRANCH   7   8
ATOM      8  N   UNL A   1      34.084  21.713  24.200  1.00  0.00    -0.337 N 
ATOM      9  C   UNL A   1      35.367  21.397  24.591  1.00  0.00     0.293 C 
ATOM     10  O   UNL A   1      35.620  20.214  24.798  1.00  0.00    -0.265 OA
ATOM     11  H   UNL A   1      33.534  20.937  23.946  1.00  0.00     0.164 HD
BRANCH   9  12
ATOM     12  C   UNL A   1      36.472  22.474  24.721  1.00  0.00     0.252 C 
ATOM     13  O   UNL A   1      36.295  23.563  24.184  1.00  0.00    -0.283 OA
BRANCH  12  14
ATOM     14  C   UNL A   1      37.734  22.219  25.429  1.00  0.00     0.054 A 
ATOM     15  N   UNL A   1      39.613  21.288  26.195  1.00  0.00    -0.240 N 
ATOM     16  C   UNL A   1      38.493  21.063  25.436  1.00  0.00     0.117 A 
ATOM     17  C   UNL A   1      39.623  22.568  26.705  1.00  0.00     0.065 A 
ATOM     18  C   UNL A   1      38.433  23.162  26.267  1.00  0.00     0.012 A 
ATOM     19  C   UNL A   1      40.537  23.256  27.525  1.00  0.00     0.028 A 
ATOM     20  C   UNL A   1      38.151  24.483  26.682  1.00  0.00     0.011 A 
ATOM     21  C   UNL A   1      40.218  24.556  27.928  1.00  0.00     0.002 A 
ATOM     22  C   UNL A   1      39.040  25.163  27.516  1.00  0.00     0.001 A 
BRANCH  15  23
ATOM     23  S   UNL A   1      40.804  20.108  26.489  1.00  0.00     0.268 S 
ATOM     24  O   UNL A   1      40.435  18.981  25.661  1.00  0.00    -0.201 OA
ATOM     25  O   UNL A   1      40.907  20.000  27.936  1.00  0.00    -0.201 OA
BRANCH  23  26
ATOM     26  C   UNL A   1      42.357  20.730  25.903  1.00  0.00     0.088 A 
ATOM     27  C   UNL A   1      46.124  21.930  24.208  1.00  0.00     0.044 C 
ATOM     28  C   UNL A   1      44.817  21.523  24.822  1.00  0.00    -0.051 A 
ATOM     29  C   UNL A   1      44.607  20.190  25.193  1.00  0.00     0.005 A 
ATOM     30  C   UNL A   1      43.797  22.460  25.031  1.00  0.00     0.005 A 
ATOM     31  C   UNL A   1      43.381  19.791  25.726  1.00  0.00     0.022 A 
ATOM     32  C   UNL A   1      42.573  22.071  25.583  1.00  0.00     0.022 A 
ENDBRANCH  23  26
ENDBRANCH  15  23
ENDBRANCH  12  14
ENDBRANCH   9  12
ENDBRANCH   7   8
BRANCH   7  33
ATOM     33  C   UNL A   1      33.262  23.752  25.438  1.00  0.00     0.090 C 
BRANCH  33  34
ATOM     34  C   UNL A   1      31.925  23.734  26.095  1.00  0.00     0.037 A 
ATOM     35  C   UNL A   1      30.968  24.707  26.299  1.00  0.00     0.134 A 
ATOM     36  N   UNL A   1      31.413  22.615  26.711  1.00  0.00    -0.348 N 
ATOM     37  N   UNL A   1      29.859  24.178  26.907  1.00  0.00    -0.245 NA
ATOM     38  C   UNL A   1      30.163  22.927  27.163  1.00  0.00     0.196 A 
ATOM     39  H   UNL A   1      31.866  21.746  26.808  1.00  0.00     0.167 HD
ENDBRANCH  33  34
ENDBRANCH   7  33
ENDBRANCH   4   7
ENDBRANCH   2   3
ENDBRANCH   1   2
BRANCH   1  40
ATOM     40  C   UNL A   1      32.782  27.999  25.419  1.00  0.00     0.002 C 
BRANCH  40  41
ATOM     41  C   UNL A   1      33.372  28.166  26.828  1.00  0.00     0.002 C 
BRANCH  41  42
ATOM     42  C   UNL A   1      34.887  28.344  26.924  1.00  0.00     0.021 C 
BRANCH  42  43
ATOM     43  C   UNL A   1      35.346  29.748  27.268  1.00  0.00     0.116 C 
BRANCH  43  44
ATOM     44  N   UNL A   1      34.306  30.759  27.124  1.00  0.00    -0.352 N 
ATOM     45  C   UNL A   1      34.061  31.893  27.880  1.00  0.00     0.251 C 
ATOM     46  H   UNL A   1      33.682  30.614  26.377  1.00  0.00     0.163 HD
ATOM     47  O   UNL A   1      33.091  32.601  27.624  1.00  0.00    -0.269 OA
BRANCH  45  48
ATOM     48  C   UNL A   1      35.077  32.359  28.857  1.00  0.00     0.039 A 
ATOM     49  C   UNL A   1      36.059  33.217  28.346  1.00  0.00     0.014 A 
ATOM     50  C   UNL A   1      35.305  31.643  30.024  1.00  0.00     0.014 A 
ATOM     51  C   UNL A   1      37.368  33.055  28.766  1.00  0.00     0.010 A 
ATOM     52  C   UNL A   1      36.609  31.370  30.348  1.00  0.00     0.010 A 
ATOM     53  C   UNL A   1      37.630  32.019  29.654  1.00  0.00    -0.014 A 
BRANCH  53  54
ATOM     54  C   UNL A   1      38.958  31.535  29.953  1.00  0.00     0.031 A 
ATOM     55  C   UNL A   1      39.376  30.310  29.268  1.00  0.00     0.074 A 
ATOM     56  C   UNL A   1      39.752  32.270  30.761  1.00  0.00     0.049 A 
ATOM     57  N   UNL A   1      40.203  29.456  29.747  1.00  0.00    -0.248 NA
ATOM     58  C   UNL A   1      38.793  29.901  27.990  1.00  0.00     0.031 C 
ATOM     59  C   UNL A   1      41.183  32.141  31.007  1.00  0.00     0.029 A 
ATOM     60  N   UNL A   1      39.337  33.215  31.692  1.00  0.00    -0.354 N 
ATOM     61  C   UNL A   1      40.510  28.589  28.721  1.00  0.00     0.074 A 
ATOM     62  C   UNL A   1      39.507  28.809  27.712  1.00  0.00     0.031 C 
ATOM     63  C   UNL A   1      41.486  32.773  32.158  1.00  0.00     0.029 A 
ATOM     64  C   UNL A   1      40.233  33.199  32.769  1.00  0.00     0.049 A 
ATOM     65  H   UNL A   1      38.548  33.796  31.609  1.00  0.00     0.167 HD
ATOM     66  C   UNL A   1      41.698  27.928  28.763  1.00  0.00     0.031 A 
ATOM     67  C   UNL A   1      39.795  32.793  34.002  1.00  0.00     0.031 A 
ATOM     68  C   UNL A   1      42.407  28.248  30.001  1.00  0.00     0.049 A 
ATOM     69  C   UNL A   1      40.393  31.460  34.405  1.00  0.00     0.074 A 
ATOM     70  C   UNL A   1      43.360  29.212  30.284  1.00  0.00     0.029 A 
ATOM     71  N   UNL A   1      41.863  27.852  31.216  1.00  0.00    -0.354 N 
ATOM     72  N   UNL A   1      40.860  30.585  33.557  1.00  0.00    -0.248 NA
ATOM     73  C   UNL A   1      40.510  31.014  35.792  1.00  0.00     0.031 C 
ATOM     74  C   UNL A   1      43.309  29.469  31.680  1.00  0.00     0.029 A 
ATOM     75  C   UNL A   1      42.359  28.635  32.243  1.00  0.00     0.049 A 
ATOM     76  H   UNL A   1      41.217  27.119  31.331  1.00  0.00     0.167 HD
ATOM     77  C   UNL A   1      41.343  29.501  34.239  1.00  0.00     0.074 A 
ATOM     78  C   UNL A   1      41.100  29.816  35.636  1.00  0.00     0.031 C 
ATOM     79  C   UNL A   1      41.905  28.428  33.612  1.00  0.00     0.031 A 
BRANCH  66  80
ATOM     80  C   UNL A   1      42.360  27.290  27.568  1.00  0.00    -0.014 A 
ATOM     81  C   UNL A   1      42.032  27.763  26.284  1.00  0.00     0.009 A 
ATOM     82  C   UNL A   1      43.256  26.208  27.613  1.00  0.00     0.009 A 
ATOM     83  C   UNL A   1      42.517  27.158  25.118  1.00  0.00     0.001 A 
ATOM     84  C   UNL A   1      43.728  25.581  26.451  1.00  0.00     0.001 A 
ATOM     85  C   UNL A   1      43.354  26.055  25.202  1.00  0.00     0.000 A 
ENDBRANCH  66  80
BRANCH  67  86
ATOM     86  C   UNL A   1      38.379  33.202  34.265  1.00  0.00    -0.014 A 
ATOM     87  C   UNL A   1      38.044  34.560  34.075  1.00  0.00     0.009 A 
ATOM     88  C   UNL A   1      37.350  32.249  34.237  1.00  0.00     0.009 A 
ATOM     89  C   UNL A   1      36.755  34.928  33.677  1.00  0.00     0.001 A 
ATOM     90  C   UNL A   1      36.054  32.631  33.868  1.00  0.00     0.001 A 
ATOM     91  C   UNL A   1      35.771  33.955  33.531  1.00  0.00     0.000 A 
ENDBRANCH  67  86
BRANCH  79  92
ATOM     92  C   UNL A   1      42.160  27.091  34.257  1.00  0.00    -0.014 A 
ATOM     93  C   UNL A   1      41.210  26.403  35.022  1.00  0.00     0.009 A 
ATOM     94  C   UNL A   1      43.363  26.407  33.973  1.00  0.00     0.009 A 
ATOM     95  C   UNL A   1      41.478  25.131  35.542  1.00  0.00     0.001 A 
ATOM     96  C   UNL A   1      43.608  25.113  34.434  1.00  0.00     0.001 A 
ATOM     97  C   UNL A   1      42.673  24.485  35.242  1.00  0.00     0.000 A 
ENDBRANCH  79  92
ENDBRANCH  53  54
ENDBRANCH  45  48
ENDBRANCH  43  44
ENDBRANCH  42  43
ENDBRANCH  41  42
ENDBRANCH  40  41
ENDBRANCH   1  40
TORSDOF 20
ENDMDL
MODEL 3
REMARK VINA RESULT:     -11.4      2.778      8.448
REMARK SMILES Cc1ccc(S(=O)(=O)n2cc(C(=O)C(=O)N[C@@H](Cc3cnc[nH]3)C(=O)NCCCCCCNC(=O)c3ccc(-c4c5nc(c(-c6ccccc6)c6ccc([nH]6)c(-c6ccccc6)c6nc(c(-c7ccccc7)c7ccc4[nH]7)C=C6)C=C5)cc3)c3ccccc32)cc1
REMARK SMILES IDX 28 1 27 2 26 3 24 4 25 5 17 7 16 8 14 9 15 10 12 12 13 13
REMARK SMILES IDX 11 14 9 15 10 16 89 17 84 18 88 19 85 20 87 21 86 22 6 23
REMARK SMILES IDX 7 24 8 25 5 26 1 27 2 28 3 29 91 30 4 31 90 32 18 33 19 34
REMARK SMILES IDX 20 35 23 36 21 37 22 38 29 40 30 41 31 42 32 43 33 44 34 45
REMARK SMILES IDX 35 47 36 48 37 49 83 50 38 51 82 52 39 53 40 54 41 55 76 56
REMARK SMILES IDX 42 57 81 58 75 59 77 60 43 61 80 62 74 63 73 64 44 66 66 67
REMARK SMILES IDX 51 68 65 69 52 70 55 71 64 72 78 73 53 74 54 75 63 77 79 78
REMARK SMILES IDX 56 79 45 80 46 81 50 82 47 83 49 84 48 85 67 86 68 87 72 88
REMARK SMILES IDX 69 89 71 90 70 91 57 92 58 93 62 94 59 95 61 96 60 97
REMARK H PARENT 26 6 16 11 23 39 33 46 77 65 55 76
REMARK Flexibility Score: inf
ROOT
ATOM      1  C   UNL A   1      38.862  22.793  26.469  1.00  0.00     0.021 C 
ENDROOT
BRANCH   1   2
ATOM      2  C   UNL A   1      37.605  22.105  25.960  1.00  0.00     0.116 C 
BRANCH   2   3
ATOM      3  N   UNL A   1      36.369  22.579  26.531  1.00  0.00    -0.354 N 
ATOM      4  C   UNL A   1      35.106  22.100  26.317  1.00  0.00     0.242 C 
ATOM      5  O   UNL A   1      34.305  22.226  27.249  1.00  0.00    -0.273 OA
ATOM      6  H   UNL A   1      36.442  23.341  27.152  1.00  0.00     0.163 HD
BRANCH   4   7
ATOM      7  C   UNL A   1      34.699  21.327  25.034  1.00  0.00     0.177 C 
BRANCH   7   8
ATOM      8  N   UNL A   1      35.092  22.000  23.787  1.00  0.00    -0.337 N 
ATOM      9  C   UNL A   1      34.371  22.775  22.905  1.00  0.00     0.293 C 
ATOM     10  O   UNL A   1      35.000  23.398  22.055  1.00  0.00    -0.265 OA
ATOM     11  H   UNL A   1      36.036  21.875  23.539  1.00  0.00     0.164 HD
BRANCH   9  12
ATOM     12  C   UNL A   1      32.824  22.831  22.940  1.00  0.00     0.252 C 
ATOM     13  O   UNL A   1      32.192  21.893  22.464  1.00  0.00    -0.283 OA
BRANCH  12  14
ATOM     14  C   UNL A   1      32.094  23.985  23.486  1.00  0.00     0.054 A 
ATOM     15  N   UNL A   1      31.189  26.004  23.784  1.00  0.00    -0.240 N 
ATOM     16  C   UNL A   1      32.014  25.267  22.973  1.00  0.00     0.117 A 
ATOM     17  C   UNL A   1      30.717  25.249  24.836  1.00  0.00     0.065 A 
ATOM     18  C   UNL A   1      31.301  23.984  24.690  1.00  0.00     0.012 A 
ATOM     19  C   UNL A   1      29.860  25.550  25.912  1.00  0.00     0.028 A 
ATOM     20  C   UNL A   1      31.025  23.001  25.667  1.00  0.00     0.011 A 
ATOM     21  C   UNL A   1      29.622  24.558  26.867  1.00  0.00     0.002 A 
ATOM     22  C   UNL A   1      30.197  23.300  26.750  1.00  0.00     0.001 A 
BRANCH  15  23
ATOM     23  S   UNL A   1      30.842  27.650  23.528  1.00  0.00     0.268 S 
ATOM     24  O   UNL A   1      29.423  27.781  23.772  1.00  0.00    -0.201 OA
ATOM     25  O   UNL A   1      31.438  27.986  22.244  1.00  0.00    -0.201 OA
BRANCH  23  26
ATOM     26  C   UNL A   1      31.697  28.595  24.760  1.00  0.00     0.088 A 
ATOM     27  C   UNL A   1      34.111  30.840  27.523  1.00  0.00     0.044 C 
ATOM     28  C   UNL A   1      33.252  30.050  26.579  1.00  0.00    -0.051 A 
ATOM     29  C   UNL A   1      33.688  28.802  26.120  1.00  0.00     0.005 A 
ATOM     30  C   UNL A   1      32.015  30.545  26.146  1.00  0.00     0.005 A 
ATOM     31  C   UNL A   1      32.918  28.078  25.210  1.00  0.00     0.022 A 
ATOM     32  C   UNL A   1      31.230  29.816  25.250  1.00  0.00     0.022 A 
ENDBRANCH  23  26
ENDBRANCH  15  23
ENDBRANCH  12  14
ENDBRANCH   9  12
ENDBRANCH   7   8
BRANCH   7  33
ATOM     33  C   UNL A   1      35.013  19.819  25.053  1.00  0.00     0.090 C 
BRANCH  33  34
ATOM     34  C   UNL A   1      34.048  18.919  24.359  1.00  0.00     0.037 A 
ATOM     35  C   UNL A   1      34.089  17.582  24.022  1.00  0.00     0.134 A 
ATOM     36  N   UNL A   1      32.850  19.365  23.850  1.00  0.00    -0.348 N 
ATOM     37  N   UNL A   1      32.912  17.191  23.439  1.00  0.00    -0.245 NA
ATOM     38  C   UNL A   1      32.196  18.286  23.327  1.00  0.00     0.196 A 
ATOM     39  H   UNL A   1      32.523  20.294  23.860  1.00  0.00     0.167 HD
ENDBRANCH  33  34
ENDBRANCH   7  33
ENDBRANCH   4   7
ENDBRANCH   2   3
ENDBRANCH   1   2
BRANCH   1  40
ATOM     40  C   UNL A   1      40.177  22.065  26.175  1.00  0.00     0.002 C 
BRANCH  40  41
ATOM     41  C   UNL A   1      41.351  22.330  27.132  1.00  0.00     0.002 C 
BRANCH  41  42
ATOM     42  C   UNL A   1      41.106  23.327  28.265  1.00  0.00     0.021 C 
BRANCH  42  43
ATOM     43  C   UNL A   1      41.902  24.614  28.168  1.00  0.00     0.116 C 
BRANCH  43  44
ATOM     44  N   UNL A   1      42.287  24.967  26.807  1.00  0.00    -0.352 N 
ATOM     45  C   UNL A   1      41.742  25.904  25.946  1.00  0.00     0.251 C 
ATOM     46  H   UNL A   1      43.051  24.463  26.445  1.00  0.00     0.163 HD
ATOM     47  O   UNL A   1      42.184  26.018  24.807  1.00  0.00    -0.269 OA
BRANCH  45  48
ATOM     48  C   UNL A   1      40.771  26.900  26.464  1.00  0.00     0.039 A 
ATOM     49  C   UNL A   1      41.196  28.234  26.427  1.00  0.00     0.014 A 
ATOM     50  C   UNL A   1      39.758  26.507  27.327  1.00  0.00     0.014 A 
ATOM     51  C   UNL A   1      40.897  29.058  27.498  1.00  0.00     0.010 A 
ATOM     52  C   UNL A   1      39.573  27.258  28.459  1.00  0.00     0.010 A 
ATOM     53  C   UNL A   1      40.215  28.491  28.569  1.00  0.00    -0.014 A 
BRANCH  53  54
ATOM     54  C   UNL A   1      40.090  29.118  29.864  1.00  0.00     0.031 A 
ATOM     55  C   UNL A   1      39.146  30.234  29.959  1.00  0.00     0.074 A 
ATOM     56  C   UNL A   1      40.768  28.597  30.909  1.00  0.00     0.049 A 
ATOM     57  N   UNL A   1      39.265  31.219  30.771  1.00  0.00    -0.248 NA
ATOM     58  C   UNL A   1      38.014  30.371  29.042  1.00  0.00     0.031 C 
ATOM     59  C   UNL A   1      40.617  28.875  32.331  1.00  0.00     0.029 A 
ATOM     60  N   UNL A   1      41.904  27.799  30.843  1.00  0.00    -0.354 N 
ATOM     61  C   UNL A   1      38.078  31.916  30.720  1.00  0.00     0.074 A 
ATOM     62  C   UNL A   1      37.404  31.449  29.537  1.00  0.00     0.031 C 
ATOM     63  C   UNL A   1      41.733  28.476  32.973  1.00  0.00     0.029 A 
ATOM     64  C   UNL A   1      42.700  28.069  31.963  1.00  0.00     0.049 A 
ATOM     65  H   UNL A   1      42.112  27.153  30.130  1.00  0.00     0.167 HD
ATOM     66  C   UNL A   1      37.716  32.663  31.798  1.00  0.00     0.031 A 
ATOM     67  C   UNL A   1      43.930  28.648  31.789  1.00  0.00     0.031 A 
ATOM     68  C   UNL A   1      38.764  32.617  32.815  1.00  0.00     0.049 A 
ATOM     69  C   UNL A   1      43.964  30.072  32.306  1.00  0.00     0.074 A 
ATOM     70  C   UNL A   1      38.934  31.792  33.914  1.00  0.00     0.029 A 
ATOM     71  N   UNL A   1      40.006  33.174  32.536  1.00  0.00    -0.354 N 
ATOM     72  N   UNL A   1      42.905  30.820  32.450  1.00  0.00    -0.248 NA
ATOM     73  C   UNL A   1      45.193  30.759  32.699  1.00  0.00     0.031 C 
ATOM     74  C   UNL A   1      40.319  31.776  34.230  1.00  0.00     0.029 A 
ATOM     75  C   UNL A   1      40.976  32.621  33.352  1.00  0.00     0.049 A 
ATOM     76  H   UNL A   1      40.172  33.865  31.855  1.00  0.00     0.167 HD
ATOM     77  C   UNL A   1      43.272  32.038  32.953  1.00  0.00     0.074 A 
ATOM     78  C   UNL A   1      44.715  31.953  33.091  1.00  0.00     0.031 C 
ATOM     79  C   UNL A   1      42.369  33.027  33.218  1.00  0.00     0.031 A 
BRANCH  66  80
ATOM     80  C   UNL A   1      36.311  33.133  32.074  1.00  0.00    -0.014 A 
ATOM     81  C   UNL A   1      35.703  34.014  31.159  1.00  0.00     0.009 A 
ATOM     82  C   UNL A   1      35.549  32.806  33.210  1.00  0.00     0.009 A 
ATOM     83  C   UNL A   1      34.444  34.582  31.392  1.00  0.00     0.001 A 
ATOM     84  C   UNL A   1      34.299  33.388  33.463  1.00  0.00     0.001 A 
ATOM     85  C   UNL A   1      33.748  34.281  32.554  1.00  0.00     0.000 A 
ENDBRANCH  66  80
BRANCH  67  86
ATOM     86  C   UNL A   1      44.604  28.184  30.535  1.00  0.00    -0.014 A 
ATOM     87  C   UNL A   1      45.223  26.916  30.555  1.00  0.00     0.009 A 
ATOM     88  C   UNL A   1      44.251  28.736  29.295  1.00  0.00     0.009 A 
ATOM     89  C   UNL A   1      45.305  26.143  29.392  1.00  0.00     0.001 A 
ATOM     90  C   UNL A   1      44.365  27.967  28.130  1.00  0.00     0.001 A 
ATOM     91  C   UNL A   1      44.834  26.654  28.187  1.00  0.00     0.000 A 
ENDBRANCH  67  86
BRANCH  79  92
ATOM     92  C   UNL A   1      42.721  34.471  33.463  1.00  0.00    -0.014 A 
ATOM     93  C   UNL A   1      43.176  35.340  32.464  1.00  0.00     0.009 A 
ATOM     94  C   UNL A   1      42.452  35.041  34.727  1.00  0.00     0.009 A 
ATOM     95  C   UNL A   1      43.424  36.691  32.733  1.00  0.00     0.001 A 
ATOM     96  C   UNL A   1      42.636  36.401  34.982  1.00  0.00     0.001 A 
ATOM     97  C   UNL A   1      43.147  37.222  33.988  1.00  0.00     0.000 A 
ENDBRANCH  79  92
ENDBRANCH  53  54
ENDBRANCH  45  48
ENDBRANCH  43  44
ENDBRANCH  42  43
ENDBRANCH  41  42
ENDBRANCH  40  41
ENDBRANCH   1  40
TORSDOF 20
ENDMDL
