MODEL 1
REMARK VINA RESULT:     -11.2      0.000      0.000
REMARK SMILES O=C(NCCCCCCNC(=O)[C@H](CO)NC(=O)[C@H](CS)NC(=O)[C@H](Cc1c[nH]c2ccccc12)NC(=O)c1ccc(F)cc1)c1ccc(-c2c3nc(c(-c4ccccc4)c4ccc([nH]4)c(-c4ccccc4)c4nc(c(-c5ccccc5)c5ccc2[nH]5)C=C4)C=C3)cc1
REMARK SMILES IDX 8 1 7 2 6 3 5 4 4 5 3 6 1 7 2 8 46 10 47 11 93 12 48 13
REMARK SMILES IDX 92 14 49 15 50 16 51 17 86 18 52 19 91 20 85 21 87 22 53 23
REMARK SMILES IDX 90 24 84 25 83 26 54 28 76 29 61 30 75 31 62 32 65 33 74 34
REMARK SMILES IDX 88 35 63 36 64 37 73 39 89 40 66 41 55 42 56 43 60 44 57 45
REMARK SMILES IDX 59 46 58 47 77 48 78 49 82 50 79 51 81 52 80 53 67 54 68 55
REMARK SMILES IDX 72 56 69 57 71 58 70 59 9 60 10 61 11 62 12 64 13 65 16 66
REMARK SMILES IDX 17 67 18 69 19 70 22 71 23 72 24 74 25 75 36 76 37 77 38 79
REMARK SMILES IDX 39 80 40 81 45 82 41 83 44 84 42 85 43 86 26 87 27 88 28 89
REMARK SMILES IDX 35 90 29 91 30 92 34 93 31 95 33 96 32 97 20 98 21 99 14 101
REMARK SMILES IDX 15 102
REMARK H PARENT 3 9 87 27 65 38 10 63 16 68 22 73 36 78 29 94 21 100 15 103
REMARK Flexibility Score: inf
ROOT
ATOM      1  C   UNL A   1      33.627  28.801  26.349  1.00  0.00     0.021 C 
ENDROOT
BRANCH   1   2
ATOM      2  C   UNL A   1      33.532  30.161  27.038  1.00  0.00     0.002 C 
BRANCH   2   3
ATOM      3  C   UNL A   1      34.858  30.679  27.601  1.00  0.00     0.002 C 
BRANCH   3   4
ATOM      4  C   UNL A   1      34.802  32.097  28.170  1.00  0.00     0.021 C 
BRANCH   4   5
ATOM      5  C   UNL A   1      35.884  32.397  29.199  1.00  0.00     0.116 C 
BRANCH   5   6
ATOM      6  N   UNL A   1      35.648  31.701  30.455  1.00  0.00    -0.352 N 
ATOM      7  O   UNL A   1      35.962  30.101  32.017  1.00  0.00    -0.269 OA
ATOM      8  C   UNL A   1      36.410  30.742  31.071  1.00  0.00     0.251 C 
ATOM      9  H   UNL A   1      34.824  31.955  30.930  1.00  0.00     0.163 HD
BRANCH   8  10
ATOM     10  C   UNL A   1      37.770  30.472  30.567  1.00  0.00     0.039 A 
ATOM     11  C   UNL A   1      37.989  30.333  29.196  1.00  0.00     0.014 A 
ATOM     12  C   UNL A   1      38.824  30.330  31.470  1.00  0.00     0.014 A 
ATOM     13  C   UNL A   1      39.217  29.875  28.743  1.00  0.00     0.010 A 
ATOM     14  C   UNL A   1      40.090  29.978  31.000  1.00  0.00     0.010 A 
ATOM     15  C   UNL A   1      40.288  29.706  29.637  1.00  0.00    -0.014 A 
BRANCH  15  16
ATOM     16  C   UNL A   1      41.608  29.286  29.104  1.00  0.00     0.031 A 
ATOM     17  C   UNL A   1      42.778  30.229  29.082  1.00  0.00     0.074 A 
ATOM     18  C   UNL A   1      41.753  28.016  28.677  1.00  0.00     0.049 A 
ATOM     19  N   UNL A   1      44.010  30.003  28.695  1.00  0.00    -0.248 NA
ATOM     20  C   UNL A   1      42.541  31.607  29.540  1.00  0.00     0.031 C 
ATOM     21  C   UNL A   1      40.690  27.007  28.649  1.00  0.00     0.029 A 
ATOM     22  N   UNL A   1      42.856  27.347  28.215  1.00  0.00    -0.354 N 
ATOM     23  C   UNL A   1      44.683  31.210  28.839  1.00  0.00     0.074 A 
ATOM     24  C   UNL A   1      43.719  32.175  29.321  1.00  0.00     0.031 C 
ATOM     25  C   UNL A   1      41.208  25.834  28.261  1.00  0.00     0.029 A 
ATOM     26  C   UNL A   1      42.616  26.023  27.939  1.00  0.00     0.049 A 
ATOM     27  H   UNL A   1      43.735  27.773  28.093  1.00  0.00     0.167 HD
ATOM     28  C   UNL A   1      45.987  31.486  28.593  1.00  0.00     0.031 A 
ATOM     29  C   UNL A   1      43.433  25.065  27.465  1.00  0.00     0.031 A 
ATOM     30  C   UNL A   1      46.944  30.521  28.115  1.00  0.00     0.049 A 
ATOM     31  C   UNL A   1      44.862  25.411  27.171  1.00  0.00     0.074 A 
ATOM     32  C   UNL A   1      48.297  30.695  27.873  1.00  0.00     0.029 A 
ATOM     33  N   UNL A   1      46.649  29.202  27.802  1.00  0.00    -0.354 N 
ATOM     34  N   UNL A   1      45.491  26.547  27.349  1.00  0.00    -0.248 NA
ATOM     35  C   UNL A   1      45.695  24.338  26.615  1.00  0.00     0.031 C 
ATOM     36  C   UNL A   1      48.804  29.501  27.352  1.00  0.00     0.029 A 
ATOM     37  C   UNL A   1      47.787  28.560  27.340  1.00  0.00     0.049 A 
ATOM     38  H   UNL A   1      45.762  28.784  27.895  1.00  0.00     0.167 HD
ATOM     39  C   UNL A   1      46.803  26.317  26.956  1.00  0.00     0.074 A 
ATOM     40  C   UNL A   1      46.880  24.929  26.550  1.00  0.00     0.031 C 
ATOM     41  C   UNL A   1      47.849  27.178  26.937  1.00  0.00     0.031 A 
BRANCH  28  42
ATOM     42  C   UNL A   1      46.451  32.904  28.800  1.00  0.00    -0.014 A 
ATOM     43  C   UNL A   1      46.981  33.336  30.027  1.00  0.00     0.009 A 
ATOM     44  C   UNL A   1      46.393  33.815  27.732  1.00  0.00     0.009 A 
ATOM     45  C   UNL A   1      47.406  34.657  30.189  1.00  0.00     0.001 A 
ATOM     46  C   UNL A   1      46.848  35.125  27.888  1.00  0.00     0.001 A 
ATOM     47  C   UNL A   1      47.345  35.548  29.118  1.00  0.00     0.000 A 
ENDBRANCH  28  42
BRANCH  29  48
ATOM     48  C   UNL A   1      42.914  23.692  27.237  1.00  0.00    -0.014 A 
ATOM     49  C   UNL A   1      42.488  23.292  25.962  1.00  0.00     0.009 A 
ATOM     50  C   UNL A   1      42.841  22.772  28.296  1.00  0.00     0.009 A 
ATOM     51  C   UNL A   1      41.973  22.010  25.758  1.00  0.00     0.001 A 
ATOM     52  C   UNL A   1      42.359  21.481  28.082  1.00  0.00     0.001 A 
ATOM     53  C   UNL A   1      41.914  21.104  26.817  1.00  0.00     0.000 A 
ENDBRANCH  29  48
BRANCH  41  54
ATOM     54  C   UNL A   1      49.180  26.623  26.508  1.00  0.00    -0.014 A 
ATOM     55  C   UNL A   1      50.023  25.952  27.408  1.00  0.00     0.009 A 
ATOM     56  C   UNL A   1      49.587  26.764  25.172  1.00  0.00     0.009 A 
ATOM     57  C   UNL A   1      51.267  25.479  26.989  1.00  0.00     0.001 A 
ATOM     58  C   UNL A   1      50.816  26.258  24.748  1.00  0.00     0.001 A 
ATOM     59  C   UNL A   1      51.660  25.628  25.659  1.00  0.00     0.000 A 
ENDBRANCH  41  54
ENDBRANCH  15  16
ENDBRANCH   8  10
ENDBRANCH   5   6
ENDBRANCH   4   5
ENDBRANCH   3   4
ENDBRANCH   2   3
ENDBRANCH   1   2
BRANCH   1  60
ATOM     60  C   UNL A   1      32.321  28.351  25.706  1.00  0.00     0.116 C 
BRANCH  60  61
ATOM     61  N   UNL A   1      31.450  29.471  25.445  1.00  0.00    -0.354 N 
ATOM     62  C   UNL A   1      30.633  29.733  24.389  1.00  0.00     0.244 C 
ATOM     63  H   UNL A   1      31.448  30.161  26.147  1.00  0.00     0.163 HD
ATOM     64  O   UNL A   1      30.103  30.849  24.369  1.00  0.00    -0.273 OA
BRANCH  62  65
ATOM     65  C   UNL A   1      30.518  28.779  23.181  1.00  0.00     0.197 C 
BRANCH  65  66
ATOM     66  N   UNL A   1      30.054  27.428  23.484  1.00  0.00    -0.340 N 
ATOM     67  C   UNL A   1      30.654  26.219  23.282  1.00  0.00     0.244 C 
ATOM     68  H   UNL A   1      29.163  27.381  23.901  1.00  0.00     0.164 HD
ATOM     69  O   UNL A   1      29.949  25.223  23.455  1.00  0.00    -0.273 OA
BRANCH  67  70
ATOM     70  C   UNL A   1      32.106  26.109  22.710  1.00  0.00     0.181 C 
BRANCH  70  71
ATOM     71  N   UNL A   1      32.404  24.923  21.881  1.00  0.00    -0.342 N 
ATOM     72  C   UNL A   1      32.997  23.715  22.082  1.00  0.00     0.243 C 
ATOM     73  H   UNL A   1      32.096  25.034  20.953  1.00  0.00     0.164 HD
ATOM     74  O   UNL A   1      33.335  23.143  21.039  1.00  0.00    -0.273 OA
BRANCH  72  75
ATOM     75  C   UNL A   1      33.391  23.154  23.474  1.00  0.00     0.176 C 
BRANCH  75  76
ATOM     76  N   UNL A   1      33.929  24.178  24.372  1.00  0.00    -0.340 N 
ATOM     77  C   UNL A   1      34.996  24.245  25.220  1.00  0.00     0.251 C 
ATOM     78  H   UNL A   1      33.400  25.008  24.362  1.00  0.00     0.164 HD
ATOM     79  O   UNL A   1      34.987  25.194  26.007  1.00  0.00    -0.269 OA
BRANCH  77  80
ATOM     80  C   UNL A   1      36.165  23.319  25.221  1.00  0.00     0.040 A 
ATOM     81  C   UNL A   1      37.382  23.554  25.872  1.00  0.00     0.017 A 
ATOM     82  C   UNL A   1      35.963  22.057  24.635  1.00  0.00     0.017 A 
ATOM     83  C   UNL A   1      38.357  22.556  25.963  1.00  0.00     0.040 A 
ATOM     84  C   UNL A   1      36.941  21.060  24.714  1.00  0.00     0.040 A 
ATOM     85  C   UNL A   1      38.125  21.318  25.387  1.00  0.00     0.123 A 
ATOM     86  F   UNL A   1      39.050  20.357  25.499  1.00  0.00    -0.207 F 
ENDBRANCH  77  80
ENDBRANCH  75  76
BRANCH  75  87
ATOM     87  C   UNL A   1      32.169  22.491  24.168  1.00  0.00     0.072 C 
BRANCH  87  88
ATOM     88  C   UNL A   1      32.549  21.213  24.846  1.00  0.00    -0.020 A 
ATOM     89  C   UNL A   1      32.919  21.070  26.169  1.00  0.00     0.087 A 
ATOM     90  C   UNL A   1      32.623  19.917  24.246  1.00  0.00     0.003 A 
ATOM     91  N   UNL A   1      33.217  19.754  26.389  1.00  0.00    -0.361 N 
ATOM     92  C   UNL A   1      33.050  19.028  25.232  1.00  0.00     0.046 A 
ATOM     93  C   UNL A   1      32.372  19.419  22.952  1.00  0.00     0.010 A 
ATOM     94  H   UNL A   1      33.508  19.378  27.251  1.00  0.00     0.166 HD
ATOM     95  C   UNL A   1      33.243  17.664  24.988  1.00  0.00     0.026 A 
ATOM     96  C   UNL A   1      32.557  18.057  22.691  1.00  0.00     0.001 A 
ATOM     97  C   UNL A   1      32.987  17.195  23.696  1.00  0.00     0.002 A 
ENDBRANCH  87  88
ENDBRANCH  75  87
ENDBRANCH  72  75
ENDBRANCH  70  71
BRANCH  70  98
ATOM     98  C   UNL A   1      32.434  27.384  21.891  1.00  0.00     0.101 C 
BRANCH  98  99
ATOM     99  S   UNL A   1      34.004  28.199  22.393  1.00  0.00    -0.177 SA
ATOM    100  H   UNL A   1      33.869  29.548  22.286  1.00  0.00     0.102 HD
ENDBRANCH  98  99
ENDBRANCH  70  98
ENDBRANCH  67  70
ENDBRANCH  65  66
BRANCH  65 101
ATOM    101  C   UNL A   1      29.602  29.417  22.118  1.00  0.00     0.191 C 
BRANCH 101 102
ATOM    102  O   UNL A   1      30.343  30.281  21.253  1.00  0.00    -0.394 OA
ATOM    103  H   UNL A   1      29.778  30.563  20.516  1.00  0.00     0.210 HD
ENDBRANCH 101 102
ENDBRANCH  65 101
ENDBRANCH  62  65
ENDBRANCH  60  61
ENDBRANCH   1  60
TORSDOF 25
ENDMDL
MODEL 2
REMARK VINA RESULT:     -11.0      1.490      5.697
REMARK SMILES O=C(NCCCCCCNC(=O)[C@H](CO)NC(=O)[C@H](CS)NC(=O)[C@H](Cc1c[nH]c2ccccc12)NC(=O)c1ccc(F)cc1)c1ccc(-c2c3nc(c(-c4ccccc4)c4ccc([nH]4)c(-c4ccccc4)c4nc(c(-c5ccccc5)c5ccc2[nH]5)C=C4)C=C3)cc1
REMARK SMILES IDX 8 1 7 2 6 3 5 4 4 5 3 6 1 7 2 8 46 10 47 11 93 12 48 13
REMARK SMILES IDX 92 14 49 15 50 16 51 17 86 18 52 19 91 20 85 21 87 22 53 23
REMARK SMILES IDX 90 24 84 25 83 26 54 28 76 29 61 30 75 31 62 32 65 33 74 34
REMARK SMILES IDX 88 35 63 36 64 37 73 39 89 40 66 41 55 42 56 43 60 44 57 45
REMARK SMILES IDX 59 46 58 47 77 48 78 49 82 50 79 51 81 52 80 53 67 54 68 55
REMARK SMILES IDX 72 56 69 57 71 58 70 59 9 60 10 61 11 62 12 64 13 65 16 66
REMARK SMILES IDX 17 67 18 69 19 70 22 71 23 72 24 74 25 75 36 76 37 77 38 79
REMARK SMILES IDX 39 80 40 81 45 82 41 83 44 84 42 85 43 86 26 87 27 88 28 89
REMARK SMILES IDX 35 90 29 91 30 92 34 93 31 95 33 96 32 97 20 98 21 99 14 101
REMARK SMILES IDX 15 102
REMARK H PARENT 3 9 87 27 65 38 10 63 16 68 22 73 36 78 29 94 21 100 15 103
REMARK Flexibility Score: inf
ROOT
ATOM      1  C   UNL A   1      31.809  29.774  25.864  1.00  0.00     0.021 C 
ENDROOT
BRANCH   1   2
ATOM      2  C   UNL A   1      32.732  30.307  26.958  1.00  0.00     0.002 C 
BRANCH   2   3
ATOM      3  C   UNL A   1      34.009  29.488  27.164  1.00  0.00     0.002 C 
BRANCH   3   4
ATOM      4  C   UNL A   1      35.164  30.252  27.812  1.00  0.00     0.021 C 
BRANCH   4   5
ATOM      5  C   UNL A   1      35.910  29.463  28.878  1.00  0.00     0.116 C 
BRANCH   5   6
ATOM      6  N   UNL A   1      35.863  30.120  30.175  1.00  0.00    -0.352 N 
ATOM      7  O   UNL A   1      36.589  30.651  32.246  1.00  0.00    -0.269 OA
ATOM      8  C   UNL A   1      36.853  30.259  31.113  1.00  0.00     0.251 C 
ATOM      9  H   UNL A   1      34.996  30.522  30.413  1.00  0.00     0.163 HD
BRANCH   8  10
ATOM     10  C   UNL A   1      38.239  29.909  30.751  1.00  0.00     0.039 A 
ATOM     11  C   UNL A   1      38.814  30.446  29.598  1.00  0.00     0.014 A 
ATOM     12  C   UNL A   1      38.956  29.018  31.550  1.00  0.00     0.014 A 
ATOM     13  C   UNL A   1      40.031  29.956  29.150  1.00  0.00     0.010 A 
ATOM     14  C   UNL A   1      40.232  28.612  31.153  1.00  0.00     0.010 A 
ATOM     15  C   UNL A   1      40.763  29.045  29.929  1.00  0.00    -0.014 A 
BRANCH  15  16
ATOM     16  C   UNL A   1      42.096  28.600  29.450  1.00  0.00     0.031 A 
ATOM     17  C   UNL A   1      42.289  27.245  28.826  1.00  0.00     0.074 A 
ATOM     18  C   UNL A   1      43.131  29.457  29.544  1.00  0.00     0.049 A 
ATOM     19  N   UNL A   1      43.377  26.725  28.313  1.00  0.00    -0.248 NA
ATOM     20  C   UNL A   1      41.121  26.352  28.778  1.00  0.00     0.031 C 
ATOM     21  C   UNL A   1      43.067  30.799  30.131  1.00  0.00     0.029 A 
ATOM     22  N   UNL A   1      44.430  29.343  29.122  1.00  0.00    -0.354 N 
ATOM     23  C   UNL A   1      43.032  25.441  27.908  1.00  0.00     0.074 A 
ATOM     24  C   UNL A   1      41.641  25.249  28.259  1.00  0.00     0.031 C 
ATOM     25  C   UNL A   1      44.250  31.406  29.969  1.00  0.00     0.029 A 
ATOM     26  C   UNL A   1      45.177  30.475  29.341  1.00  0.00     0.049 A 
ATOM     27  H   UNL A   1      44.793  28.529  28.703  1.00  0.00     0.167 HD
ATOM     28  C   UNL A   1      43.803  24.510  27.297  1.00  0.00     0.031 A 
ATOM     29  C   UNL A   1      46.470  30.734  29.077  1.00  0.00     0.031 A 
ATOM     30  C   UNL A   1      45.187  24.707  26.947  1.00  0.00     0.049 A 
ATOM     31  C   UNL A   1      47.306  29.671  28.431  1.00  0.00     0.074 A 
ATOM     32  C   UNL A   1      46.043  23.838  26.291  1.00  0.00     0.029 A 
ATOM     33  N   UNL A   1      45.920  25.850  27.229  1.00  0.00    -0.354 N 
ATOM     34  N   UNL A   1      46.953  28.478  28.020  1.00  0.00    -0.248 NA
ATOM     35  C   UNL A   1      48.720  29.995  28.208  1.00  0.00     0.031 C 
ATOM     36  C   UNL A   1      47.308  24.429  26.235  1.00  0.00     0.029 A 
ATOM     37  C   UNL A   1      47.224  25.697  26.788  1.00  0.00     0.049 A 
ATOM     38  H   UNL A   1      45.565  26.653  27.676  1.00  0.00     0.167 HD
ATOM     39  C   UNL A   1      48.095  27.919  27.461  1.00  0.00     0.074 A 
ATOM     40  C   UNL A   1      49.143  28.913  27.569  1.00  0.00     0.031 C 
ATOM     41  C   UNL A   1      48.258  26.694  26.905  1.00  0.00     0.031 A 
BRANCH  28  42
ATOM     42  C   UNL A   1      43.179  23.172  26.999  1.00  0.00    -0.014 A 
ATOM     43  C   UNL A   1      42.786  22.813  25.700  1.00  0.00     0.009 A 
ATOM     44  C   UNL A   1      43.018  22.237  28.035  1.00  0.00     0.009 A 
ATOM     45  C   UNL A   1      42.212  21.563  25.453  1.00  0.00     0.001 A 
ATOM     46  C   UNL A   1      42.473  20.978  27.780  1.00  0.00     0.001 A 
ATOM     47  C   UNL A   1      42.061  20.645  26.492  1.00  0.00     0.000 A 
ENDBRANCH  28  42
BRANCH  29  48
ATOM     48  C   UNL A   1      47.049  32.056  29.431  1.00  0.00    -0.014 A 
ATOM     49  C   UNL A   1      46.947  33.140  28.548  1.00  0.00     0.009 A 
ATOM     50  C   UNL A   1      47.709  32.240  30.657  1.00  0.00     0.009 A 
ATOM     51  C   UNL A   1      47.519  34.372  28.871  1.00  0.00     0.001 A 
ATOM     52  C   UNL A   1      48.249  33.481  30.993  1.00  0.00     0.001 A 
ATOM     53  C   UNL A   1      48.164  34.544  30.095  1.00  0.00     0.000 A 
ENDBRANCH  29  48
BRANCH  41  54
ATOM     54  C   UNL A   1      49.612  26.385  26.325  1.00  0.00    -0.014 A 
ATOM     55  C   UNL A   1      50.503  25.507  26.962  1.00  0.00     0.009 A 
ATOM     56  C   UNL A   1      49.992  26.975  25.110  1.00  0.00     0.009 A 
ATOM     57  C   UNL A   1      51.766  25.267  26.419  1.00  0.00     0.001 A 
ATOM     58  C   UNL A   1      51.242  26.705  24.550  1.00  0.00     0.001 A 
ATOM     59  C   UNL A   1      52.131  25.862  25.211  1.00  0.00     0.000 A 
ENDBRANCH  41  54
ENDBRANCH  15  16
ENDBRANCH   8  10
ENDBRANCH   5   6
ENDBRANCH   4   5
ENDBRANCH   3   4
ENDBRANCH   2   3
ENDBRANCH   1   2
BRANCH   1  60
ATOM     60  C   UNL A   1      32.546  29.337  24.604  1.00  0.00     0.116 C 
BRANCH  60  61
ATOM     61  N   UNL A   1      31.631  29.121  23.509  1.00  0.00    -0.354 N 
ATOM     62  C   UNL A   1      31.399  28.015  22.751  1.00  0.00     0.244 C 
ATOM     63  H   UNL A   1      31.083  29.904  23.271  1.00  0.00     0.163 HD
ATOM     64  O   UNL A   1      30.647  28.162  21.781  1.00  0.00    -0.273 OA
BRANCH  62  65
ATOM     65  C   UNL A   1      32.175  26.697  22.960  1.00  0.00     0.197 C 
BRANCH  65  66
ATOM     66  N   UNL A   1      31.442  25.475  22.640  1.00  0.00    -0.340 N 
ATOM     67  C   UNL A   1      30.939  24.504  23.457  1.00  0.00     0.244 C 
ATOM     68  H   UNL A   1      31.286  25.327  21.679  1.00  0.00     0.164 HD
ATOM     69  O   UNL A   1      30.534  23.480  22.904  1.00  0.00    -0.273 OA
BRANCH  67  70
ATOM     70  C   UNL A   1      31.019  24.620  25.016  1.00  0.00     0.181 C 
BRANCH  70  71
ATOM     71  N   UNL A   1      32.366  24.552  25.617  1.00  0.00    -0.342 N 
ATOM     72  C   UNL A   1      33.427  23.703  25.544  1.00  0.00     0.243 C 
ATOM     73  H   UNL A   1      32.540  25.311  26.219  1.00  0.00     0.164 HD
ATOM     74  O   UNL A   1      34.244  23.841  26.462  1.00  0.00    -0.273 OA
BRANCH  72  75
ATOM     75  C   UNL A   1      33.549  22.540  24.525  1.00  0.00     0.176 C 
BRANCH  75  76
ATOM     76  N   UNL A   1      34.533  22.801  23.473  1.00  0.00    -0.340 N 
ATOM     77  C   UNL A   1      35.874  23.055  23.456  1.00  0.00     0.251 C 
ATOM     78  H   UNL A   1      34.137  22.792  22.572  1.00  0.00     0.164 HD
ATOM     79  O   UNL A   1      36.319  23.476  22.386  1.00  0.00    -0.269 OA
BRANCH  77  80
ATOM     80  C   UNL A   1      36.820  22.807  24.582  1.00  0.00     0.040 A 
ATOM     81  C   UNL A   1      37.485  21.601  24.829  1.00  0.00     0.017 A 
ATOM     82  C   UNL A   1      37.168  23.924  25.363  1.00  0.00     0.017 A 
ATOM     83  C   UNL A   1      38.483  21.513  25.804  1.00  0.00     0.040 A 
ATOM     84  C   UNL A   1      38.158  23.837  26.346  1.00  0.00     0.040 A 
ATOM     85  C   UNL A   1      38.813  22.632  26.550  1.00  0.00     0.123 A 
ATOM     86  F   UNL A   1      39.788  22.550  27.463  1.00  0.00    -0.207 F 
ENDBRANCH  77  80
ENDBRANCH  75  76
BRANCH  75  87
ATOM     87  C   UNL A   1      33.941  21.218  25.240  1.00  0.00     0.072 C 
BRANCH  87  88
ATOM     88  C   UNL A   1      33.436  20.020  24.499  1.00  0.00    -0.020 A 
ATOM     89  C   UNL A   1      32.311  19.972  23.699  1.00  0.00     0.087 A 
ATOM     90  C   UNL A   1      34.004  18.709  24.505  1.00  0.00     0.003 A 
ATOM     91  N   UNL A   1      32.175  18.694  23.230  1.00  0.00    -0.361 N 
ATOM     92  C   UNL A   1      33.192  17.901  23.711  1.00  0.00     0.046 A 
ATOM     93  C   UNL A   1      35.134  18.131  25.120  1.00  0.00     0.010 A 
ATOM     94  H   UNL A   1      31.456  18.387  22.634  1.00  0.00     0.166 HD
ATOM     95  C   UNL A   1      33.450  16.542  23.501  1.00  0.00     0.026 A 
ATOM     96  C   UNL A   1      35.408  16.775  24.919  1.00  0.00     0.001 A 
ATOM     97  C   UNL A   1      34.576  15.994  24.121  1.00  0.00     0.002 A 
ENDBRANCH  87  88
ENDBRANCH  75  87
ENDBRANCH  72  75
ENDBRANCH  70  71
BRANCH  70  98
ATOM     98  C   UNL A   1      30.336  25.936  25.469  1.00  0.00     0.101 C 
BRANCH  98  99
ATOM     99  S   UNL A   1      28.731  26.260  24.634  1.00  0.00    -0.177 SA
ATOM    100  H   UNL A   1      28.755  27.497  24.070  1.00  0.00     0.102 HD
ENDBRANCH  98  99
ENDBRANCH  70  98
ENDBRANCH  67  70
ENDBRANCH  65  66
BRANCH  65 101
ATOM    101  C   UNL A   1      33.483  26.745  22.147  1.00  0.00     0.191 C 
BRANCH 101 102
ATOM    102  O   UNL A   1      33.226  26.591  20.749  1.00  0.00    -0.394 OA
ATOM    103  H   UNL A   1      32.495  25.965  20.621  1.00  0.00     0.210 HD
ENDBRANCH 101 102
ENDBRANCH  65 101
ENDBRANCH  62  65
ENDBRANCH  60  61
ENDBRANCH   1  60
TORSDOF 25
ENDMDL
MODEL 3
REMARK VINA RESULT:     -10.7      1.655      6.222
REMARK SMILES O=C(NCCCCCCNC(=O)[C@H](CO)NC(=O)[C@H](CS)NC(=O)[C@H](Cc1c[nH]c2ccccc12)NC(=O)c1ccc(F)cc1)c1ccc(-c2c3nc(c(-c4ccccc4)c4ccc([nH]4)c(-c4ccccc4)c4nc(c(-c5ccccc5)c5ccc2[nH]5)C=C4)C=C3)cc1
REMARK SMILES IDX 8 1 7 2 6 3 5 4 4 5 3 6 1 7 2 8 46 10 47 11 93 12 48 13
REMARK SMILES IDX 92 14 49 15 50 16 51 17 86 18 52 19 91 20 85 21 87 22 53 23
REMARK SMILES IDX 90 24 84 25 83 26 54 28 76 29 61 30 75 31 62 32 65 33 74 34
REMARK SMILES IDX 88 35 63 36 64 37 73 39 89 40 66 41 55 42 56 43 60 44 57 45
REMARK SMILES IDX 59 46 58 47 77 48 78 49 82 50 79 51 81 52 80 53 67 54 68 55
REMARK SMILES IDX 72 56 69 57 71 58 70 59 9 60 10 61 11 62 12 64 13 65 16 66
REMARK SMILES IDX 17 67 18 69 19 70 22 71 23 72 24 74 25 75 36 76 37 77 38 79
REMARK SMILES IDX 39 80 40 81 45 82 41 83 44 84 42 85 43 86 26 87 27 88 28 89
REMARK SMILES IDX 35 90 29 91 30 92 34 93 31 95 33 96 32 97 20 98 21 99 14 101
REMARK SMILES IDX 15 102
REMARK H PARENT 3 9 87 27 65 38 10 63 16 68 22 73 36 78 29 94 21 100 15 103
REMARK Flexibility Score: inf
ROOT
ATOM      1  C   UNL A   1      34.301  28.709  26.815  1.00  0.00     0.021 C 
ENDROOT
BRANCH   1   2
ATOM      2  C   UNL A   1      34.245  30.188  27.194  1.00  0.00     0.002 C 
BRANCH   2   3
ATOM      3  C   UNL A   1      35.609  30.814  27.499  1.00  0.00     0.002 C 
BRANCH   3   4
ATOM      4  C   UNL A   1      35.548  32.171  28.200  1.00  0.00     0.021 C 
BRANCH   4   5
ATOM      5  C   UNL A   1      36.497  32.302  29.384  1.00  0.00     0.116 C 
BRANCH   5   6
ATOM      6  N   UNL A   1      36.154  31.384  30.460  1.00  0.00    -0.352 N 
ATOM      7  O   UNL A   1      36.305  29.492  31.683  1.00  0.00    -0.269 OA
ATOM      8  C   UNL A   1      36.837  30.284  30.910  1.00  0.00     0.251 C 
ATOM      9  H   UNL A   1      35.314  31.583  30.932  1.00  0.00     0.163 HD
BRANCH   8  10
ATOM     10  C   UNL A   1      38.213  30.049  30.436  1.00  0.00     0.039 A 
ATOM     11  C   UNL A   1      38.462  29.886  29.072  1.00  0.00     0.014 A 
ATOM     12  C   UNL A   1      39.255  29.960  31.360  1.00  0.00     0.014 A 
ATOM     13  C   UNL A   1      39.712  29.459  28.651  1.00  0.00     0.010 A 
ATOM     14  C   UNL A   1      40.541  29.641  30.919  1.00  0.00     0.010 A 
ATOM     15  C   UNL A   1      40.771  29.346  29.566  1.00  0.00    -0.014 A 
BRANCH  15  16
ATOM     16  C   UNL A   1      42.114  28.957  29.066  1.00  0.00     0.031 A 
ATOM     17  C   UNL A   1      42.384  27.571  28.551  1.00  0.00     0.074 A 
ATOM     18  C   UNL A   1      43.085  29.891  29.039  1.00  0.00     0.049 A 
ATOM     19  N   UNL A   1      43.486  27.086  28.034  1.00  0.00    -0.248 NA
ATOM     20  C   UNL A   1      41.285  26.595  28.633  1.00  0.00     0.031 C 
ATOM     21  C   UNL A   1      42.942  31.272  29.512  1.00  0.00     0.029 A 
ATOM     22  N   UNL A   1      44.370  29.834  28.568  1.00  0.00    -0.354 N 
ATOM     23  C   UNL A   1      43.223  25.751  27.755  1.00  0.00     0.074 A 
ATOM     24  C   UNL A   1      41.866  25.491  28.186  1.00  0.00     0.031 C 
ATOM     25  C   UNL A   1      44.069  31.946  29.244  1.00  0.00     0.029 A 
ATOM     26  C   UNL A   1      45.037  31.032  28.655  1.00  0.00     0.049 A 
ATOM     27  H   UNL A   1      44.776  29.015  28.203  1.00  0.00     0.167 HD
ATOM     28  C   UNL A   1      44.037  24.827  27.190  1.00  0.00     0.031 A 
ATOM     29  C   UNL A   1      46.296  31.359  28.310  1.00  0.00     0.031 A 
ATOM     30  C   UNL A   1      45.387  25.091  26.761  1.00  0.00     0.049 A 
ATOM     31  C   UNL A   1      47.183  30.306  27.718  1.00  0.00     0.074 A 
ATOM     32  C   UNL A   1      46.279  24.231  26.142  1.00  0.00     0.029 A 
ATOM     33  N   UNL A   1      46.042  26.305  26.910  1.00  0.00    -0.354 N 
ATOM     34  N   UNL A   1      46.905  29.059  27.426  1.00  0.00    -0.248 NA
ATOM     35  C   UNL A   1      48.559  30.709  27.403  1.00  0.00     0.031 C 
ATOM     36  C   UNL A   1      47.493  24.905  25.976  1.00  0.00     0.029 A 
ATOM     37  C   UNL A   1      47.335  26.207  26.423  1.00  0.00     0.049 A 
ATOM     38  H   UNL A   1      45.646  27.116  27.304  1.00  0.00     0.167 HD
ATOM     39  C   UNL A   1      48.062  28.536  26.864  1.00  0.00     0.074 A 
ATOM     40  C   UNL A   1      49.036  29.609  26.839  1.00  0.00     0.031 C 
ATOM     41  C   UNL A   1      48.295  27.282  26.407  1.00  0.00     0.031 A 
BRANCH  28  42
ATOM     42  C   UNL A   1      43.504  23.427  27.036  1.00  0.00    -0.014 A 
ATOM     43  C   UNL A   1      43.179  22.635  28.150  1.00  0.00     0.009 A 
ATOM     44  C   UNL A   1      43.285  22.906  25.751  1.00  0.00     0.009 A 
ATOM     45  C   UNL A   1      42.683  21.340  27.977  1.00  0.00     0.001 A 
ATOM     46  C   UNL A   1      42.760  21.623  25.581  1.00  0.00     0.001 A 
ATOM     47  C   UNL A   1      42.469  20.837  26.694  1.00  0.00     0.000 A 
ENDBRANCH  28  42
BRANCH  29  48
ATOM     48  C   UNL A   1      46.787  32.745  28.523  1.00  0.00    -0.014 A 
ATOM     49  C   UNL A   1      46.606  33.727  27.538  1.00  0.00     0.009 A 
ATOM     50  C   UNL A   1      47.442  33.093  29.716  1.00  0.00     0.009 A 
ATOM     51  C   UNL A   1      47.096  35.020  27.730  1.00  0.00     0.001 A 
ATOM     52  C   UNL A   1      47.899  34.395  29.920  1.00  0.00     0.001 A 
ATOM     53  C   UNL A   1      47.737  35.355  28.922  1.00  0.00     0.000 A 
ENDBRANCH  29  48
BRANCH  41  54
ATOM     54  C   UNL A   1      49.644  27.021  25.793  1.00  0.00    -0.014 A 
ATOM     55  C   UNL A   1      50.716  26.529  26.554  1.00  0.00     0.009 A 
ATOM     56  C   UNL A   1      49.836  27.261  24.423  1.00  0.00     0.009 A 
ATOM     57  C   UNL A   1      51.966  26.330  25.964  1.00  0.00     0.001 A 
ATOM     58  C   UNL A   1      51.076  27.026  23.829  1.00  0.00     0.001 A 
ATOM     59  C   UNL A   1      52.143  26.574  24.603  1.00  0.00     0.000 A 
ENDBRANCH  41  54
ENDBRANCH  15  16
ENDBRANCH   8  10
ENDBRANCH   5   6
ENDBRANCH   4   5
ENDBRANCH   3   4
ENDBRANCH   2   3
ENDBRANCH   1   2
BRANCH   1  60
ATOM     60  C   UNL A   1      32.929  28.086  26.585  1.00  0.00     0.116 C 
BRANCH  60  61
ATOM     61  N   UNL A   1      32.136  28.883  25.680  1.00  0.00    -0.354 N 
ATOM     62  C   UNL A   1      31.219  28.516  24.745  1.00  0.00     0.244 C 
ATOM     63  H   UNL A   1      32.284  29.854  25.752  1.00  0.00     0.163 HD
ATOM     64  O   UNL A   1      30.792  29.415  24.012  1.00  0.00    -0.273 OA
BRANCH  62  65
ATOM     65  C   UNL A   1      30.868  27.037  24.473  1.00  0.00     0.197 C 
BRANCH  65  66
ATOM     66  N   UNL A   1      30.046  26.385  25.489  1.00  0.00    -0.340 N 
ATOM     67  C   UNL A   1      30.133  25.135  26.030  1.00  0.00     0.244 C 
ATOM     68  H   UNL A   1      29.309  26.936  25.840  1.00  0.00     0.164 HD
ATOM     69  O   UNL A   1      29.185  24.777  26.731  1.00  0.00    -0.273 OA
BRANCH  67  70
ATOM     70  C   UNL A   1      31.294  24.156  25.654  1.00  0.00     0.181 C 
BRANCH  70  71
ATOM     71  N   UNL A   1      32.629  24.755  25.458  1.00  0.00    -0.342 N 
ATOM     72  C   UNL A   1      33.841  24.319  25.018  1.00  0.00     0.243 C 
ATOM     73  H   UNL A   1      32.647  25.707  25.707  1.00  0.00     0.164 HD
ATOM     74  O   UNL A   1      34.781  25.064  25.319  1.00  0.00    -0.273 OA
BRANCH  72  75
ATOM     75  C   UNL A   1      34.086  22.938  24.354  1.00  0.00     0.176 C 
BRANCH  75  76
ATOM     76  N   UNL A   1      33.011  22.544  23.442  1.00  0.00    -0.340 N 
ATOM     77  C   UNL A   1      32.460  21.353  23.066  1.00  0.00     0.251 C 
ATOM     78  H   UNL A   1      32.589  23.314  22.996  1.00  0.00     0.164 HD
ATOM     79  O   UNL A   1      31.729  21.398  22.075  1.00  0.00    -0.269 OA
BRANCH  77  80
ATOM     80  C   UNL A   1      32.624  20.055  23.782  1.00  0.00     0.040 A 
ATOM     81  C   UNL A   1      32.773  19.908  25.166  1.00  0.00     0.017 A 
ATOM     82  C   UNL A   1      32.474  18.890  23.007  1.00  0.00     0.017 A 
ATOM     83  C   UNL A   1      32.746  18.646  25.765  1.00  0.00     0.040 A 
ATOM     84  C   UNL A   1      32.458  17.626  23.602  1.00  0.00     0.040 A 
ATOM     85  C   UNL A   1      32.584  17.517  24.979  1.00  0.00     0.123 A 
ATOM     86  F   UNL A   1      32.533  16.313  25.560  1.00  0.00    -0.207 F 
ENDBRANCH  77  80
ENDBRANCH  75  76
BRANCH  75  87
ATOM     87  C   UNL A   1      35.422  22.936  23.562  1.00  0.00     0.072 C 
BRANCH  87  88
ATOM     88  C   UNL A   1      36.494  22.191  24.294  1.00  0.00    -0.020 A 
ATOM     89  C   UNL A   1      36.704  20.826  24.263  1.00  0.00     0.087 A 
ATOM     90  C   UNL A   1      37.473  22.748  25.174  1.00  0.00     0.003 A 
ATOM     91  N   UNL A   1      37.757  20.538  25.086  1.00  0.00    -0.361 N 
ATOM     92  C   UNL A   1      38.242  21.691  25.659  1.00  0.00     0.046 A 
ATOM     93  C   UNL A   1      37.772  24.055  25.608  1.00  0.00     0.010 A 
ATOM     94  H   UNL A   1      38.118  19.636  25.245  1.00  0.00     0.166 HD
ATOM     95  C   UNL A   1      39.296  21.875  26.562  1.00  0.00     0.026 A 
ATOM     96  C   UNL A   1      38.823  24.257  26.508  1.00  0.00     0.001 A 
ATOM     97  C   UNL A   1      39.572  23.181  26.977  1.00  0.00     0.002 A 
ENDBRANCH  87  88
ENDBRANCH  75  87
ENDBRANCH  72  75
ENDBRANCH  70  71
BRANCH  70  98
ATOM     98  C   UNL A   1      31.399  23.045  26.730  1.00  0.00     0.101 C 
BRANCH  98  99
ATOM     99  S   UNL A   1      33.004  23.035  27.626  1.00  0.00    -0.177 SA
ATOM    100  H   UNL A   1      33.902  22.279  26.939  1.00  0.00     0.102 HD
ENDBRANCH  98  99
ENDBRANCH  70  98
ENDBRANCH  67  70
ENDBRANCH  65  66
BRANCH  65 101
ATOM    101  C   UNL A   1      30.180  26.925  23.098  1.00  0.00     0.191 C 
BRANCH 101 102
ATOM    102  O   UNL A   1      30.976  27.530  22.075  1.00  0.00    -0.394 OA
ATOM    103  H   UNL A   1      31.367  26.839  21.518  1.00  0.00     0.210 HD
ENDBRANCH 101 102
ENDBRANCH  65 101
ENDBRANCH  62  65
ENDBRANCH  60  61
ENDBRANCH   1  60
TORSDOF 25
ENDMDL
