MODEL 1
REMARK VINA RESULT:     -10.8      0.000      0.000
REMARK SMILES CC[C@](C)(NC(=O)N(C)Cc1cccc(C)c1)C(=O)NCCCCCCNC(=O)c1ccc(-c2c3nc(c(-c4ccccc4)c4ccc([nH]4)c(-c4ccccc4)c4nc(c(-c5ccccc5)c5ccc2[nH]5)C=C4)C=C3)cc1
REMARK SMILES IDX 22 1 21 2 20 3 18 4 19 5 3 7 4 8 2 9 1 10 5 11 6 12 7 14
REMARK SMILES IDX 8 15 9 16 10 17 11 18 12 19 17 20 13 21 15 22 14 23 16 24
REMARK SMILES IDX 23 25 24 26 25 27 26 28 27 29 28 30 29 32 30 33 31 34 77 35
REMARK SMILES IDX 32 36 76 37 33 38 34 39 35 40 70 41 36 42 75 43 69 44 71 45
REMARK SMILES IDX 37 46 74 47 68 48 67 49 38 51 60 52 45 53 59 54 46 55 49 56
REMARK SMILES IDX 58 57 72 58 47 59 48 60 57 62 73 63 50 64 39 65 40 66 44 67
REMARK SMILES IDX 41 68 43 69 42 70 61 71 62 72 66 73 63 74 65 75 64 76 51 77
REMARK SMILES IDX 52 78 56 79 53 80 55 81 54 82
REMARK H PARENT 20 6 5 13 27 31 71 50 49 61
REMARK Flexibility Score: inf
ROOT
ATOM      1  C   UNL A   1      33.627  22.946  26.733  1.00  0.00     0.021 C 
ENDROOT
BRANCH   1   2
ATOM      2  C   UNL A   1      33.175  24.344  26.302  1.00  0.00     0.116 C 
BRANCH   2   3
ATOM      3  N   UNL A   1      31.817  24.693  26.677  1.00  0.00    -0.354 N 
ATOM      4  C   UNL A   1      30.774  25.212  25.964  1.00  0.00     0.245 C 
ATOM      5  O   UNL A   1      29.692  25.285  26.558  1.00  0.00    -0.272 OA
ATOM      6  H   UNL A   1      31.608  24.524  27.623  1.00  0.00     0.163 HD
BRANCH   4   7
ATOM      7  C   UNL A   1      30.889  25.566  24.454  1.00  0.00     0.117 C 
ATOM      8  C   UNL A   1      29.644  26.284  23.901  1.00  0.00     0.045 C 
BRANCH   7   9
ATOM      9  C   UNL A   1      31.029  24.199  23.697  1.00  0.00     0.035 C 
ATOM     10  C   UNL A   1      32.243  24.069  22.780  1.00  0.00     0.007 C 
ENDBRANCH   7   9
BRANCH   7  11
ATOM     11  N   UNL A   1      32.090  26.376  24.143  1.00  0.00    -0.324 N 
ATOM     12  C   UNL A   1      32.505  27.647  24.226  1.00  0.00     0.318 C 
ATOM     13  H   UNL A   1      32.797  25.807  23.761  1.00  0.00     0.166 HD
ATOM     14  O   UNL A   1      33.545  27.859  23.589  1.00  0.00    -0.249 OA
BRANCH  12  15
ATOM     15  N   UNL A   1      31.932  28.611  25.002  1.00  0.00    -0.324 N 
ATOM     16  C   UNL A   1      30.954  29.626  24.630  1.00  0.00     0.149 C 
BRANCH  15  17
ATOM     17  C   UNL A   1      32.220  28.543  26.449  1.00  0.00     0.156 C 
BRANCH  17  18
ATOM     18  C   UNL A   1      33.418  29.365  26.870  1.00  0.00    -0.028 A 
ATOM     19  C   UNL A   1      34.682  28.772  26.968  1.00  0.00     0.005 A 
ATOM     20  C   UNL A   1      33.275  30.722  27.202  1.00  0.00     0.009 A 
ATOM     21  C   UNL A   1      35.765  29.505  27.453  1.00  0.00     0.001 A 
ATOM     22  C   UNL A   1      34.336  31.441  27.756  1.00  0.00    -0.051 A 
ATOM     23  C   UNL A   1      35.588  30.828  27.862  1.00  0.00     0.003 A 
ATOM     24  C   UNL A   1      34.117  32.845  28.230  1.00  0.00     0.044 C 
ENDBRANCH  17  18
ENDBRANCH  15  17
ENDBRANCH  12  15
ENDBRANCH   7  11
ENDBRANCH   4   7
ENDBRANCH   2   3
ENDBRANCH   1   2
BRANCH   1  25
ATOM     25  C   UNL A   1      34.856  22.354  26.036  1.00  0.00     0.002 C 
BRANCH  25  26
ATOM     26  C   UNL A   1      35.678  23.304  25.160  1.00  0.00     0.002 C 
BRANCH  26  27
ATOM     27  C   UNL A   1      37.016  22.763  24.665  1.00  0.00     0.021 C 
BRANCH  27  28
ATOM     28  C   UNL A   1      38.061  22.596  25.754  1.00  0.00     0.116 C 
BRANCH  28  29
ATOM     29  N   UNL A   1      38.701  21.291  25.754  1.00  0.00    -0.352 N 
ATOM     30  C   UNL A   1      40.013  20.939  25.963  1.00  0.00     0.251 C 
ATOM     31  H   UNL A   1      38.097  20.535  25.575  1.00  0.00     0.163 HD
ATOM     32  O   UNL A   1      40.353  19.789  25.740  1.00  0.00    -0.269 OA
BRANCH  30  33
ATOM     33  C   UNL A   1      40.981  21.880  26.608  1.00  0.00     0.039 A 
ATOM     34  C   UNL A   1      41.026  21.872  28.012  1.00  0.00     0.014 A 
ATOM     35  C   UNL A   1      41.663  22.875  25.913  1.00  0.00     0.014 A 
ATOM     36  C   UNL A   1      41.518  22.977  28.697  1.00  0.00     0.010 A 
ATOM     37  C   UNL A   1      42.072  24.008  26.580  1.00  0.00     0.010 A 
ATOM     38  C   UNL A   1      41.926  24.084  27.964  1.00  0.00    -0.014 A 
BRANCH  38  39
ATOM     39  C   UNL A   1      42.123  25.405  28.531  1.00  0.00     0.031 A 
ATOM     40  C   UNL A   1      41.038  26.395  28.491  1.00  0.00     0.074 A 
ATOM     41  C   UNL A   1      43.281  25.667  29.171  1.00  0.00     0.049 A 
ATOM     42  N   UNL A   1      41.220  27.663  28.631  1.00  0.00    -0.248 NA
ATOM     43  C   UNL A   1      39.655  26.036  28.198  1.00  0.00     0.031 C 
ATOM     44  C   UNL A   1      43.586  26.776  30.068  1.00  0.00     0.029 A 
ATOM     45  N   UNL A   1      44.511  25.062  28.946  1.00  0.00    -0.354 N 
ATOM     46  C   UNL A   1      39.979  28.238  28.763  1.00  0.00     0.074 A 
ATOM     47  C   UNL A   1      39.050  27.219  28.340  1.00  0.00     0.031 C 
ATOM     48  C   UNL A   1      44.920  26.921  30.141  1.00  0.00     0.029 A 
ATOM     49  C   UNL A   1      45.508  26.023  29.158  1.00  0.00     0.049 A 
ATOM     50  H   UNL A   1      44.656  24.125  28.683  1.00  0.00     0.167 HD
ATOM     51  C   UNL A   1      39.883  29.453  29.369  1.00  0.00     0.031 A 
ATOM     52  C   UNL A   1      46.302  26.431  28.123  1.00  0.00     0.031 A 
ATOM     53  C   UNL A   1      41.203  30.053  29.571  1.00  0.00     0.049 A 
ATOM     54  C   UNL A   1      46.140  27.896  27.778  1.00  0.00     0.074 A 
ATOM     55  C   UNL A   1      42.015  30.207  30.682  1.00  0.00     0.029 A 
ATOM     56  N   UNL A   1      41.997  30.332  28.462  1.00  0.00    -0.354 N 
ATOM     57  N   UNL A   1      45.110  28.621  28.117  1.00  0.00    -0.248 NA
ATOM     58  C   UNL A   1      47.120  28.652  27.000  1.00  0.00     0.031 C 
ATOM     59  C   UNL A   1      43.331  30.493  30.225  1.00  0.00     0.029 A 
ATOM     60  C   UNL A   1      43.305  30.558  28.842  1.00  0.00     0.049 A 
ATOM     61  H   UNL A   1      41.670  30.364  27.534  1.00  0.00     0.167 HD
ATOM     62  C   UNL A   1      45.264  29.896  27.636  1.00  0.00     0.074 A 
ATOM     63  C   UNL A   1      46.543  29.867  26.952  1.00  0.00     0.031 C 
ATOM     64  C   UNL A   1      44.319  30.862  27.838  1.00  0.00     0.031 A 
BRANCH  51  65
ATOM     65  C   UNL A   1      38.623  29.989  30.014  1.00  0.00    -0.014 A 
ATOM     66  C   UNL A   1      38.433  31.381  30.102  1.00  0.00     0.009 A 
ATOM     67  C   UNL A   1      37.639  29.205  30.645  1.00  0.00     0.009 A 
ATOM     68  C   UNL A   1      37.359  31.946  30.809  1.00  0.00     0.001 A 
ATOM     69  C   UNL A   1      36.558  29.759  31.343  1.00  0.00     0.001 A 
ATOM     70  C   UNL A   1      36.424  31.133  31.435  1.00  0.00     0.000 A 
ENDBRANCH  51  65
BRANCH  52  71
ATOM     71  C   UNL A   1      46.572  25.354  27.125  1.00  0.00    -0.014 A 
ATOM     72  C   UNL A   1      46.283  24.022  27.488  1.00  0.00     0.009 A 
ATOM     73  C   UNL A   1      46.723  25.657  25.764  1.00  0.00     0.009 A 
ATOM     74  C   UNL A   1      46.030  23.052  26.513  1.00  0.00     0.001 A 
ATOM     75  C   UNL A   1      46.482  24.678  24.791  1.00  0.00     0.001 A 
ATOM     76  C   UNL A   1      46.098  23.390  25.164  1.00  0.00     0.000 A 
ENDBRANCH  52  71
BRANCH  64  77
ATOM     77  C   UNL A   1      44.263  32.213  27.163  1.00  0.00    -0.014 A 
ATOM     78  C   UNL A   1      44.270  32.415  25.777  1.00  0.00     0.009 A 
ATOM     79  C   UNL A   1      44.055  33.363  27.962  1.00  0.00     0.009 A 
ATOM     80  C   UNL A   1      44.121  33.695  25.222  1.00  0.00     0.001 A 
ATOM     81  C   UNL A   1      43.856  34.632  27.413  1.00  0.00     0.001 A 
ATOM     82  C   UNL A   1      43.902  34.800  26.038  1.00  0.00     0.000 A 
ENDBRANCH  64  77
ENDBRANCH  38  39
ENDBRANCH  30  33
ENDBRANCH  28  29
ENDBRANCH  27  28
ENDBRANCH  26  27
ENDBRANCH  25  26
ENDBRANCH   1  25
TORSDOF 18
ENDMDL
MODEL 2
REMARK VINA RESULT:     -10.4      2.934      8.627
REMARK SMILES CC[C@](C)(NC(=O)N(C)Cc1cccc(C)c1)C(=O)NCCCCCCNC(=O)c1ccc(-c2c3nc(c(-c4ccccc4)c4ccc([nH]4)c(-c4ccccc4)c4nc(c(-c5ccccc5)c5ccc2[nH]5)C=C4)C=C3)cc1
REMARK SMILES IDX 22 1 21 2 20 3 18 4 19 5 3 7 4 8 2 9 1 10 5 11 6 12 7 14
REMARK SMILES IDX 8 15 9 16 10 17 11 18 12 19 17 20 13 21 15 22 14 23 16 24
REMARK SMILES IDX 23 25 24 26 25 27 26 28 27 29 28 30 29 32 30 33 31 34 77 35
REMARK SMILES IDX 32 36 76 37 33 38 34 39 35 40 70 41 36 42 75 43 69 44 71 45
REMARK SMILES IDX 37 46 74 47 68 48 67 49 38 51 60 52 45 53 59 54 46 55 49 56
REMARK SMILES IDX 58 57 72 58 47 59 48 60 57 62 73 63 50 64 39 65 40 66 44 67
REMARK SMILES IDX 41 68 43 69 42 70 61 71 62 72 66 73 63 74 65 75 64 76 51 77
REMARK SMILES IDX 52 78 56 79 53 80 55 81 54 82
REMARK H PARENT 20 6 5 13 27 31 71 50 49 61
REMARK Flexibility Score: inf
ROOT
ATOM      1  C   UNL A   1      32.906  28.142  27.053  1.00  0.00     0.021 C 
ENDROOT
BRANCH   1   2
ATOM      2  C   UNL A   1      32.201  28.406  25.719  1.00  0.00     0.116 C 
BRANCH   2   3
ATOM      3  N   UNL A   1      32.938  27.984  24.542  1.00  0.00    -0.354 N 
ATOM      4  C   UNL A   1      32.761  26.946  23.673  1.00  0.00     0.245 C 
ATOM      5  O   UNL A   1      33.505  26.931  22.686  1.00  0.00    -0.272 OA
ATOM      6  H   UNL A   1      33.712  28.555  24.331  1.00  0.00     0.163 HD
BRANCH   4   7
ATOM      7  C   UNL A   1      31.607  25.916  23.827  1.00  0.00     0.117 C 
ATOM      8  C   UNL A   1      31.745  24.703  22.888  1.00  0.00     0.045 C 
BRANCH   7   9
ATOM      9  C   UNL A   1      30.291  26.676  23.437  1.00  0.00     0.035 C 
ATOM     10  C   UNL A   1      29.063  26.357  24.288  1.00  0.00     0.007 C 
ENDBRANCH   7   9
BRANCH   7  11
ATOM     11  N   UNL A   1      31.450  25.432  25.218  1.00  0.00    -0.324 N 
ATOM     12  C   UNL A   1      32.049  24.592  26.074  1.00  0.00     0.318 C 
ATOM     13  H   UNL A   1      30.670  25.857  25.643  1.00  0.00     0.166 HD
ATOM     14  O   UNL A   1      31.364  24.353  27.077  1.00  0.00    -0.249 OA
BRANCH  12  15
ATOM     15  N   UNL A   1      33.319  24.112  25.943  1.00  0.00    -0.324 N 
ATOM     16  C   UNL A   1      34.502  24.784  25.418  1.00  0.00     0.149 C 
BRANCH  15  17
ATOM     17  C   UNL A   1      33.583  22.787  26.538  1.00  0.00     0.156 C 
BRANCH  17  18
ATOM     18  C   UNL A   1      33.128  21.631  25.675  1.00  0.00    -0.028 A 
ATOM     19  C   UNL A   1      33.219  20.318  26.151  1.00  0.00     0.005 A 
ATOM     20  C   UNL A   1      32.643  21.852  24.377  1.00  0.00     0.009 A 
ATOM     21  C   UNL A   1      32.895  19.246  25.319  1.00  0.00     0.001 A 
ATOM     22  C   UNL A   1      32.386  20.784  23.514  1.00  0.00    -0.051 A 
ATOM     23  C   UNL A   1      32.497  19.479  24.001  1.00  0.00     0.003 A 
ATOM     24  C   UNL A   1      32.003  21.052  22.091  1.00  0.00     0.044 C 
ENDBRANCH  17  18
ENDBRANCH  15  17
ENDBRANCH  12  15
ENDBRANCH   7  11
ENDBRANCH   4   7
ENDBRANCH   2   3
ENDBRANCH   1   2
BRANCH   1  25
ATOM     25  C   UNL A   1      34.157  28.969  27.366  1.00  0.00     0.002 C 
BRANCH  25  26
ATOM     26  C   UNL A   1      34.205  30.392  26.804  1.00  0.00     0.002 C 
BRANCH  26  27
ATOM     27  C   UNL A   1      33.638  31.485  27.706  1.00  0.00     0.021 C 
BRANCH  27  28
ATOM     28  C   UNL A   1      34.638  32.565  28.078  1.00  0.00     0.116 C 
BRANCH  28  29
ATOM     29  N   UNL A   1      34.895  32.657  29.506  1.00  0.00    -0.352 N 
ATOM     30  C   UNL A   1      35.602  31.827  30.343  1.00  0.00     0.251 C 
ATOM     31  H   UNL A   1      34.499  33.443  29.947  1.00  0.00     0.163 HD
ATOM     32  O   UNL A   1      35.535  32.015  31.546  1.00  0.00    -0.269 OA
BRANCH  30  33
ATOM     33  C   UNL A   1      36.568  30.818  29.808  1.00  0.00     0.039 A 
ATOM     34  C   UNL A   1      36.636  29.590  30.488  1.00  0.00     0.014 A 
ATOM     35  C   UNL A   1      37.518  31.106  28.832  1.00  0.00     0.014 A 
ATOM     36  C   UNL A   1      37.774  28.797  30.376  1.00  0.00     0.010 A 
ATOM     37  C   UNL A   1      38.682  30.373  28.781  1.00  0.00     0.010 A 
ATOM     38  C   UNL A   1      38.835  29.264  29.612  1.00  0.00    -0.014 A 
BRANCH  38  39
ATOM     39  C   UNL A   1      40.183  28.733  29.685  1.00  0.00     0.031 A 
ATOM     40  C   UNL A   1      40.504  27.442  29.061  1.00  0.00     0.074 A 
ATOM     41  C   UNL A   1      41.145  29.489  30.253  1.00  0.00     0.049 A 
ATOM     42  N   UNL A   1      41.536  26.735  29.367  1.00  0.00    -0.248 NA
ATOM     43  C   UNL A   1      39.625  26.797  28.090  1.00  0.00     0.031 C 
ATOM     44  C   UNL A   1      42.591  29.322  30.171  1.00  0.00     0.029 A 
ATOM     45  N   UNL A   1      40.969  30.466  31.225  1.00  0.00    -0.354 N 
ATOM     46  C   UNL A   1      41.628  25.728  28.436  1.00  0.00     0.074 A 
ATOM     47  C   UNL A   1      40.350  25.722  27.767  1.00  0.00     0.031 C 
ATOM     48  C   UNL A   1      43.163  29.982  31.193  1.00  0.00     0.029 A 
ATOM     49  C   UNL A   1      42.092  30.447  32.061  1.00  0.00     0.049 A 
ATOM     50  H   UNL A   1      40.192  31.064  31.311  1.00  0.00     0.167 HD
ATOM     51  C   UNL A   1      42.834  25.130  28.238  1.00  0.00     0.031 A 
ATOM     52  C   UNL A   1      41.965  30.102  33.377  1.00  0.00     0.031 A 
ATOM     53  C   UNL A   1      43.802  25.530  29.260  1.00  0.00     0.049 A 
ATOM     54  C   UNL A   1      42.714  28.839  33.746  1.00  0.00     0.074 A 
ATOM     55  C   UNL A   1      44.881  26.399  29.257  1.00  0.00     0.029 A 
ATOM     56  N   UNL A   1      43.537  25.238  30.595  1.00  0.00    -0.354 N 
ATOM     57  N   UNL A   1      43.111  27.942  32.885  1.00  0.00    -0.248 NA
ATOM     58  C   UNL A   1      43.054  28.477  35.120  1.00  0.00     0.031 C 
ATOM     59  C   UNL A   1      45.205  26.698  30.609  1.00  0.00     0.029 A 
ATOM     60  C   UNL A   1      44.354  25.975  31.429  1.00  0.00     0.049 A 
ATOM     61  H   UNL A   1      42.860  24.593  30.903  1.00  0.00     0.167 HD
ATOM     62  C   UNL A   1      43.741  26.917  33.542  1.00  0.00     0.074 A 
ATOM     63  C   UNL A   1      43.687  27.304  34.940  1.00  0.00     0.031 C 
ATOM     64  C   UNL A   1      44.244  25.835  32.877  1.00  0.00     0.031 A 
BRANCH  51  65
ATOM     65  C   UNL A   1      43.222  24.385  26.978  1.00  0.00    -0.014 A 
ATOM     66  C   UNL A   1      44.047  25.019  26.029  1.00  0.00     0.009 A 
ATOM     67  C   UNL A   1      42.739  23.117  26.605  1.00  0.00     0.009 A 
ATOM     68  C   UNL A   1      44.330  24.444  24.781  1.00  0.00     0.001 A 
ATOM     69  C   UNL A   1      43.025  22.529  25.366  1.00  0.00     0.001 A 
ATOM     70  C   UNL A   1      43.813  23.199  24.446  1.00  0.00     0.000 A 
ENDBRANCH  51  65
BRANCH  52  71
ATOM     71  C   UNL A   1      40.659  30.511  33.973  1.00  0.00    -0.014 A 
ATOM     72  C   UNL A   1      40.538  31.824  34.473  1.00  0.00     0.009 A 
ATOM     73  C   UNL A   1      39.487  29.791  33.699  1.00  0.00     0.009 A 
ATOM     74  C   UNL A   1      39.286  32.439  34.577  1.00  0.00     0.001 A 
ATOM     75  C   UNL A   1      38.234  30.407  33.820  1.00  0.00     0.001 A 
ATOM     76  C   UNL A   1      38.137  31.740  34.219  1.00  0.00     0.000 A 
ENDBRANCH  52  71
BRANCH  64  77
ATOM     77  C   UNL A   1      44.736  24.550  33.502  1.00  0.00    -0.014 A 
ATOM     78  C   UNL A   1      46.070  24.286  33.839  1.00  0.00     0.009 A 
ATOM     79  C   UNL A   1      43.785  23.583  33.905  1.00  0.00     0.009 A 
ATOM     80  C   UNL A   1      46.438  23.105  34.503  1.00  0.00     0.001 A 
ATOM     81  C   UNL A   1      44.140  22.430  34.611  1.00  0.00     0.001 A 
ATOM     82  C   UNL A   1      45.473  22.185  34.899  1.00  0.00     0.000 A 
ENDBRANCH  64  77
ENDBRANCH  38  39
ENDBRANCH  30  33
ENDBRANCH  28  29
ENDBRANCH  27  28
ENDBRANCH  26  27
ENDBRANCH  25  26
ENDBRANCH   1  25
TORSDOF 18
ENDMDL
MODEL 3
REMARK VINA RESULT:     -10.4      3.416      9.061
REMARK SMILES CC[C@](C)(NC(=O)N(C)Cc1cccc(C)c1)C(=O)NCCCCCCNC(=O)c1ccc(-c2c3nc(c(-c4ccccc4)c4ccc([nH]4)c(-c4ccccc4)c4nc(c(-c5ccccc5)c5ccc2[nH]5)C=C4)C=C3)cc1
REMARK SMILES IDX 22 1 21 2 20 3 18 4 19 5 3 7 4 8 2 9 1 10 5 11 6 12 7 14
REMARK SMILES IDX 8 15 9 16 10 17 11 18 12 19 17 20 13 21 15 22 14 23 16 24
REMARK SMILES IDX 23 25 24 26 25 27 26 28 27 29 28 30 29 32 30 33 31 34 77 35
REMARK SMILES IDX 32 36 76 37 33 38 34 39 35 40 70 41 36 42 75 43 69 44 71 45
REMARK SMILES IDX 37 46 74 47 68 48 67 49 38 51 60 52 45 53 59 54 46 55 49 56
REMARK SMILES IDX 58 57 72 58 47 59 48 60 57 62 73 63 50 64 39 65 40 66 44 67
REMARK SMILES IDX 41 68 43 69 42 70 61 71 62 72 66 73 63 74 65 75 64 76 51 77
REMARK SMILES IDX 52 78 56 79 53 80 55 81 54 82
REMARK H PARENT 20 6 5 13 27 31 71 50 49 61
REMARK Flexibility Score: inf
ROOT
ATOM      1  C   UNL A   1      32.094  29.524  26.856  1.00  0.00     0.021 C 
ENDROOT
BRANCH   1   2
ATOM      2  C   UNL A   1      31.794  29.886  25.399  1.00  0.00     0.116 C 
BRANCH   2   3
ATOM      3  N   UNL A   1      32.875  29.626  24.467  1.00  0.00    -0.354 N 
ATOM      4  C   UNL A   1      32.953  28.846  23.348  1.00  0.00     0.245 C 
ATOM      5  O   UNL A   1      34.001  28.933  22.697  1.00  0.00    -0.272 OA
ATOM      6  H   UNL A   1      33.710  30.100  24.682  1.00  0.00     0.163 HD
BRANCH   4   7
ATOM      7  C   UNL A   1      31.754  28.000  22.835  1.00  0.00     0.117 C 
ATOM      8  C   UNL A   1      30.591  28.856  22.297  1.00  0.00     0.045 C 
BRANCH   7   9
ATOM      9  C   UNL A   1      31.224  27.200  24.077  1.00  0.00     0.035 C 
ATOM     10  C   UNL A   1      29.795  26.674  23.967  1.00  0.00     0.007 C 
ENDBRANCH   7   9
BRANCH   7  11
ATOM     11  N   UNL A   1      32.145  27.015  21.801  1.00  0.00    -0.324 N 
ATOM     12  C   UNL A   1      32.772  25.834  21.710  1.00  0.00     0.318 C 
ATOM     13  H   UNL A   1      31.858  27.322  20.910  1.00  0.00     0.166 HD
ATOM     14  O   UNL A   1      33.065  25.530  20.547  1.00  0.00    -0.249 OA
BRANCH  12  15
ATOM     15  N   UNL A   1      32.987  24.979  22.751  1.00  0.00    -0.324 N 
ATOM     16  C   UNL A   1      32.327  23.713  23.048  1.00  0.00     0.149 C 
BRANCH  15  17
ATOM     17  C   UNL A   1      34.137  25.288  23.624  1.00  0.00     0.156 C 
BRANCH  17  18
ATOM     18  C   UNL A   1      34.734  24.072  24.297  1.00  0.00    -0.028 A 
ATOM     19  C   UNL A   1      35.684  23.291  23.628  1.00  0.00     0.005 A 
ATOM     20  C   UNL A   1      34.322  23.688  25.583  1.00  0.00     0.009 A 
ATOM     21  C   UNL A   1      36.159  22.115  24.208  1.00  0.00     0.001 A 
ATOM     22  C   UNL A   1      34.737  22.477  26.138  1.00  0.00    -0.051 A 
ATOM     23  C   UNL A   1      35.673  21.701  25.450  1.00  0.00     0.003 A 
ATOM     24  C   UNL A   1      34.172  22.027  27.451  1.00  0.00     0.044 C 
ENDBRANCH  17  18
ENDBRANCH  15  17
ENDBRANCH  12  15
ENDBRANCH   7  11
ENDBRANCH   4   7
ENDBRANCH   2   3
ENDBRANCH   1   2
BRANCH   1  25
ATOM     25  C   UNL A   1      33.361  28.709  27.135  1.00  0.00     0.002 C 
BRANCH  25  26
ATOM     26  C   UNL A   1      34.654  29.498  27.359  1.00  0.00     0.002 C 
BRANCH  26  27
ATOM     27  C   UNL A   1      34.504  31.014  27.448  1.00  0.00     0.021 C 
BRANCH  27  28
ATOM     28  C   UNL A   1      34.430  31.549  28.866  1.00  0.00     0.116 C 
BRANCH  28  29
ATOM     29  N   UNL A   1      34.118  32.968  28.940  1.00  0.00    -0.352 N 
ATOM     30  C   UNL A   1      34.738  33.985  29.625  1.00  0.00     0.251 C 
ATOM     31  H   UNL A   1      33.334  33.245  28.414  1.00  0.00     0.163 HD
ATOM     32  O   UNL A   1      34.190  35.073  29.678  1.00  0.00    -0.269 OA
BRANCH  30  33
ATOM     33  C   UNL A   1      36.128  33.834  30.158  1.00  0.00     0.039 A 
ATOM     34  C   UNL A   1      37.176  34.165  29.283  1.00  0.00     0.014 A 
ATOM     35  C   UNL A   1      36.424  33.204  31.364  1.00  0.00     0.014 A 
ATOM     36  C   UNL A   1      38.448  33.643  29.494  1.00  0.00     0.010 A 
ATOM     37  C   UNL A   1      37.656  32.613  31.535  1.00  0.00     0.010 A 
ATOM     38  C   UNL A   1      38.638  32.772  30.559  1.00  0.00    -0.014 A 
BRANCH  38  39
ATOM     39  C   UNL A   1      39.786  31.895  30.694  1.00  0.00     0.031 A 
ATOM     40  C   UNL A   1      39.815  30.604  29.993  1.00  0.00     0.074 A 
ATOM     41  C   UNL A   1      40.853  32.330  31.396  1.00  0.00     0.049 A 
ATOM     42  N   UNL A   1      40.590  29.628  30.321  1.00  0.00    -0.248 NA
ATOM     43  C   UNL A   1      38.897  30.277  28.908  1.00  0.00     0.031 C 
ATOM     44  C   UNL A   1      42.205  31.784  31.414  1.00  0.00     0.029 A 
ATOM     45  N   UNL A   1      40.846  33.260  32.428  1.00  0.00    -0.354 N 
ATOM     46  C   UNL A   1      40.505  28.690  29.321  1.00  0.00     0.074 A 
ATOM     47  C   UNL A   1      39.341  29.066  28.555  1.00  0.00     0.031 C 
ATOM     48  C   UNL A   1      42.828  32.206  32.528  1.00  0.00     0.029 A 
ATOM     49  C   UNL A   1      41.838  32.892  33.345  1.00  0.00     0.049 A 
ATOM     50  H   UNL A   1      40.249  34.039  32.501  1.00  0.00     0.167 HD
ATOM     51  C   UNL A   1      41.525  27.802  29.169  1.00  0.00     0.031 A 
ATOM     52  C   UNL A   1      41.497  32.517  34.614  1.00  0.00     0.031 A 
ATOM     53  C   UNL A   1      42.460  27.867  30.294  1.00  0.00     0.049 A 
ATOM     54  C   UNL A   1      41.848  31.080  34.936  1.00  0.00     0.074 A 
ATOM     55  C   UNL A   1      43.724  28.412  30.446  1.00  0.00     0.029 A 
ATOM     56  N   UNL A   1      41.999  27.579  31.575  1.00  0.00    -0.354 N 
ATOM     57  N   UNL A   1      42.077  30.161  34.039  1.00  0.00    -0.248 NA
ATOM     58  C   UNL A   1      41.946  30.561  36.299  1.00  0.00     0.031 C 
ATOM     59  C   UNL A   1      43.981  28.533  31.839  1.00  0.00     0.029 A 
ATOM     60  C   UNL A   1      42.895  28.020  32.528  1.00  0.00     0.049 A 
ATOM     61  H   UNL A   1      41.149  27.124  31.775  1.00  0.00     0.167 HD
ATOM     62  C   UNL A   1      42.348  28.968  34.656  1.00  0.00     0.074 A 
ATOM     63  C   UNL A   1      42.263  29.273  36.073  1.00  0.00     0.031 C 
ATOM     64  C   UNL A   1      42.611  27.831  33.946  1.00  0.00     0.031 A 
BRANCH  51  65
ATOM     65  C   UNL A   1      41.824  27.055  27.886  1.00  0.00    -0.014 A 
ATOM     66  C   UNL A   1      42.594  25.877  27.939  1.00  0.00     0.009 A 
ATOM     67  C   UNL A   1      41.480  27.493  26.595  1.00  0.00     0.009 A 
ATOM     68  C   UNL A   1      43.026  25.214  26.780  1.00  0.00     0.001 A 
ATOM     69  C   UNL A   1      41.896  26.832  25.431  1.00  0.00     0.001 A 
ATOM     70  C   UNL A   1      42.681  25.696  25.524  1.00  0.00     0.000 A 
ENDBRANCH  51  65
BRANCH  52  71
ATOM     71  C   UNL A   1      40.293  33.228  35.137  1.00  0.00    -0.014 A 
ATOM     72  C   UNL A   1      39.042  32.583  35.035  1.00  0.00     0.009 A 
ATOM     73  C   UNL A   1      40.423  34.292  36.041  1.00  0.00     0.009 A 
ATOM     74  C   UNL A   1      37.993  32.913  35.900  1.00  0.00     0.001 A 
ATOM     75  C   UNL A   1      39.364  34.629  36.895  1.00  0.00     0.001 A 
ATOM     76  C   UNL A   1      38.166  33.914  36.851  1.00  0.00     0.000 A 
ENDBRANCH  52  71
BRANCH  64  77
ATOM     77  C   UNL A   1      42.685  26.426  34.501  1.00  0.00    -0.014 A 
ATOM     78  C   UNL A   1      41.701  25.830  35.300  1.00  0.00     0.009 A 
ATOM     79  C   UNL A   1      43.750  25.590  34.091  1.00  0.00     0.009 A 
ATOM     80  C   UNL A   1      41.796  24.489  35.701  1.00  0.00     0.001 A 
ATOM     81  C   UNL A   1      43.824  24.240  34.446  1.00  0.00     0.001 A 
ATOM     82  C   UNL A   1      42.849  23.692  35.264  1.00  0.00     0.000 A 
ENDBRANCH  64  77
ENDBRANCH  38  39
ENDBRANCH  30  33
ENDBRANCH  28  29
ENDBRANCH  27  28
ENDBRANCH  26  27
ENDBRANCH  25  26
ENDBRANCH   1  25
TORSDOF 18
ENDMDL
