MODEL 1
REMARK VINA RESULT:     -10.4      0.000      0.000
REMARK SMILES Cc1nc2scc(-c3cccs3)c2c(=O)n1CC(=O)NCCCCCCNC(=O)c1ccc(-c2c3nc(c(-c4ccccc4)c4ccc([nH]4)c(-c4ccccc4)c4nc(c(-c5ccccc5)c5ccc2[nH]5)C=C4)C=C3)cc1
REMARK SMILES IDX 23 1 22 2 21 3 20 4 18 5 19 6 17 8 16 9 1 10 2 11 3 12 4 13
REMARK SMILES IDX 14 14 5 15 13 16 15 17 6 18 7 19 8 20 9 21 12 22 10 23 11 24
REMARK SMILES IDX 24 25 25 26 26 27 27 28 28 29 29 31 30 32 31 33 77 34 32 35
REMARK SMILES IDX 76 36 33 37 34 38 35 39 70 40 36 41 75 42 69 43 71 44 37 45
REMARK SMILES IDX 74 46 68 47 67 48 38 50 60 51 45 52 59 53 46 54 49 55 58 56
REMARK SMILES IDX 72 57 47 58 48 59 57 61 73 62 50 63 39 64 40 65 44 66 41 67
REMARK SMILES IDX 43 68 42 69 61 70 62 71 66 72 63 73 65 74 64 75 51 76 52 77
REMARK SMILES IDX 56 78 53 79 55 80 54 81
REMARK H PARENT 20 7 27 30 71 49 49 60
REMARK Flexibility Score: inf
ROOT
ATOM      1  C   UNL A   1      39.965  21.874  27.109  1.00  0.00     0.002 C 
ENDROOT
BRANCH   1   2
ATOM      2  C   UNL A   1      39.713  23.224  26.427  1.00  0.00     0.021 C 
BRANCH   2   3
ATOM      3  C   UNL A   1      38.238  23.512  26.170  1.00  0.00     0.116 C 
BRANCH   3   4
ATOM      4  N   UNL A   1      37.824  23.113  24.845  1.00  0.00    -0.355 N 
ATOM      5  C   UNL A   1      36.596  22.729  24.394  1.00  0.00     0.240 C 
ATOM      6  O   UNL A   1      36.421  22.738  23.173  1.00  0.00    -0.273 OA
ATOM      7  H   UNL A   1      38.536  23.119  24.165  1.00  0.00     0.163 HD
BRANCH   5   8
ATOM      8  C   UNL A   1      35.421  22.488  25.356  1.00  0.00     0.227 C 
BRANCH   8   9
ATOM      9  N   UNL A   1      34.124  22.984  24.879  1.00  0.00    -0.287 N 
ATOM     10  C   UNL A   1      33.360  20.750  23.955  1.00  0.00     0.088 C 
ATOM     11  C   UNL A   1      33.157  22.229  24.231  1.00  0.00     0.110 A 
ATOM     12  N   UNL A   1      32.028  22.708  23.800  1.00  0.00    -0.224 NA
ATOM     13  C   UNL A   1      31.790  24.009  24.081  1.00  0.00     0.131 A 
ATOM     14  C   UNL A   1      33.882  24.327  25.227  1.00  0.00     0.263 A 
ATOM     15  S   UNL A   1      30.312  24.741  23.653  1.00  0.00    -0.123 S 
ATOM     16  C   UNL A   1      32.622  24.868  24.757  1.00  0.00     0.085 A 
ATOM     17  O   UNL A   1      34.674  24.983  25.896  1.00  0.00    -0.268 OA
ATOM     18  C   UNL A   1      30.737  26.194  24.446  1.00  0.00     0.077 A 
ATOM     19  C   UNL A   1      32.020  26.154  24.955  1.00  0.00     0.017 A 
BRANCH  19  20
ATOM     20  C   UNL A   1      32.619  27.335  25.662  1.00  0.00     0.036 A 
ATOM     21  C   UNL A   1      33.696  28.063  25.203  1.00  0.00     0.020 A 
ATOM     22  S   UNL A   1      32.033  27.947  27.148  1.00  0.00    -0.144 S 
ATOM     23  C   UNL A   1      34.088  29.084  26.118  1.00  0.00     0.012 A 
ATOM     24  C   UNL A   1      33.302  29.091  27.247  1.00  0.00     0.065 A 
ENDBRANCH  19  20
ENDBRANCH   8   9
ENDBRANCH   5   8
ENDBRANCH   3   4
ENDBRANCH   2   3
ENDBRANCH   1   2
BRANCH   1  25
ATOM     25  C   UNL A   1      41.347  21.707  27.764  1.00  0.00     0.002 C 
BRANCH  25  26
ATOM     26  C   UNL A   1      42.148  20.466  27.341  1.00  0.00     0.021 C 
BRANCH  26  27
ATOM     27  C   UNL A   1      42.163  20.250  25.839  1.00  0.00     0.116 C 
BRANCH  27  28
ATOM     28  N   UNL A   1      43.499  19.934  25.337  1.00  0.00    -0.352 N 
ATOM     29  C   UNL A   1      44.487  20.820  24.949  1.00  0.00     0.251 C 
ATOM     30  H   UNL A   1      43.722  18.977  25.267  1.00  0.00     0.163 HD
ATOM     31  O   UNL A   1      45.423  20.479  24.253  1.00  0.00    -0.269 OA
BRANCH  29  32
ATOM     32  C   UNL A   1      44.371  22.207  25.430  1.00  0.00     0.039 A 
ATOM     33  C   UNL A   1      43.499  23.118  24.833  1.00  0.00     0.014 A 
ATOM     34  C   UNL A   1      45.114  22.544  26.557  1.00  0.00     0.014 A 
ATOM     35  C   UNL A   1      43.323  24.362  25.435  1.00  0.00     0.010 A 
ATOM     36  C   UNL A   1      44.816  23.693  27.234  1.00  0.00     0.010 A 
ATOM     37  C   UNL A   1      43.975  24.635  26.648  1.00  0.00    -0.014 A 
BRANCH  37  38
ATOM     38  C   UNL A   1      43.749  25.884  27.365  1.00  0.00     0.031 A 
ATOM     39  C   UNL A   1      44.653  27.016  27.015  1.00  0.00     0.074 A 
ATOM     40  C   UNL A   1      42.648  26.072  28.125  1.00  0.00     0.049 A 
ATOM     41  N   UNL A   1      45.458  27.654  27.798  1.00  0.00    -0.248 NA
ATOM     42  C   UNL A   1      44.728  27.447  25.609  1.00  0.00     0.031 C 
ATOM     43  C   UNL A   1      41.498  25.176  28.321  1.00  0.00     0.029 A 
ATOM     44  N   UNL A   1      42.259  27.194  28.781  1.00  0.00    -0.354 N 
ATOM     45  C   UNL A   1      46.042  28.660  27.033  1.00  0.00     0.074 A 
ATOM     46  C   UNL A   1      45.645  28.416  25.668  1.00  0.00     0.031 C 
ATOM     47  C   UNL A   1      40.454  25.880  28.808  1.00  0.00     0.029 A 
ATOM     48  C   UNL A   1      40.918  27.212  29.142  1.00  0.00     0.049 A 
ATOM     49  H   UNL A   1      42.875  27.933  28.985  1.00  0.00     0.167 HD
ATOM     50  C   UNL A   1      46.669  29.730  27.601  1.00  0.00     0.031 A 
ATOM     51  C   UNL A   1      40.236  28.264  29.651  1.00  0.00     0.031 A 
ATOM     52  C   UNL A   1      46.915  29.527  29.002  1.00  0.00     0.049 A 
ATOM     53  C   UNL A   1      41.238  29.203  30.205  1.00  0.00     0.074 A 
ATOM     54  C   UNL A   1      47.679  28.644  29.735  1.00  0.00     0.029 A 
ATOM     55  N   UNL A   1      46.004  30.061  29.883  1.00  0.00    -0.354 N 
ATOM     56  N   UNL A   1      41.996  28.919  31.225  1.00  0.00    -0.248 NA
ATOM     57  C   UNL A   1      41.720  30.272  29.345  1.00  0.00     0.031 C 
ATOM     58  C   UNL A   1      46.871  28.321  30.867  1.00  0.00     0.029 A 
ATOM     59  C   UNL A   1      45.700  29.079  30.791  1.00  0.00     0.049 A 
ATOM     60  H   UNL A   1      45.638  30.974  29.865  1.00  0.00     0.167 HD
ATOM     61  C   UNL A   1      43.237  29.446  30.900  1.00  0.00     0.074 A 
ATOM     62  C   UNL A   1      42.981  30.352  29.781  1.00  0.00     0.031 C 
ATOM     63  C   UNL A   1      44.390  28.887  31.375  1.00  0.00     0.031 A 
BRANCH  50  64
ATOM     64  C   UNL A   1      46.760  31.093  26.974  1.00  0.00    -0.014 A 
ATOM     65  C   UNL A   1      47.995  31.765  26.965  1.00  0.00     0.009 A 
ATOM     66  C   UNL A   1      45.622  31.849  26.637  1.00  0.00     0.009 A 
ATOM     67  C   UNL A   1      48.078  33.134  26.682  1.00  0.00     0.001 A 
ATOM     68  C   UNL A   1      45.705  33.207  26.318  1.00  0.00     0.001 A 
ATOM     69  C   UNL A   1      46.932  33.856  26.364  1.00  0.00     0.000 A 
ENDBRANCH  50  64
BRANCH  51  70
ATOM     70  C   UNL A   1      38.832  28.655  29.407  1.00  0.00    -0.014 A 
ATOM     71  C   UNL A   1      37.945  28.832  30.480  1.00  0.00     0.009 A 
ATOM     72  C   UNL A   1      38.443  29.141  28.144  1.00  0.00     0.009 A 
ATOM     73  C   UNL A   1      36.736  29.516  30.305  1.00  0.00     0.001 A 
ATOM     74  C   UNL A   1      37.235  29.822  27.971  1.00  0.00     0.001 A 
ATOM     75  C   UNL A   1      36.388  30.026  29.056  1.00  0.00     0.000 A 
ENDBRANCH  51  70
BRANCH  63  76
ATOM     76  C   UNL A   1      44.273  27.788  32.407  1.00  0.00    -0.014 A 
ATOM     77  C   UNL A   1      44.041  28.040  33.773  1.00  0.00     0.009 A 
ATOM     78  C   UNL A   1      44.221  26.460  31.963  1.00  0.00     0.009 A 
ATOM     79  C   UNL A   1      43.788  26.993  34.666  1.00  0.00     0.001 A 
ATOM     80  C   UNL A   1      43.947  25.416  32.851  1.00  0.00     0.001 A 
ATOM     81  C   UNL A   1      43.734  25.681  34.202  1.00  0.00     0.000 A 
ENDBRANCH  63  76
ENDBRANCH  37  38
ENDBRANCH  29  32
ENDBRANCH  27  28
ENDBRANCH  26  27
ENDBRANCH  25  26
ENDBRANCH   1  25
TORSDOF 15
ENDMDL
MODEL 2
REMARK VINA RESULT:     -10.0      2.635      7.620
REMARK SMILES Cc1nc2scc(-c3cccs3)c2c(=O)n1CC(=O)NCCCCCCNC(=O)c1ccc(-c2c3nc(c(-c4ccccc4)c4ccc([nH]4)c(-c4ccccc4)c4nc(c(-c5ccccc5)c5ccc2[nH]5)C=C4)C=C3)cc1
REMARK SMILES IDX 23 1 22 2 21 3 20 4 18 5 19 6 17 8 16 9 1 10 2 11 3 12 4 13
REMARK SMILES IDX 14 14 5 15 13 16 15 17 6 18 7 19 8 20 9 21 12 22 10 23 11 24
REMARK SMILES IDX 24 25 25 26 26 27 27 28 28 29 29 31 30 32 31 33 77 34 32 35
REMARK SMILES IDX 76 36 33 37 34 38 35 39 70 40 36 41 75 42 69 43 71 44 37 45
REMARK SMILES IDX 74 46 68 47 67 48 38 50 60 51 45 52 59 53 46 54 49 55 58 56
REMARK SMILES IDX 72 57 47 58 48 59 57 61 73 62 50 63 39 64 40 65 44 66 41 67
REMARK SMILES IDX 43 68 42 69 61 70 62 71 66 72 63 73 65 74 64 75 51 76 52 77
REMARK SMILES IDX 56 78 53 79 55 80 54 81
REMARK H PARENT 20 7 27 30 71 49 49 60
REMARK Flexibility Score: inf
ROOT
ATOM      1  C   UNL A   1      32.157  29.358  26.916  1.00  0.00     0.002 C 
ENDROOT
BRANCH   1   2
ATOM      2  C   UNL A   1      31.421  28.754  25.715  1.00  0.00     0.021 C 
BRANCH   2   3
ATOM      3  C   UNL A   1      32.104  29.030  24.380  1.00  0.00     0.116 C 
BRANCH   3   4
ATOM      4  N   UNL A   1      31.162  29.382  23.343  1.00  0.00    -0.355 N 
ATOM      5  C   UNL A   1      30.606  28.607  22.370  1.00  0.00     0.240 C 
ATOM      6  O   UNL A   1      29.603  29.053  21.805  1.00  0.00    -0.273 OA
ATOM      7  H   UNL A   1      30.879  30.325  23.340  1.00  0.00     0.163 HD
BRANCH   5   8
ATOM      8  C   UNL A   1      31.076  27.165  22.119  1.00  0.00     0.227 C 
BRANCH   8   9
ATOM      9  N   UNL A   1      30.988  26.278  23.285  1.00  0.00    -0.287 N 
ATOM     10  C   UNL A   1      28.544  26.765  23.750  1.00  0.00     0.088 C 
ATOM     11  C   UNL A   1      29.856  26.069  24.061  1.00  0.00     0.110 A 
ATOM     12  N   UNL A   1      29.822  25.293  25.103  1.00  0.00    -0.224 NA
ATOM     13  C   UNL A   1      30.958  24.613  25.374  1.00  0.00     0.131 A 
ATOM     14  C   UNL A   1      32.169  25.546  23.515  1.00  0.00     0.263 A 
ATOM     15  S   UNL A   1      31.024  23.494  26.658  1.00  0.00    -0.123 S 
ATOM     16  C   UNL A   1      32.137  24.672  24.671  1.00  0.00     0.085 A 
ATOM     17  O   UNL A   1      33.145  25.630  22.777  1.00  0.00    -0.268 OA
ATOM     18  C   UNL A   1      32.608  23.013  26.231  1.00  0.00     0.077 A 
ATOM     19  C   UNL A   1      33.113  23.754  25.181  1.00  0.00     0.017 A 
BRANCH  19  20
ATOM     20  C   UNL A   1      34.503  23.528  24.661  1.00  0.00     0.036 A 
ATOM     21  C   UNL A   1      34.811  22.809  23.526  1.00  0.00     0.020 A 
ATOM     22  S   UNL A   1      35.909  24.148  25.416  1.00  0.00    -0.144 S 
ATOM     23  C   UNL A   1      36.218  22.704  23.318  1.00  0.00     0.012 A 
ATOM     24  C   UNL A   1      36.933  23.338  24.309  1.00  0.00     0.065 A 
ENDBRANCH  19  20
ENDBRANCH   8   9
ENDBRANCH   5   8
ENDBRANCH   3   4
ENDBRANCH   2   3
ENDBRANCH   1   2
BRANCH   1  25
ATOM     25  C   UNL A   1      33.670  29.566  26.734  1.00  0.00     0.002 C 
BRANCH  25  26
ATOM     26  C   UNL A   1      34.311  30.655  27.607  1.00  0.00     0.021 C 
BRANCH  26  27
ATOM     27  C   UNL A   1      35.658  30.247  28.176  1.00  0.00     0.116 C 
BRANCH  27  28
ATOM     28  N   UNL A   1      35.694  30.337  29.635  1.00  0.00    -0.352 N 
ATOM     29  C   UNL A   1      36.586  29.724  30.497  1.00  0.00     0.251 C 
ATOM     30  H   UNL A   1      35.004  30.900  30.053  1.00  0.00     0.163 HD
ATOM     31  O   UNL A   1      36.349  29.591  31.681  1.00  0.00    -0.269 OA
BRANCH  29  32
ATOM     32  C   UNL A   1      37.853  29.246  29.922  1.00  0.00     0.039 A 
ATOM     33  C   UNL A   1      38.552  29.987  28.968  1.00  0.00     0.014 A 
ATOM     34  C   UNL A   1      38.364  28.056  30.432  1.00  0.00     0.014 A 
ATOM     35  C   UNL A   1      39.818  29.553  28.584  1.00  0.00     0.010 A 
ATOM     36  C   UNL A   1      39.667  27.727  30.182  1.00  0.00     0.010 A 
ATOM     37  C   UNL A   1      40.376  28.428  29.211  1.00  0.00    -0.014 A 
BRANCH  37  38
ATOM     38  C   UNL A   1      41.735  27.991  28.914  1.00  0.00     0.031 A 
ATOM     39  C   UNL A   1      41.864  26.706  28.171  1.00  0.00     0.074 A 
ATOM     40  C   UNL A   1      42.795  28.809  29.094  1.00  0.00     0.049 A 
ATOM     41  N   UNL A   1      42.468  25.630  28.554  1.00  0.00    -0.248 NA
ATOM     42  C   UNL A   1      41.179  26.571  26.874  1.00  0.00     0.031 C 
ATOM     43  C   UNL A   1      42.811  30.219  29.516  1.00  0.00     0.029 A 
ATOM     44  N   UNL A   1      44.097  28.581  28.791  1.00  0.00    -0.354 N 
ATOM     45  C   UNL A   1      42.371  24.723  27.502  1.00  0.00     0.074 A 
ATOM     46  C   UNL A   1      41.471  25.312  26.541  1.00  0.00     0.031 C 
ATOM     47  C   UNL A   1      43.996  30.776  29.186  1.00  0.00     0.029 A 
ATOM     48  C   UNL A   1      44.880  29.726  28.721  1.00  0.00     0.049 A 
ATOM     49  H   UNL A   1      44.457  27.679  28.634  1.00  0.00     0.167 HD
ATOM     50  C   UNL A   1      43.177  23.628  27.413  1.00  0.00     0.031 A 
ATOM     51  C   UNL A   1      46.157  29.801  28.280  1.00  0.00     0.031 A 
ATOM     52  C   UNL A   1      43.878  23.375  28.643  1.00  0.00     0.049 A 
ATOM     53  C   UNL A   1      46.722  28.434  28.353  1.00  0.00     0.074 A 
ATOM     54  C   UNL A   1      43.496  23.036  29.924  1.00  0.00     0.029 A 
ATOM     55  N   UNL A   1      45.161  23.856  28.745  1.00  0.00    -0.354 N 
ATOM     56  N   UNL A   1      46.915  27.800  29.475  1.00  0.00    -0.248 NA
ATOM     57  C   UNL A   1      46.642  27.598  27.167  1.00  0.00     0.031 C 
ATOM     58  C   UNL A   1      44.360  23.794  30.770  1.00  0.00     0.029 A 
ATOM     59  C   UNL A   1      45.257  24.490  29.957  1.00  0.00     0.049 A 
ATOM     60  H   UNL A   1      45.875  23.764  28.074  1.00  0.00     0.167 HD
ATOM     61  C   UNL A   1      46.542  26.491  29.208  1.00  0.00     0.074 A 
ATOM     62  C   UNL A   1      46.480  26.406  27.750  1.00  0.00     0.031 C 
ATOM     63  C   UNL A   1      46.042  25.684  30.191  1.00  0.00     0.031 A 
BRANCH  50  64
ATOM     64  C   UNL A   1      43.595  22.982  26.122  1.00  0.00    -0.014 A 
ATOM     65  C   UNL A   1      43.555  21.580  26.010  1.00  0.00     0.009 A 
ATOM     66  C   UNL A   1      44.279  23.681  25.111  1.00  0.00     0.009 A 
ATOM     67  C   UNL A   1      44.209  20.913  24.966  1.00  0.00     0.001 A 
ATOM     68  C   UNL A   1      44.902  23.022  24.048  1.00  0.00     0.001 A 
ATOM     69  C   UNL A   1      44.886  21.634  23.989  1.00  0.00     0.000 A 
ENDBRANCH  50  64
BRANCH  51  70
ATOM     70  C   UNL A   1      46.802  30.886  27.513  1.00  0.00    -0.014 A 
ATOM     71  C   UNL A   1      46.026  31.849  26.849  1.00  0.00     0.009 A 
ATOM     72  C   UNL A   1      48.176  31.147  27.676  1.00  0.00     0.009 A 
ATOM     73  C   UNL A   1      46.595  33.051  26.411  1.00  0.00     0.001 A 
ATOM     74  C   UNL A   1      48.743  32.348  27.237  1.00  0.00     0.001 A 
ATOM     75  C   UNL A   1      47.948  33.308  26.620  1.00  0.00     0.000 A 
ENDBRANCH  51  70
BRANCH  63  76
ATOM     76  C   UNL A   1      46.072  26.196  31.613  1.00  0.00    -0.014 A 
ATOM     77  C   UNL A   1      45.042  26.976  32.170  1.00  0.00     0.009 A 
ATOM     78  C   UNL A   1      47.084  25.732  32.466  1.00  0.00     0.009 A 
ATOM     79  C   UNL A   1      45.038  27.298  33.532  1.00  0.00     0.001 A 
ATOM     80  C   UNL A   1      47.069  26.037  33.830  1.00  0.00     0.001 A 
ATOM     81  C   UNL A   1      46.049  26.823  34.362  1.00  0.00     0.000 A 
ENDBRANCH  63  76
ENDBRANCH  37  38
ENDBRANCH  29  32
ENDBRANCH  27  28
ENDBRANCH  26  27
ENDBRANCH  25  26
ENDBRANCH   1  25
TORSDOF 15
ENDMDL
MODEL 3
REMARK VINA RESULT:     -10.0      2.548      7.949
REMARK SMILES Cc1nc2scc(-c3cccs3)c2c(=O)n1CC(=O)NCCCCCCNC(=O)c1ccc(-c2c3nc(c(-c4ccccc4)c4ccc([nH]4)c(-c4ccccc4)c4nc(c(-c5ccccc5)c5ccc2[nH]5)C=C4)C=C3)cc1
REMARK SMILES IDX 23 1 22 2 21 3 20 4 18 5 19 6 17 8 16 9 1 10 2 11 3 12 4 13
REMARK SMILES IDX 14 14 5 15 13 16 15 17 6 18 7 19 8 20 9 21 12 22 10 23 11 24
REMARK SMILES IDX 24 25 25 26 26 27 27 28 28 29 29 31 30 32 31 33 77 34 32 35
REMARK SMILES IDX 76 36 33 37 34 38 35 39 70 40 36 41 75 42 69 43 71 44 37 45
REMARK SMILES IDX 74 46 68 47 67 48 38 50 60 51 45 52 59 53 46 54 49 55 58 56
REMARK SMILES IDX 72 57 47 58 48 59 57 61 73 62 50 63 39 64 40 65 44 66 41 67
REMARK SMILES IDX 43 68 42 69 61 70 62 71 66 72 63 73 65 74 64 75 51 76 52 77
REMARK SMILES IDX 56 78 53 79 55 80 54 81
REMARK H PARENT 20 7 27 30 71 49 49 60
REMARK Flexibility Score: inf
ROOT
ATOM      1  C   UNL A   1      31.925  29.576  25.160  1.00  0.00     0.002 C 
ENDROOT
BRANCH   1   2
ATOM      2  C   UNL A   1      33.016  29.196  24.153  1.00  0.00     0.021 C 
BRANCH   2   3
ATOM      3  C   UNL A   1      32.483  28.914  22.752  1.00  0.00     0.116 C 
BRANCH   3   4
ATOM      4  N   UNL A   1      33.186  27.831  22.105  1.00  0.00    -0.355 N 
ATOM      5  C   UNL A   1      33.352  26.538  22.503  1.00  0.00     0.240 C 
ATOM      6  O   UNL A   1      33.718  25.731  21.644  1.00  0.00    -0.273 OA
ATOM      7  H   UNL A   1      33.609  28.061  21.247  1.00  0.00     0.163 HD
BRANCH   5   8
ATOM      8  C   UNL A   1      32.915  26.059  23.898  1.00  0.00     0.227 C 
BRANCH   8   9
ATOM      9  N   UNL A   1      32.804  24.602  24.041  1.00  0.00    -0.287 N 
ATOM     10  C   UNL A   1      30.430  24.475  23.161  1.00  0.00     0.088 C 
ATOM     11  C   UNL A   1      31.688  23.840  23.722  1.00  0.00     0.110 A 
ATOM     12  N   UNL A   1      31.617  22.553  23.885  1.00  0.00    -0.224 NA
ATOM     13  C   UNL A   1      32.742  21.948  24.328  1.00  0.00     0.131 A 
ATOM     14  C   UNL A   1      34.003  23.993  24.457  1.00  0.00     0.263 A 
ATOM     15  S   UNL A   1      32.815  20.253  24.501  1.00  0.00    -0.123 S 
ATOM     16  C   UNL A   1      33.935  22.556  24.634  1.00  0.00     0.085 A 
ATOM     17  O   UNL A   1      35.034  24.633  24.638  1.00  0.00    -0.268 OA
ATOM     18  C   UNL A   1      34.475  20.310  24.906  1.00  0.00     0.077 A 
ATOM     19  C   UNL A   1      34.947  21.605  24.993  1.00  0.00     0.017 A 
BRANCH  19  20
ATOM     20  C   UNL A   1      36.369  21.896  25.372  1.00  0.00     0.036 A 
ATOM     21  C   UNL A   1      36.786  23.012  26.065  1.00  0.00     0.020 A 
ATOM     22  S   UNL A   1      37.681  20.864  24.993  1.00  0.00    -0.144 S 
ATOM     23  C   UNL A   1      38.203  23.055  26.220  1.00  0.00     0.012 A 
ATOM     24  C   UNL A   1      38.817  21.974  25.629  1.00  0.00     0.065 A 
ENDBRANCH  19  20
ENDBRANCH   8   9
ENDBRANCH   5   8
ENDBRANCH   3   4
ENDBRANCH   2   3
ENDBRANCH   1   2
BRANCH   1  25
ATOM     25  C   UNL A   1      32.425  30.128  26.506  1.00  0.00     0.002 C 
BRANCH  25  26
ATOM     26  C   UNL A   1      33.486  29.283  27.228  1.00  0.00     0.021 C 
BRANCH  26  27
ATOM     27  C   UNL A   1      34.770  30.044  27.500  1.00  0.00     0.116 C 
BRANCH  27  28
ATOM     28  N   UNL A   1      34.545  31.241  28.308  1.00  0.00    -0.352 N 
ATOM     29  C   UNL A   1      35.136  31.569  29.515  1.00  0.00     0.251 C 
ATOM     30  H   UNL A   1      33.897  31.891  27.951  1.00  0.00     0.163 HD
ATOM     31  O   UNL A   1      34.660  32.403  30.260  1.00  0.00    -0.269 OA
BRANCH  29  32
ATOM     32  C   UNL A   1      36.386  30.874  29.860  1.00  0.00     0.039 A 
ATOM     33  C   UNL A   1      36.382  29.640  30.512  1.00  0.00     0.014 A 
ATOM     34  C   UNL A   1      37.571  31.468  29.437  1.00  0.00     0.014 A 
ATOM     35  C   UNL A   1      37.591  28.966  30.667  1.00  0.00     0.010 A 
ATOM     36  C   UNL A   1      38.725  30.733  29.440  1.00  0.00     0.010 A 
ATOM     37  C   UNL A   1      38.758  29.514  30.112  1.00  0.00    -0.014 A 
BRANCH  37  38
ATOM     38  C   UNL A   1      40.029  28.802  30.163  1.00  0.00     0.031 A 
ATOM     39  C   UNL A   1      40.671  28.700  31.504  1.00  0.00     0.074 A 
ATOM     40  C   UNL A   1      40.478  28.082  29.112  1.00  0.00     0.049 A 
ATOM     41  N   UNL A   1      41.831  29.143  31.859  1.00  0.00    -0.248 NA
ATOM     42  C   UNL A   1      39.904  28.097  32.607  1.00  0.00     0.031 C 
ATOM     43  C   UNL A   1      39.815  27.815  27.826  1.00  0.00     0.029 A 
ATOM     44  N   UNL A   1      41.588  27.306  29.034  1.00  0.00    -0.354 N 
ATOM     45  C   UNL A   1      42.015  28.759  33.184  1.00  0.00     0.074 A 
ATOM     46  C   UNL A   1      40.754  28.219  33.630  1.00  0.00     0.031 C 
ATOM     47  C   UNL A   1      40.395  26.750  27.231  1.00  0.00     0.029 A 
ATOM     48  C   UNL A   1      41.580  26.395  27.986  1.00  0.00     0.049 A 
ATOM     49  H   UNL A   1      42.337  27.383  29.667  1.00  0.00     0.167 HD
ATOM     50  C   UNL A   1      43.246  28.750  33.771  1.00  0.00     0.031 A 
ATOM     51  C   UNL A   1      42.473  25.400  27.778  1.00  0.00     0.031 A 
ATOM     52  C   UNL A   1      44.221  29.455  32.986  1.00  0.00     0.049 A 
ATOM     53  C   UNL A   1      43.692  25.745  28.544  1.00  0.00     0.074 A 
ATOM     54  C   UNL A   1      44.382  30.765  32.587  1.00  0.00     0.029 A 
ATOM     55  N   UNL A   1      45.018  28.705  32.154  1.00  0.00    -0.354 N 
ATOM     56  N   UNL A   1      44.442  26.773  28.268  1.00  0.00    -0.248 NA
ATOM     57  C   UNL A   1      43.822  25.220  29.894  1.00  0.00     0.031 C 
ATOM     58  C   UNL A   1      44.853  30.677  31.242  1.00  0.00     0.029 A 
ATOM     59  C   UNL A   1      45.017  29.325  30.931  1.00  0.00     0.049 A 
ATOM     60  H   UNL A   1      45.498  27.879  32.391  1.00  0.00     0.167 HD
ATOM     61  C   UNL A   1      44.797  27.294  29.504  1.00  0.00     0.074 A 
ATOM     62  C   UNL A   1      44.471  26.240  30.464  1.00  0.00     0.031 C 
ATOM     63  C   UNL A   1      45.051  28.627  29.664  1.00  0.00     0.031 A 
BRANCH  50  64
ATOM     64  C   UNL A   1      43.650  27.822  34.883  1.00  0.00    -0.014 A 
ATOM     65  C   UNL A   1      43.884  28.347  36.166  1.00  0.00     0.009 A 
ATOM     66  C   UNL A   1      44.070  26.499  34.651  1.00  0.00     0.009 A 
ATOM     67  C   UNL A   1      44.549  27.602  37.149  1.00  0.00     0.001 A 
ATOM     68  C   UNL A   1      44.701  25.740  35.640  1.00  0.00     0.001 A 
ATOM     69  C   UNL A   1      44.962  26.301  36.883  1.00  0.00     0.000 A 
ENDBRANCH  50  64
BRANCH  51  70
ATOM     70  C   UNL A   1      42.232  24.046  27.239  1.00  0.00    -0.014 A 
ATOM     71  C   UNL A   1      42.760  23.670  25.994  1.00  0.00     0.009 A 
ATOM     72  C   UNL A   1      41.735  23.029  28.076  1.00  0.00     0.009 A 
ATOM     73  C   UNL A   1      42.834  22.322  25.623  1.00  0.00     0.001 A 
ATOM     74  C   UNL A   1      41.809  21.683  27.704  1.00  0.00     0.001 A 
ATOM     75  C   UNL A   1      42.376  21.328  26.485  1.00  0.00     0.000 A 
ENDBRANCH  51  70
BRANCH  63  76
ATOM     76  C   UNL A   1      45.111  29.492  28.425  1.00  0.00    -0.014 A 
ATOM     77  C   UNL A   1      43.981  30.128  27.878  1.00  0.00     0.009 A 
ATOM     78  C   UNL A   1      46.370  29.813  27.898  1.00  0.00     0.009 A 
ATOM     79  C   UNL A   1      44.107  31.039  26.824  1.00  0.00     0.001 A 
ATOM     80  C   UNL A   1      46.497  30.739  26.859  1.00  0.00     0.001 A 
ATOM     81  C   UNL A   1      45.366  31.349  26.319  1.00  0.00     0.000 A 
ENDBRANCH  63  76
ENDBRANCH  37  38
ENDBRANCH  29  32
ENDBRANCH  27  28
ENDBRANCH  26  27
ENDBRANCH  25  26
ENDBRANCH   1  25
TORSDOF 15
ENDMDL
