MODEL 1
REMARK VINA RESULT:     -11.0      0.000      0.000
REMARK SMILES CC1(C)[C@H](C(=O)NCCCCCCNC(=O)c2ccc(-c3c4nc(c(-c5ccccc5)c5ccc([nH]5)c(-c5ccccc5)c5nc(c(-c6ccccc6)c6ccc3[nH]6)C=C5)C=C4)cc2)[C@@H]1C(=O)Nc1ccc(NC(=O)C2CCC2)cc1
REMARK SMILES IDX 9 1 8 2 7 3 5 4 6 5 4 7 1 8 2 9 3 10 65 11 66 12 67 13 68 14
REMARK SMILES IDX 69 16 70 17 81 18 71 19 80 20 72 21 73 22 74 23 75 25 76 26
REMARK SMILES IDX 77 27 79 28 78 29 10 30 11 31 12 32 13 33 14 34 15 35 16 37
REMARK SMILES IDX 17 38 18 39 64 40 19 41 63 42 20 43 21 44 22 45 57 46 23 47
REMARK SMILES IDX 62 48 56 49 58 50 24 51 61 52 55 53 54 54 25 56 47 57 32 58
REMARK SMILES IDX 46 59 33 60 36 61 45 62 59 63 34 64 35 65 44 67 60 68 37 69
REMARK SMILES IDX 26 70 27 71 31 72 28 73 30 74 29 75 48 76 49 77 53 78 50 79
REMARK SMILES IDX 52 80 51 81 38 82 39 83 43 84 40 85 42 86 41 87
REMARK H PARENT 7 6 68 15 73 24 14 36 58 55 36 66
REMARK Flexibility Score: inf
ROOT
ATOM      1  C   UNL A   1      40.876  21.868  27.649  1.00  0.00     0.021 C 
ENDROOT
BRANCH   1   2
ATOM      2  C   UNL A   1      40.068  22.596  26.583  1.00  0.00     0.116 C 
BRANCH   2   3
ATOM      3  N   UNL A   1      39.395  21.646  25.729  1.00  0.00    -0.356 N 
ATOM      4  C   UNL A   1      38.105  21.403  25.373  1.00  0.00     0.224 C 
ATOM      5  O   UNL A   1      37.945  20.434  24.626  1.00  0.00    -0.275 OA
ATOM      6  H   UNL A   1      40.023  21.020  25.302  1.00  0.00     0.163 HD
BRANCH   4   7
ATOM      7  C   UNL A   1      36.884  22.150  25.757  1.00  0.00     0.098 C 
ATOM      8  C   UNL A   1      35.828  24.451  25.422  1.00  0.00     0.013 C 
ATOM      9  C   UNL A   1      36.064  23.065  24.863  1.00  0.00    -0.011 C 
ATOM     10  C   UNL A   1      36.279  23.097  23.370  1.00  0.00     0.013 C 
ATOM     11  C   UNL A   1      35.423  21.870  25.607  1.00  0.00     0.098 C 
BRANCH  11  12
ATOM     12  C   UNL A   1      34.798  20.688  24.981  1.00  0.00     0.228 C 
ATOM     13  O   UNL A   1      35.318  19.581  25.086  1.00  0.00    -0.274 OA
ATOM     14  N   UNL A   1      33.666  20.827  24.204  1.00  0.00    -0.326 N 
ATOM     15  H   UNL A   1      33.482  20.120  23.544  1.00  0.00     0.169 HD
BRANCH  14  16
ATOM     16  C   UNL A   1      32.757  21.888  24.275  1.00  0.00     0.041 A 
ATOM     17  C   UNL A   1      32.781  22.758  23.200  1.00  0.00     0.028 A 
ATOM     18  C   UNL A   1      31.777  22.030  25.253  1.00  0.00     0.028 A 
ATOM     19  C   UNL A   1      31.696  23.585  22.982  1.00  0.00     0.028 A 
ATOM     20  C   UNL A   1      30.824  23.058  25.129  1.00  0.00     0.028 A 
ATOM     21  C   UNL A   1      30.788  23.856  23.978  1.00  0.00     0.041 A 
BRANCH  21  22
ATOM     22  N   UNL A   1      29.850  24.886  23.865  1.00  0.00    -0.326 N 
ATOM     23  C   UNL A   1      29.889  26.240  24.154  1.00  0.00     0.227 C 
ATOM     24  H   UNL A   1      28.983  24.587  23.508  1.00  0.00     0.169 HD
ATOM     25  O   UNL A   1      28.832  26.845  23.884  1.00  0.00    -0.274 OA
BRANCH  23  26
ATOM     26  C   UNL A   1      31.088  27.025  24.761  1.00  0.00     0.079 C 
ATOM     27  C   UNL A   1      31.699  26.346  26.041  1.00  0.00     0.013 C 
ATOM     28  C   UNL A   1      32.570  27.038  24.260  1.00  0.00     0.013 C 
ATOM     29  C   UNL A   1      33.019  27.054  25.722  1.00  0.00     0.002 C 
ENDBRANCH  23  26
ENDBRANCH  21  22
ENDBRANCH  14  16
ENDBRANCH  11  12
ENDBRANCH   4   7
ENDBRANCH   2   3
ENDBRANCH   1   2
BRANCH   1  30
ATOM     30  C   UNL A   1      42.042  21.050  27.071  1.00  0.00     0.002 C 
BRANCH  30  31
ATOM     31  C   UNL A   1      42.145  19.606  27.581  1.00  0.00     0.002 C 
BRANCH  31  32
ATOM     32  C   UNL A   1      42.773  18.615  26.598  1.00  0.00     0.021 C 
BRANCH  32  33
ATOM     33  C   UNL A   1      42.906  19.141  25.175  1.00  0.00     0.116 C 
BRANCH  33  34
ATOM     34  N   UNL A   1      44.183  18.790  24.579  1.00  0.00    -0.352 N 
ATOM     35  C   UNL A   1      45.243  19.603  24.277  1.00  0.00     0.251 C 
ATOM     36  H   UNL A   1      44.303  17.838  24.362  1.00  0.00     0.163 HD
ATOM     37  O   UNL A   1      46.179  19.179  23.603  1.00  0.00    -0.269 OA
BRANCH  35  38
ATOM     38  C   UNL A   1      45.244  21.002  24.749  1.00  0.00     0.039 A 
ATOM     39  C   UNL A   1      45.613  21.267  26.069  1.00  0.00     0.014 A 
ATOM     40  C   UNL A   1      44.891  22.047  23.889  1.00  0.00     0.014 A 
ATOM     41  C   UNL A   1      45.668  22.587  26.516  1.00  0.00     0.010 A 
ATOM     42  C   UNL A   1      45.025  23.365  24.311  1.00  0.00     0.010 A 
ATOM     43  C   UNL A   1      45.402  23.648  25.633  1.00  0.00    -0.014 A 
BRANCH  43  44
ATOM     44  C   UNL A   1      45.502  25.057  26.083  1.00  0.00     0.031 A 
ATOM     45  C   UNL A   1      46.823  25.774  26.036  1.00  0.00     0.074 A 
ATOM     46  C   UNL A   1      44.412  25.677  26.577  1.00  0.00     0.049 A 
ATOM     47  N   UNL A   1      47.112  26.996  26.407  1.00  0.00    -0.248 NA
ATOM     48  C   UNL A   1      47.977  25.014  25.528  1.00  0.00     0.031 C 
ATOM     49  C   UNL A   1      43.083  25.077  26.712  1.00  0.00     0.029 A 
ATOM     50  N   UNL A   1      44.251  26.953  27.055  1.00  0.00    -0.354 N 
ATOM     51  C   UNL A   1      48.477  27.143  26.190  1.00  0.00     0.074 A 
ATOM     52  C   UNL A   1      48.969  25.872  25.709  1.00  0.00     0.031 C 
ATOM     53  C   UNL A   1      42.235  25.994  27.206  1.00  0.00     0.029 A 
ATOM     54  C   UNL A   1      42.968  27.229  27.462  1.00  0.00     0.049 A 
ATOM     55  H   UNL A   1      44.984  27.608  27.101  1.00  0.00     0.167 HD
ATOM     56  C   UNL A   1      49.248  28.244  26.354  1.00  0.00     0.031 A 
ATOM     57  C   UNL A   1      42.441  28.351  27.987  1.00  0.00     0.031 A 
ATOM     58  C   UNL A   1      48.755  29.511  26.827  1.00  0.00     0.049 A 
ATOM     59  C   UNL A   1      43.324  29.554  28.177  1.00  0.00     0.074 A 
ATOM     60  C   UNL A   1      49.445  30.701  26.980  1.00  0.00     0.029 A 
ATOM     61  N   UNL A   1      47.451  29.749  27.230  1.00  0.00    -0.354 N 
ATOM     62  N   UNL A   1      44.596  29.699  27.898  1.00  0.00    -0.248 NA
ATOM     63  C   UNL A   1      42.691  30.753  28.742  1.00  0.00     0.031 C 
ATOM     64  C   UNL A   1      48.572  31.643  27.532  1.00  0.00     0.029 A 
ATOM     65  C   UNL A   1      47.321  31.060  27.656  1.00  0.00     0.049 A 
ATOM     66  H   UNL A   1      46.724  29.085  27.215  1.00  0.00     0.167 HD
ATOM     67  C   UNL A   1      44.908  31.013  28.222  1.00  0.00     0.074 A 
ATOM     68  C   UNL A   1      43.686  31.627  28.700  1.00  0.00     0.031 C 
ATOM     69  C   UNL A   1      46.098  31.656  28.130  1.00  0.00     0.031 A 
BRANCH  56  70
ATOM     70  C   UNL A   1      50.712  28.122  26.028  1.00  0.00    -0.014 A 
ATOM     71  C   UNL A   1      51.198  28.395  24.739  1.00  0.00     0.009 A 
ATOM     72  C   UNL A   1      51.624  27.768  27.035  1.00  0.00     0.009 A 
ATOM     73  C   UNL A   1      52.561  28.278  24.456  1.00  0.00     0.001 A 
ATOM     74  C   UNL A   1      52.989  27.684  26.757  1.00  0.00     0.001 A 
ATOM     75  C   UNL A   1      53.456  27.929  25.467  1.00  0.00     0.000 A 
ENDBRANCH  56  70
BRANCH  57  76
ATOM     76  C   UNL A   1      41.002  28.399  28.360  1.00  0.00    -0.014 A 
ATOM     77  C   UNL A   1      40.055  28.954  27.484  1.00  0.00     0.009 A 
ATOM     78  C   UNL A   1      40.570  27.906  29.600  1.00  0.00     0.009 A 
ATOM     79  C   UNL A   1      38.712  29.045  27.859  1.00  0.00     0.001 A 
ATOM     80  C   UNL A   1      39.221  27.968  29.958  1.00  0.00     0.001 A 
ATOM     81  C   UNL A   1      38.296  28.549  29.093  1.00  0.00     0.000 A 
ENDBRANCH  57  76
BRANCH  69  82
ATOM     82  C   UNL A   1      46.125  33.110  28.513  1.00  0.00    -0.014 A 
ATOM     83  C   UNL A   1      45.853  34.121  27.579  1.00  0.00     0.009 A 
ATOM     84  C   UNL A   1      46.400  33.468  29.843  1.00  0.00     0.009 A 
ATOM     85  C   UNL A   1      45.897  35.465  27.961  1.00  0.00     0.001 A 
ATOM     86  C   UNL A   1      46.409  34.810  30.229  1.00  0.00     0.001 A 
ATOM     87  C   UNL A   1      46.170  35.806  29.285  1.00  0.00     0.000 A 
ENDBRANCH  69  82
ENDBRANCH  43  44
ENDBRANCH  35  38
ENDBRANCH  33  34
ENDBRANCH  32  33
ENDBRANCH  31  32
ENDBRANCH  30  31
ENDBRANCH   1  30
TORSDOF 17
ENDMDL
MODEL 2
REMARK VINA RESULT:     -10.8      5.420     10.520
REMARK SMILES CC1(C)[C@H](C(=O)NCCCCCCNC(=O)c2ccc(-c3c4nc(c(-c5ccccc5)c5ccc([nH]5)c(-c5ccccc5)c5nc(c(-c6ccccc6)c6ccc3[nH]6)C=C5)C=C4)cc2)[C@@H]1C(=O)Nc1ccc(NC(=O)C2CCC2)cc1
REMARK SMILES IDX 9 1 8 2 7 3 5 4 6 5 4 7 1 8 2 9 3 10 65 11 66 12 67 13 68 14
REMARK SMILES IDX 69 16 70 17 81 18 71 19 80 20 72 21 73 22 74 23 75 25 76 26
REMARK SMILES IDX 77 27 79 28 78 29 10 30 11 31 12 32 13 33 14 34 15 35 16 37
REMARK SMILES IDX 17 38 18 39 64 40 19 41 63 42 20 43 21 44 22 45 57 46 23 47
REMARK SMILES IDX 62 48 56 49 58 50 24 51 61 52 55 53 54 54 25 56 47 57 32 58
REMARK SMILES IDX 46 59 33 60 36 61 45 62 59 63 34 64 35 65 44 67 60 68 37 69
REMARK SMILES IDX 26 70 27 71 31 72 28 73 30 74 29 75 48 76 49 77 53 78 50 79
REMARK SMILES IDX 52 80 51 81 38 82 39 83 43 84 40 85 42 86 41 87
REMARK H PARENT 7 6 68 15 73 24 14 36 58 55 36 66
REMARK Flexibility Score: inf
ROOT
ATOM      1  C   UNL A   1      32.295  30.058  27.093  1.00  0.00     0.021 C 
ENDROOT
BRANCH   1   2
ATOM      2  C   UNL A   1      31.849  28.611  27.252  1.00  0.00     0.116 C 
BRANCH   2   3
ATOM      3  N   UNL A   1      32.855  27.716  26.730  1.00  0.00    -0.356 N 
ATOM      4  C   UNL A   1      32.923  26.820  25.710  1.00  0.00     0.224 C 
ATOM      5  O   UNL A   1      33.991  26.207  25.625  1.00  0.00    -0.275 OA
ATOM      6  H   UNL A   1      33.698  27.768  27.236  1.00  0.00     0.163 HD
BRANCH   4   7
ATOM      7  C   UNL A   1      31.893  26.494  24.696  1.00  0.00     0.098 C 
ATOM      8  C   UNL A   1      29.767  27.494  23.694  1.00  0.00     0.013 C 
ATOM      9  C   UNL A   1      31.279  27.452  23.688  1.00  0.00    -0.011 C 
ATOM     10  C   UNL A   1      31.872  28.818  23.447  1.00  0.00     0.013 C 
ATOM     11  C   UNL A   1      31.960  26.135  23.246  1.00  0.00     0.098 C 
BRANCH  11  12
ATOM     12  C   UNL A   1      33.170  26.020  22.408  1.00  0.00     0.228 C 
ATOM     13  O   UNL A   1      33.720  27.026  21.968  1.00  0.00    -0.274 OA
ATOM     14  N   UNL A   1      33.653  24.779  22.045  1.00  0.00    -0.326 N 
ATOM     15  H   UNL A   1      34.219  24.732  21.241  1.00  0.00     0.169 HD
BRANCH  14  16
ATOM     16  C   UNL A   1      33.405  23.582  22.724  1.00  0.00     0.041 A 
ATOM     17  C   UNL A   1      34.128  23.404  23.890  1.00  0.00     0.028 A 
ATOM     18  C   UNL A   1      32.413  22.666  22.383  1.00  0.00     0.028 A 
ATOM     19  C   UNL A   1      33.690  22.475  24.816  1.00  0.00     0.028 A 
ATOM     20  C   UNL A   1      32.161  21.574  23.235  1.00  0.00     0.028 A 
ATOM     21  C   UNL A   1      32.817  21.472  24.468  1.00  0.00     0.041 A 
BRANCH  21  22
ATOM     22  N   UNL A   1      32.576  20.378  25.305  1.00  0.00    -0.326 N 
ATOM     23  C   UNL A   1      32.909  19.036  25.231  1.00  0.00     0.227 C 
ATOM     24  H   UNL A   1      32.064  20.610  26.113  1.00  0.00     0.169 HD
ATOM     25  O   UNL A   1      32.527  18.365  26.210  1.00  0.00    -0.274 OA
BRANCH  23  26
ATOM     26  C   UNL A   1      33.682  18.334  24.077  1.00  0.00     0.079 C 
ATOM     27  C   UNL A   1      34.515  17.086  24.549  1.00  0.00     0.013 C 
ATOM     28  C   UNL A   1      33.108  17.343  23.011  1.00  0.00     0.013 C 
ATOM     29  C   UNL A   1      34.404  16.539  23.122  1.00  0.00     0.002 C 
ENDBRANCH  23  26
ENDBRANCH  21  22
ENDBRANCH  14  16
ENDBRANCH  11  12
ENDBRANCH   4   7
ENDBRANCH   2   3
ENDBRANCH   1   2
BRANCH   1  30
ATOM     30  C   UNL A   1      33.808  30.249  27.276  1.00  0.00     0.002 C 
BRANCH  30  31
ATOM     31  C   UNL A   1      34.246  31.658  27.697  1.00  0.00     0.002 C 
BRANCH  31  32
ATOM     32  C   UNL A   1      33.107  32.666  27.866  1.00  0.00     0.021 C 
BRANCH  32  33
ATOM     33  C   UNL A   1      33.561  34.118  27.946  1.00  0.00     0.116 C 
BRANCH  33  34
ATOM     34  N   UNL A   1      33.161  34.750  29.191  1.00  0.00    -0.352 N 
ATOM     35  C   UNL A   1      33.654  34.548  30.453  1.00  0.00     0.251 C 
ATOM     36  H   UNL A   1      32.437  35.413  29.119  1.00  0.00     0.163 HD
ATOM     37  O   UNL A   1      33.079  35.026  31.428  1.00  0.00    -0.269 OA
BRANCH  35  38
ATOM     38  C   UNL A   1      34.871  33.734  30.637  1.00  0.00     0.039 A 
ATOM     39  C   UNL A   1      36.056  34.146  30.026  1.00  0.00     0.014 A 
ATOM     40  C   UNL A   1      34.843  32.572  31.416  1.00  0.00     0.014 A 
ATOM     41  C   UNL A   1      37.226  33.415  30.232  1.00  0.00     0.010 A 
ATOM     42  C   UNL A   1      36.025  31.892  31.686  1.00  0.00     0.010 A 
ATOM     43  C   UNL A   1      37.226  32.298  31.086  1.00  0.00    -0.014 A 
BRANCH  43  44
ATOM     44  C   UNL A   1      38.473  31.540  31.349  1.00  0.00     0.031 A 
ATOM     45  C   UNL A   1      39.400  31.969  32.453  1.00  0.00     0.074 A 
ATOM     46  C   UNL A   1      38.793  30.492  30.564  1.00  0.00     0.049 A 
ATOM     47  N   UNL A   1      40.544  31.447  32.818  1.00  0.00    -0.248 NA
ATOM     48  C   UNL A   1      39.004  33.151  33.235  1.00  0.00     0.031 C 
ATOM     49  C   UNL A   1      37.997  30.003  29.436  1.00  0.00     0.029 A 
ATOM     50  N   UNL A   1      39.874  29.648  30.599  1.00  0.00    -0.354 N 
ATOM     51  C   UNL A   1      41.007  32.244  33.859  1.00  0.00     0.074 A 
ATOM     52  C   UNL A   1      40.051  33.315  34.029  1.00  0.00     0.031 C 
ATOM     53  C   UNL A   1      38.600  28.925  28.909  1.00  0.00     0.029 A 
ATOM     54  C   UNL A   1      39.842  28.674  29.631  1.00  0.00     0.049 A 
ATOM     55  H   UNL A   1      40.603  29.733  31.255  1.00  0.00     0.167 HD
ATOM     56  C   UNL A   1      42.116  32.086  34.619  1.00  0.00     0.031 A 
ATOM     57  C   UNL A   1      40.718  27.690  29.353  1.00  0.00     0.031 A 
ATOM     58  C   UNL A   1      43.064  31.017  34.451  1.00  0.00     0.049 A 
ATOM     59  C   UNL A   1      41.952  27.549  30.201  1.00  0.00     0.074 A 
ATOM     60  C   UNL A   1      44.192  30.740  35.203  1.00  0.00     0.029 A 
ATOM     61  N   UNL A   1      42.996  30.051  33.459  1.00  0.00    -0.354 N 
ATOM     62  N   UNL A   1      42.338  28.267  31.228  1.00  0.00    -0.248 NA
ATOM     63  C   UNL A   1      42.865  26.450  29.858  1.00  0.00     0.031 C 
ATOM     64  C   UNL A   1      44.840  29.642  34.628  1.00  0.00     0.029 A 
ATOM     65  C   UNL A   1      44.077  29.193  33.562  1.00  0.00     0.049 A 
ATOM     66  H   UNL A   1      42.285  29.986  32.782  1.00  0.00     0.167 HD
ATOM     67  C   UNL A   1      43.518  27.688  31.674  1.00  0.00     0.074 A 
ATOM     68  C   UNL A   1      43.774  26.548  30.817  1.00  0.00     0.031 C 
ATOM     69  C   UNL A   1      44.318  28.063  32.701  1.00  0.00     0.031 A 
BRANCH  56  70
ATOM     70  C   UNL A   1      42.369  33.104  35.698  1.00  0.00    -0.014 A 
ATOM     71  C   UNL A   1      41.869  32.931  36.998  1.00  0.00     0.009 A 
ATOM     72  C   UNL A   1      43.153  34.236  35.419  1.00  0.00     0.009 A 
ATOM     73  C   UNL A   1      42.117  33.886  37.987  1.00  0.00     0.001 A 
ATOM     74  C   UNL A   1      43.426  35.173  36.418  1.00  0.00     0.001 A 
ATOM     75  C   UNL A   1      42.900  35.002  37.697  1.00  0.00     0.000 A 
ENDBRANCH  56  70
BRANCH  57  76
ATOM     76  C   UNL A   1      40.457  26.751  28.229  1.00  0.00    -0.014 A 
ATOM     77  C   UNL A   1      39.628  25.633  28.411  1.00  0.00     0.009 A 
ATOM     78  C   UNL A   1      41.051  26.958  26.975  1.00  0.00     0.009 A 
ATOM     79  C   UNL A   1      39.427  24.724  27.369  1.00  0.00     0.001 A 
ATOM     80  C   UNL A   1      40.820  26.066  25.925  1.00  0.00     0.001 A 
ATOM     81  C   UNL A   1      40.020  24.943  26.127  1.00  0.00     0.000 A 
ENDBRANCH  57  76
BRANCH  69  82
ATOM     82  C   UNL A   1      45.522  27.207  32.984  1.00  0.00    -0.014 A 
ATOM     83  C   UNL A   1      46.772  27.483  32.408  1.00  0.00     0.009 A 
ATOM     84  C   UNL A   1      45.405  26.121  33.867  1.00  0.00     0.009 A 
ATOM     85  C   UNL A   1      47.870  26.662  32.680  1.00  0.00     0.001 A 
ATOM     86  C   UNL A   1      46.512  25.325  34.164  1.00  0.00     0.001 A 
ATOM     87  C   UNL A   1      47.740  25.589  33.560  1.00  0.00     0.000 A 
ENDBRANCH  69  82
ENDBRANCH  43  44
ENDBRANCH  35  38
ENDBRANCH  33  34
ENDBRANCH  32  33
ENDBRANCH  31  32
ENDBRANCH  30  31
ENDBRANCH   1  30
TORSDOF 17
ENDMDL
MODEL 3
REMARK VINA RESULT:     -10.8      3.292      9.534
REMARK SMILES CC1(C)[C@H](C(=O)NCCCCCCNC(=O)c2ccc(-c3c4nc(c(-c5ccccc5)c5ccc([nH]5)c(-c5ccccc5)c5nc(c(-c6ccccc6)c6ccc3[nH]6)C=C5)C=C4)cc2)[C@@H]1C(=O)Nc1ccc(NC(=O)C2CCC2)cc1
REMARK SMILES IDX 9 1 8 2 7 3 5 4 6 5 4 7 1 8 2 9 3 10 65 11 66 12 67 13 68 14
REMARK SMILES IDX 69 16 70 17 81 18 71 19 80 20 72 21 73 22 74 23 75 25 76 26
REMARK SMILES IDX 77 27 79 28 78 29 10 30 11 31 12 32 13 33 14 34 15 35 16 37
REMARK SMILES IDX 17 38 18 39 64 40 19 41 63 42 20 43 21 44 22 45 57 46 23 47
REMARK SMILES IDX 62 48 56 49 58 50 24 51 61 52 55 53 54 54 25 56 47 57 32 58
REMARK SMILES IDX 46 59 33 60 36 61 45 62 59 63 34 64 35 65 44 67 60 68 37 69
REMARK SMILES IDX 26 70 27 71 31 72 28 73 30 74 29 75 48 76 49 77 53 78 50 79
REMARK SMILES IDX 52 80 51 81 38 82 39 83 43 84 40 85 42 86 41 87
REMARK H PARENT 7 6 68 15 73 24 14 36 58 55 36 66
REMARK Flexibility Score: inf
ROOT
ATOM      1  C   UNL A   1      35.697  31.484  27.879  1.00  0.00     0.021 C 
ENDROOT
BRANCH   1   2
ATOM      2  C   UNL A   1      35.148  30.106  27.534  1.00  0.00     0.116 C 
BRANCH   2   3
ATOM      3  N   UNL A   1      34.024  30.226  26.634  1.00  0.00    -0.356 N 
ATOM      4  C   UNL A   1      33.365  29.393  25.786  1.00  0.00     0.224 C 
ATOM      5  O   UNL A   1      32.451  29.918  25.144  1.00  0.00    -0.275 OA
ATOM      6  H   UNL A   1      33.644  31.134  26.634  1.00  0.00     0.163 HD
BRANCH   4   7
ATOM      7  C   UNL A   1      33.597  27.950  25.543  1.00  0.00     0.098 C 
ATOM      8  C   UNL A   1      32.853  25.682  26.452  1.00  0.00     0.013 C 
ATOM      9  C   UNL A   1      32.547  26.851  25.543  1.00  0.00    -0.011 C 
ATOM     10  C   UNL A   1      31.074  27.178  25.536  1.00  0.00     0.013 C 
ATOM     11  C   UNL A   1      33.479  27.083  24.330  1.00  0.00     0.098 C 
BRANCH  11  12
ATOM     12  C   UNL A   1      33.058  27.493  22.976  1.00  0.00     0.228 C 
ATOM     13  O   UNL A   1      33.379  28.592  22.531  1.00  0.00    -0.274 OA
ATOM     14  N   UNL A   1      32.235  26.680  22.224  1.00  0.00    -0.326 N 
ATOM     15  H   UNL A   1      31.709  27.106  21.510  1.00  0.00     0.169 HD
BRANCH  14  16
ATOM     16  C   UNL A   1      32.084  25.300  22.392  1.00  0.00     0.041 A 
ATOM     17  C   UNL A   1      33.139  24.531  21.935  1.00  0.00     0.028 A 
ATOM     18  C   UNL A   1      31.043  24.694  23.091  1.00  0.00     0.028 A 
ATOM     19  C   UNL A   1      33.271  23.233  22.392  1.00  0.00     0.028 A 
ATOM     20  C   UNL A   1      31.085  23.306  23.323  1.00  0.00     0.028 A 
ATOM     21  C   UNL A   1      32.214  22.561  22.958  1.00  0.00     0.041 A 
BRANCH  21  22
ATOM     22  N   UNL A   1      32.245  21.180  23.176  1.00  0.00    -0.326 N 
ATOM     23  C   UNL A   1      32.817  20.388  24.157  1.00  0.00     0.227 C 
ATOM     24  H   UNL A   1      31.762  20.666  22.490  1.00  0.00     0.169 HD
ATOM     25  O   UNL A   1      32.596  19.168  24.014  1.00  0.00    -0.274 OA
BRANCH  23  26
ATOM     26  C   UNL A   1      33.674  20.875  25.361  1.00  0.00     0.079 C 
ATOM     27  C   UNL A   1      35.143  21.274  24.965  1.00  0.00     0.013 C 
ATOM     28  C   UNL A   1      33.648  22.283  26.041  1.00  0.00     0.013 C 
ATOM     29  C   UNL A   1      35.167  22.192  26.191  1.00  0.00     0.002 C 
ENDBRANCH  23  26
ENDBRANCH  21  22
ENDBRANCH  14  16
ENDBRANCH  11  12
ENDBRANCH   4   7
ENDBRANCH   2   3
ENDBRANCH   1   2
BRANCH   1  30
ATOM     30  C   UNL A   1      34.599  32.534  28.106  1.00  0.00     0.002 C 
BRANCH  30  31
ATOM     31  C   UNL A   1      34.984  33.697  29.029  1.00  0.00     0.002 C 
BRANCH  31  32
ATOM     32  C   UNL A   1      34.391  33.629  30.438  1.00  0.00     0.021 C 
BRANCH  32  33
ATOM     33  C   UNL A   1      34.702  32.341  31.189  1.00  0.00     0.116 C 
BRANCH  33  34
ATOM     34  N   UNL A   1      35.184  32.594  32.535  1.00  0.00    -0.352 N 
ATOM     35  C   UNL A   1      36.378  32.234  33.101  1.00  0.00     0.251 C 
ATOM     36  H   UNL A   1      34.571  33.093  33.121  1.00  0.00     0.163 HD
ATOM     37  O   UNL A   1      36.557  32.362  34.311  1.00  0.00    -0.269 OA
BRANCH  35  38
ATOM     38  C   UNL A   1      37.445  31.668  32.253  1.00  0.00     0.039 A 
ATOM     39  C   UNL A   1      37.622  32.176  30.964  1.00  0.00     0.014 A 
ATOM     40  C   UNL A   1      38.272  30.645  32.729  1.00  0.00     0.014 A 
ATOM     41  C   UNL A   1      38.657  31.687  30.168  1.00  0.00     0.010 A 
ATOM     42  C   UNL A   1      39.352  30.217  31.966  1.00  0.00     0.010 A 
ATOM     43  C   UNL A   1      39.548  30.724  30.672  1.00  0.00    -0.014 A 
BRANCH  43  44
ATOM     44  C   UNL A   1      40.680  30.230  29.852  1.00  0.00     0.031 A 
ATOM     45  C   UNL A   1      40.599  28.885  29.184  1.00  0.00     0.074 A 
ATOM     46  C   UNL A   1      41.799  30.973  29.745  1.00  0.00     0.049 A 
ATOM     47  N   UNL A   1      41.493  28.275  28.448  1.00  0.00    -0.248 NA
ATOM     48  C   UNL A   1      39.363  28.113  29.387  1.00  0.00     0.031 C 
ATOM     49  C   UNL A   1      42.015  32.276  30.378  1.00  0.00     0.029 A 
ATOM     50  N   UNL A   1      42.965  30.738  29.062  1.00  0.00    -0.354 N 
ATOM     51  C   UNL A   1      40.933  27.047  28.114  1.00  0.00     0.074 A 
ATOM     52  C   UNL A   1      39.648  26.975  28.772  1.00  0.00     0.031 C 
ATOM     53  C   UNL A   1      43.226  32.740  30.026  1.00  0.00     0.029 A 
ATOM     54  C   UNL A   1      43.885  31.751  29.180  1.00  0.00     0.049 A 
ATOM     55  H   UNL A   1      43.126  29.921  28.536  1.00  0.00     0.167 HD
ATOM     56  C   UNL A   1      41.434  26.077  27.314  1.00  0.00     0.031 A 
ATOM     57  C   UNL A   1      45.125  31.869  28.668  1.00  0.00     0.031 A 
ATOM     58  C   UNL A   1      42.710  26.152  26.655  1.00  0.00     0.049 A 
ATOM     59  C   UNL A   1      45.664  30.767  27.798  1.00  0.00     0.074 A 
ATOM     60  C   UNL A   1      43.285  25.244  25.782  1.00  0.00     0.029 A 
ATOM     61  N   UNL A   1      43.613  27.194  26.801  1.00  0.00    -0.354 N 
ATOM     62  N   UNL A   1      45.092  29.645  27.432  1.00  0.00    -0.248 NA
ATOM     63  C   UNL A   1      47.017  30.957  27.257  1.00  0.00     0.031 C 
ATOM     64  C   UNL A   1      44.561  25.709  25.448  1.00  0.00     0.029 A 
ATOM     65  C   UNL A   1      44.752  26.939  26.056  1.00  0.00     0.049 A 
ATOM     66  H   UNL A   1      43.466  27.996  27.353  1.00  0.00     0.167 HD
ATOM     67  C   UNL A   1      46.000  29.012  26.594  1.00  0.00     0.074 A 
ATOM     68  C   UNL A   1      47.151  29.884  26.491  1.00  0.00     0.031 C 
ATOM     69  C   UNL A   1      45.890  27.817  25.964  1.00  0.00     0.031 A 
BRANCH  56  70
ATOM     70  C   UNL A   1      40.598  24.841  27.115  1.00  0.00    -0.014 A 
ATOM     71  C   UNL A   1      39.404  24.878  26.378  1.00  0.00     0.009 A 
ATOM     72  C   UNL A   1      41.032  23.613  27.640  1.00  0.00     0.009 A 
ATOM     73  C   UNL A   1      38.642  23.720  26.201  1.00  0.00     0.001 A 
ATOM     74  C   UNL A   1      40.286  22.451  27.435  1.00  0.00     0.001 A 
ATOM     75  C   UNL A   1      39.088  22.506  26.725  1.00  0.00     0.000 A 
ENDBRANCH  56  70
BRANCH  57  76
ATOM     76  C   UNL A   1      45.940  33.080  28.952  1.00  0.00    -0.014 A 
ATOM     77  C   UNL A   1      45.766  34.251  28.198  1.00  0.00     0.009 A 
ATOM     78  C   UNL A   1      46.909  33.065  29.967  1.00  0.00     0.009 A 
ATOM     79  C   UNL A   1      46.569  35.370  28.433  1.00  0.00     0.001 A 
ATOM     80  C   UNL A   1      47.688  34.197  30.221  1.00  0.00     0.001 A 
ATOM     81  C   UNL A   1      47.526  35.343  29.446  1.00  0.00     0.000 A 
ENDBRANCH  57  76
BRANCH  69  82
ATOM     82  C   UNL A   1      47.027  27.404  25.071  1.00  0.00    -0.014 A 
ATOM     83  C   UNL A   1      48.027  26.523  25.513  1.00  0.00     0.009 A 
ATOM     84  C   UNL A   1      47.079  27.885  23.752  1.00  0.00     0.009 A 
ATOM     85  C   UNL A   1      49.078  26.167  24.664  1.00  0.00     0.001 A 
ATOM     86  C   UNL A   1      48.112  27.499  22.896  1.00  0.00     0.001 A 
ATOM     87  C   UNL A   1      49.116  26.650  23.357  1.00  0.00     0.000 A 
ENDBRANCH  69  82
ENDBRANCH  43  44
ENDBRANCH  35  38
ENDBRANCH  33  34
ENDBRANCH  32  33
ENDBRANCH  31  32
ENDBRANCH  30  31
ENDBRANCH   1  30
TORSDOF 17
ENDMDL
