MODEL 1
REMARK VINA RESULT:     -12.6      0.000      0.000
REMARK SMILES Cc1cc(C)n(-c2nc(C)c(C)c(Oc3cccc(C(=O)NCCCCCCNC(=O)c4ccc(-c5c6nc(c(-c7ccccc7)c7ccc([nH]7)c(-c7ccccc7)c7nc(c(-c8ccccc8)c8ccc5[nH]8)C=C7)C=C6)cc4)c3)n2)n1
REMARK SMILES IDX 25 1 24 2 23 3 22 4 20 5 21 6 19 8 15 9 16 10 80 11 17 12
REMARK SMILES IDX 18 13 14 14 13 15 7 16 8 17 81 18 9 19 10 20 11 21 12 22
REMARK SMILES IDX 6 23 1 24 2 25 3 26 82 27 4 28 5 29 26 30 27 31 28 32 29 33
REMARK SMILES IDX 30 34 31 36 32 37 33 38 79 39 34 40 78 41 35 42 36 43 37 44
REMARK SMILES IDX 72 45 38 46 77 47 71 48 73 49 39 50 76 51 70 52 69 53 40 55
REMARK SMILES IDX 62 56 47 57 61 58 48 59 51 60 60 61 74 62 49 63 50 64 59 66
REMARK SMILES IDX 75 67 52 68 41 69 42 70 46 71 43 72 45 73 44 74 63 75 64 76
REMARK SMILES IDX 68 77 65 78 67 79 66 80 53 81 54 82 58 83 55 84 57 85 56 86
REMARK H PARENT 22 7 29 35 73 54 51 65
REMARK Flexibility Score: inf
ROOT
ATOM      1  C   UNL A   1      32.282  28.704  24.875  1.00  0.00     0.002 C 
ENDROOT
BRANCH   1   2
ATOM      2  C   UNL A   1      32.344  29.007  23.371  1.00  0.00     0.021 C 
BRANCH   2   3
ATOM      3  C   UNL A   1      33.692  28.633  22.750  1.00  0.00     0.116 C 
BRANCH   3   4
ATOM      4  N   UNL A   1      33.484  27.680  21.683  1.00  0.00    -0.352 N 
ATOM      5  C   UNL A   1      33.141  26.356  21.640  1.00  0.00     0.251 C 
ATOM      6  O   UNL A   1      33.139  25.831  20.524  1.00  0.00    -0.269 OA
ATOM      7  H   UNL A   1      33.618  28.070  20.789  1.00  0.00     0.163 HD
BRANCH   5   8
ATOM      8  C   UNL A   1      32.721  25.543  22.820  1.00  0.00     0.043 A 
ATOM      9  C   UNL A   1      33.070  24.313  24.881  1.00  0.00     0.130 A 
ATOM     10  C   UNL A   1      31.694  24.220  25.080  1.00  0.00     0.047 A 
ATOM     11  C   UNL A   1      33.574  24.884  23.709  1.00  0.00     0.061 A 
ATOM     12  C   UNL A   1      30.822  24.772  24.148  1.00  0.00     0.005 A 
ATOM     13  C   UNL A   1      31.335  25.452  23.043  1.00  0.00     0.014 A 
BRANCH   9  14
ATOM     14  O   UNL A   1      33.869  23.718  25.827  1.00  0.00    -0.439 OA
BRANCH  14  15
ATOM     15  C   UNL A   1      34.495  22.503  25.531  1.00  0.00     0.227 A 
ATOM     16  C   UNL A   1      34.443  20.309  24.880  1.00  0.00     0.254 A 
ATOM     17  N   UNL A   1      35.785  20.198  25.002  1.00  0.00    -0.216 NA
ATOM     18  N   UNL A   1      33.761  21.451  25.104  1.00  0.00    -0.175 NA
ATOM     19  C   UNL A   1      36.494  21.304  25.306  1.00  0.00     0.050 A 
ATOM     20  C   UNL A   1      37.979  21.155  25.142  1.00  0.00     0.067 C 
ATOM     21  C   UNL A   1      35.880  22.497  25.645  1.00  0.00     0.033 A 
ATOM     22  C   UNL A   1      36.657  23.704  26.074  1.00  0.00     0.052 C 
BRANCH  16  23
ATOM     23  N   UNL A   1      33.740  19.116  24.470  1.00  0.00    -0.203 N 
ATOM     24  C   UNL A   1      32.918  15.704  25.081  1.00  0.00     0.069 C 
ATOM     25  C   UNL A   1      33.032  17.098  24.587  1.00  0.00     0.060 A 
ATOM     26  C   UNL A   1      32.147  17.766  23.719  1.00  0.00     0.049 A 
ATOM     27  N   UNL A   1      34.062  17.877  24.944  1.00  0.00    -0.170 NA
ATOM     28  C   UNL A   1      32.630  19.052  23.628  1.00  0.00     0.045 A 
ATOM     29  C   UNL A   1      32.154  20.185  22.795  1.00  0.00     0.067 C 
ENDBRANCH  16  23
ENDBRANCH  14  15
ENDBRANCH   9  14
ENDBRANCH   5   8
ENDBRANCH   3   4
ENDBRANCH   2   3
ENDBRANCH   1   2
BRANCH   1  30
ATOM     30  C   UNL A   1      31.916  29.906  25.765  1.00  0.00     0.002 C 
BRANCH  30  31
ATOM     31  C   UNL A   1      32.302  29.770  27.244  1.00  0.00     0.021 C 
BRANCH  31  32
ATOM     32  C   UNL A   1      33.800  29.879  27.463  1.00  0.00     0.116 C 
BRANCH  32  33
ATOM     33  N   UNL A   1      34.276  31.244  27.245  1.00  0.00    -0.352 N 
ATOM     34  C   UNL A   1      35.424  31.826  27.725  1.00  0.00     0.251 C 
ATOM     35  H   UNL A   1      33.703  31.817  26.685  1.00  0.00     0.163 HD
ATOM     36  O   UNL A   1      35.549  33.050  27.765  1.00  0.00    -0.269 OA
BRANCH  34  37
ATOM     37  C   UNL A   1      36.513  30.955  28.178  1.00  0.00     0.039 A 
ATOM     38  C   UNL A   1      36.584  29.616  27.784  1.00  0.00     0.014 A 
ATOM     39  C   UNL A   1      37.486  31.514  29.007  1.00  0.00     0.014 A 
ATOM     40  C   UNL A   1      37.680  28.861  28.186  1.00  0.00     0.010 A 
ATOM     41  C   UNL A   1      38.631  30.816  29.279  1.00  0.00     0.010 A 
ATOM     42  C   UNL A   1      38.703  29.475  28.926  1.00  0.00    -0.014 A 
BRANCH  42  43
ATOM     43  C   UNL A   1      39.923  28.756  29.253  1.00  0.00     0.031 A 
ATOM     44  C   UNL A   1      40.160  28.573  30.709  1.00  0.00     0.074 A 
ATOM     45  C   UNL A   1      40.661  28.121  28.318  1.00  0.00     0.049 A 
ATOM     46  N   UNL A   1      41.125  29.070  31.407  1.00  0.00    -0.248 NA
ATOM     47  C   UNL A   1      39.147  27.868  31.512  1.00  0.00     0.031 C 
ATOM     48  C   UNL A   1      40.389  27.961  26.884  1.00  0.00     0.029 A 
ATOM     49  N   UNL A   1      41.776  27.367  28.488  1.00  0.00    -0.354 N 
ATOM     50  C   UNL A   1      40.953  28.600  32.704  1.00  0.00     0.074 A 
ATOM     51  C   UNL A   1      39.645  27.994  32.745  1.00  0.00     0.031 C 
ATOM     52  C   UNL A   1      41.161  26.967  26.384  1.00  0.00     0.029 A 
ATOM     53  C   UNL A   1      42.094  26.547  27.412  1.00  0.00     0.049 A 
ATOM     54  H   UNL A   1      42.317  27.397  29.311  1.00  0.00     0.167 HD
ATOM     55  C   UNL A   1      41.994  28.553  33.581  1.00  0.00     0.031 A 
ATOM     56  C   UNL A   1      43.039  25.574  27.390  1.00  0.00     0.031 A 
ATOM     57  C   UNL A   1      43.114  29.329  33.113  1.00  0.00     0.049 A 
ATOM     58  C   UNL A   1      43.983  25.864  28.495  1.00  0.00     0.074 A 
ATOM     59  C   UNL A   1      43.310  30.662  32.815  1.00  0.00     0.029 A 
ATOM     60  N   UNL A   1      44.126  28.645  32.479  1.00  0.00    -0.354 N 
ATOM     61  N   UNL A   1      44.761  26.909  28.507  1.00  0.00    -0.248 NA
ATOM     62  C   UNL A   1      43.714  25.269  29.794  1.00  0.00     0.031 C 
ATOM     63  C   UNL A   1      44.103  30.655  31.630  1.00  0.00     0.029 A 
ATOM     64  C   UNL A   1      44.420  29.329  31.328  1.00  0.00     0.049 A 
ATOM     65  H   UNL A   1      44.560  27.820  32.795  1.00  0.00     0.167 HD
ATOM     66  C   UNL A   1      44.705  27.372  29.812  1.00  0.00     0.074 A 
ATOM     67  C   UNL A   1      44.121  26.270  30.581  1.00  0.00     0.031 C 
ATOM     68  C   UNL A   1      44.853  28.698  30.100  1.00  0.00     0.031 A 
BRANCH  55  69
ATOM     69  C   UNL A   1      42.151  27.504  34.648  1.00  0.00    -0.014 A 
ATOM     70  C   UNL A   1      42.517  26.201  34.263  1.00  0.00     0.009 A 
ATOM     71  C   UNL A   1      41.681  27.668  35.964  1.00  0.00     0.009 A 
ATOM     72  C   UNL A   1      42.348  25.112  35.126  1.00  0.00     0.001 A 
ATOM     73  C   UNL A   1      41.548  26.590  36.841  1.00  0.00     0.001 A 
ATOM     74  C   UNL A   1      41.854  25.306  36.411  1.00  0.00     0.000 A 
ENDBRANCH  55  69
BRANCH  56  75
ATOM     75  C   UNL A   1      43.027  24.271  26.688  1.00  0.00    -0.014 A 
ATOM     76  C   UNL A   1      44.225  23.580  26.439  1.00  0.00     0.009 A 
ATOM     77  C   UNL A   1      41.821  23.563  26.526  1.00  0.00     0.009 A 
ATOM     78  C   UNL A   1      44.218  22.221  26.092  1.00  0.00     0.001 A 
ATOM     79  C   UNL A   1      41.814  22.207  26.178  1.00  0.00     0.001 A 
ATOM     80  C   UNL A   1      43.014  21.531  25.980  1.00  0.00     0.000 A 
ENDBRANCH  56  75
BRANCH  68  81
ATOM     81  C   UNL A   1      45.258  29.632  28.982  1.00  0.00    -0.014 A 
ATOM     82  C   UNL A   1      46.594  30.000  28.731  1.00  0.00     0.009 A 
ATOM     83  C   UNL A   1      44.285  29.996  28.042  1.00  0.00     0.009 A 
ATOM     84  C   UNL A   1      46.937  30.722  27.581  1.00  0.00     0.001 A 
ATOM     85  C   UNL A   1      44.630  30.698  26.884  1.00  0.00     0.001 A 
ATOM     86  C   UNL A   1      45.954  31.062  26.655  1.00  0.00     0.000 A 
ENDBRANCH  68  81
ENDBRANCH  42  43
ENDBRANCH  34  37
ENDBRANCH  32  33
ENDBRANCH  31  32
ENDBRANCH  30  31
ENDBRANCH   1  30
TORSDOF 16
ENDMDL
MODEL 2
REMARK VINA RESULT:     -12.3      2.576      8.449
REMARK SMILES Cc1cc(C)n(-c2nc(C)c(C)c(Oc3cccc(C(=O)NCCCCCCNC(=O)c4ccc(-c5c6nc(c(-c7ccccc7)c7ccc([nH]7)c(-c7ccccc7)c7nc(c(-c8ccccc8)c8ccc5[nH]8)C=C7)C=C6)cc4)c3)n2)n1
REMARK SMILES IDX 25 1 24 2 23 3 22 4 20 5 21 6 19 8 15 9 16 10 80 11 17 12
REMARK SMILES IDX 18 13 14 14 13 15 7 16 8 17 81 18 9 19 10 20 11 21 12 22
REMARK SMILES IDX 6 23 1 24 2 25 3 26 82 27 4 28 5 29 26 30 27 31 28 32 29 33
REMARK SMILES IDX 30 34 31 36 32 37 33 38 79 39 34 40 78 41 35 42 36 43 37 44
REMARK SMILES IDX 72 45 38 46 77 47 71 48 73 49 39 50 76 51 70 52 69 53 40 55
REMARK SMILES IDX 62 56 47 57 61 58 48 59 51 60 60 61 74 62 49 63 50 64 59 66
REMARK SMILES IDX 75 67 52 68 41 69 42 70 46 71 43 72 45 73 44 74 63 75 64 76
REMARK SMILES IDX 68 77 65 78 67 79 66 80 53 81 54 82 58 83 55 84 57 85 56 86
REMARK H PARENT 22 7 29 35 73 54 51 65
REMARK Flexibility Score: inf
ROOT
ATOM      1  C   UNL A   1      35.658  22.008  25.183  1.00  0.00     0.002 C 
ENDROOT
BRANCH   1   2
ATOM      2  C   UNL A   1      34.547  21.759  26.214  1.00  0.00     0.021 C 
BRANCH   2   3
ATOM      3  C   UNL A   1      33.451  20.829  25.685  1.00  0.00     0.116 C 
BRANCH   3   4
ATOM      4  N   UNL A   1      32.158  21.443  25.891  1.00  0.00    -0.352 N 
ATOM      5  C   UNL A   1      31.597  22.634  25.519  1.00  0.00     0.251 C 
ATOM      6  O   UNL A   1      30.468  22.863  25.958  1.00  0.00    -0.269 OA
ATOM      7  H   UNL A   1      31.545  20.878  26.415  1.00  0.00     0.163 HD
BRANCH   5   8
ATOM      8  C   UNL A   1      32.223  23.620  24.589  1.00  0.00     0.043 A 
ATOM      9  C   UNL A   1      33.370  25.678  24.011  1.00  0.00     0.130 A 
ATOM     10  C   UNL A   1      33.548  25.232  22.703  1.00  0.00     0.047 A 
ATOM     11  C   UNL A   1      32.626  24.917  24.918  1.00  0.00     0.061 A 
ATOM     12  C   UNL A   1      33.055  23.989  22.323  1.00  0.00     0.005 A 
ATOM     13  C   UNL A   1      32.423  23.181  23.268  1.00  0.00     0.014 A 
BRANCH   9  14
ATOM     14  O   UNL A   1      33.857  26.928  24.306  1.00  0.00    -0.439 OA
BRANCH  14  15
ATOM     15  C   UNL A   1      32.961  27.967  24.576  1.00  0.00     0.227 A 
ATOM     16  C   UNL A   1      31.045  29.145  24.151  1.00  0.00     0.254 A 
ATOM     17  N   UNL A   1      31.304  30.009  25.158  1.00  0.00    -0.216 NA
ATOM     18  N   UNL A   1      31.830  28.092  23.846  1.00  0.00    -0.175 NA
ATOM     19  C   UNL A   1      32.374  29.775  25.944  1.00  0.00     0.050 A 
ATOM     20  C   UNL A   1      32.422  30.608  27.193  1.00  0.00     0.067 C 
ATOM     21  C   UNL A   1      33.290  28.778  25.656  1.00  0.00     0.033 A 
ATOM     22  C   UNL A   1      34.530  28.571  26.470  1.00  0.00     0.052 C 
BRANCH  16  23
ATOM     23  N   UNL A   1      29.841  29.392  23.394  1.00  0.00    -0.203 N 
ATOM     24  C   UNL A   1      28.087  31.402  21.033  1.00  0.00     0.069 C 
ATOM     25  C   UNL A   1      28.555  30.364  21.983  1.00  0.00     0.060 A 
ATOM     26  C   UNL A   1      28.038  29.064  22.142  1.00  0.00     0.049 A 
ATOM     27  N   UNL A   1      29.568  30.604  22.827  1.00  0.00    -0.170 NA
ATOM     28  C   UNL A   1      28.853  28.460  23.073  1.00  0.00     0.045 A 
ATOM     29  C   UNL A   1      28.748  27.117  23.695  1.00  0.00     0.067 C 
ENDBRANCH  16  23
ENDBRANCH  14  15
ENDBRANCH   9  14
ENDBRANCH   5   8
ENDBRANCH   3   4
ENDBRANCH   2   3
ENDBRANCH   1   2
BRANCH   1  30
ATOM     30  C   UNL A   1      36.874  22.787  25.715  1.00  0.00     0.002 C 
BRANCH  30  31
ATOM     31  C   UNL A   1      38.216  22.045  25.634  1.00  0.00     0.021 C 
BRANCH  31  32
ATOM     32  C   UNL A   1      39.272  22.662  26.533  1.00  0.00     0.116 C 
BRANCH  32  33
ATOM     33  N   UNL A   1      40.619  22.264  26.129  1.00  0.00    -0.352 N 
ATOM     34  C   UNL A   1      41.709  23.071  25.911  1.00  0.00     0.251 C 
ATOM     35  H   UNL A   1      40.763  21.299  25.996  1.00  0.00     0.163 HD
ATOM     36  O   UNL A   1      42.675  22.675  25.256  1.00  0.00    -0.269 OA
BRANCH  34  37
ATOM     37  C   UNL A   1      41.710  24.418  26.490  1.00  0.00     0.039 A 
ATOM     38  C   UNL A   1      41.166  25.504  25.801  1.00  0.00     0.014 A 
ATOM     39  C   UNL A   1      42.261  24.574  27.763  1.00  0.00     0.014 A 
ATOM     40  C   UNL A   1      41.130  26.743  26.432  1.00  0.00     0.010 A 
ATOM     41  C   UNL A   1      42.092  25.753  28.436  1.00  0.00     0.010 A 
ATOM     42  C   UNL A   1      41.587  26.853  27.755  1.00  0.00    -0.014 A 
BRANCH  42  43
ATOM     43  C   UNL A   1      41.446  28.097  28.493  1.00  0.00     0.031 A 
ATOM     44  C   UNL A   1      42.484  29.117  28.189  1.00  0.00     0.074 A 
ATOM     45  C   UNL A   1      40.347  28.383  29.224  1.00  0.00     0.049 A 
ATOM     46  N   UNL A   1      43.376  29.581  28.997  1.00  0.00    -0.248 NA
ATOM     47  C   UNL A   1      42.638  29.583  26.800  1.00  0.00     0.031 C 
ATOM     48  C   UNL A   1      39.113  27.603  29.375  1.00  0.00     0.029 A 
ATOM     49  N   UNL A   1      40.058  29.520  29.906  1.00  0.00    -0.354 N 
ATOM     50  C   UNL A   1      44.096  30.532  28.281  1.00  0.00     0.074 A 
ATOM     51  C   UNL A   1      43.703  30.383  26.902  1.00  0.00     0.031 C 
ATOM     52  C   UNL A   1      38.136  28.393  29.878  1.00  0.00     0.029 A 
ATOM     53  C   UNL A   1      38.718  29.670  30.245  1.00  0.00     0.049 A 
ATOM     54  H   UNL A   1      40.742  30.188  30.141  1.00  0.00     0.167 HD
ATOM     55  C   UNL A   1      44.796  31.512  28.917  1.00  0.00     0.031 A 
ATOM     56  C   UNL A   1      38.135  30.780  30.762  1.00  0.00     0.031 A 
ATOM     57  C   UNL A   1      44.952  31.224  30.320  1.00  0.00     0.049 A 
ATOM     58  C   UNL A   1      39.218  31.600  31.355  1.00  0.00     0.074 A 
ATOM     59  C   UNL A   1      45.551  30.209  31.038  1.00  0.00     0.029 A 
ATOM     60  N   UNL A   1      44.071  31.833  31.184  1.00  0.00    -0.354 N 
ATOM     61  N   UNL A   1      39.904  31.223  32.396  1.00  0.00    -0.248 NA
ATOM     62  C   UNL A   1      39.859  32.596  30.510  1.00  0.00     0.031 C 
ATOM     63  C   UNL A   1      44.648  29.942  32.109  1.00  0.00     0.029 A 
ATOM     64  C   UNL A   1      43.602  30.865  32.035  1.00  0.00     0.049 A 
ATOM     65  H   UNL A   1      43.824  32.785  31.191  1.00  0.00     0.167 HD
ATOM     66  C   UNL A   1      41.213  31.569  32.096  1.00  0.00     0.074 A 
ATOM     67  C   UNL A   1      41.111  32.495  30.966  1.00  0.00     0.031 C 
ATOM     68  C   UNL A   1      42.265  30.851  32.588  1.00  0.00     0.031 A 
BRANCH  55  69
ATOM     69  C   UNL A   1      44.989  32.900  28.369  1.00  0.00    -0.014 A 
ATOM     70  C   UNL A   1      43.905  33.796  28.405  1.00  0.00     0.009 A 
ATOM     71  C   UNL A   1      46.087  33.265  27.569  1.00  0.00     0.009 A 
ATOM     72  C   UNL A   1      43.892  34.956  27.623  1.00  0.00     0.001 A 
ATOM     73  C   UNL A   1      46.095  34.442  26.817  1.00  0.00     0.001 A 
ATOM     74  C   UNL A   1      44.984  35.273  26.822  1.00  0.00     0.000 A 
ENDBRANCH  55  69
BRANCH  56  75
ATOM     75  C   UNL A   1      36.777  31.322  30.528  1.00  0.00    -0.014 A 
ATOM     76  C   UNL A   1      35.959  31.694  31.608  1.00  0.00     0.009 A 
ATOM     77  C   UNL A   1      36.396  31.752  29.243  1.00  0.00     0.009 A 
ATOM     78  C   UNL A   1      34.833  32.507  31.415  1.00  0.00     0.001 A 
ATOM     79  C   UNL A   1      35.272  32.563  29.051  1.00  0.00     0.001 A 
ATOM     80  C   UNL A   1      34.500  32.956  30.140  1.00  0.00     0.000 A 
ENDBRANCH  56  75
BRANCH  68  81
ATOM     81  C   UNL A   1      41.982  29.776  33.611  1.00  0.00    -0.014 A 
ATOM     82  C   UNL A   1      41.799  28.421  33.275  1.00  0.00     0.009 A 
ATOM     83  C   UNL A   1      42.092  30.110  34.968  1.00  0.00     0.009 A 
ATOM     84  C   UNL A   1      41.716  27.438  34.269  1.00  0.00     0.001 A 
ATOM     85  C   UNL A   1      42.030  29.127  35.959  1.00  0.00     0.001 A 
ATOM     86  C   UNL A   1      41.840  27.792  35.609  1.00  0.00     0.000 A 
ENDBRANCH  68  81
ENDBRANCH  42  43
ENDBRANCH  34  37
ENDBRANCH  32  33
ENDBRANCH  31  32
ENDBRANCH  30  31
ENDBRANCH   1  30
TORSDOF 16
ENDMDL
MODEL 3
REMARK VINA RESULT:     -12.2      1.921      5.514
REMARK SMILES Cc1cc(C)n(-c2nc(C)c(C)c(Oc3cccc(C(=O)NCCCCCCNC(=O)c4ccc(-c5c6nc(c(-c7ccccc7)c7ccc([nH]7)c(-c7ccccc7)c7nc(c(-c8ccccc8)c8ccc5[nH]8)C=C7)C=C6)cc4)c3)n2)n1
REMARK SMILES IDX 25 1 24 2 23 3 22 4 20 5 21 6 19 8 15 9 16 10 80 11 17 12
REMARK SMILES IDX 18 13 14 14 13 15 7 16 8 17 81 18 9 19 10 20 11 21 12 22
REMARK SMILES IDX 6 23 1 24 2 25 3 26 82 27 4 28 5 29 26 30 27 31 28 32 29 33
REMARK SMILES IDX 30 34 31 36 32 37 33 38 79 39 34 40 78 41 35 42 36 43 37 44
REMARK SMILES IDX 72 45 38 46 77 47 71 48 73 49 39 50 76 51 70 52 69 53 40 55
REMARK SMILES IDX 62 56 47 57 61 58 48 59 51 60 60 61 74 62 49 63 50 64 59 66
REMARK SMILES IDX 75 67 52 68 41 69 42 70 46 71 43 72 45 73 44 74 63 75 64 76
REMARK SMILES IDX 68 77 65 78 67 79 66 80 53 81 54 82 58 83 55 84 57 85 56 86
REMARK H PARENT 22 7 29 35 73 54 51 65
REMARK Flexibility Score: inf
ROOT
ATOM      1  C   UNL A   1      32.510  28.533  24.592  1.00  0.00     0.002 C 
ENDROOT
BRANCH   1   2
ATOM      2  C   UNL A   1      33.303  29.276  23.506  1.00  0.00     0.021 C 
BRANCH   2   3
ATOM      3  C   UNL A   1      34.078  28.326  22.589  1.00  0.00     0.116 C 
BRANCH   3   4
ATOM      4  N   UNL A   1      33.148  27.584  21.767  1.00  0.00    -0.352 N 
ATOM      5  C   UNL A   1      32.493  26.390  21.907  1.00  0.00     0.251 C 
ATOM      6  O   UNL A   1      31.825  26.021  20.938  1.00  0.00    -0.269 OA
ATOM      7  H   UNL A   1      32.939  28.039  20.919  1.00  0.00     0.163 HD
BRANCH   5   8
ATOM      8  C   UNL A   1      32.486  25.559  23.148  1.00  0.00     0.043 A 
ATOM      9  C   UNL A   1      33.481  24.479  25.078  1.00  0.00     0.130 A 
ATOM     10  C   UNL A   1      32.218  24.160  25.573  1.00  0.00     0.047 A 
ATOM     11  C   UNL A   1      33.613  25.087  23.825  1.00  0.00     0.061 A 
ATOM     12  C   UNL A   1      31.083  24.522  24.857  1.00  0.00     0.005 A 
ATOM     13  C   UNL A   1      31.219  25.241  23.668  1.00  0.00     0.014 A 
BRANCH   9  14
ATOM     14  O   UNL A   1      34.557  24.062  25.824  1.00  0.00    -0.439 OA
BRANCH  14  15
ATOM     15  C   UNL A   1      35.119  22.807  25.575  1.00  0.00     0.227 A 
ATOM     16  C   UNL A   1      34.959  20.605  24.970  1.00  0.00     0.254 A 
ATOM     17  N   UNL A   1      36.289  20.420  25.139  1.00  0.00    -0.216 NA
ATOM     18  N   UNL A   1      34.339  21.789  25.147  1.00  0.00    -0.175 NA
ATOM     19  C   UNL A   1      37.051  21.490  25.442  1.00  0.00     0.050 A 
ATOM     20  C   UNL A   1      38.529  21.251  25.330  1.00  0.00     0.067 C 
ATOM     21  C   UNL A   1      36.498  22.724  25.735  1.00  0.00     0.033 A 
ATOM     22  C   UNL A   1      37.329  23.893  26.163  1.00  0.00     0.052 C 
BRANCH  16  23
ATOM     23  N   UNL A   1      34.202  19.446  24.563  1.00  0.00    -0.203 N 
ATOM     24  C   UNL A   1      33.608  15.944  24.842  1.00  0.00     0.069 C 
ATOM     25  C   UNL A   1      33.578  17.397  24.543  1.00  0.00     0.060 A 
ATOM     26  C   UNL A   1      32.502  18.132  24.010  1.00  0.00     0.049 A 
ATOM     27  N   UNL A   1      34.649  18.171  24.764  1.00  0.00    -0.170 NA
ATOM     28  C   UNL A   1      32.926  19.441  23.999  1.00  0.00     0.045 A 
ATOM     29  C   UNL A   1      32.248  20.652  23.473  1.00  0.00     0.067 C 
ENDBRANCH  16  23
ENDBRANCH  14  15
ENDBRANCH   9  14
ENDBRANCH   5   8
ENDBRANCH   3   4
ENDBRANCH   2   3
ENDBRANCH   1   2
BRANCH   1  30
ATOM     30  C   UNL A   1      33.294  28.242  25.884  1.00  0.00     0.002 C 
BRANCH  30  31
ATOM     31  C   UNL A   1      34.072  29.432  26.463  1.00  0.00     0.021 C 
BRANCH  31  32
ATOM     32  C   UNL A   1      35.253  28.994  27.308  1.00  0.00     0.116 C 
BRANCH  32  33
ATOM     33  N   UNL A   1      35.364  29.790  28.529  1.00  0.00    -0.352 N 
ATOM     34  C   UNL A   1      36.373  29.773  29.461  1.00  0.00     0.251 C 
ATOM     35  H   UNL A   1      34.623  30.415  28.705  1.00  0.00     0.163 HD
ATOM     36  O   UNL A   1      36.200  30.221  30.595  1.00  0.00    -0.269 OA
BRANCH  34  37
ATOM     37  C   UNL A   1      37.676  29.222  29.072  1.00  0.00     0.039 A 
ATOM     38  C   UNL A   1      38.342  29.673  27.931  1.00  0.00     0.014 A 
ATOM     39  C   UNL A   1      38.233  28.241  29.893  1.00  0.00     0.014 A 
ATOM     40  C   UNL A   1      39.607  29.165  27.655  1.00  0.00     0.010 A 
ATOM     41  C   UNL A   1      39.531  27.854  29.703  1.00  0.00     0.010 A 
ATOM     42  C   UNL A   1      40.196  28.264  28.555  1.00  0.00    -0.014 A 
BRANCH  42  43
ATOM     43  C   UNL A   1      41.565  27.812  28.371  1.00  0.00     0.031 A 
ATOM     44  C   UNL A   1      41.697  26.520  27.646  1.00  0.00     0.074 A 
ATOM     45  C   UNL A   1      42.629  28.599  28.639  1.00  0.00     0.049 A 
ATOM     46  N   UNL A   1      42.160  25.411  28.115  1.00  0.00    -0.248 NA
ATOM     47  C   UNL A   1      41.137  26.405  26.289  1.00  0.00     0.031 C 
ATOM     48  C   UNL A   1      42.649  30.002  29.074  1.00  0.00     0.029 A 
ATOM     49  N   UNL A   1      43.947  28.332  28.456  1.00  0.00    -0.354 N 
ATOM     50  C   UNL A   1      42.121  24.497  27.068  1.00  0.00     0.074 A 
ATOM     51  C   UNL A   1      41.347  25.114  26.021  1.00  0.00     0.031 C 
ATOM     52  C   UNL A   1      43.883  30.520  28.875  1.00  0.00     0.029 A 
ATOM     53  C   UNL A   1      44.774  29.449  28.468  1.00  0.00     0.049 A 
ATOM     54  H   UNL A   1      44.290  27.419  28.325  1.00  0.00     0.167 HD
ATOM     55  C   UNL A   1      42.919  23.392  27.067  1.00  0.00     0.031 A 
ATOM     56  C   UNL A   1      46.088  29.484  28.135  1.00  0.00     0.031 A 
ATOM     57  C   UNL A   1      43.493  23.154  28.366  1.00  0.00     0.049 A 
ATOM     58  C   UNL A   1      46.598  28.097  28.244  1.00  0.00     0.074 A 
ATOM     59  C   UNL A   1      42.977  22.888  29.618  1.00  0.00     0.029 A 
ATOM     60  N   UNL A   1      44.778  23.601  28.572  1.00  0.00    -0.354 N 
ATOM     61  N   UNL A   1      46.688  27.462  29.377  1.00  0.00    -0.248 NA
ATOM     62  C   UNL A   1      46.544  27.257  27.058  1.00  0.00     0.031 C 
ATOM     63  C   UNL A   1      43.778  23.658  30.511  1.00  0.00     0.029 A 
ATOM     64  C   UNL A   1      44.788  24.273  29.767  1.00  0.00     0.049 A 
ATOM     65  H   UNL A   1      45.547  23.463  27.974  1.00  0.00     0.167 HD
ATOM     66  C   UNL A   1      46.245  26.179  29.095  1.00  0.00     0.074 A 
ATOM     67  C   UNL A   1      46.260  26.085  27.633  1.00  0.00     0.031 C 
ATOM     68  C   UNL A   1      45.627  25.419  30.046  1.00  0.00     0.031 A 
BRANCH  55  69
ATOM     69  C   UNL A   1      43.492  22.768  25.824  1.00  0.00    -0.014 A 
ATOM     70  C   UNL A   1      43.567  21.366  25.746  1.00  0.00     0.009 A 
ATOM     71  C   UNL A   1      44.216  23.496  24.862  1.00  0.00     0.009 A 
ATOM     72  C   UNL A   1      44.383  20.731  24.803  1.00  0.00     0.001 A 
ATOM     73  C   UNL A   1      45.002  22.866  23.894  1.00  0.00     0.001 A 
ATOM     74  C   UNL A   1      45.107  21.482  23.883  1.00  0.00     0.000 A 
ENDBRANCH  55  69
BRANCH  56  75
ATOM     75  C   UNL A   1      46.855  30.553  27.456  1.00  0.00    -0.014 A 
ATOM     76  C   UNL A   1      46.199  31.659  26.891  1.00  0.00     0.009 A 
ATOM     77  C   UNL A   1      48.251  30.639  27.621  1.00  0.00     0.009 A 
ATOM     78  C   UNL A   1      46.903  32.823  26.553  1.00  0.00     0.001 A 
ATOM     79  C   UNL A   1      48.954  31.801  27.282  1.00  0.00     0.001 A 
ATOM     80  C   UNL A   1      48.277  32.901  26.765  1.00  0.00     0.000 A 
ENDBRANCH  56  75
BRANCH  68  81
ATOM     81  C   UNL A   1      45.592  25.937  31.465  1.00  0.00    -0.014 A 
ATOM     82  C   UNL A   1      46.664  25.791  32.366  1.00  0.00     0.009 A 
ATOM     83  C   UNL A   1      44.522  26.761  31.840  1.00  0.00     0.009 A 
ATOM     84  C   UNL A   1      46.655  26.440  33.607  1.00  0.00     0.001 A 
ATOM     85  C   UNL A   1      44.522  27.425  33.070  1.00  0.00     0.001 A 
ATOM     86  C   UNL A   1      45.587  27.263  33.953  1.00  0.00     0.000 A 
ENDBRANCH  68  81
ENDBRANCH  42  43
ENDBRANCH  34  37
ENDBRANCH  32  33
ENDBRANCH  31  32
ENDBRANCH  30  31
ENDBRANCH   1  30
TORSDOF 16
ENDMDL
