MODEL 1
REMARK VINA RESULT:     -11.3      0.000      0.000
REMARK SMILES Cc1cc(Cl)ccc1-c1ccc(C(=O)NCCCCCCNC(=O)c2ccc(-c3c4nc(c(-c5ccccc5)c5ccc([nH]5)c(-c5ccccc5)c5nc(c(-c6ccccc6)c6ccc3[nH]6)C=C5)C=C4)cc2)c(Cl)c1
REMARK SMILES IDX 19 1 18 2 17 3 16 4 15 5 13 6 14 7 12 9 9 10 10 11 75 12
REMARK SMILES IDX 11 13 73 14 74 15 8 16 1 17 2 18 3 19 4 20 7 21 5 22 6 23
REMARK SMILES IDX 20 24 21 25 22 26 23 27 24 29 25 30 26 31 72 32 27 33 71 34
REMARK SMILES IDX 28 35 29 36 30 37 65 38 31 39 70 40 64 41 66 42 32 43 69 44
REMARK SMILES IDX 63 45 62 46 33 48 55 49 40 50 54 51 41 52 44 53 53 54 67 55
REMARK SMILES IDX 42 56 43 57 52 59 68 60 45 61 34 62 35 63 39 64 36 65 38 66
REMARK SMILES IDX 37 67 56 68 57 69 61 70 58 71 60 72 59 73 46 74 47 75 51 76
REMARK SMILES IDX 48 77 50 78 49 79
REMARK H PARENT 15 8 22 28 66 47 44 58
REMARK Flexibility Score: inf
ROOT
ATOM      1  C   UNL A   1      33.642  26.164  25.961  1.00  0.00     0.002 C 
ENDROOT
BRANCH   1   2
ATOM      2  C   UNL A   1      34.529  25.415  24.963  1.00  0.00     0.002 C 
BRANCH   2   3
ATOM      3  C   UNL A   1      34.614  23.905  25.198  1.00  0.00     0.021 C 
BRANCH   3   4
ATOM      4  C   UNL A   1      34.041  23.437  26.544  1.00  0.00     0.116 C 
BRANCH   4   5
ATOM      5  N   UNL A   1      33.015  22.444  26.307  1.00  0.00    -0.352 N 
ATOM      6  C   UNL A   1      31.755  22.490  25.777  1.00  0.00     0.252 C 
ATOM      7  O   UNL A   1      31.106  21.441  25.831  1.00  0.00    -0.269 OA
ATOM      8  H   UNL A   1      33.281  21.539  26.588  1.00  0.00     0.163 HD
BRANCH   6   9
ATOM      9  C   UNL A   1      31.147  23.642  25.050  1.00  0.00     0.058 A 
ATOM     10  C   UNL A   1      30.028  26.071  24.058  1.00  0.00    -0.017 A 
ATOM     11  C   UNL A   1      29.976  25.780  25.419  1.00  0.00     0.009 A 
ATOM     12  C   UNL A   1      30.630  25.138  23.206  1.00  0.00     0.030 A 
ATOM     13  C   UNL A   1      30.510  24.577  25.901  1.00  0.00     0.016 A 
ATOM     14  C   UNL A   1      31.237  23.969  23.693  1.00  0.00     0.054 A 
ATOM     15  Cl  UNL A   1      32.226  23.173  22.532  1.00  0.00    -0.083 Cl
BRANCH  10  16
ATOM     16  C   UNL A   1      29.576  27.352  23.506  1.00  0.00    -0.015 A 
ATOM     17  C   UNL A   1      31.971  28.095  22.943  1.00  0.00     0.045 C 
ATOM     18  C   UNL A   1      30.475  28.278  22.928  1.00  0.00    -0.042 A 
ATOM     19  C   UNL A   1      29.970  29.438  22.311  1.00  0.00     0.024 A 
ATOM     20  C   UNL A   1      28.598  29.670  22.251  1.00  0.00     0.041 A 
ATOM     21  C   UNL A   1      28.195  27.621  23.451  1.00  0.00     0.010 A 
ATOM     22  Cl  UNL A   1      28.001  31.068  21.447  1.00  0.00    -0.084 Cl
ATOM     23  C   UNL A   1      27.707  28.769  22.824  1.00  0.00     0.021 A 
ENDBRANCH  10  16
ENDBRANCH   6   9
ENDBRANCH   4   5
ENDBRANCH   3   4
ENDBRANCH   2   3
ENDBRANCH   1   2
BRANCH   1  24
ATOM     24  C   UNL A   1      33.929  27.664  26.088  1.00  0.00     0.021 C 
BRANCH  24  25
ATOM     25  C   UNL A   1      33.402  28.304  27.368  1.00  0.00     0.116 C 
BRANCH  25  26
ATOM     26  N   UNL A   1      33.388  29.756  27.274  1.00  0.00    -0.352 N 
ATOM     27  C   UNL A   1      34.294  30.665  27.754  1.00  0.00     0.251 C 
ATOM     28  H   UNL A   1      32.618  30.140  26.798  1.00  0.00     0.163 HD
ATOM     29  O   UNL A   1      34.001  31.858  27.816  1.00  0.00    -0.269 OA
BRANCH  27  30
ATOM     30  C   UNL A   1      35.627  30.213  28.199  1.00  0.00     0.039 A 
ATOM     31  C   UNL A   1      35.784  29.737  29.503  1.00  0.00     0.014 A 
ATOM     32  C   UNL A   1      36.726  30.289  27.339  1.00  0.00     0.014 A 
ATOM     33  C   UNL A   1      37.036  29.296  29.931  1.00  0.00     0.010 A 
ATOM     34  C   UNL A   1      37.957  29.783  27.743  1.00  0.00     0.010 A 
ATOM     35  C   UNL A   1      38.127  29.295  29.046  1.00  0.00    -0.014 A 
BRANCH  35  36
ATOM     36  C   UNL A   1      39.458  28.800  29.469  1.00  0.00     0.031 A 
ATOM     37  C   UNL A   1      40.307  29.618  30.401  1.00  0.00     0.074 A 
ATOM     38  C   UNL A   1      39.926  27.640  28.972  1.00  0.00     0.049 A 
ATOM     39  N   UNL A   1      41.507  29.368  30.860  1.00  0.00    -0.248 NA
ATOM     40  C   UNL A   1      39.743  30.898  30.857  1.00  0.00     0.031 C 
ATOM     41  C   UNL A   1      39.209  26.769  28.037  1.00  0.00     0.029 A 
ATOM     42  N   UNL A   1      41.115  26.992  29.187  1.00  0.00    -0.354 N 
ATOM     43  C   UNL A   1      41.846  30.464  31.644  1.00  0.00     0.074 A 
ATOM     44  C   UNL A   1      40.750  31.404  31.551  1.00  0.00     0.031 C 
ATOM     45  C   UNL A   1      39.957  25.681  27.793  1.00  0.00     0.029 A 
ATOM     46  C   UNL A   1      41.217  25.797  28.521  1.00  0.00     0.049 A 
ATOM     47  H   UNL A   1      41.828  27.351  29.765  1.00  0.00     0.167 HD
ATOM     48  C   UNL A   1      42.958  30.664  32.390  1.00  0.00     0.031 A 
ATOM     49  C   UNL A   1      42.214  24.893  28.501  1.00  0.00     0.031 A 
ATOM     50  C   UNL A   1      44.048  29.728  32.479  1.00  0.00     0.049 A 
ATOM     51  C   UNL A   1      43.454  25.149  29.309  1.00  0.00     0.074 A 
ATOM     52  C   UNL A   1      45.198  29.810  33.246  1.00  0.00     0.029 A 
ATOM     53  N   UNL A   1      44.125  28.540  31.768  1.00  0.00    -0.354 N 
ATOM     54  N   UNL A   1      43.733  26.161  30.095  1.00  0.00    -0.248 NA
ATOM     55  C   UNL A   1      44.511  24.133  29.231  1.00  0.00     0.031 C 
ATOM     56  C   UNL A   1      45.994  28.696  32.959  1.00  0.00     0.029 A 
ATOM     57  C   UNL A   1      45.315  27.892  32.057  1.00  0.00     0.049 A 
ATOM     58  H   UNL A   1      43.435  28.206  31.151  1.00  0.00     0.167 HD
ATOM     59  C   UNL A   1      44.986  25.890  30.629  1.00  0.00     0.074 A 
ATOM     60  C   UNL A   1      45.406  24.614  30.083  1.00  0.00     0.031 C 
ATOM     61  C   UNL A   1      45.721  26.628  31.497  1.00  0.00     0.031 A 
BRANCH  48  62
ATOM     62  C   UNL A   1      43.048  31.959  33.149  1.00  0.00    -0.014 A 
ATOM     63  C   UNL A   1      43.632  33.103  32.578  1.00  0.00     0.009 A 
ATOM     64  C   UNL A   1      42.552  32.038  34.460  1.00  0.00     0.009 A 
ATOM     65  C   UNL A   1      43.767  34.278  33.321  1.00  0.00     0.001 A 
ATOM     66  C   UNL A   1      42.659  33.224  35.189  1.00  0.00     0.001 A 
ATOM     67  C   UNL A   1      43.279  34.337  34.624  1.00  0.00     0.000 A 
ENDBRANCH  48  62
BRANCH  49  68
ATOM     68  C   UNL A   1      42.056  23.637  27.724  1.00  0.00    -0.014 A 
ATOM     69  C   UNL A   1      41.430  22.525  28.306  1.00  0.00     0.009 A 
ATOM     70  C   UNL A   1      42.507  23.548  26.399  1.00  0.00     0.009 A 
ATOM     71  C   UNL A   1      41.272  21.342  27.582  1.00  0.00     0.001 A 
ATOM     72  C   UNL A   1      42.326  22.371  25.668  1.00  0.00     0.001 A 
ATOM     73  C   UNL A   1      41.715  21.268  26.262  1.00  0.00     0.000 A 
ENDBRANCH  49  68
BRANCH  61  74
ATOM     74  C   UNL A   1      47.042  26.057  31.931  1.00  0.00    -0.014 A 
ATOM     75  C   UNL A   1      47.164  25.322  33.121  1.00  0.00     0.009 A 
ATOM     76  C   UNL A   1      48.175  26.237  31.123  1.00  0.00     0.009 A 
ATOM     77  C   UNL A   1      48.402  24.806  33.507  1.00  0.00     0.001 A 
ATOM     78  C   UNL A   1      49.405  25.694  31.496  1.00  0.00     0.001 A 
ATOM     79  C   UNL A   1      49.520  24.989  32.692  1.00  0.00     0.000 A 
ENDBRANCH  61  74
ENDBRANCH  35  36
ENDBRANCH  27  30
ENDBRANCH  25  26
ENDBRANCH  24  25
ENDBRANCH   1  24
TORSDOF 14
ENDMDL
MODEL 2
REMARK VINA RESULT:     -11.1      1.850      3.964
REMARK SMILES Cc1cc(Cl)ccc1-c1ccc(C(=O)NCCCCCCNC(=O)c2ccc(-c3c4nc(c(-c5ccccc5)c5ccc([nH]5)c(-c5ccccc5)c5nc(c(-c6ccccc6)c6ccc3[nH]6)C=C5)C=C4)cc2)c(Cl)c1
REMARK SMILES IDX 19 1 18 2 17 3 16 4 15 5 13 6 14 7 12 9 9 10 10 11 75 12
REMARK SMILES IDX 11 13 73 14 74 15 8 16 1 17 2 18 3 19 4 20 7 21 5 22 6 23
REMARK SMILES IDX 20 24 21 25 22 26 23 27 24 29 25 30 26 31 72 32 27 33 71 34
REMARK SMILES IDX 28 35 29 36 30 37 65 38 31 39 70 40 64 41 66 42 32 43 69 44
REMARK SMILES IDX 63 45 62 46 33 48 55 49 40 50 54 51 41 52 44 53 53 54 67 55
REMARK SMILES IDX 42 56 43 57 52 59 68 60 45 61 34 62 35 63 39 64 36 65 38 66
REMARK SMILES IDX 37 67 56 68 57 69 61 70 58 71 60 72 59 73 46 74 47 75 51 76
REMARK SMILES IDX 48 77 50 78 49 79
REMARK H PARENT 15 8 22 28 66 47 44 58
REMARK Flexibility Score: inf
ROOT
ATOM      1  C   UNL A   1      33.746  28.203  24.948  1.00  0.00     0.002 C 
ENDROOT
BRANCH   1   2
ATOM      2  C   UNL A   1      33.120  29.088  23.868  1.00  0.00     0.002 C 
BRANCH   2   3
ATOM      3  C   UNL A   1      31.609  29.294  24.012  1.00  0.00     0.021 C 
BRANCH   3   4
ATOM      4  C   UNL A   1      30.799  28.962  22.750  1.00  0.00     0.116 C 
BRANCH   4   5
ATOM      5  N   UNL A   1      29.657  28.151  23.116  1.00  0.00    -0.352 N 
ATOM      6  C   UNL A   1      29.504  26.849  23.508  1.00  0.00     0.252 C 
ATOM      7  O   UNL A   1      28.341  26.457  23.637  1.00  0.00    -0.269 OA
ATOM      8  H   UNL A   1      28.805  28.643  23.074  1.00  0.00     0.163 HD
BRANCH   6   9
ATOM      9  C   UNL A   1      30.597  25.912  23.895  1.00  0.00     0.058 A 
ATOM     10  C   UNL A   1      32.950  24.363  24.346  1.00  0.00    -0.017 A 
ATOM     11  C   UNL A   1      32.786  25.057  23.149  1.00  0.00     0.009 A 
ATOM     12  C   UNL A   1      31.929  24.443  25.300  1.00  0.00     0.030 A 
ATOM     13  C   UNL A   1      31.621  25.802  22.924  1.00  0.00     0.016 A 
ATOM     14  C   UNL A   1      30.796  25.252  25.112  1.00  0.00     0.054 A 
ATOM     15  Cl  UNL A   1      29.874  25.488  26.545  1.00  0.00    -0.083 Cl
BRANCH  10  16
ATOM     16  C   UNL A   1      34.184  23.647  24.682  1.00  0.00    -0.015 A 
ATOM     17  C   UNL A   1      33.237  21.392  23.889  1.00  0.00     0.045 C 
ATOM     18  C   UNL A   1      34.346  22.267  24.415  1.00  0.00    -0.042 A 
ATOM     19  C   UNL A   1      35.593  21.660  24.654  1.00  0.00     0.024 A 
ATOM     20  C   UNL A   1      36.667  22.408  25.131  1.00  0.00     0.041 A 
ATOM     21  C   UNL A   1      35.279  24.375  25.185  1.00  0.00     0.010 A 
ATOM     22  Cl  UNL A   1      38.196  21.655  25.366  1.00  0.00    -0.084 Cl
ATOM     23  C   UNL A   1      36.514  23.762  25.404  1.00  0.00     0.021 A 
ENDBRANCH  10  16
ENDBRANCH   6   9
ENDBRANCH   4   5
ENDBRANCH   3   4
ENDBRANCH   2   3
ENDBRANCH   1   2
BRANCH   1  24
ATOM     24  C   UNL A   1      32.868  27.961  26.180  1.00  0.00     0.021 C 
BRANCH  24  25
ATOM     25  C   UNL A   1      33.468  28.451  27.493  1.00  0.00     0.116 C 
BRANCH  25  26
ATOM     26  N   UNL A   1      33.476  29.904  27.569  1.00  0.00    -0.352 N 
ATOM     27  C   UNL A   1      34.439  30.741  28.068  1.00  0.00     0.251 C 
ATOM     28  H   UNL A   1      32.675  30.349  27.211  1.00  0.00     0.163 HD
ATOM     29  O   UNL A   1      34.177  31.922  28.293  1.00  0.00    -0.269 OA
BRANCH  27  30
ATOM     30  C   UNL A   1      35.796  30.226  28.337  1.00  0.00     0.039 A 
ATOM     31  C   UNL A   1      36.751  30.257  27.318  1.00  0.00     0.014 A 
ATOM     32  C   UNL A   1      36.115  29.684  29.585  1.00  0.00     0.014 A 
ATOM     33  C   UNL A   1      38.040  29.785  27.565  1.00  0.00     0.010 A 
ATOM     34  C   UNL A   1      37.418  29.280  29.852  1.00  0.00     0.010 A 
ATOM     35  C   UNL A   1      38.390  29.314  28.841  1.00  0.00    -0.014 A 
BRANCH  35  36
ATOM     36  C   UNL A   1      39.762  28.839  29.134  1.00  0.00     0.031 A 
ATOM     37  C   UNL A   1      40.733  29.731  29.854  1.00  0.00     0.074 A 
ATOM     38  C   UNL A   1      40.152  27.624  28.703  1.00  0.00     0.049 A 
ATOM     39  N   UNL A   1      41.983  29.506  30.173  1.00  0.00    -0.248 NA
ATOM     40  C   UNL A   1      40.243  31.062  30.244  1.00  0.00     0.031 C 
ATOM     41  C   UNL A   1      39.311  26.677  27.968  1.00  0.00     0.029 A 
ATOM     42  N   UNL A   1      41.355  26.979  28.825  1.00  0.00    -0.354 N 
ATOM     43  C   UNL A   1      42.430  30.670  30.786  1.00  0.00     0.074 A 
ATOM     44  C   UNL A   1      41.338  31.617  30.742  1.00  0.00     0.031 C 
ATOM     45  C   UNL A   1      40.013  25.555  27.742  1.00  0.00     0.029 A 
ATOM     46  C   UNL A   1      41.360  25.720  28.279  1.00  0.00     0.049 A 
ATOM     47  H   UNL A   1      42.141  27.381  29.262  1.00  0.00     0.167 HD
ATOM     48  C   UNL A   1      43.634  30.923  31.352  1.00  0.00     0.031 A 
ATOM     49  C   UNL A   1      42.339  24.798  28.222  1.00  0.00     0.031 A 
ATOM     50  C   UNL A   1      44.720  29.980  31.394  1.00  0.00     0.049 A 
ATOM     51  C   UNL A   1      43.678  25.112  28.828  1.00  0.00     0.074 A 
ATOM     52  C   UNL A   1      45.963  30.117  31.988  1.00  0.00     0.029 A 
ATOM     53  N   UNL A   1      44.693  28.724  30.807  1.00  0.00    -0.354 N 
ATOM     54  N   UNL A   1      44.067  26.193  29.458  1.00  0.00    -0.248 NA
ATOM     55  C   UNL A   1      44.709  24.072  28.716  1.00  0.00     0.031 C 
ATOM     56  C   UNL A   1      46.707  28.963  31.716  1.00  0.00     0.029 A 
ATOM     57  C   UNL A   1      45.908  28.085  31.001  1.00  0.00     0.049 A 
ATOM     58  H   UNL A   1      43.925  28.341  30.325  1.00  0.00     0.167 HD
ATOM     59  C   UNL A   1      45.378  25.954  29.847  1.00  0.00     0.074 A 
ATOM     60  C   UNL A   1      45.713  24.620  29.387  1.00  0.00     0.031 C 
ATOM     61  C   UNL A   1      46.227  26.762  30.527  1.00  0.00     0.031 A 
BRANCH  48  62
ATOM     62  C   UNL A   1      43.833  32.288  31.953  1.00  0.00    -0.014 A 
ATOM     63  C   UNL A   1      44.349  33.352  31.195  1.00  0.00     0.009 A 
ATOM     64  C   UNL A   1      43.510  32.512  33.301  1.00  0.00     0.009 A 
ATOM     65  C   UNL A   1      44.589  34.594  31.786  1.00  0.00     0.001 A 
ATOM     66  C   UNL A   1      43.721  33.764  33.881  1.00  0.00     0.001 A 
ATOM     67  C   UNL A   1      44.274  34.799  33.128  1.00  0.00     0.000 A 
ENDBRANCH  48  62
BRANCH  49  68
ATOM     68  C   UNL A   1      42.071  23.473  27.609  1.00  0.00    -0.014 A 
ATOM     69  C   UNL A   1      42.408  23.238  26.268  1.00  0.00     0.009 A 
ATOM     70  C   UNL A   1      41.502  22.433  28.360  1.00  0.00     0.009 A 
ATOM     71  C   UNL A   1      42.165  21.993  25.685  1.00  0.00     0.001 A 
ATOM     72  C   UNL A   1      41.283  21.180  27.780  1.00  0.00     0.001 A 
ATOM     73  C   UNL A   1      41.609  20.964  26.442  1.00  0.00     0.000 A 
ENDBRANCH  49  68
BRANCH  61  74
ATOM     74  C   UNL A   1      47.591  26.212  30.840  1.00  0.00    -0.014 A 
ATOM     75  C   UNL A   1      48.622  26.230  29.888  1.00  0.00     0.009 A 
ATOM     76  C   UNL A   1      47.853  25.695  32.119  1.00  0.00     0.009 A 
ATOM     77  C   UNL A   1      49.878  25.708  30.200  1.00  0.00     0.001 A 
ATOM     78  C   UNL A   1      49.119  25.202  32.437  1.00  0.00     0.001 A 
ATOM     79  C   UNL A   1      50.127  25.200  31.476  1.00  0.00     0.000 A 
ENDBRANCH  61  74
ENDBRANCH  35  36
ENDBRANCH  27  30
ENDBRANCH  25  26
ENDBRANCH  24  25
ENDBRANCH   1  24
TORSDOF 14
ENDMDL
MODEL 3
REMARK VINA RESULT:     -11.0      0.306      5.906
REMARK SMILES Cc1cc(Cl)ccc1-c1ccc(C(=O)NCCCCCCNC(=O)c2ccc(-c3c4nc(c(-c5ccccc5)c5ccc([nH]5)c(-c5ccccc5)c5nc(c(-c6ccccc6)c6ccc3[nH]6)C=C5)C=C4)cc2)c(Cl)c1
REMARK SMILES IDX 19 1 18 2 17 3 16 4 15 5 13 6 14 7 12 9 9 10 10 11 75 12
REMARK SMILES IDX 11 13 73 14 74 15 8 16 1 17 2 18 3 19 4 20 7 21 5 22 6 23
REMARK SMILES IDX 20 24 21 25 22 26 23 27 24 29 25 30 26 31 72 32 27 33 71 34
REMARK SMILES IDX 28 35 29 36 30 37 65 38 31 39 70 40 64 41 66 42 32 43 69 44
REMARK SMILES IDX 63 45 62 46 33 48 55 49 40 50 54 51 41 52 44 53 53 54 67 55
REMARK SMILES IDX 42 56 43 57 52 59 68 60 45 61 34 62 35 63 39 64 36 65 38 66
REMARK SMILES IDX 37 67 56 68 57 69 61 70 58 71 60 72 59 73 46 74 47 75 51 76
REMARK SMILES IDX 48 77 50 78 49 79
REMARK H PARENT 15 8 22 28 66 47 44 58
REMARK Flexibility Score: inf
ROOT
ATOM      1  C   UNL A   1      33.603  26.166  25.610  1.00  0.00     0.002 C 
ENDROOT
BRANCH   1   2
ATOM      2  C   UNL A   1      34.750  25.252  25.169  1.00  0.00     0.002 C 
BRANCH   2   3
ATOM      3  C   UNL A   1      34.498  23.760  25.402  1.00  0.00     0.021 C 
BRANCH   3   4
ATOM      4  C   UNL A   1      33.782  23.434  26.721  1.00  0.00     0.116 C 
BRANCH   4   5
ATOM      5  N   UNL A   1      32.738  22.463  26.470  1.00  0.00    -0.352 N 
ATOM      6  C   UNL A   1      31.496  22.531  25.901  1.00  0.00     0.252 C 
ATOM      7  O   UNL A   1      30.820  21.500  25.954  1.00  0.00    -0.269 OA
ATOM      8  H   UNL A   1      32.973  21.557  26.775  1.00  0.00     0.163 HD
BRANCH   6   9
ATOM      9  C   UNL A   1      30.941  23.684  25.136  1.00  0.00     0.058 A 
ATOM     10  C   UNL A   1      29.918  26.123  24.067  1.00  0.00    -0.017 A 
ATOM     11  C   UNL A   1      29.825  25.862  25.432  1.00  0.00     0.009 A 
ATOM     12  C   UNL A   1      30.513  25.155  23.249  1.00  0.00     0.030 A 
ATOM     13  C   UNL A   1      30.311  24.655  25.951  1.00  0.00     0.016 A 
ATOM     14  C   UNL A   1      31.073  23.979  23.775  1.00  0.00     0.054 A 
ATOM     15  Cl  UNL A   1      32.065  23.130  22.655  1.00  0.00    -0.083 Cl
BRANCH  10  16
ATOM     16  C   UNL A   1      29.518  27.404  23.477  1.00  0.00    -0.015 A 
ATOM     17  C   UNL A   1      31.934  28.005  22.836  1.00  0.00     0.045 C 
ATOM     18  C   UNL A   1      30.448  28.263  22.846  1.00  0.00    -0.042 A 
ATOM     19  C   UNL A   1      29.987  29.424  22.198  1.00  0.00     0.024 A 
ATOM     20  C   UNL A   1      28.627  29.722  22.159  1.00  0.00     0.041 A 
ATOM     21  C   UNL A   1      28.151  27.741  23.442  1.00  0.00     0.010 A 
ATOM     22  Cl  UNL A   1      28.082  31.119  21.316  1.00  0.00    -0.084 Cl
ATOM     23  C   UNL A   1      27.707  28.889  22.783  1.00  0.00     0.021 A 
ENDBRANCH  10  16
ENDBRANCH   6   9
ENDBRANCH   4   5
ENDBRANCH   3   4
ENDBRANCH   2   3
ENDBRANCH   1   2
BRANCH   1  24
ATOM     24  C   UNL A   1      33.987  27.633  25.825  1.00  0.00     0.021 C 
BRANCH  24  25
ATOM     25  C   UNL A   1      33.574  28.206  27.177  1.00  0.00     0.116 C 
BRANCH  25  26
ATOM     26  N   UNL A   1      33.502  29.658  27.143  1.00  0.00    -0.352 N 
ATOM     27  C   UNL A   1      34.366  30.582  27.670  1.00  0.00     0.251 C 
ATOM     28  H   UNL A   1      32.721  30.031  26.676  1.00  0.00     0.163 HD
ATOM     29  O   UNL A   1      34.025  31.759  27.779  1.00  0.00    -0.269 OA
BRANCH  27  30
ATOM     30  C   UNL A   1      35.713  30.165  28.110  1.00  0.00     0.039 A 
ATOM     31  C   UNL A   1      35.895  29.731  29.424  1.00  0.00     0.014 A 
ATOM     32  C   UNL A   1      36.799  30.235  27.233  1.00  0.00     0.014 A 
ATOM     33  C   UNL A   1      37.161  29.323  29.847  1.00  0.00     0.010 A 
ATOM     34  C   UNL A   1      38.044  29.762  27.633  1.00  0.00     0.010 A 
ATOM     35  C   UNL A   1      38.240  29.314  28.947  1.00  0.00    -0.014 A 
BRANCH  35  36
ATOM     36  C   UNL A   1      39.584  28.854  29.366  1.00  0.00     0.031 A 
ATOM     37  C   UNL A   1      40.104  27.521  28.907  1.00  0.00     0.074 A 
ATOM     38  C   UNL A   1      40.315  29.611  30.205  1.00  0.00     0.049 A 
ATOM     39  N   UNL A   1      41.239  26.933  29.192  1.00  0.00    -0.248 NA
ATOM     40  C   UNL A   1      39.220  26.732  28.035  1.00  0.00     0.031 C 
ATOM     41  C   UNL A   1      39.909  30.911  30.745  1.00  0.00     0.029 A 
ATOM     42  N   UNL A   1      41.556  29.397  30.748  1.00  0.00    -0.354 N 
ATOM     43  C   UNL A   1      41.197  25.704  28.546  1.00  0.00     0.074 A 
ATOM     44  C   UNL A   1      39.904  25.606  27.905  1.00  0.00     0.031 C 
ATOM     45  C   UNL A   1      40.901  31.397  31.507  1.00  0.00     0.029 A 
ATOM     46  C   UNL A   1      41.992  30.428  31.542  1.00  0.00     0.049 A 
ATOM     47  H   UNL A   1      42.083  28.582  30.584  1.00  0.00     0.167 HD
ATOM     48  C   UNL A   1      42.156  24.749  28.475  1.00  0.00     0.031 A 
ATOM     49  C   UNL A   1      43.146  30.579  32.219  1.00  0.00     0.031 A 
ATOM     50  C   UNL A   1      43.441  24.847  29.115  1.00  0.00     0.049 A 
ATOM     51  C   UNL A   1      44.182  29.493  32.154  1.00  0.00     0.074 A 
ATOM     52  C   UNL A   1      44.503  23.960  29.064  1.00  0.00     0.029 A 
ATOM     53  N   UNL A   1      43.835  25.896  29.931  1.00  0.00    -0.354 N 
ATOM     54  N   UNL A   1      44.154  28.363  31.489  1.00  0.00    -0.248 NA
ATOM     55  C   UNL A   1      45.410  29.709  32.930  1.00  0.00     0.031 C 
ATOM     56  C   UNL A   1      45.519  24.448  29.893  1.00  0.00     0.029 A 
ATOM     57  C   UNL A   1      45.113  25.667  30.414  1.00  0.00     0.049 A 
ATOM     58  H   UNL A   1      43.287  26.688  30.137  1.00  0.00     0.167 HD
ATOM     59  C   UNL A   1      45.373  27.746  31.742  1.00  0.00     0.074 A 
ATOM     60  C   UNL A   1      46.118  28.634  32.613  1.00  0.00     0.031 C 
ATOM     61  C   UNL A   1      45.835  26.556  31.288  1.00  0.00     0.031 A 
BRANCH  48  62
ATOM     62  C   UNL A   1      41.828  23.509  27.689  1.00  0.00    -0.014 A 
ATOM     63  C   UNL A   1      41.022  22.492  28.231  1.00  0.00     0.009 A 
ATOM     64  C   UNL A   1      42.339  23.347  26.392  1.00  0.00     0.009 A 
ATOM     65  C   UNL A   1      40.782  21.318  27.513  1.00  0.00     0.001 A 
ATOM     66  C   UNL A   1      42.070  22.187  25.664  1.00  0.00     0.001 A 
ATOM     67  C   UNL A   1      41.306  21.168  26.230  1.00  0.00     0.000 A 
ENDBRANCH  48  62
BRANCH  49  68
ATOM     68  C   UNL A   1      43.399  31.830  32.978  1.00  0.00    -0.014 A 
ATOM     69  C   UNL A   1      43.025  31.921  34.327  1.00  0.00     0.009 A 
ATOM     70  C   UNL A   1      44.031  32.926  32.372  1.00  0.00     0.009 A 
ATOM     71  C   UNL A   1      43.264  33.091  35.050  1.00  0.00     0.001 A 
ATOM     72  C   UNL A   1      44.292  34.086  33.104  1.00  0.00     0.001 A 
ATOM     73  C   UNL A   1      43.903  34.170  34.440  1.00  0.00     0.000 A 
ENDBRANCH  49  68
BRANCH  61  74
ATOM     74  C   UNL A   1      47.224  26.159  31.704  1.00  0.00    -0.014 A 
ATOM     75  C   UNL A   1      47.461  25.488  32.914  1.00  0.00     0.009 A 
ATOM     76  C   UNL A   1      48.308  26.439  30.858  1.00  0.00     0.009 A 
ATOM     77  C   UNL A   1      48.760  25.134  33.282  1.00  0.00     0.001 A 
ATOM     78  C   UNL A   1      49.602  26.057  31.214  1.00  0.00     0.001 A 
ATOM     79  C   UNL A   1      49.829  25.415  32.430  1.00  0.00     0.000 A 
ENDBRANCH  61  74
ENDBRANCH  35  36
ENDBRANCH  27  30
ENDBRANCH  25  26
ENDBRANCH  24  25
ENDBRANCH   1  24
TORSDOF 14
ENDMDL
