MODEL 1
REMARK VINA RESULT:     -10.8      0.000      0.000
REMARK SMILES Cn1cncc1COc1c(F)cc(C(=O)NCCCCCCNC(=O)c2ccc(-c3c4nc(c(-c5ccccc5)c5ccc([nH]5)c(-c5ccccc5)c5nc(c(-c6ccccc6)c6ccc3[nH]6)C=C5)C=C4)cc2)cc1F
REMARK SMILES IDX 19 1 18 2 17 3 16 4 14 5 15 6 13 8 9 9 10 10 75 11 11 12
REMARK SMILES IDX 12 13 74 14 76 15 8 16 7 17 6 18 1 19 2 20 3 21 4 22 5 23
REMARK SMILES IDX 20 24 21 25 22 26 23 27 24 28 25 30 26 31 27 32 73 33 28 34
REMARK SMILES IDX 72 35 29 36 30 37 31 38 66 39 32 40 71 41 65 42 67 43 33 44
REMARK SMILES IDX 70 45 64 46 63 47 34 49 56 50 41 51 55 52 42 53 45 54 54 55
REMARK SMILES IDX 68 56 43 57 44 58 53 60 69 61 46 62 35 63 36 64 40 65 37 66
REMARK SMILES IDX 39 67 38 68 57 69 58 70 62 71 59 72 61 73 60 74 47 75 48 76
REMARK SMILES IDX 52 77 49 78 51 79 50 80
REMARK H PARENT 16 7 23 29 67 48 45 59
REMARK Flexibility Score: inf
ROOT
ATOM      1  C   UNL A   1      31.703  29.347  27.126  1.00  0.00     0.002 C 
ENDROOT
BRANCH   1   2
ATOM      2  C   UNL A   1      33.068  28.661  27.247  1.00  0.00     0.021 C 
BRANCH   2   3
ATOM      3  C   UNL A   1      33.879  28.669  25.946  1.00  0.00     0.116 C 
BRANCH   3   4
ATOM      4  N   UNL A   1      33.997  27.329  25.397  1.00  0.00    -0.352 N 
ATOM      5  C   UNL A   1      33.236  26.628  24.496  1.00  0.00     0.251 C 
ATOM      6  O   UNL A   1      33.643  25.528  24.127  1.00  0.00    -0.269 OA
ATOM      7  H   UNL A   1      34.774  26.828  25.735  1.00  0.00     0.163 HD
BRANCH   5   8
ATOM      8  C   UNL A   1      31.961  27.145  23.927  1.00  0.00     0.045 A 
ATOM      9  C   UNL A   1      29.597  28.217  22.809  1.00  0.00     0.191 A 
ATOM     10  C   UNL A   1      29.566  27.095  23.628  1.00  0.00     0.168 A 
ATOM     11  C   UNL A   1      30.840  28.747  22.479  1.00  0.00     0.168 A 
ATOM     12  F   UNL A   1      28.424  26.454  23.890  1.00  0.00    -0.203 F 
ATOM     13  C   UNL A   1      30.724  26.561  24.177  1.00  0.00     0.057 A 
ATOM     14  C   UNL A   1      32.015  28.226  23.032  1.00  0.00     0.057 A 
ATOM     15  F   UNL A   1      30.932  29.764  21.610  1.00  0.00    -0.203 F 
BRANCH   9  16
ATOM     16  O   UNL A   1      28.457  28.694  22.217  1.00  0.00    -0.481 OA
BRANCH  16  17
ATOM     17  C   UNL A   1      27.678  29.548  23.074  1.00  0.00     0.285 C 
BRANCH  17  18
ATOM     18  C   UNL A   1      28.186  30.944  22.984  1.00  0.00     0.075 A 
ATOM     19  C   UNL A   1      27.829  31.314  20.512  1.00  0.00     0.151 C 
ATOM     20  N   UNL A   1      28.289  31.682  21.828  1.00  0.00    -0.335 N 
ATOM     21  C   UNL A   1      28.922  32.854  22.134  1.00  0.00     0.199 A 
ATOM     22  N   UNL A   1      29.159  32.951  23.420  1.00  0.00    -0.245 NA
ATOM     23  C   UNL A   1      28.704  31.778  23.959  1.00  0.00     0.138 A 
ENDBRANCH  17  18
ENDBRANCH  16  17
ENDBRANCH   9  16
ENDBRANCH   5   8
ENDBRANCH   3   4
ENDBRANCH   2   3
ENDBRANCH   1   2
BRANCH   1  24
ATOM     24  C   UNL A   1      31.628  30.441  26.053  1.00  0.00     0.002 C 
BRANCH  24  25
ATOM     25  C   UNL A   1      31.468  31.864  26.592  1.00  0.00     0.021 C 
BRANCH  25  26
ATOM     26  C   UNL A   1      32.708  32.407  27.296  1.00  0.00     0.116 C 
BRANCH  26  27
ATOM     27  N   UNL A   1      32.542  33.805  27.667  1.00  0.00    -0.352 N 
ATOM     28  C   UNL A   1      33.227  34.547  28.599  1.00  0.00     0.251 C 
ATOM     29  H   UNL A   1      31.837  34.289  27.179  1.00  0.00     0.163 HD
ATOM     30  O   UNL A   1      32.793  35.629  28.973  1.00  0.00    -0.269 OA
BRANCH  28  31
ATOM     31  C   UNL A   1      34.490  34.022  29.156  1.00  0.00     0.039 A 
ATOM     32  C   UNL A   1      34.463  33.327  30.367  1.00  0.00     0.014 A 
ATOM     33  C   UNL A   1      35.695  34.214  28.476  1.00  0.00     0.014 A 
ATOM     34  C   UNL A   1      35.639  32.758  30.859  1.00  0.00     0.010 A 
ATOM     35  C   UNL A   1      36.849  33.585  28.927  1.00  0.00     0.010 A 
ATOM     36  C   UNL A   1      36.830  32.847  30.121  1.00  0.00    -0.014 A 
BRANCH  36  37
ATOM     37  C   UNL A   1      38.066  32.154  30.562  1.00  0.00     0.031 A 
ATOM     38  C   UNL A   1      38.979  32.801  31.565  1.00  0.00     0.074 A 
ATOM     39  C   UNL A   1      38.405  30.979  29.996  1.00  0.00     0.049 A 
ATOM     40  N   UNL A   1      40.140  32.390  32.008  1.00  0.00    -0.248 NA
ATOM     41  C   UNL A   1      38.540  34.087  32.129  1.00  0.00     0.031 C 
ATOM     42  C   UNL A   1      37.618  30.265  28.987  1.00  0.00     0.029 A 
ATOM     43  N   UNL A   1      39.506  30.183  30.182  1.00  0.00    -0.354 N 
ATOM     44  C   UNL A   1      40.576  33.373  32.888  1.00  0.00     0.074 A 
ATOM     45  C   UNL A   1      39.579  34.421  32.880  1.00  0.00     0.031 C 
ATOM     46  C   UNL A   1      38.250  29.127  28.662  1.00  0.00     0.029 A 
ATOM     47  C   UNL A   1      39.509  29.055  29.397  1.00  0.00     0.049 A 
ATOM     48  H   UNL A   1      40.227  30.399  30.817  1.00  0.00     0.167 HD
ATOM     49  C   UNL A   1      41.698  33.392  33.646  1.00  0.00     0.031 A 
ATOM     50  C   UNL A   1      40.429  28.080  29.269  1.00  0.00     0.031 A 
ATOM     51  C   UNL A   1      42.689  32.350  33.649  1.00  0.00     0.049 A 
ATOM     52  C   UNL A   1      41.688  28.150  30.087  1.00  0.00     0.074 A 
ATOM     53  C   UNL A   1      43.834  32.251  34.421  1.00  0.00     0.029 A 
ATOM     54  N   UNL A   1      42.660  31.229  32.832  1.00  0.00    -0.354 N 
ATOM     55  N   UNL A   1      42.050  29.049  30.970  1.00  0.00    -0.248 NA
ATOM     56  C   UNL A   1      42.664  27.069  29.892  1.00  0.00     0.031 C 
ATOM     57  C   UNL A   1      44.530  31.106  34.024  1.00  0.00     0.029 A 
ATOM     58  C   UNL A   1      43.785  30.455  33.054  1.00  0.00     0.049 A 
ATOM     59  H   UNL A   1      41.945  31.018  32.189  1.00  0.00     0.167 HD
ATOM     60  C   UNL A   1      43.283  28.628  31.454  1.00  0.00     0.074 A 
ATOM     61  C   UNL A   1      43.596  27.385  30.781  1.00  0.00     0.031 C 
ATOM     62  C   UNL A   1      44.084  29.221  32.373  1.00  0.00     0.031 A 
BRANCH  49  63
ATOM     63  C   UNL A   1      41.919  34.591  34.527  1.00  0.00    -0.014 A 
ATOM     64  C   UNL A   1      41.440  34.626  35.847  1.00  0.00     0.009 A 
ATOM     65  C   UNL A   1      42.652  35.686  34.043  1.00  0.00     0.009 A 
ATOM     66  C   UNL A   1      41.656  35.748  36.649  1.00  0.00     0.001 A 
ATOM     67  C   UNL A   1      42.894  36.794  34.858  1.00  0.00     0.001 A 
ATOM     68  C   UNL A   1      42.388  36.828  36.157  1.00  0.00     0.000 A 
ENDBRANCH  49  63
BRANCH  50  69
ATOM     69  C   UNL A   1      40.197  26.954  28.326  1.00  0.00    -0.014 A 
ATOM     70  C   UNL A   1      40.656  27.027  27.003  1.00  0.00     0.009 A 
ATOM     71  C   UNL A   1      39.507  25.804  28.741  1.00  0.00     0.009 A 
ATOM     72  C   UNL A   1      40.404  25.985  26.106  1.00  0.00     0.001 A 
ATOM     73  C   UNL A   1      39.284  24.750  27.852  1.00  0.00     0.001 A 
ATOM     74  C   UNL A   1      39.722  24.847  26.533  1.00  0.00     0.000 A 
ENDBRANCH  50  69
BRANCH  62  75
ATOM     75  C   UNL A   1      45.366  28.519  32.726  1.00  0.00    -0.014 A 
ATOM     76  C   UNL A   1      46.565  28.809  32.057  1.00  0.00     0.009 A 
ATOM     77  C   UNL A   1      45.383  27.591  33.781  1.00  0.00     0.009 A 
ATOM     78  C   UNL A   1      47.749  28.163  32.419  1.00  0.00     0.001 A 
ATOM     79  C   UNL A   1      46.573  26.972  34.161  1.00  0.00     0.001 A 
ATOM     80  C   UNL A   1      47.753  27.252  33.475  1.00  0.00     0.000 A 
ENDBRANCH  62  75
ENDBRANCH  36  37
ENDBRANCH  28  31
ENDBRANCH  26  27
ENDBRANCH  25  26
ENDBRANCH  24  25
ENDBRANCH   1  24
TORSDOF 16
ENDMDL
MODEL 2
REMARK VINA RESULT:     -10.8      1.104      5.958
REMARK SMILES Cn1cncc1COc1c(F)cc(C(=O)NCCCCCCNC(=O)c2ccc(-c3c4nc(c(-c5ccccc5)c5ccc([nH]5)c(-c5ccccc5)c5nc(c(-c6ccccc6)c6ccc3[nH]6)C=C5)C=C4)cc2)cc1F
REMARK SMILES IDX 19 1 18 2 17 3 16 4 14 5 15 6 13 8 9 9 10 10 75 11 11 12
REMARK SMILES IDX 12 13 74 14 76 15 8 16 7 17 6 18 1 19 2 20 3 21 4 22 5 23
REMARK SMILES IDX 20 24 21 25 22 26 23 27 24 28 25 30 26 31 27 32 73 33 28 34
REMARK SMILES IDX 72 35 29 36 30 37 31 38 66 39 32 40 71 41 65 42 67 43 33 44
REMARK SMILES IDX 70 45 64 46 63 47 34 49 56 50 41 51 55 52 42 53 45 54 54 55
REMARK SMILES IDX 68 56 43 57 44 58 53 60 69 61 46 62 35 63 36 64 40 65 37 66
REMARK SMILES IDX 39 67 38 68 57 69 58 70 62 71 59 72 61 73 60 74 47 75 48 76
REMARK SMILES IDX 52 77 49 78 51 79 50 80
REMARK H PARENT 16 7 23 29 67 48 45 59
REMARK Flexibility Score: inf
ROOT
ATOM      1  C   UNL A   1      31.744  29.321  27.290  1.00  0.00     0.002 C 
ENDROOT
BRANCH   1   2
ATOM      2  C   UNL A   1      32.957  28.385  27.313  1.00  0.00     0.021 C 
BRANCH   2   3
ATOM      3  C   UNL A   1      33.884  28.549  26.102  1.00  0.00     0.116 C 
BRANCH   3   4
ATOM      4  N   UNL A   1      34.082  27.281  25.421  1.00  0.00    -0.352 N 
ATOM      5  C   UNL A   1      33.388  26.650  24.420  1.00  0.00     0.251 C 
ATOM      6  O   UNL A   1      33.857  25.612  23.956  1.00  0.00    -0.269 OA
ATOM      7  H   UNL A   1      34.867  26.778  25.739  1.00  0.00     0.163 HD
BRANCH   5   8
ATOM      8  C   UNL A   1      32.115  27.173  23.854  1.00  0.00     0.045 A 
ATOM      9  C   UNL A   1      29.752  28.260  22.747  1.00  0.00     0.191 A 
ATOM     10  C   UNL A   1      29.727  27.097  23.507  1.00  0.00     0.168 A 
ATOM     11  C   UNL A   1      30.991  28.827  22.468  1.00  0.00     0.168 A 
ATOM     12  F   UNL A   1      28.592  26.423  23.713  1.00  0.00    -0.203 F 
ATOM     13  C   UNL A   1      30.885  26.555  24.050  1.00  0.00     0.057 A 
ATOM     14  C   UNL A   1      32.166  28.299  23.016  1.00  0.00     0.057 A 
ATOM     15  F   UNL A   1      31.080  29.890  21.655  1.00  0.00    -0.203 F 
BRANCH   9  16
ATOM     16  O   UNL A   1      28.615  28.747  22.158  1.00  0.00    -0.481 OA
BRANCH  16  17
ATOM     17  C   UNL A   1      27.804  29.541  23.043  1.00  0.00     0.285 C 
BRANCH  17  18
ATOM     18  C   UNL A   1      28.261  30.957  23.003  1.00  0.00     0.075 A 
ATOM     19  C   UNL A   1      27.949  31.381  20.533  1.00  0.00     0.151 C 
ATOM     20  N   UNL A   1      28.363  31.730  21.870  1.00  0.00    -0.335 N 
ATOM     21  C   UNL A   1      28.944  32.915  22.222  1.00  0.00     0.199 A 
ATOM     22  N   UNL A   1      29.148  32.986  23.515  1.00  0.00    -0.245 NA
ATOM     23  C   UNL A   1      28.724  31.782  24.012  1.00  0.00     0.138 A 
ENDBRANCH  17  18
ENDBRANCH  16  17
ENDBRANCH   9  16
ENDBRANCH   5   8
ENDBRANCH   3   4
ENDBRANCH   2   3
ENDBRANCH   1   2
BRANCH   1  24
ATOM     24  C   UNL A   1      31.731  30.327  26.132  1.00  0.00     0.002 C 
BRANCH  24  25
ATOM     25  C   UNL A   1      31.494  31.782  26.543  1.00  0.00     0.021 C 
BRANCH  25  26
ATOM     26  C   UNL A   1      32.662  32.417  27.291  1.00  0.00     0.116 C 
BRANCH  26  27
ATOM     27  N   UNL A   1      32.431  33.833  27.539  1.00  0.00    -0.352 N 
ATOM     28  C   UNL A   1      33.018  34.664  28.462  1.00  0.00     0.251 C 
ATOM     29  H   UNL A   1      31.757  34.257  26.960  1.00  0.00     0.163 HD
ATOM     30  O   UNL A   1      32.528  35.756  28.717  1.00  0.00    -0.269 OA
BRANCH  28  31
ATOM     31  C   UNL A   1      34.244  34.221  29.158  1.00  0.00     0.039 A 
ATOM     32  C   UNL A   1      34.133  33.589  30.398  1.00  0.00     0.014 A 
ATOM     33  C   UNL A   1      35.498  34.428  28.578  1.00  0.00     0.014 A 
ATOM     34  C   UNL A   1      35.279  33.096  31.024  1.00  0.00     0.010 A 
ATOM     35  C   UNL A   1      36.628  33.872  29.164  1.00  0.00     0.010 A 
ATOM     36  C   UNL A   1      36.529  33.197  30.390  1.00  0.00    -0.014 A 
BRANCH  36  37
ATOM     37  C   UNL A   1      37.744  32.580  30.978  1.00  0.00     0.031 A 
ATOM     38  C   UNL A   1      38.346  31.353  30.354  1.00  0.00     0.074 A 
ATOM     39  C   UNL A   1      38.254  33.079  32.121  1.00  0.00     0.049 A 
ATOM     40  N   UNL A   1      39.352  30.626  30.770  1.00  0.00    -0.248 NA
ATOM     41  C   UNL A   1      37.725  30.867  29.111  1.00  0.00     0.031 C 
ATOM     42  C   UNL A   1      37.739  34.246  32.841  1.00  0.00     0.029 A 
ATOM     43  N   UNL A   1      39.313  32.659  32.885  1.00  0.00    -0.354 N 
ATOM     44  C   UNL A   1      39.473  29.591  29.851  1.00  0.00     0.074 A 
ATOM     45  C   UNL A   1      38.410  29.757  28.884  1.00  0.00     0.031 C 
ATOM     46  C   UNL A   1      38.497  34.463  33.926  1.00  0.00     0.029 A 
ATOM     47  C   UNL A   1      39.518  33.423  34.009  1.00  0.00     0.049 A 
ATOM     48  H   UNL A   1      39.874  31.885  32.650  1.00  0.00     0.167 HD
ATOM     49  C   UNL A   1      40.397  28.602  29.808  1.00  0.00     0.031 A 
ATOM     50  C   UNL A   1      40.414  33.290  35.005  1.00  0.00     0.031 A 
ATOM     51  C   UNL A   1      41.451  28.438  30.773  1.00  0.00     0.049 A 
ATOM     52  C   UNL A   1      41.398  32.155  34.958  1.00  0.00     0.074 A 
ATOM     53  C   UNL A   1      42.468  27.500  30.788  1.00  0.00     0.029 A 
ATOM     54  N   UNL A   1      41.617  29.226  31.903  1.00  0.00    -0.354 N 
ATOM     55  N   UNL A   1      41.547  31.228  34.043  1.00  0.00    -0.248 NA
ATOM     56  C   UNL A   1      42.340  32.049  36.082  1.00  0.00     0.031 C 
ATOM     57  C   UNL A   1      43.209  27.678  31.960  1.00  0.00     0.029 A 
ATOM     58  C   UNL A   1      42.696  28.770  32.641  1.00  0.00     0.049 A 
ATOM     59  H   UNL A   1      41.050  29.994  32.145  1.00  0.00     0.167 HD
ATOM     60  C   UNL A   1      42.613  30.445  34.467  1.00  0.00     0.074 A 
ATOM     61  C   UNL A   1      43.086  31.019  35.710  1.00  0.00     0.031 C 
ATOM     62  C   UNL A   1      43.152  29.349  33.878  1.00  0.00     0.031 A 
BRANCH  49  63
ATOM     63  C   UNL A   1      40.297  27.608  28.684  1.00  0.00    -0.014 A 
ATOM     64  C   UNL A   1      40.945  27.826  27.457  1.00  0.00     0.009 A 
ATOM     65  C   UNL A   1      39.577  26.417  28.868  1.00  0.00     0.009 A 
ATOM     66  C   UNL A   1      40.841  26.891  26.425  1.00  0.00     0.001 A 
ATOM     67  C   UNL A   1      39.501  25.468  27.846  1.00  0.00     0.001 A 
ATOM     68  C   UNL A   1      40.125  25.710  26.622  1.00  0.00     0.000 A 
ENDBRANCH  49  63
BRANCH  50  69
ATOM     69  C   UNL A   1      40.422  34.256  36.135  1.00  0.00    -0.014 A 
ATOM     70  C   UNL A   1      39.659  34.011  37.287  1.00  0.00     0.009 A 
ATOM     71  C   UNL A   1      41.184  35.433  36.065  1.00  0.00     0.009 A 
ATOM     72  C   UNL A   1      39.636  34.938  38.332  1.00  0.00     0.001 A 
ATOM     73  C   UNL A   1      41.185  36.343  37.125  1.00  0.00     0.001 A 
ATOM     74  C   UNL A   1      40.402  36.100  38.252  1.00  0.00     0.000 A 
ENDBRANCH  50  69
BRANCH  62  75
ATOM     75  C   UNL A   1      44.332  28.712  34.558  1.00  0.00    -0.014 A 
ATOM     76  C   UNL A   1      45.639  29.171  34.335  1.00  0.00     0.009 A 
ATOM     77  C   UNL A   1      44.125  27.669  35.477  1.00  0.00     0.009 A 
ATOM     78  C   UNL A   1      46.717  28.580  34.998  1.00  0.00     0.001 A 
ATOM     79  C   UNL A   1      45.200  27.103  36.161  1.00  0.00     0.001 A 
ATOM     80  C   UNL A   1      46.496  27.553  35.915  1.00  0.00     0.000 A 
ENDBRANCH  62  75
ENDBRANCH  36  37
ENDBRANCH  28  31
ENDBRANCH  26  27
ENDBRANCH  25  26
ENDBRANCH  24  25
ENDBRANCH   1  24
TORSDOF 16
ENDMDL
MODEL 3
REMARK VINA RESULT:     -10.5      5.249     10.185
REMARK SMILES Cn1cncc1COc1c(F)cc(C(=O)NCCCCCCNC(=O)c2ccc(-c3c4nc(c(-c5ccccc5)c5ccc([nH]5)c(-c5ccccc5)c5nc(c(-c6ccccc6)c6ccc3[nH]6)C=C5)C=C4)cc2)cc1F
REMARK SMILES IDX 19 1 18 2 17 3 16 4 14 5 15 6 13 8 9 9 10 10 75 11 11 12
REMARK SMILES IDX 12 13 74 14 76 15 8 16 7 17 6 18 1 19 2 20 3 21 4 22 5 23
REMARK SMILES IDX 20 24 21 25 22 26 23 27 24 28 25 30 26 31 27 32 73 33 28 34
REMARK SMILES IDX 72 35 29 36 30 37 31 38 66 39 32 40 71 41 65 42 67 43 33 44
REMARK SMILES IDX 70 45 64 46 63 47 34 49 56 50 41 51 55 52 42 53 45 54 54 55
REMARK SMILES IDX 68 56 43 57 44 58 53 60 69 61 46 62 35 63 36 64 40 65 37 66
REMARK SMILES IDX 39 67 38 68 57 69 58 70 62 71 59 72 61 73 60 74 47 75 48 76
REMARK SMILES IDX 52 77 49 78 51 79 50 80
REMARK H PARENT 16 7 23 29 67 48 45 59
REMARK Flexibility Score: inf
ROOT
ATOM      1  C   UNL A   1      37.027  21.826  24.163  1.00  0.00     0.002 C 
ENDROOT
BRANCH   1   2
ATOM      2  C   UNL A   1      36.698  23.322  24.119  1.00  0.00     0.021 C 
BRANCH   2   3
ATOM      3  C   UNL A   1      35.895  23.811  25.329  1.00  0.00     0.116 C 
BRANCH   3   4
ATOM      4  N   UNL A   1      34.717  24.552  24.910  1.00  0.00    -0.352 N 
ATOM      5  C   UNL A   1      33.461  24.153  24.528  1.00  0.00     0.251 C 
ATOM      6  O   UNL A   1      32.615  25.023  24.325  1.00  0.00    -0.269 OA
ATOM      7  H   UNL A   1      34.845  25.528  24.898  1.00  0.00     0.163 HD
BRANCH   5   8
ATOM      8  C   UNL A   1      33.069  22.726  24.374  1.00  0.00     0.045 A 
ATOM      9  C   UNL A   1      32.277  20.041  23.985  1.00  0.00     0.191 A 
ATOM     10  C   UNL A   1      32.830  20.465  25.187  1.00  0.00     0.168 A 
ATOM     11  C   UNL A   1      32.208  20.959  22.941  1.00  0.00     0.168 A 
ATOM     12  F   UNL A   1      33.046  19.614  26.194  1.00  0.00    -0.203 F 
ATOM     13  C   UNL A   1      33.225  21.782  25.383  1.00  0.00     0.057 A 
ATOM     14  C   UNL A   1      32.593  22.291  23.127  1.00  0.00     0.057 A 
ATOM     15  F   UNL A   1      31.779  20.573  21.730  1.00  0.00    -0.203 F 
BRANCH   9  16
ATOM     16  O   UNL A   1      31.955  18.725  23.778  1.00  0.00    -0.481 OA
BRANCH  16  17
ATOM     17  C   UNL A   1      32.997  17.973  23.130  1.00  0.00     0.285 C 
BRANCH  17  18
ATOM     18  C   UNL A   1      33.556  16.974  24.082  1.00  0.00     0.075 A 
ATOM     19  C   UNL A   1      35.724  18.149  24.626  1.00  0.00     0.151 C 
ATOM     20  N   UNL A   1      34.787  17.054  24.688  1.00  0.00    -0.335 N 
ATOM     21  C   UNL A   1      34.992  15.891  25.376  1.00  0.00     0.199 A 
ATOM     22  N   UNL A   1      33.943  15.106  25.317  1.00  0.00    -0.245 NA
ATOM     23  C   UNL A   1      33.044  15.768  24.523  1.00  0.00     0.138 A 
ENDBRANCH  17  18
ENDBRANCH  16  17
ENDBRANCH   9  16
ENDBRANCH   5   8
ENDBRANCH   3   4
ENDBRANCH   2   3
ENDBRANCH   1   2
BRANCH   1  24
ATOM     24  C   UNL A   1      37.971  21.410  25.297  1.00  0.00     0.002 C 
BRANCH  24  25
ATOM     25  C   UNL A   1      38.729  20.101  25.060  1.00  0.00     0.021 C 
BRANCH  25  26
ATOM     26  C   UNL A   1      39.504  19.601  26.274  1.00  0.00     0.116 C 
BRANCH  26  27
ATOM     27  N   UNL A   1      40.790  19.034  25.890  1.00  0.00    -0.352 N 
ATOM     28  C   UNL A   1      42.009  19.653  25.751  1.00  0.00     0.251 C 
ATOM     29  H   UNL A   1      40.785  18.067  25.703  1.00  0.00     0.163 HD
ATOM     30  O   UNL A   1      42.928  19.091  25.171  1.00  0.00    -0.269 OA
BRANCH  28  31
ATOM     31  C   UNL A   1      42.197  21.011  26.299  1.00  0.00     0.039 A 
ATOM     32  C   UNL A   1      42.272  21.184  27.683  1.00  0.00     0.014 A 
ATOM     33  C   UNL A   1      42.305  22.109  25.441  1.00  0.00     0.014 A 
ATOM     34  C   UNL A   1      42.531  22.453  28.204  1.00  0.00     0.010 A 
ATOM     35  C   UNL A   1      42.636  23.356  25.956  1.00  0.00     0.010 A 
ATOM     36  C   UNL A   1      42.756  23.539  27.342  1.00  0.00    -0.014 A 
BRANCH  36  37
ATOM     37  C   UNL A   1      43.147  24.871  27.866  1.00  0.00     0.031 A 
ATOM     38  C   UNL A   1      42.097  25.904  28.166  1.00  0.00     0.074 A 
ATOM     39  C   UNL A   1      44.454  25.177  27.991  1.00  0.00     0.049 A 
ATOM     40  N   UNL A   1      42.250  27.146  28.548  1.00  0.00    -0.248 NA
ATOM     41  C   UNL A   1      40.695  25.493  27.995  1.00  0.00     0.031 C 
ATOM     42  C   UNL A   1      45.568  24.272  27.700  1.00  0.00     0.029 A 
ATOM     43  N   UNL A   1      45.065  26.339  28.386  1.00  0.00    -0.354 N 
ATOM     44  C   UNL A   1      40.966  27.668  28.647  1.00  0.00     0.074 A 
ATOM     45  C   UNL A   1      40.051  26.624  28.240  1.00  0.00     0.031 C 
ATOM     46  C   UNL A   1      46.725  24.904  27.949  1.00  0.00     0.029 A 
ATOM     47  C   UNL A   1      46.438  26.273  28.367  1.00  0.00     0.049 A 
ATOM     48  H   UNL A   1      44.569  27.145  28.657  1.00  0.00     0.167 HD
ATOM     49  C   UNL A   1      40.583  28.901  29.057  1.00  0.00     0.031 A 
ATOM     50  C   UNL A   1      47.363  27.214  28.636  1.00  0.00     0.031 A 
ATOM     51  C   UNL A   1      41.496  29.938  29.459  1.00  0.00     0.049 A 
ATOM     52  C   UNL A   1      46.912  28.589  29.042  1.00  0.00     0.074 A 
ATOM     53  C   UNL A   1      41.206  31.203  29.940  1.00  0.00     0.029 A 
ATOM     54  N   UNL A   1      42.878  29.835  29.414  1.00  0.00    -0.354 N 
ATOM     55  N   UNL A   1      45.693  29.044  29.204  1.00  0.00    -0.248 NA
ATOM     56  C   UNL A   1      47.965  29.580  29.306  1.00  0.00     0.031 C 
ATOM     57  C   UNL A   1      42.410  31.887  30.124  1.00  0.00     0.029 A 
ATOM     58  C   UNL A   1      43.453  31.026  29.822  1.00  0.00     0.049 A 
ATOM     59  H   UNL A   1      43.376  29.034  29.132  1.00  0.00     0.167 HD
ATOM     60  C   UNL A   1      45.833  30.365  29.612  1.00  0.00     0.074 A 
ATOM     61  C   UNL A   1      47.255  30.630  29.692  1.00  0.00     0.031 C 
ATOM     62  C   UNL A   1      44.870  31.276  29.894  1.00  0.00     0.031 A 
BRANCH  49  63
ATOM     63  C   UNL A   1      39.109  29.199  29.076  1.00  0.00    -0.014 A 
ATOM     64  C   UNL A   1      38.437  29.634  27.922  1.00  0.00     0.009 A 
ATOM     65  C   UNL A   1      38.374  29.004  30.256  1.00  0.00     0.009 A 
ATOM     66  C   UNL A   1      37.068  29.905  27.960  1.00  0.00     0.001 A 
ATOM     67  C   UNL A   1      36.999  29.245  30.283  1.00  0.00     0.001 A 
ATOM     68  C   UNL A   1      36.348  29.704  29.138  1.00  0.00     0.000 A 
ENDBRANCH  49  63
BRANCH  50  69
ATOM     69  C   UNL A   1      48.810  26.890  28.528  1.00  0.00    -0.014 A 
ATOM     70  C   UNL A   1      49.514  26.396  29.635  1.00  0.00     0.009 A 
ATOM     71  C   UNL A   1      49.497  27.084  27.319  1.00  0.00     0.009 A 
ATOM     72  C   UNL A   1      50.883  26.129  29.542  1.00  0.00     0.001 A 
ATOM     73  C   UNL A   1      50.858  26.786  27.219  1.00  0.00     0.001 A 
ATOM     74  C   UNL A   1      51.552  26.320  28.335  1.00  0.00     0.000 A 
ENDBRANCH  50  69
BRANCH  62  75
ATOM     75  C   UNL A   1      45.320  32.639  30.341  1.00  0.00    -0.014 A 
ATOM     76  C   UNL A   1      45.505  33.685  29.424  1.00  0.00     0.009 A 
ATOM     77  C   UNL A   1      45.509  32.894  31.710  1.00  0.00     0.009 A 
ATOM     78  C   UNL A   1      45.897  34.950  29.866  1.00  0.00     0.001 A 
ATOM     79  C   UNL A   1      45.870  34.167  32.151  1.00  0.00     0.001 A 
ATOM     80  C   UNL A   1      46.072  35.191  31.228  1.00  0.00     0.000 A 
ENDBRANCH  62  75
ENDBRANCH  36  37
ENDBRANCH  28  31
ENDBRANCH  26  27
ENDBRANCH  25  26
ENDBRANCH  24  25
ENDBRANCH   1  24
TORSDOF 16
ENDMDL
