MODEL 1
REMARK VINA RESULT:     -10.5      0.000      0.000
REMARK SMILES O=C(NCCCCCCNC(=O)[C@@H]1CC[C@@H](CS(=O)(=O)c2cccc(F)c2)O1)c1ccc(-c2c3nc(c(-c4ccccc4)c4ccc([nH]4)c(-c4ccccc4)c4nc(c(-c5ccccc5)c5ccc2[nH]5)C=C4)C=C3)cc1
REMARK SMILES IDX 7 1 6 2 5 3 4 4 3 5 1 6 2 7 29 9 30 10 76 11 31 12 75 13
REMARK SMILES IDX 32 14 33 15 34 16 69 17 35 18 74 19 68 20 70 21 36 22 73 23
REMARK SMILES IDX 67 24 66 25 37 27 59 28 44 29 58 30 45 31 48 32 57 33 71 34
REMARK SMILES IDX 46 35 47 36 56 38 72 39 49 40 38 41 39 42 43 43 40 44 42 45
REMARK SMILES IDX 41 46 60 47 61 48 65 49 62 50 64 51 63 52 50 53 51 54 55 55
REMARK SMILES IDX 52 56 54 57 53 58 8 59 9 60 10 61 11 62 12 64 13 65 14 66
REMARK SMILES IDX 28 67 15 68 16 69 17 70 18 71 19 72 20 73 21 74 22 75 27 76
REMARK SMILES IDX 23 77 25 78 24 79 26 80
REMARK H PARENT 3 8 70 26 48 37 10 63
REMARK Flexibility Score: inf
ROOT
ATOM      1  C   UNL A   1      34.416  32.283  28.860  1.00  0.00     0.002 C 
ENDROOT
BRANCH   1   2
ATOM      2  C   UNL A   1      34.552  33.797  29.063  1.00  0.00     0.002 C 
BRANCH   2   3
ATOM      3  C   UNL A   1      33.242  34.576  29.116  1.00  0.00     0.021 C 
BRANCH   3   4
ATOM      4  C   UNL A   1      33.389  36.038  29.496  1.00  0.00     0.116 C 
BRANCH   4   5
ATOM      5  N   UNL A   1      32.527  36.422  30.602  1.00  0.00    -0.352 N 
ATOM      6  O   UNL A   1      31.706  36.311  32.707  1.00  0.00    -0.269 OA
ATOM      7  C   UNL A   1      32.594  36.018  31.915  1.00  0.00     0.251 C 
ATOM      8  H   UNL A   1      31.802  37.050  30.383  1.00  0.00     0.163 HD
BRANCH   7   9
ATOM      9  C   UNL A   1      33.743  35.198  32.357  1.00  0.00     0.039 A 
ATOM     10  C   UNL A   1      35.037  35.717  32.307  1.00  0.00     0.014 A 
ATOM     11  C   UNL A   1      33.526  33.890  32.802  1.00  0.00     0.014 A 
ATOM     12  C   UNL A   1      36.121  34.886  32.552  1.00  0.00     0.010 A 
ATOM     13  C   UNL A   1      34.617  33.084  33.146  1.00  0.00     0.010 A 
ATOM     14  C   UNL A   1      35.925  33.568  32.998  1.00  0.00    -0.014 A 
BRANCH  14  15
ATOM     15  C   UNL A   1      37.115  32.767  33.377  1.00  0.00     0.031 A 
ATOM     16  C   UNL A   1      37.745  31.784  32.430  1.00  0.00     0.074 A 
ATOM     17  C   UNL A   1      37.671  32.997  34.583  1.00  0.00     0.049 A 
ATOM     18  N   UNL A   1      38.842  31.086  32.586  1.00  0.00    -0.248 NA
ATOM     19  C   UNL A   1      37.061  31.547  31.150  1.00  0.00     0.031 C 
ATOM     20  C   UNL A   1      37.137  33.915  35.594  1.00  0.00     0.029 A 
ATOM     21  N   UNL A   1      38.823  32.516  35.148  1.00  0.00    -0.354 N 
ATOM     22  C   UNL A   1      38.974  30.319  31.435  1.00  0.00     0.074 A 
ATOM     23  C   UNL A   1      37.831  30.619  30.598  1.00  0.00     0.031 C 
ATOM     24  C   UNL A   1      37.997  33.989  36.619  1.00  0.00     0.029 A 
ATOM     25  C   UNL A   1      39.105  33.077  36.370  1.00  0.00     0.049 A 
ATOM     26  H   UNL A   1      39.393  31.837  34.720  1.00  0.00     0.167 HD
ATOM     27  C   UNL A   1      39.959  29.448  31.108  1.00  0.00     0.031 A 
ATOM     28  C   UNL A   1      40.140  32.880  37.205  1.00  0.00     0.031 A 
ATOM     29  C   UNL A   1      41.091  29.148  31.946  1.00  0.00     0.049 A 
ATOM     30  C   UNL A   1      41.215  31.913  36.813  1.00  0.00     0.074 A 
ATOM     31  C   UNL A   1      42.143  28.281  31.698  1.00  0.00     0.029 A 
ATOM     32  N   UNL A   1      41.323  29.707  33.193  1.00  0.00    -0.354 N 
ATOM     33  N   UNL A   1      41.329  31.210  35.713  1.00  0.00    -0.248 NA
ATOM     34  C   UNL A   1      42.304  31.712  37.778  1.00  0.00     0.031 C 
ATOM     35  C   UNL A   1      42.990  28.288  32.812  1.00  0.00     0.029 A 
ATOM     36  C   UNL A   1      42.491  29.195  33.733  1.00  0.00     0.049 A 
ATOM     37  H   UNL A   1      40.741  30.371  33.631  1.00  0.00     0.167 HD
ATOM     38  C   UNL A   1      42.500  30.480  35.853  1.00  0.00     0.074 A 
ATOM     39  C   UNL A   1      43.079  30.858  37.127  1.00  0.00     0.031 C 
ATOM     40  C   UNL A   1      43.041  29.569  35.009  1.00  0.00     0.031 A 
BRANCH  27  41
ATOM     41  C   UNL A   1      39.850  28.739  29.786  1.00  0.00    -0.014 A 
ATOM     42  C   UNL A   1      40.327  29.329  28.605  1.00  0.00     0.009 A 
ATOM     43  C   UNL A   1      39.322  27.439  29.731  1.00  0.00     0.009 A 
ATOM     44  C   UNL A   1      40.255  28.639  27.392  1.00  0.00     0.001 A 
ATOM     45  C   UNL A   1      39.272  26.745  28.522  1.00  0.00     0.001 A 
ATOM     46  C   UNL A   1      39.734  27.346  27.352  1.00  0.00     0.000 A 
ENDBRANCH  27  41
BRANCH  28  47
ATOM     47  C   UNL A   1      40.192  33.604  38.500  1.00  0.00    -0.014 A 
ATOM     48  C   UNL A   1      39.575  33.079  39.644  1.00  0.00     0.009 A 
ATOM     49  C   UNL A   1      40.881  34.824  38.598  1.00  0.00     0.009 A 
ATOM     50  C   UNL A   1      39.629  33.772  40.855  1.00  0.00     0.001 A 
ATOM     51  C   UNL A   1      40.959  35.498  39.817  1.00  0.00     0.001 A 
ATOM     52  C   UNL A   1      40.326  34.976  40.942  1.00  0.00     0.000 A 
ENDBRANCH  28  47
BRANCH  40  53
ATOM     53  C   UNL A   1      44.326  28.929  35.449  1.00  0.00    -0.014 A 
ATOM     54  C   UNL A   1      45.565  29.499  35.121  1.00  0.00     0.009 A 
ATOM     55  C   UNL A   1      44.295  27.742  36.197  1.00  0.00     0.009 A 
ATOM     56  C   UNL A   1      46.753  28.870  35.497  1.00  0.00     0.001 A 
ATOM     57  C   UNL A   1      45.484  27.129  36.594  1.00  0.00     0.001 A 
ATOM     58  C   UNL A   1      46.711  27.687  36.235  1.00  0.00     0.000 A 
ENDBRANCH  40  53
ENDBRANCH  14  15
ENDBRANCH   7   9
ENDBRANCH   4   5
ENDBRANCH   3   4
ENDBRANCH   2   3
ENDBRANCH   1   2
BRANCH   1  59
ATOM     59  C   UNL A   1      33.632  31.829  27.620  1.00  0.00     0.021 C 
BRANCH  59  60
ATOM     60  C   UNL A   1      33.878  30.385  27.185  1.00  0.00     0.116 C 
BRANCH  60  61
ATOM     61  N   UNL A   1      32.904  29.480  27.753  1.00  0.00    -0.354 N 
ATOM     62  C   UNL A   1      32.261  28.437  27.158  1.00  0.00     0.249 C 
ATOM     63  H   UNL A   1      32.675  29.639  28.698  1.00  0.00     0.163 HD
ATOM     64  O   UNL A   1      31.414  27.831  27.815  1.00  0.00    -0.272 OA
BRANCH  62  65
ATOM     65  C   UNL A   1      32.619  28.085  25.707  1.00  0.00     0.207 C 
ATOM     66  C   UNL A   1      31.398  28.061  24.803  1.00  0.00     0.045 C 
ATOM     67  O   UNL A   1      33.224  26.775  25.640  1.00  0.00    -0.364 OA
ATOM     68  C   UNL A   1      31.605  26.825  23.968  1.00  0.00     0.036 C 
ATOM     69  C   UNL A   1      32.347  25.896  24.903  1.00  0.00     0.134 C 
BRANCH  69  70
ATOM     70  C   UNL A   1      33.151  24.709  24.375  1.00  0.00     0.174 C 
BRANCH  70  71
ATOM     71  S   UNL A   1      33.165  23.197  25.299  1.00  0.00     0.181 S 
ATOM     72  O   UNL A   1      32.686  23.477  26.642  1.00  0.00    -0.224 OA
ATOM     73  O   UNL A   1      32.520  22.177  24.496  1.00  0.00    -0.224 OA
BRANCH  71  74
ATOM     74  C   UNL A   1      34.869  22.715  25.419  1.00  0.00     0.070 A 
ATOM     75  C   UNL A   1      35.232  21.407  25.079  1.00  0.00     0.020 A 
ATOM     76  C   UNL A   1      35.835  23.662  25.769  1.00  0.00     0.059 A 
ATOM     77  C   UNL A   1      36.585  21.068  25.017  1.00  0.00     0.004 A 
ATOM     78  C   UNL A   1      37.174  23.313  25.677  1.00  0.00     0.124 A 
ATOM     79  C   UNL A   1      37.557  22.031  25.293  1.00  0.00     0.039 A 
ATOM     80  F   UNL A   1      38.112  24.238  25.913  1.00  0.00    -0.207 F 
ENDBRANCH  71  74
ENDBRANCH  70  71
ENDBRANCH  69  70
ENDBRANCH  62  65
ENDBRANCH  60  61
ENDBRANCH  59  60
ENDBRANCH   1  59
TORSDOF 16
ENDMDL
MODEL 2
REMARK VINA RESULT:     -10.4      3.605      8.738
REMARK SMILES O=C(NCCCCCCNC(=O)[C@@H]1CC[C@@H](CS(=O)(=O)c2cccc(F)c2)O1)c1ccc(-c2c3nc(c(-c4ccccc4)c4ccc([nH]4)c(-c4ccccc4)c4nc(c(-c5ccccc5)c5ccc2[nH]5)C=C4)C=C3)cc1
REMARK SMILES IDX 7 1 6 2 5 3 4 4 3 5 1 6 2 7 29 9 30 10 76 11 31 12 75 13
REMARK SMILES IDX 32 14 33 15 34 16 69 17 35 18 74 19 68 20 70 21 36 22 73 23
REMARK SMILES IDX 67 24 66 25 37 27 59 28 44 29 58 30 45 31 48 32 57 33 71 34
REMARK SMILES IDX 46 35 47 36 56 38 72 39 49 40 38 41 39 42 43 43 40 44 42 45
REMARK SMILES IDX 41 46 60 47 61 48 65 49 62 50 64 51 63 52 50 53 51 54 55 55
REMARK SMILES IDX 52 56 54 57 53 58 8 59 9 60 10 61 11 62 12 64 13 65 14 66
REMARK SMILES IDX 28 67 15 68 16 69 17 70 18 71 19 72 20 73 21 74 22 75 27 76
REMARK SMILES IDX 23 77 25 78 24 79 26 80
REMARK H PARENT 3 8 70 26 48 37 10 63
REMARK Flexibility Score: inf
ROOT
ATOM      1  C   UNL A   1      34.680  21.006  25.460  1.00  0.00     0.002 C 
ENDROOT
BRANCH   1   2
ATOM      2  C   UNL A   1      35.324  22.141  24.656  1.00  0.00     0.002 C 
BRANCH   2   3
ATOM      3  C   UNL A   1      35.819  23.331  25.472  1.00  0.00     0.021 C 
BRANCH   3   4
ATOM      4  C   UNL A   1      37.214  23.810  25.112  1.00  0.00     0.116 C 
BRANCH   4   5
ATOM      5  N   UNL A   1      38.243  22.831  25.422  1.00  0.00    -0.352 N 
ATOM      6  O   UNL A   1      40.254  22.128  26.184  1.00  0.00    -0.269 OA
ATOM      7  C   UNL A   1      39.409  23.014  26.128  1.00  0.00     0.251 C 
ATOM      8  H   UNL A   1      38.086  21.921  25.081  1.00  0.00     0.163 HD
BRANCH   7   9
ATOM      9  C   UNL A   1      39.645  24.310  26.802  1.00  0.00     0.039 A 
ATOM     10  C   UNL A   1      40.363  25.317  26.155  1.00  0.00     0.014 A 
ATOM     11  C   UNL A   1      39.167  24.509  28.100  1.00  0.00     0.014 A 
ATOM     12  C   UNL A   1      40.732  26.456  26.856  1.00  0.00     0.010 A 
ATOM     13  C   UNL A   1      39.456  25.703  28.771  1.00  0.00     0.010 A 
ATOM     14  C   UNL A   1      40.264  26.674  28.163  1.00  0.00    -0.014 A 
BRANCH  14  15
ATOM     15  C   UNL A   1      40.575  27.969  28.817  1.00  0.00     0.031 A 
ATOM     16  C   UNL A   1      39.554  29.065  28.934  1.00  0.00     0.074 A 
ATOM     17  C   UNL A   1      41.793  28.117  29.375  1.00  0.00     0.049 A 
ATOM     18  N   UNL A   1      39.651  30.210  29.562  1.00  0.00    -0.248 NA
ATOM     19  C   UNL A   1      38.262  28.858  28.263  1.00  0.00     0.031 C 
ATOM     20  C   UNL A   1      42.874  27.127  29.308  1.00  0.00     0.029 A 
ATOM     21  N   UNL A   1      42.315  29.126  30.141  1.00  0.00    -0.354 N 
ATOM     22  C   UNL A   1      38.444  30.866  29.351  1.00  0.00     0.074 A 
ATOM     23  C   UNL A   1      37.637  30.000  28.517  1.00  0.00     0.031 C 
ATOM     24  C   UNL A   1      43.898  27.544  30.066  1.00  0.00     0.029 A 
ATOM     25  C   UNL A   1      43.575  28.853  30.615  1.00  0.00     0.049 A 
ATOM     26  H   UNL A   1      41.833  29.963  30.333  1.00  0.00     0.167 HD
ATOM     27  C   UNL A   1      38.047  32.076  29.814  1.00  0.00     0.031 A 
ATOM     28  C   UNL A   1      44.388  29.577  31.404  1.00  0.00     0.031 A 
ATOM     29  C   UNL A   1      38.855  32.936  30.640  1.00  0.00     0.049 A 
ATOM     30  C   UNL A   1      43.919  30.910  31.902  1.00  0.00     0.074 A 
ATOM     31  C   UNL A   1      38.537  34.180  31.161  1.00  0.00     0.029 A 
ATOM     32  N   UNL A   1      40.140  32.643  31.068  1.00  0.00    -0.354 N 
ATOM     33  N   UNL A   1      42.768  31.504  31.705  1.00  0.00    -0.248 NA
ATOM     34  C   UNL A   1      44.861  31.671  32.732  1.00  0.00     0.031 C 
ATOM     35  C   UNL A   1      39.645  34.655  31.872  1.00  0.00     0.029 A 
ATOM     36  C   UNL A   1      40.634  33.687  31.834  1.00  0.00     0.049 A 
ATOM     37  H   UNL A   1      40.630  31.815  30.858  1.00  0.00     0.167 HD
ATOM     38  C   UNL A   1      42.846  32.711  32.383  1.00  0.00     0.074 A 
ATOM     39  C   UNL A   1      44.143  32.744  33.030  1.00  0.00     0.031 C 
ATOM     40  C   UNL A   1      41.933  33.709  32.453  1.00  0.00     0.031 A 
BRANCH  27  41
ATOM     41  C   UNL A   1      36.675  32.553  29.425  1.00  0.00    -0.014 A 
ATOM     42  C   UNL A   1      35.568  32.340  30.261  1.00  0.00     0.009 A 
ATOM     43  C   UNL A   1      36.499  33.282  28.238  1.00  0.00     0.009 A 
ATOM     44  C   UNL A   1      34.308  32.826  29.903  1.00  0.00     0.001 A 
ATOM     45  C   UNL A   1      35.244  33.786  27.894  1.00  0.00     0.001 A 
ATOM     46  C   UNL A   1      34.148  33.554  28.724  1.00  0.00     0.000 A 
ENDBRANCH  27  41
BRANCH  28  47
ATOM     47  C   UNL A   1      45.735  29.057  31.751  1.00  0.00    -0.014 A 
ATOM     48  C   UNL A   1      46.835  29.291  30.914  1.00  0.00     0.009 A 
ATOM     49  C   UNL A   1      45.927  28.335  32.940  1.00  0.00     0.009 A 
ATOM     50  C   UNL A   1      48.096  28.793  31.251  1.00  0.00     0.001 A 
ATOM     51  C   UNL A   1      47.193  27.866  33.289  1.00  0.00     0.001 A 
ATOM     52  C   UNL A   1      48.275  28.088  32.440  1.00  0.00     0.000 A 
ENDBRANCH  28  47
BRANCH  40  53
ATOM     53  C   UNL A   1      42.318  34.912  33.264  1.00  0.00    -0.014 A 
ATOM     54  C   UNL A   1      41.934  35.029  34.609  1.00  0.00     0.009 A 
ATOM     55  C   UNL A   1      43.069  35.941  32.676  1.00  0.00     0.009 A 
ATOM     56  C   UNL A   1      42.259  36.173  35.338  1.00  0.00     0.001 A 
ATOM     57  C   UNL A   1      43.414  37.073  33.415  1.00  0.00     0.001 A 
ATOM     58  C   UNL A   1      43.000  37.193  34.741  1.00  0.00     0.000 A 
ENDBRANCH  40  53
ENDBRANCH  14  15
ENDBRANCH   7   9
ENDBRANCH   4   5
ENDBRANCH   3   4
ENDBRANCH   2   3
ENDBRANCH   1   2
BRANCH   1  59
ATOM     59  C   UNL A   1      33.564  20.220  24.757  1.00  0.00     0.021 C 
BRANCH  59  60
ATOM     60  C   UNL A   1      32.146  20.732  25.008  1.00  0.00     0.116 C 
BRANCH  60  61
ATOM     61  N   UNL A   1      32.089  21.619  26.148  1.00  0.00    -0.354 N 
ATOM     62  C   UNL A   1      31.665  22.912  26.202  1.00  0.00     0.249 C 
ATOM     63  H   UNL A   1      32.400  21.237  27.001  1.00  0.00     0.163 HD
ATOM     64  O   UNL A   1      31.763  23.507  27.276  1.00  0.00    -0.272 OA
BRANCH  62  65
ATOM     65  C   UNL A   1      31.100  23.554  24.926  1.00  0.00     0.207 C 
ATOM     66  C   UNL A   1      32.170  23.775  23.871  1.00  0.00     0.045 C 
ATOM     67  O   UNL A   1      30.522  24.843  25.224  1.00  0.00    -0.364 OA
ATOM     68  C   UNL A   1      31.868  25.154  23.350  1.00  0.00     0.036 C 
ATOM     69  C   UNL A   1      31.298  25.863  24.557  1.00  0.00     0.134 C 
BRANCH  69  70
ATOM     70  C   UNL A   1      30.451  27.127  24.414  1.00  0.00     0.174 C 
BRANCH  70  71
ATOM     71  S   UNL A   1      31.192  28.593  23.749  1.00  0.00     0.181 S 
ATOM     72  O   UNL A   1      32.087  28.203  22.672  1.00  0.00    -0.224 OA
ATOM     73  O   UNL A   1      30.136  29.554  23.504  1.00  0.00    -0.224 OA
BRANCH  71  74
ATOM     74  C   UNL A   1      32.178  29.276  25.056  1.00  0.00     0.070 A 
ATOM     75  C   UNL A   1      31.679  30.356  25.792  1.00  0.00     0.020 A 
ATOM     76  C   UNL A   1      33.398  28.681  25.388  1.00  0.00     0.059 A 
ATOM     77  C   UNL A   1      32.376  30.794  26.920  1.00  0.00     0.004 A 
ATOM     78  C   UNL A   1      34.062  29.114  26.527  1.00  0.00     0.124 A 
ATOM     79  C   UNL A   1      33.556  30.155  27.301  1.00  0.00     0.039 A 
ATOM     80  F   UNL A   1      35.180  28.488  26.914  1.00  0.00    -0.207 F 
ENDBRANCH  71  74
ENDBRANCH  70  71
ENDBRANCH  69  70
ENDBRANCH  62  65
ENDBRANCH  60  61
ENDBRANCH  59  60
ENDBRANCH   1  59
TORSDOF 16
ENDMDL
MODEL 3
REMARK VINA RESULT:     -10.3      1.068      5.992
REMARK SMILES O=C(NCCCCCCNC(=O)[C@@H]1CC[C@@H](CS(=O)(=O)c2cccc(F)c2)O1)c1ccc(-c2c3nc(c(-c4ccccc4)c4ccc([nH]4)c(-c4ccccc4)c4nc(c(-c5ccccc5)c5ccc2[nH]5)C=C4)C=C3)cc1
REMARK SMILES IDX 7 1 6 2 5 3 4 4 3 5 1 6 2 7 29 9 30 10 76 11 31 12 75 13
REMARK SMILES IDX 32 14 33 15 34 16 69 17 35 18 74 19 68 20 70 21 36 22 73 23
REMARK SMILES IDX 67 24 66 25 37 27 59 28 44 29 58 30 45 31 48 32 57 33 71 34
REMARK SMILES IDX 46 35 47 36 56 38 72 39 49 40 38 41 39 42 43 43 40 44 42 45
REMARK SMILES IDX 41 46 60 47 61 48 65 49 62 50 64 51 63 52 50 53 51 54 55 55
REMARK SMILES IDX 52 56 54 57 53 58 8 59 9 60 10 61 11 62 12 64 13 65 14 66
REMARK SMILES IDX 28 67 15 68 16 69 17 70 18 71 19 72 20 73 21 74 22 75 27 76
REMARK SMILES IDX 23 77 25 78 24 79 26 80
REMARK H PARENT 3 8 70 26 48 37 10 63
REMARK Flexibility Score: inf
ROOT
ATOM      1  C   UNL A   1      34.518  32.296  28.921  1.00  0.00     0.002 C 
ENDROOT
BRANCH   1   2
ATOM      2  C   UNL A   1      34.642  33.810  29.130  1.00  0.00     0.002 C 
BRANCH   2   3
ATOM      3  C   UNL A   1      33.332  34.590  29.097  1.00  0.00     0.021 C 
BRANCH   3   4
ATOM      4  C   UNL A   1      33.403  35.974  29.717  1.00  0.00     0.116 C 
BRANCH   4   5
ATOM      5  N   UNL A   1      32.503  36.131  30.848  1.00  0.00    -0.352 N 
ATOM      6  O   UNL A   1      31.722  35.719  32.931  1.00  0.00    -0.269 OA
ATOM      7  C   UNL A   1      32.637  35.627  32.121  1.00  0.00     0.251 C 
ATOM      8  H   UNL A   1      31.693  36.665  30.681  1.00  0.00     0.163 HD
BRANCH   7   9
ATOM      9  C   UNL A   1      33.895  34.946  32.496  1.00  0.00     0.039 A 
ATOM     10  C   UNL A   1      35.109  35.633  32.443  1.00  0.00     0.014 A 
ATOM     11  C   UNL A   1      33.864  33.602  32.879  1.00  0.00     0.014 A 
ATOM     12  C   UNL A   1      36.298  34.942  32.622  1.00  0.00     0.010 A 
ATOM     13  C   UNL A   1      35.060  32.931  33.158  1.00  0.00     0.010 A 
ATOM     14  C   UNL A   1      36.288  33.589  33.005  1.00  0.00    -0.014 A 
BRANCH  14  15
ATOM     15  C   UNL A   1      37.583  32.935  33.317  1.00  0.00     0.031 A 
ATOM     16  C   UNL A   1      38.290  33.157  34.624  1.00  0.00     0.074 A 
ATOM     17  C   UNL A   1      38.085  32.068  32.415  1.00  0.00     0.049 A 
ATOM     18  N   UNL A   1      39.376  32.581  35.075  1.00  0.00    -0.248 NA
ATOM     19  C   UNL A   1      37.714  34.151  35.543  1.00  0.00     0.031 C 
ATOM     20  C   UNL A   1      37.495  31.787  31.101  1.00  0.00     0.029 A 
ATOM     21  N   UNL A   1      39.170  31.235  32.476  1.00  0.00    -0.354 N 
ATOM     22  C   UNL A   1      39.623  33.148  36.319  1.00  0.00     0.074 A 
ATOM     23  C   UNL A   1      38.585  34.133  36.543  1.00  0.00     0.031 C 
ATOM     24  C   UNL A   1      38.180  30.795  30.516  1.00  0.00     0.029 A 
ATOM     25  C   UNL A   1      39.291  30.417  31.379  1.00  0.00     0.049 A 
ATOM     26  H   UNL A   1      39.800  31.223  33.232  1.00  0.00     0.167 HD
ATOM     27  C   UNL A   1      40.620  32.870  37.193  1.00  0.00     0.031 A 
ATOM     28  C   UNL A   1      40.199  29.468  31.091  1.00  0.00     0.031 A 
ATOM     29  C   UNL A   1      41.653  31.893  36.964  1.00  0.00     0.049 A 
ATOM     30  C   UNL A   1      41.288  29.182  32.080  1.00  0.00     0.074 A 
ATOM     31  C   UNL A   1      42.706  31.539  37.793  1.00  0.00     0.029 A 
ATOM     32  N   UNL A   1      41.765  31.112  35.825  1.00  0.00    -0.354 N 
ATOM     33  N   UNL A   1      41.493  29.718  33.257  1.00  0.00    -0.248 NA
ATOM     34  C   UNL A   1      42.270  28.159  31.698  1.00  0.00     0.031 C 
ATOM     35  C   UNL A   1      43.475  30.571  37.138  1.00  0.00     0.029 A 
ATOM     36  C   UNL A   1      42.874  30.287  35.922  1.00  0.00     0.049 A 
ATOM     37  H   UNL A   1      41.146  31.139  35.058  1.00  0.00     0.167 HD
ATOM     38  C   UNL A   1      42.629  29.101  33.759  1.00  0.00     0.074 A 
ATOM     39  C   UNL A   1      43.044  28.122  32.773  1.00  0.00     0.031 C 
ATOM     40  C   UNL A   1      43.281  29.333  34.924  1.00  0.00     0.031 A 
BRANCH  27  41
ATOM     41  C   UNL A   1      40.653  33.646  38.480  1.00  0.00    -0.014 A 
ATOM     42  C   UNL A   1      41.212  34.933  38.538  1.00  0.00     0.009 A 
ATOM     43  C   UNL A   1      40.062  33.111  39.636  1.00  0.00     0.009 A 
ATOM     44  C   UNL A   1      41.198  35.657  39.733  1.00  0.00     0.001 A 
ATOM     45  C   UNL A   1      40.029  33.846  40.822  1.00  0.00     0.001 A 
ATOM     46  C   UNL A   1      40.602  35.116  40.872  1.00  0.00     0.000 A 
ENDBRANCH  27  41
BRANCH  28  47
ATOM     47  C   UNL A   1      40.119  28.737  29.802  1.00  0.00    -0.014 A 
ATOM     48  C   UNL A   1      39.437  27.515  29.708  1.00  0.00     0.009 A 
ATOM     49  C   UNL A   1      40.715  29.272  28.649  1.00  0.00     0.009 A 
ATOM     50  C   UNL A   1      39.372  26.835  28.490  1.00  0.00     0.001 A 
ATOM     51  C   UNL A   1      40.621  28.606  27.427  1.00  0.00     0.001 A 
ATOM     52  C   UNL A   1      39.958  27.384  27.350  1.00  0.00     0.000 A 
ENDBRANCH  28  47
BRANCH  40  53
ATOM     53  C   UNL A   1      44.504  28.504  35.184  1.00  0.00    -0.014 A 
ATOM     54  C   UNL A   1      44.412  27.269  35.844  1.00  0.00     0.009 A 
ATOM     55  C   UNL A   1      45.762  28.964  34.767  1.00  0.00     0.009 A 
ATOM     56  C   UNL A   1      45.563  26.530  36.119  1.00  0.00     0.001 A 
ATOM     57  C   UNL A   1      46.908  28.210  35.021  1.00  0.00     0.001 A 
ATOM     58  C   UNL A   1      46.809  27.000  35.707  1.00  0.00     0.000 A 
ENDBRANCH  40  53
ENDBRANCH  14  15
ENDBRANCH   7   9
ENDBRANCH   4   5
ENDBRANCH   3   4
ENDBRANCH   2   3
ENDBRANCH   1   2
BRANCH   1  59
ATOM     59  C   UNL A   1      33.644  31.840  27.743  1.00  0.00     0.021 C 
BRANCH  59  60
ATOM     60  C   UNL A   1      33.942  30.437  27.215  1.00  0.00     0.116 C 
BRANCH  60  61
ATOM     61  N   UNL A   1      33.008  29.460  27.730  1.00  0.00    -0.354 N 
ATOM     62  C   UNL A   1      32.237  28.574  27.041  1.00  0.00     0.249 C 
ATOM     63  H   UNL A   1      32.918  29.432  28.710  1.00  0.00     0.163 HD
ATOM     64  O   UNL A   1      31.457  27.868  27.683  1.00  0.00    -0.272 OA
BRANCH  62  65
ATOM     65  C   UNL A   1      32.375  28.510  25.514  1.00  0.00     0.207 C 
ATOM     66  C   UNL A   1      31.068  28.140  24.833  1.00  0.00     0.045 C 
ATOM     67  O   UNL A   1      33.349  27.512  25.137  1.00  0.00    -0.364 OA
ATOM     68  C   UNL A   1      31.488  27.144  23.786  1.00  0.00     0.036 C 
ATOM     69  C   UNL A   1      32.674  26.454  24.422  1.00  0.00     0.134 C 
BRANCH  69  70
ATOM     70  C   UNL A   1      33.693  25.684  23.583  1.00  0.00     0.174 C 
BRANCH  70  71
ATOM     71  S   UNL A   1      33.233  24.121  22.885  1.00  0.00     0.181 S 
ATOM     72  O   UNL A   1      31.926  23.755  23.406  1.00  0.00    -0.224 OA
ATOM     73  O   UNL A   1      33.452  24.190  21.454  1.00  0.00    -0.224 OA
BRANCH  71  74
ATOM     74  C   UNL A   1      34.412  22.946  23.501  1.00  0.00     0.070 A 
ATOM     75  C   UNL A   1      35.775  23.256  23.443  1.00  0.00     0.020 A 
ATOM     76  C   UNL A   1      33.966  21.769  24.108  1.00  0.00     0.059 A 
ATOM     77  C   UNL A   1      36.694  22.412  24.068  1.00  0.00     0.004 A 
ATOM     78  C   UNL A   1      34.892  20.957  24.745  1.00  0.00     0.124 A 
ATOM     79  C   UNL A   1      36.248  21.273  24.742  1.00  0.00     0.039 A 
ATOM     80  F   UNL A   1      34.469  19.878  25.416  1.00  0.00    -0.207 F 
ENDBRANCH  71  74
ENDBRANCH  70  71
ENDBRANCH  69  70
ENDBRANCH  62  65
ENDBRANCH  60  61
ENDBRANCH  59  60
ENDBRANCH   1  59
TORSDOF 16
ENDMDL
