MODEL 1
REMARK VINA RESULT:     -11.4      0.000      0.000
REMARK SMILES COc1ccc(C[N@@H+]2C[C@@H](C(=O)NCCCCCCNC(=O)c3ccc(-c4c5nc(c(-c6ccccc6)c6ccc([nH]6)c(-c6ccccc6)c6nc(c(-c7ccccc7)c7ccc4[nH]7)C=C6)C=C5)cc3)[C@H](c3ccccc3OC)C2)c(OC)c1
REMARK SMILES IDX 16 1 15 2 14 3 13 4 11 5 12 6 10 8 8 9 9 10 80 11 71 13 7 14
REMARK SMILES IDX 6 15 3 16 4 17 84 18 5 19 81 20 2 21 1 22 82 23 83 24 72 25
REMARK SMILES IDX 73 26 77 27 74 28 76 29 75 30 78 31 79 32 17 33 18 34 19 35
REMARK SMILES IDX 20 36 21 37 22 39 23 40 24 41 70 42 25 43 69 44 26 45 27 46
REMARK SMILES IDX 28 47 63 48 29 49 68 50 62 51 64 52 30 53 67 54 61 55 60 56
REMARK SMILES IDX 31 58 53 59 38 60 52 61 39 62 42 63 51 64 65 65 40 66 41 67
REMARK SMILES IDX 50 69 66 70 43 71 32 72 33 73 37 74 34 75 36 76 35 77 54 78
REMARK SMILES IDX 55 79 59 80 56 81 58 82 57 83 44 84 45 85 49 86 46 87 48 88
REMARK SMILES IDX 47 89
REMARK H PARENT 13 7 8 12 20 38 64 57 42 68
REMARK Flexibility Score: inf
ROOT
ATOM      1  C   UNL A   1      32.017  29.879  26.869  1.00  0.00     0.002 C 
ENDROOT
BRANCH   1   2
ATOM      2  C   UNL A   1      31.509  28.492  26.450  1.00  0.00     0.021 C 
BRANCH   2   3
ATOM      3  C   UNL A   1      32.152  27.323  27.197  1.00  0.00     0.116 C 
BRANCH   3   4
ATOM      4  N   UNL A   1      31.302  26.153  27.167  1.00  0.00    -0.356 N 
ATOM      5  C   UNL A   1      31.354  24.988  26.482  1.00  0.00     0.229 C 
ATOM      6  O   UNL A   1      30.455  24.178  26.737  1.00  0.00    -0.275 OA
ATOM      7  H   UNL A   1      30.525  26.218  27.769  1.00  0.00     0.163 HD
BRANCH   5   8
ATOM      8  C   UNL A   1      32.499  24.587  25.583  1.00  0.00     0.146 C 
ATOM      9  N   UNL A   1      34.230  22.944  25.505  1.00  0.00    -0.330 N 
ATOM     10  C   UNL A   1      32.959  23.233  26.136  1.00  0.00     0.276 C 
ATOM     11  C   UNL A   1      34.874  24.255  25.348  1.00  0.00     0.272 C 
ATOM     12  H   UNL A   1      34.823  22.340  26.075  1.00  0.00     0.348 HD
ATOM     13  C   UNL A   1      33.785  25.401  25.334  1.00  0.00     0.096 C 
BRANCH   9  14
ATOM     14  C   UNL A   1      34.139  22.081  24.305  1.00  0.00     0.303 C 
BRANCH  14  15
ATOM     15  C   UNL A   1      34.100  20.575  24.502  1.00  0.00     0.048 A 
ATOM     16  C   UNL A   1      34.068  17.768  24.381  1.00  0.00     0.122 A 
ATOM     17  C   UNL A   1      32.894  18.484  24.187  1.00  0.00     0.047 A 
ATOM     18  C   UNL A   1      35.238  18.441  24.738  1.00  0.00     0.093 A 
ATOM     19  C   UNL A   1      32.897  19.873  24.297  1.00  0.00     0.017 A 
ATOM     20  C   UNL A   1      35.253  19.842  24.822  1.00  0.00     0.131 A 
BRANCH  16  21
ATOM     21  O   UNL A   1      33.994  16.433  24.098  1.00  0.00    -0.497 OA
ATOM     22  C   UNL A   1      33.057  15.705  24.879  1.00  0.00     0.278 C 
ENDBRANCH  16  21
BRANCH  20  23
ATOM     23  O   UNL A   1      36.370  20.575  25.138  1.00  0.00    -0.496 OA
ATOM     24  C   UNL A   1      37.623  19.964  24.860  1.00  0.00     0.278 C 
ENDBRANCH  20  23
ENDBRANCH  14  15
ENDBRANCH   9  14
BRANCH  13  25
ATOM     25  C   UNL A   1      33.809  26.373  24.123  1.00  0.00     0.004 A 
ATOM     26  C   UNL A   1      34.022  27.758  24.349  1.00  0.00     0.008 A 
ATOM     27  C   UNL A   1      33.607  26.023  22.768  1.00  0.00     0.122 A 
ATOM     28  C   UNL A   1      34.100  28.719  23.332  1.00  0.00     0.001 A 
ATOM     29  C   UNL A   1      33.670  27.005  21.747  1.00  0.00     0.047 A 
ATOM     30  C   UNL A   1      33.925  28.342  22.020  1.00  0.00     0.004 A 
BRANCH  27  31
ATOM     31  O   UNL A   1      33.487  24.779  22.216  1.00  0.00    -0.496 OA
ATOM     32  C   UNL A   1      32.222  24.157  22.169  1.00  0.00     0.278 C 
ENDBRANCH  27  31
ENDBRANCH  13  25
ENDBRANCH   5   8
ENDBRANCH   3   4
ENDBRANCH   2   3
ENDBRANCH   1   2
BRANCH   1  33
ATOM     33  C   UNL A   1      31.617  31.021  25.933  1.00  0.00     0.002 C 
BRANCH  33  34
ATOM     34  C   UNL A   1      31.299  32.340  26.637  1.00  0.00     0.021 C 
BRANCH  34  35
ATOM     35  C   UNL A   1      32.448  32.906  27.461  1.00  0.00     0.116 C 
BRANCH  35  36
ATOM     36  N   UNL A   1      32.309  34.335  27.688  1.00  0.00    -0.352 N 
ATOM     37  C   UNL A   1      32.994  35.131  28.564  1.00  0.00     0.251 C 
ATOM     38  H   UNL A   1      31.630  34.790  27.138  1.00  0.00     0.163 HD
ATOM     39  O   UNL A   1      32.624  36.288  28.775  1.00  0.00    -0.269 OA
BRANCH  37  40
ATOM     40  C   UNL A   1      34.168  34.591  29.277  1.00  0.00     0.039 A 
ATOM     41  C   UNL A   1      33.987  34.017  30.536  1.00  0.00     0.014 A 
ATOM     42  C   UNL A   1      35.441  34.641  28.699  1.00  0.00     0.014 A 
ATOM     43  C   UNL A   1      35.077  33.446  31.194  1.00  0.00     0.010 A 
ATOM     44  C   UNL A   1      36.508  34.000  29.320  1.00  0.00     0.010 A 
ATOM     45  C   UNL A   1      36.339  33.405  30.579  1.00  0.00    -0.014 A 
BRANCH  45  46
ATOM     46  C   UNL A   1      37.489  32.745  31.245  1.00  0.00     0.031 A 
ATOM     47  C   UNL A   1      38.145  31.546  30.616  1.00  0.00     0.074 A 
ATOM     48  C   UNL A   1      37.919  33.202  32.437  1.00  0.00     0.049 A 
ATOM     49  N   UNL A   1      39.151  30.833  31.054  1.00  0.00    -0.248 NA
ATOM     50  C   UNL A   1      37.584  31.073  29.340  1.00  0.00     0.031 C 
ATOM     51  C   UNL A   1      37.342  34.332  33.170  1.00  0.00     0.029 A 
ATOM     52  N   UNL A   1      38.945  32.774  33.240  1.00  0.00    -0.354 N 
ATOM     53  C   UNL A   1      39.336  29.825  30.117  1.00  0.00     0.074 A 
ATOM     54  C   UNL A   1      38.302  29.983  29.117  1.00  0.00     0.031 C 
ATOM     55  C   UNL A   1      38.045  34.528  34.297  1.00  0.00     0.029 A 
ATOM     56  C   UNL A   1      39.093  33.517  34.387  1.00  0.00     0.049 A 
ATOM     57  H   UNL A   1      39.520  32.006  33.018  1.00  0.00     0.167 HD
ATOM     58  C   UNL A   1      40.291  28.865  30.078  1.00  0.00     0.031 A 
ATOM     59  C   UNL A   1      39.974  33.398  35.398  1.00  0.00     0.031 A 
ATOM     60  C   UNL A   1      41.320  28.709  31.071  1.00  0.00     0.049 A 
ATOM     61  C   UNL A   1      41.011  32.310  35.342  1.00  0.00     0.074 A 
ATOM     62  C   UNL A   1      42.364  27.802  31.096  1.00  0.00     0.029 A 
ATOM     63  N   UNL A   1      41.431  29.478  32.220  1.00  0.00    -0.354 N 
ATOM     64  N   UNL A   1      41.216  31.410  34.411  1.00  0.00    -0.248 NA
ATOM     65  C   UNL A   1      41.947  32.234  36.472  1.00  0.00     0.031 C 
ATOM     66  C   UNL A   1      43.073  27.982  32.288  1.00  0.00     0.029 A 
ATOM     67  C   UNL A   1      42.510  29.046  32.974  1.00  0.00     0.049 A 
ATOM     68  H   UNL A   1      40.832  30.221  32.464  1.00  0.00     0.167 HD
ATOM     69  C   UNL A   1      42.320  30.679  34.829  1.00  0.00     0.074 A 
ATOM     70  C   UNL A   1      42.752  31.254  36.087  1.00  0.00     0.031 C 
ATOM     71  C   UNL A   1      42.924  29.625  34.226  1.00  0.00     0.031 A 
BRANCH  58  72
ATOM     72  C   UNL A   1      40.260  27.903  28.922  1.00  0.00    -0.014 A 
ATOM     73  C   UNL A   1      39.572  26.682  29.008  1.00  0.00     0.009 A 
ATOM     74  C   UNL A   1      40.898  28.237  27.717  1.00  0.00     0.009 A 
ATOM     75  C   UNL A   1      39.558  25.800  27.925  1.00  0.00     0.001 A 
ATOM     76  C   UNL A   1      40.855  27.368  26.625  1.00  0.00     0.001 A 
ATOM     77  C   UNL A   1      40.194  26.145  26.734  1.00  0.00     0.000 A 
ENDBRANCH  58  72
BRANCH  59  78
ATOM     78  C   UNL A   1      39.927  34.343  36.544  1.00  0.00    -0.014 A 
ATOM     79  C   UNL A   1      39.151  34.053  37.677  1.00  0.00     0.009 A 
ATOM     80  C   UNL A   1      40.646  35.547  36.506  1.00  0.00     0.009 A 
ATOM     81  C   UNL A   1      39.074  34.962  38.735  1.00  0.00     0.001 A 
ATOM     82  C   UNL A   1      40.595  36.439  37.579  1.00  0.00     0.001 A 
ATOM     83  C   UNL A   1      39.800  36.152  38.687  1.00  0.00     0.000 A 
ENDBRANCH  59  78
BRANCH  71  84
ATOM     84  C   UNL A   1      44.138  29.050  34.903  1.00  0.00    -0.014 A 
ATOM     85  C   UNL A   1      45.426  29.534  34.630  1.00  0.00     0.009 A 
ATOM     86  C   UNL A   1      43.983  28.026  35.850  1.00  0.00     0.009 A 
ATOM     87  C   UNL A   1      46.539  28.977  35.264  1.00  0.00     0.001 A 
ATOM     88  C   UNL A   1      45.094  27.493  36.506  1.00  0.00     0.001 A 
ATOM     89  C   UNL A   1      46.371  27.961  36.204  1.00  0.00     0.000 A 
ENDBRANCH  71  84
ENDBRANCH  45  46
ENDBRANCH  37  40
ENDBRANCH  35  36
ENDBRANCH  34  35
ENDBRANCH  33  34
ENDBRANCH   1  33
TORSDOF 19
ENDMDL
MODEL 2
REMARK VINA RESULT:     -11.2      4.240      9.555
REMARK SMILES COc1ccc(C[N@@H+]2C[C@@H](C(=O)NCCCCCCNC(=O)c3ccc(-c4c5nc(c(-c6ccccc6)c6ccc([nH]6)c(-c6ccccc6)c6nc(c(-c7ccccc7)c7ccc4[nH]7)C=C6)C=C5)cc3)[C@H](c3ccccc3OC)C2)c(OC)c1
REMARK SMILES IDX 16 1 15 2 14 3 13 4 11 5 12 6 10 8 8 9 9 10 80 11 71 13 7 14
REMARK SMILES IDX 6 15 3 16 4 17 84 18 5 19 81 20 2 21 1 22 82 23 83 24 72 25
REMARK SMILES IDX 73 26 77 27 74 28 76 29 75 30 78 31 79 32 17 33 18 34 19 35
REMARK SMILES IDX 20 36 21 37 22 39 23 40 24 41 70 42 25 43 69 44 26 45 27 46
REMARK SMILES IDX 28 47 63 48 29 49 68 50 62 51 64 52 30 53 67 54 61 55 60 56
REMARK SMILES IDX 31 58 53 59 38 60 52 61 39 62 42 63 51 64 65 65 40 66 41 67
REMARK SMILES IDX 50 69 66 70 43 71 32 72 33 73 37 74 34 75 36 76 35 77 54 78
REMARK SMILES IDX 55 79 59 80 56 81 58 82 57 83 44 84 45 85 49 86 46 87 48 88
REMARK SMILES IDX 47 89
REMARK H PARENT 13 7 8 12 20 38 64 57 42 68
REMARK Flexibility Score: inf
ROOT
ATOM      1  C   UNL A   1      38.171  23.526  25.882  1.00  0.00     0.002 C 
ENDROOT
BRANCH   1   2
ATOM      2  C   UNL A   1      37.020  22.961  25.037  1.00  0.00     0.021 C 
BRANCH   2   3
ATOM      3  C   UNL A   1      36.288  21.774  25.665  1.00  0.00     0.116 C 
BRANCH   3   4
ATOM      4  N   UNL A   1      35.546  22.180  26.838  1.00  0.00    -0.356 N 
ATOM      5  C   UNL A   1      34.304  22.687  27.018  1.00  0.00     0.229 C 
ATOM      6  O   UNL A   1      33.975  22.890  28.192  1.00  0.00    -0.275 OA
ATOM      7  H   UNL A   1      36.045  22.064  27.678  1.00  0.00     0.163 HD
BRANCH   5   8
ATOM      8  C   UNL A   1      33.292  22.855  25.910  1.00  0.00     0.146 C 
ATOM      9  N   UNL A   1      31.575  24.385  25.263  1.00  0.00    -0.330 N 
ATOM     10  C   UNL A   1      32.750  24.276  26.104  1.00  0.00     0.276 C 
ATOM     11  C   UNL A   1      30.970  23.047  25.296  1.00  0.00     0.272 C 
ATOM     12  H   UNL A   1      30.906  25.070  25.611  1.00  0.00     0.348 HD
ATOM     13  C   UNL A   1      32.057  21.961  25.666  1.00  0.00     0.096 C 
BRANCH   9  14
ATOM     14  C   UNL A   1      31.825  24.987  23.934  1.00  0.00     0.303 C 
BRANCH  14  15
ATOM     15  C   UNL A   1      30.904  26.100  23.463  1.00  0.00     0.048 A 
ATOM     16  C   UNL A   1      29.261  28.340  23.043  1.00  0.00     0.122 A 
ATOM     17  C   UNL A   1      28.741  27.202  23.645  1.00  0.00     0.047 A 
ATOM     18  C   UNL A   1      30.570  28.329  22.556  1.00  0.00     0.093 A 
ATOM     19  C   UNL A   1      29.539  26.072  23.808  1.00  0.00     0.017 A 
ATOM     20  C   UNL A   1      31.386  27.204  22.743  1.00  0.00     0.131 A 
BRANCH  16  21
ATOM     21  O   UNL A   1      28.451  29.441  23.071  1.00  0.00    -0.497 OA
ATOM     22  C   UNL A   1      28.149  29.998  21.800  1.00  0.00     0.278 C 
ENDBRANCH  16  21
BRANCH  20  23
ATOM     23  O   UNL A   1      32.690  27.128  22.320  1.00  0.00    -0.496 OA
ATOM     24  C   UNL A   1      33.549  28.182  22.736  1.00  0.00     0.278 C 
ENDBRANCH  20  23
ENDBRANCH  14  15
ENDBRANCH   9  14
BRANCH  13  25
ATOM     25  C   UNL A   1      32.208  20.763  24.690  1.00  0.00     0.004 A 
ATOM     26  C   UNL A   1      32.384  19.457  25.217  1.00  0.00     0.008 A 
ATOM     27  C   UNL A   1      32.217  20.833  23.277  1.00  0.00     0.122 A 
ATOM     28  C   UNL A   1      32.493  18.300  24.434  1.00  0.00     0.001 A 
ATOM     29  C   UNL A   1      32.346  19.658  22.493  1.00  0.00     0.047 A 
ATOM     30  C   UNL A   1      32.472  18.398  23.062  1.00  0.00     0.004 A 
BRANCH  27  31
ATOM     31  O   UNL A   1      31.967  21.908  22.474  1.00  0.00    -0.496 OA
ATOM     32  C   UNL A   1      33.038  22.706  22.023  1.00  0.00     0.278 C 
ENDBRANCH  27  31
ENDBRANCH  13  25
ENDBRANCH   5   8
ENDBRANCH   3   4
ENDBRANCH   2   3
ENDBRANCH   1   2
BRANCH   1  33
ATOM     33  C   UNL A   1      39.067  22.472  26.536  1.00  0.00     0.002 C 
BRANCH  33  34
ATOM     34  C   UNL A   1      39.350  21.247  25.666  1.00  0.00     0.021 C 
BRANCH  34  35
ATOM     35  C   UNL A   1      39.696  19.987  26.447  1.00  0.00     0.116 C 
BRANCH  35  36
ATOM     36  N   UNL A   1      40.878  19.323  25.921  1.00  0.00    -0.352 N 
ATOM     37  C   UNL A   1      42.143  19.824  25.772  1.00  0.00     0.251 C 
ATOM     38  H   UNL A   1      40.751  18.390  25.634  1.00  0.00     0.163 HD
ATOM     39  O   UNL A   1      42.989  19.198  25.130  1.00  0.00    -0.269 OA
BRANCH  37  40
ATOM     40  C   UNL A   1      42.485  21.132  26.363  1.00  0.00     0.039 A 
ATOM     41  C   UNL A   1      42.815  22.191  25.515  1.00  0.00     0.014 A 
ATOM     42  C   UNL A   1      42.468  21.316  27.749  1.00  0.00     0.014 A 
ATOM     43  C   UNL A   1      43.079  23.449  26.056  1.00  0.00     0.010 A 
ATOM     44  C   UNL A   1      42.652  22.589  28.280  1.00  0.00     0.010 A 
ATOM     45  C   UNL A   1      42.969  23.666  27.440  1.00  0.00    -0.014 A 
BRANCH  45  46
ATOM     46  C   UNL A   1      43.188  25.015  28.018  1.00  0.00     0.031 A 
ATOM     47  C   UNL A   1      44.567  25.449  28.431  1.00  0.00     0.074 A 
ATOM     48  C   UNL A   1      42.136  25.835  28.209  1.00  0.00     0.049 A 
ATOM     49  N   UNL A   1      44.949  26.583  28.964  1.00  0.00    -0.248 NA
ATOM     50  C   UNL A   1      45.656  24.478  28.242  1.00  0.00     0.031 C 
ATOM     51  C   UNL A   1      40.742  25.516  27.888  1.00  0.00     0.029 A 
ATOM     52  N   UNL A   1      42.077  27.108  28.717  1.00  0.00    -0.354 N 
ATOM     53  C   UNL A   1      46.315  26.455  29.182  1.00  0.00     0.074 A 
ATOM     54  C   UNL A   1      46.685  25.116  28.779  1.00  0.00     0.031 C 
ATOM     55  C   UNL A   1      39.973  26.579  28.173  1.00  0.00     0.029 A 
ATOM     56  C   UNL A   1      40.808  27.635  28.734  1.00  0.00     0.049 A 
ATOM     57  H   UNL A   1      42.868  27.597  29.040  1.00  0.00     0.167 HD
ATOM     58  C   UNL A   1      47.190  27.376  29.655  1.00  0.00     0.031 A 
ATOM     59  C   UNL A   1      40.366  28.835  29.154  1.00  0.00     0.031 A 
ATOM     60  C   UNL A   1      46.822  28.708  30.054  1.00  0.00     0.049 A 
ATOM     61  C   UNL A   1      41.353  29.832  29.696  1.00  0.00     0.074 A 
ATOM     62  C   UNL A   1      47.641  29.731  30.498  1.00  0.00     0.029 A 
ATOM     63  N   UNL A   1      45.526  29.201  30.063  1.00  0.00    -0.354 N 
ATOM     64  N   UNL A   1      42.653  29.720  29.827  1.00  0.00    -0.248 NA
ATOM     65  C   UNL A   1      40.811  31.124  30.134  1.00  0.00     0.031 C 
ATOM     66  C   UNL A   1      46.834  30.824  30.831  1.00  0.00     0.029 A 
ATOM     67  C   UNL A   1      45.519  30.504  30.531  1.00  0.00     0.049 A 
ATOM     68  H   UNL A   1      44.728  28.698  29.777  1.00  0.00     0.167 HD
ATOM     69  C   UNL A   1      43.087  30.937  30.337  1.00  0.00     0.074 A 
ATOM     70  C   UNL A   1      41.914  31.778  30.470  1.00  0.00     0.031 C 
ATOM     71  C   UNL A   1      44.344  31.325  30.664  1.00  0.00     0.031 A 
BRANCH  58  72
ATOM     72  C   UNL A   1      48.632  26.964  29.773  1.00  0.00    -0.014 A 
ATOM     73  C   UNL A   1      49.542  27.189  28.727  1.00  0.00     0.009 A 
ATOM     74  C   UNL A   1      49.096  26.376  30.960  1.00  0.00     0.009 A 
ATOM     75  C   UNL A   1      50.876  26.797  28.854  1.00  0.00     0.001 A 
ATOM     76  C   UNL A   1      50.438  26.014  31.096  1.00  0.00     0.001 A 
ATOM     77  C   UNL A   1      51.324  26.215  30.039  1.00  0.00     0.000 A 
ENDBRANCH  58  72
BRANCH  59  78
ATOM     78  C   UNL A   1      38.920  29.171  29.064  1.00  0.00    -0.014 A 
ATOM     79  C   UNL A   1      38.081  29.015  30.179  1.00  0.00     0.009 A 
ATOM     80  C   UNL A   1      38.369  29.637  27.861  1.00  0.00     0.009 A 
ATOM     81  C   UNL A   1      36.716  29.291  30.081  1.00  0.00     0.001 A 
ATOM     82  C   UNL A   1      37.009  29.943  27.775  1.00  0.00     0.001 A 
ATOM     83  C   UNL A   1      36.181  29.759  28.881  1.00  0.00     0.000 A 
ENDBRANCH  59  78
BRANCH  71  84
ATOM     84  C   UNL A   1      44.519  32.733  31.165  1.00  0.00    -0.014 A 
ATOM     85  C   UNL A   1      44.472  33.033  32.535  1.00  0.00     0.009 A 
ATOM     86  C   UNL A   1      44.764  33.769  30.251  1.00  0.00     0.009 A 
ATOM     87  C   UNL A   1      44.627  34.349  32.976  1.00  0.00     0.001 A 
ATOM     88  C   UNL A   1      44.952  35.078  30.696  1.00  0.00     0.001 A 
ATOM     89  C   UNL A   1      44.871  35.368  32.057  1.00  0.00     0.000 A 
ENDBRANCH  71  84
ENDBRANCH  45  46
ENDBRANCH  37  40
ENDBRANCH  35  36
ENDBRANCH  34  35
ENDBRANCH  33  34
ENDBRANCH   1  33
TORSDOF 19
ENDMDL
MODEL 3
REMARK VINA RESULT:     -11.1      1.936      3.032
REMARK SMILES COc1ccc(C[N@@H+]2C[C@@H](C(=O)NCCCCCCNC(=O)c3ccc(-c4c5nc(c(-c6ccccc6)c6ccc([nH]6)c(-c6ccccc6)c6nc(c(-c7ccccc7)c7ccc4[nH]7)C=C6)C=C5)cc3)[C@H](c3ccccc3OC)C2)c(OC)c1
REMARK SMILES IDX 16 1 15 2 14 3 13 4 11 5 12 6 10 8 8 9 9 10 80 11 71 13 7 14
REMARK SMILES IDX 6 15 3 16 4 17 84 18 5 19 81 20 2 21 1 22 82 23 83 24 72 25
REMARK SMILES IDX 73 26 77 27 74 28 76 29 75 30 78 31 79 32 17 33 18 34 19 35
REMARK SMILES IDX 20 36 21 37 22 39 23 40 24 41 70 42 25 43 69 44 26 45 27 46
REMARK SMILES IDX 28 47 63 48 29 49 68 50 62 51 64 52 30 53 67 54 61 55 60 56
REMARK SMILES IDX 31 58 53 59 38 60 52 61 39 62 42 63 51 64 65 65 40 66 41 67
REMARK SMILES IDX 50 69 66 70 43 71 32 72 33 73 37 74 34 75 36 76 35 77 54 78
REMARK SMILES IDX 55 79 59 80 56 81 58 82 57 83 44 84 45 85 49 86 46 87 48 88
REMARK SMILES IDX 47 89
REMARK H PARENT 13 7 8 12 20 38 64 57 42 68
REMARK Flexibility Score: inf
ROOT
ATOM      1  C   UNL A   1      33.388  29.297  24.692  1.00  0.00     0.002 C 
ENDROOT
BRANCH   1   2
ATOM      2  C   UNL A   1      33.629  28.301  23.549  1.00  0.00     0.021 C 
BRANCH   2   3
ATOM      3  C   UNL A   1      32.423  28.069  22.638  1.00  0.00     0.116 C 
BRANCH   3   4
ATOM      4  N   UNL A   1      32.784  27.274  21.485  1.00  0.00    -0.356 N 
ATOM      5  C   UNL A   1      32.970  25.947  21.297  1.00  0.00     0.229 C 
ATOM      6  O   UNL A   1      33.247  25.605  20.142  1.00  0.00    -0.275 OA
ATOM      7  H   UNL A   1      32.923  27.807  20.669  1.00  0.00     0.163 HD
BRANCH   5   8
ATOM      8  C   UNL A   1      32.709  24.900  22.353  1.00  0.00     0.146 C 
ATOM      9  N   UNL A   1      32.402  22.535  22.499  1.00  0.00    -0.330 N 
ATOM     10  C   UNL A   1      32.923  23.567  21.625  1.00  0.00     0.276 C 
ATOM     11  C   UNL A   1      31.255  23.161  23.170  1.00  0.00     0.272 C 
ATOM     12  H   UNL A   1      32.089  21.710  21.989  1.00  0.00     0.348 HD
ATOM     13  C   UNL A   1      31.408  24.734  23.165  1.00  0.00     0.096 C 
BRANCH   9  14
ATOM     14  C   UNL A   1      33.419  21.884  23.355  1.00  0.00     0.303 C 
BRANCH  14  15
ATOM     15  C   UNL A   1      33.045  20.591  24.060  1.00  0.00     0.048 A 
ATOM     16  C   UNL A   1      32.743  18.014  25.137  1.00  0.00     0.122 A 
ATOM     17  C   UNL A   1      32.226  18.306  23.881  1.00  0.00     0.047 A 
ATOM     18  C   UNL A   1      33.318  19.029  25.902  1.00  0.00     0.093 A 
ATOM     19  C   UNL A   1      32.330  19.596  23.367  1.00  0.00     0.017 A 
ATOM     20  C   UNL A   1      33.451  20.324  25.377  1.00  0.00     0.131 A 
BRANCH  16  21
ATOM     21  O   UNL A   1      32.730  16.691  25.482  1.00  0.00    -0.497 OA
ATOM     22  C   UNL A   1      33.990  16.040  25.414  1.00  0.00     0.278 C 
ENDBRANCH  16  21
BRANCH  20  23
ATOM     23  O   UNL A   1      34.031  21.367  26.056  1.00  0.00    -0.496 OA
ATOM     24  C   UNL A   1      33.341  21.828  27.211  1.00  0.00     0.278 C 
ENDBRANCH  20  23
ENDBRANCH  14  15
ENDBRANCH   9  14
BRANCH  13  25
ATOM     25  C   UNL A   1      31.312  25.450  24.540  1.00  0.00     0.004 A 
ATOM     26  C   UNL A   1      32.446  25.468  25.393  1.00  0.00     0.008 A 
ATOM     27  C   UNL A   1      30.166  26.088  25.071  1.00  0.00     0.122 A 
ATOM     28  C   UNL A   1      32.486  26.114  26.636  1.00  0.00     0.001 A 
ATOM     29  C   UNL A   1      30.211  26.724  26.338  1.00  0.00     0.047 A 
ATOM     30  C   UNL A   1      31.361  26.748  27.114  1.00  0.00     0.004 A 
BRANCH  27  31
ATOM     31  O   UNL A   1      28.968  26.334  24.464  1.00  0.00    -0.496 OA
ATOM     32  C   UNL A   1      28.848  27.422  23.575  1.00  0.00     0.278 C 
ENDBRANCH  27  31
ENDBRANCH  13  25
ENDBRANCH   5   8
ENDBRANCH   3   4
ENDBRANCH   2   3
ENDBRANCH   1   2
BRANCH   1  33
ATOM     33  C   UNL A   1      31.922  29.668  24.924  1.00  0.00     0.002 C 
BRANCH  33  34
ATOM     34  C   UNL A   1      31.632  30.291  26.290  1.00  0.00     0.021 C 
BRANCH  34  35
ATOM     35  C   UNL A   1      32.798  31.068  26.887  1.00  0.00     0.116 C 
BRANCH  35  36
ATOM     36  N   UNL A   1      32.459  32.460  27.132  1.00  0.00    -0.352 N 
ATOM     37  C   UNL A   1      33.102  33.367  27.930  1.00  0.00     0.251 C 
ATOM     38  H   UNL A   1      31.661  32.795  26.662  1.00  0.00     0.163 HD
ATOM     39  O   UNL A   1      32.579  34.454  28.185  1.00  0.00    -0.269 OA
BRANCH  37  40
ATOM     40  C   UNL A   1      34.417  33.029  28.508  1.00  0.00     0.039 A 
ATOM     41  C   UNL A   1      34.466  32.273  29.680  1.00  0.00     0.014 A 
ATOM     42  C   UNL A   1      35.599  33.447  27.887  1.00  0.00     0.014 A 
ATOM     43  C   UNL A   1      35.702  31.892  30.202  1.00  0.00     0.010 A 
ATOM     44  C   UNL A   1      36.826  32.999  28.364  1.00  0.00     0.010 A 
ATOM     45  C   UNL A   1      36.891  32.225  29.533  1.00  0.00    -0.014 A 
BRANCH  45  46
ATOM     46  C   UNL A   1      38.206  31.772  30.047  1.00  0.00     0.031 A 
ATOM     47  C   UNL A   1      38.836  30.512  29.519  1.00  0.00     0.074 A 
ATOM     48  C   UNL A   1      38.817  32.475  31.020  1.00  0.00     0.049 A 
ATOM     49  N   UNL A   1      39.972  29.955  29.855  1.00  0.00    -0.248 NA
ATOM     50  C   UNL A   1      38.082  29.770  28.496  1.00  0.00     0.031 C 
ATOM     51  C   UNL A   1      38.292  33.692  31.645  1.00  0.00     0.029 A 
ATOM     52  N   UNL A   1      40.017  32.269  31.653  1.00  0.00    -0.354 N 
ATOM     53  C   UNL A   1      40.062  28.796  29.095  1.00  0.00     0.074 A 
ATOM     54  C   UNL A   1      38.842  28.699  28.324  1.00  0.00     0.031 C 
ATOM     55  C   UNL A   1      39.182  34.142  32.544  1.00  0.00     0.029 A 
ATOM     56  C   UNL A   1      40.318  33.228  32.590  1.00  0.00     0.049 A 
ATOM     57  H   UNL A   1      40.607  31.505  31.454  1.00  0.00     0.167 HD
ATOM     58  C   UNL A   1      41.078  27.901  29.028  1.00  0.00     0.031 A 
ATOM     59  C   UNL A   1      41.387  33.356  33.397  1.00  0.00     0.031 A 
ATOM     60  C   UNL A   1      42.292  27.999  29.793  1.00  0.00     0.049 A 
ATOM     61  C   UNL A   1      42.491  32.338  33.319  1.00  0.00     0.074 A 
ATOM     62  C   UNL A   1      43.401  27.172  29.758  1.00  0.00     0.029 A 
ATOM     63  N   UNL A   1      42.554  28.981  30.736  1.00  0.00    -0.354 N 
ATOM     64  N   UNL A   1      42.593  31.287  32.542  1.00  0.00    -0.248 NA
ATOM     65  C   UNL A   1      43.634  32.535  34.221  1.00  0.00     0.031 C 
ATOM     66  C   UNL A   1      44.311  27.620  30.723  1.00  0.00     0.029 A 
ATOM     67  C   UNL A   1      43.796  28.764  31.311  1.00  0.00     0.049 A 
ATOM     68  H   UNL A   1      41.947  29.723  30.964  1.00  0.00     0.167 HD
ATOM     69  C   UNL A   1      43.822  30.713  32.841  1.00  0.00     0.074 A 
ATOM     70  C   UNL A   1      44.437  31.545  33.856  1.00  0.00     0.031 C 
ATOM     71  C   UNL A   1      44.391  29.597  32.323  1.00  0.00     0.031 A 
BRANCH  58  72
ATOM     72  C   UNL A   1      40.910  26.732  28.095  1.00  0.00    -0.014 A 
ATOM     73  C   UNL A   1      41.385  26.780  26.774  1.00  0.00     0.009 A 
ATOM     74  C   UNL A   1      40.301  25.554  28.554  1.00  0.00     0.009 A 
ATOM     75  C   UNL A   1      41.217  25.686  25.923  1.00  0.00     0.001 A 
ATOM     76  C   UNL A   1      40.163  24.451  27.710  1.00  0.00     0.001 A 
ATOM     77  C   UNL A   1      40.612  24.521  26.391  1.00  0.00     0.000 A 
ENDBRANCH  58  72
BRANCH  59  78
ATOM     78  C   UNL A   1      41.477  34.503  34.339  1.00  0.00    -0.014 A 
ATOM     79  C   UNL A   1      42.103  35.698  33.951  1.00  0.00     0.009 A 
ATOM     80  C   UNL A   1      40.949  34.404  35.636  1.00  0.00     0.009 A 
ATOM     81  C   UNL A   1      42.224  36.759  34.852  1.00  0.00     0.001 A 
ATOM     82  C   UNL A   1      41.042  35.478  36.524  1.00  0.00     0.001 A 
ATOM     83  C   UNL A   1      41.689  36.650  36.135  1.00  0.00     0.000 A 
ENDBRANCH  59  78
BRANCH  71  84
ATOM     84  C   UNL A   1      45.763  29.233  32.820  1.00  0.00    -0.014 A 
ATOM     85  C   UNL A   1      46.921  29.738  32.208  1.00  0.00     0.009 A 
ATOM     86  C   UNL A   1      45.896  28.394  33.937  1.00  0.00     0.009 A 
ATOM     87  C   UNL A   1      48.184  29.377  32.682  1.00  0.00     0.001 A 
ATOM     88  C   UNL A   1      47.159  28.061  34.428  1.00  0.00     0.001 A 
ATOM     89  C   UNL A   1      48.302  28.544  33.793  1.00  0.00     0.000 A 
ENDBRANCH  71  84
ENDBRANCH  45  46
ENDBRANCH  37  40
ENDBRANCH  35  36
ENDBRANCH  34  35
ENDBRANCH  33  34
ENDBRANCH   1  33
TORSDOF 19
ENDMDL
