MODEL 1
REMARK VINA RESULT:      -9.6      0.000      0.000
REMARK SMILES Cc1cc(C)n(C)c(=O)c1C(=O)N1CCC2(CC1)C[NH2+][C@@H](C(=O)NCCCCCCNC(=O)c1ccc(-c3c4nc(c(-c5ccccc5)c5ccc([nH]5)c(-c5ccccc5)c5nc(c(-c6ccccc6)c6ccc3[nH]6)C=C5)C=C4)cc1)C2
REMARK SMILES IDX 28 1 27 2 26 3 25 4 24 5 22 6 23 7 21 9 11 10 12 11 13 12
REMARK SMILES IDX 14 13 18 14 15 15 17 16 16 17 19 18 82 19 20 20 10 23 1 24
REMARK SMILES IDX 2 25 3 26 4 27 8 28 5 29 6 30 9 31 7 32 29 33 30 34 31 35
REMARK SMILES IDX 32 36 33 38 34 39 35 40 81 41 36 42 80 43 37 44 38 45 39 46
REMARK SMILES IDX 74 47 40 48 79 49 73 50 75 51 41 52 78 53 72 54 71 55 42 57
REMARK SMILES IDX 64 58 49 59 63 60 50 61 53 62 62 63 76 64 51 65 52 66 61 68
REMARK SMILES IDX 77 69 54 70 43 71 44 72 48 73 45 74 47 75 46 76 65 77 66 78
REMARK SMILES IDX 70 79 67 80 69 81 68 82 55 83 56 84 60 85 57 86 59 87 58 88
REMARK H PARENT 24 8 20 21 20 22 31 37 75 56 53 67
REMARK Flexibility Score: inf
ROOT
ATOM      1  C   UNL A   1      43.016  22.996  25.453  1.00  0.00     0.002 C 
ENDROOT
BRANCH   1   2
ATOM      2  C   UNL A   1      43.524  24.028  26.465  1.00  0.00     0.002 C 
BRANCH   2   3
ATOM      3  C   UNL A   1      43.889  25.384  25.857  1.00  0.00     0.021 C 
BRANCH   3   4
ATOM      4  C   UNL A   1      45.122  26.023  26.491  1.00  0.00     0.116 C 
BRANCH   4   5
ATOM      5  N   UNL A   1      45.861  26.808  25.522  1.00  0.00    -0.351 N 
ATOM      6  C   UNL A   1      46.023  28.160  25.437  1.00  0.00     0.278 C 
ATOM      7  O   UNL A   1      46.689  28.605  24.499  1.00  0.00    -0.268 OA
ATOM      8  H   UNL A   1      46.315  26.289  24.820  1.00  0.00     0.163 HD
BRANCH   6   9
ATOM      9  C   UNL A   1      45.387  29.108  26.462  1.00  0.00     0.273 C 
ATOM     10  C   UNL A   1      45.299  35.498  28.053  1.00  0.00     0.259 C 
ATOM     11  O   UNL A   1      45.863  35.801  29.109  1.00  0.00    -0.269 OA
ATOM     12  N   UNL A   1      45.527  34.249  27.482  1.00  0.00    -0.338 N 
ATOM     13  C   UNL A   1      46.040  33.198  28.347  1.00  0.00     0.120 C 
ATOM     14  C   UNL A   1      45.491  33.895  26.071  1.00  0.00     0.120 C 
ATOM     15  C   UNL A   1      45.065  32.033  28.310  1.00  0.00     0.034 C 
ATOM     16  C   UNL A   1      44.751  32.572  25.800  1.00  0.00     0.034 C 
ATOM     17  C   UNL A   1      44.879  31.460  26.889  1.00  0.00     0.029 C 
ATOM     18  C   UNL A   1      43.622  30.551  26.908  1.00  0.00     0.268 C 
ATOM     19  C   UNL A   1      46.034  30.486  26.542  1.00  0.00     0.088 C 
ATOM     20  N   UNL A   1      43.972  29.368  26.140  1.00  0.00    -0.336 N 
ATOM     21  H   UNL A   1      43.857  29.541  25.142  1.00  0.00     0.346 HD
ATOM     22  H   UNL A   1      43.374  28.574  26.369  1.00  0.00     0.346 HD
BRANCH  10  23
ATOM     23  C   UNL A   1      44.260  36.442  27.507  1.00  0.00     0.108 A 
ATOM     24  C   UNL A   1      42.224  35.303  28.573  1.00  0.00     0.045 C 
ATOM     25  C   UNL A   1      42.939  36.358  27.787  1.00  0.00    -0.031 A 
ATOM     26  C   UNL A   1      42.036  37.432  27.428  1.00  0.00     0.026 A 
ATOM     27  C   UNL A   1      42.481  38.628  27.024  1.00  0.00     0.018 A 
ATOM     28  C   UNL A   1      44.753  37.735  26.880  1.00  0.00     0.263 A 
ATOM     29  C   UNL A   1      41.479  39.732  26.818  1.00  0.00     0.064 C 
ATOM     30  N   UNL A   1      43.840  38.804  26.800  1.00  0.00    -0.315 N 
ATOM     31  O   UNL A   1      45.907  37.830  26.464  1.00  0.00    -0.268 OA
ATOM     32  C   UNL A   1      44.360  40.114  26.429  1.00  0.00     0.153 C 
ENDBRANCH  10  23
ENDBRANCH   6   9
ENDBRANCH   4   5
ENDBRANCH   3   4
ENDBRANCH   2   3
ENDBRANCH   1   2
BRANCH   1  33
ATOM     33  C   UNL A   1      42.517  21.689  26.071  1.00  0.00     0.021 C 
BRANCH  33  34
ATOM     34  C   UNL A   1      41.274  21.845  26.937  1.00  0.00     0.116 C 
BRANCH  34  35
ATOM     35  N   UNL A   1      40.065  21.940  26.134  1.00  0.00    -0.352 N 
ATOM     36  C   UNL A   1      39.128  22.942  26.091  1.00  0.00     0.251 C 
ATOM     37  H   UNL A   1      39.894  21.177  25.536  1.00  0.00     0.163 HD
ATOM     38  O   UNL A   1      38.057  22.771  25.526  1.00  0.00    -0.269 OA
BRANCH  36  39
ATOM     39  C   UNL A   1      39.422  24.231  26.750  1.00  0.00     0.039 A 
ATOM     40  C   UNL A   1      39.023  24.419  28.074  1.00  0.00     0.014 A 
ATOM     41  C   UNL A   1      40.091  25.246  26.060  1.00  0.00     0.014 A 
ATOM     42  C   UNL A   1      39.343  25.610  28.725  1.00  0.00     0.010 A 
ATOM     43  C   UNL A   1      40.478  26.399  26.733  1.00  0.00     0.010 A 
ATOM     44  C   UNL A   1      40.098  26.597  28.068  1.00  0.00    -0.014 A 
BRANCH  44  45
ATOM     45  C   UNL A   1      40.481  27.850  28.760  1.00  0.00     0.031 A 
ATOM     46  C   UNL A   1      41.869  28.007  29.315  1.00  0.00     0.074 A 
ATOM     47  C   UNL A   1      39.571  28.829  28.922  1.00  0.00     0.049 A 
ATOM     48  N   UNL A   1      42.384  29.018  29.968  1.00  0.00    -0.248 NA
ATOM     49  C   UNL A   1      42.792  26.876  29.133  1.00  0.00     0.031 C 
ATOM     50  C   UNL A   1      38.185  28.782  28.453  1.00  0.00     0.029 A 
ATOM     51  N   UNL A   1      39.678  30.059  29.522  1.00  0.00    -0.354 N 
ATOM     52  C   UNL A   1      43.685  28.641  30.277  1.00  0.00     0.074 A 
ATOM     53  C   UNL A   1      43.863  27.291  29.795  1.00  0.00     0.031 C 
ATOM     54  C   UNL A   1      37.582  29.945  28.747  1.00  0.00     0.029 A 
ATOM     55  C   UNL A   1      38.523  30.801  29.464  1.00  0.00     0.049 A 
ATOM     56  H   UNL A   1      40.503  30.379  29.953  1.00  0.00     0.167 HD
ATOM     57  C   UNL A   1      44.653  29.366  30.885  1.00  0.00     0.031 A 
ATOM     58  C   UNL A   1      38.251  32.033  29.935  1.00  0.00     0.031 A 
ATOM     59  C   UNL A   1      44.475  30.712  31.356  1.00  0.00     0.049 A 
ATOM     60  C   UNL A   1      39.332  32.805  30.639  1.00  0.00     0.074 A 
ATOM     61  C   UNL A   1      45.410  31.547  31.941  1.00  0.00     0.029 A 
ATOM     62  N   UNL A   1      43.284  31.419  31.299  1.00  0.00    -0.354 N 
ATOM     63  N   UNL A   1      40.576  32.458  30.868  1.00  0.00    -0.248 NA
ATOM     64  C   UNL A   1      38.976  34.139  31.143  1.00  0.00     0.031 C 
ATOM     65  C   UNL A   1      44.770  32.735  32.297  1.00  0.00     0.029 A 
ATOM     66  C   UNL A   1      43.452  32.668  31.872  1.00  0.00     0.049 A 
ATOM     67  H   UNL A   1      42.445  31.083  30.910  1.00  0.00     0.167 HD
ATOM     68  C   UNL A   1      41.156  33.537  31.523  1.00  0.00     0.074 A 
ATOM     69  C   UNL A   1      40.133  34.557  31.638  1.00  0.00     0.031 C 
ATOM     70  C   UNL A   1      42.422  33.669  31.988  1.00  0.00     0.031 A 
BRANCH  57  71
ATOM     71  C   UNL A   1      45.995  28.715  31.077  1.00  0.00    -0.014 A 
ATOM     72  C   UNL A   1      47.007  28.838  30.111  1.00  0.00     0.009 A 
ATOM     73  C   UNL A   1      46.271  28.021  32.265  1.00  0.00     0.009 A 
ATOM     74  C   UNL A   1      48.258  28.254  30.319  1.00  0.00     0.001 A 
ATOM     75  C   UNL A   1      47.533  27.466  32.484  1.00  0.00     0.001 A 
ATOM     76  C   UNL A   1      48.522  27.576  31.508  1.00  0.00     0.000 A 
ENDBRANCH  57  71
BRANCH  58  77
ATOM     77  C   UNL A   1      36.899  32.617  29.730  1.00  0.00    -0.014 A 
ATOM     78  C   UNL A   1      35.879  32.397  30.668  1.00  0.00     0.009 A 
ATOM     79  C   UNL A   1      36.629  33.423  28.612  1.00  0.00     0.009 A 
ATOM     80  C   UNL A   1      34.614  32.961  30.484  1.00  0.00     0.001 A 
ATOM     81  C   UNL A   1      35.373  34.010  28.446  1.00  0.00     0.001 A 
ATOM     82  C   UNL A   1      34.365  33.773  29.379  1.00  0.00     0.000 A 
ENDBRANCH  58  77
BRANCH  70  83
ATOM     83  C   UNL A   1      42.788  34.964  32.658  1.00  0.00    -0.014 A 
ATOM     84  C   UNL A   1      43.449  35.983  31.956  1.00  0.00     0.009 A 
ATOM     85  C   UNL A   1      42.389  35.199  33.984  1.00  0.00     0.009 A 
ATOM     86  C   UNL A   1      43.719  37.206  32.575  1.00  0.00     0.001 A 
ATOM     87  C   UNL A   1      42.632  36.433  34.589  1.00  0.00     0.001 A 
ATOM     88  C   UNL A   1      43.303  37.432  33.886  1.00  0.00     0.000 A 
ENDBRANCH  70  83
ENDBRANCH  44  45
ENDBRANCH  36  39
ENDBRANCH  34  35
ENDBRANCH  33  34
ENDBRANCH   1  33
TORSDOF 14
ENDMDL
MODEL 2
REMARK VINA RESULT:      -9.5      4.313     10.787
REMARK SMILES Cc1cc(C)n(C)c(=O)c1C(=O)N1CCC2(CC1)C[NH2+][C@@H](C(=O)NCCCCCCNC(=O)c1ccc(-c3c4nc(c(-c5ccccc5)c5ccc([nH]5)c(-c5ccccc5)c5nc(c(-c6ccccc6)c6ccc3[nH]6)C=C5)C=C4)cc1)C2
REMARK SMILES IDX 28 1 27 2 26 3 25 4 24 5 22 6 23 7 21 9 11 10 12 11 13 12
REMARK SMILES IDX 14 13 18 14 15 15 17 16 16 17 19 18 82 19 20 20 10 23 1 24
REMARK SMILES IDX 2 25 3 26 4 27 8 28 5 29 6 30 9 31 7 32 29 33 30 34 31 35
REMARK SMILES IDX 32 36 33 38 34 39 35 40 81 41 36 42 80 43 37 44 38 45 39 46
REMARK SMILES IDX 74 47 40 48 79 49 73 50 75 51 41 52 78 53 72 54 71 55 42 57
REMARK SMILES IDX 64 58 49 59 63 60 50 61 53 62 62 63 76 64 51 65 52 66 61 68
REMARK SMILES IDX 77 69 54 70 43 71 44 72 48 73 45 74 47 75 46 76 65 77 66 78
REMARK SMILES IDX 70 79 67 80 69 81 68 82 55 83 56 84 60 85 57 86 59 87 58 88
REMARK H PARENT 24 8 20 21 20 22 31 37 75 56 53 67
REMARK Flexibility Score: inf
ROOT
ATOM      1  C   UNL A   1      37.000  33.402  30.199  1.00  0.00     0.002 C 
ENDROOT
BRANCH   1   2
ATOM      2  C   UNL A   1      37.350  33.565  31.682  1.00  0.00     0.002 C 
BRANCH   2   3
ATOM      3  C   UNL A   1      36.860  32.425  32.577  1.00  0.00     0.021 C 
BRANCH   3   4
ATOM      4  C   UNL A   1      37.949  31.414  32.926  1.00  0.00     0.116 C 
BRANCH   4   5
ATOM      5  N   UNL A   1      38.038  31.214  34.358  1.00  0.00    -0.351 N 
ATOM      6  C   UNL A   1      38.968  30.531  35.086  1.00  0.00     0.278 C 
ATOM      7  O   UNL A   1      38.821  30.481  36.311  1.00  0.00    -0.268 OA
ATOM      8  H   UNL A   1      37.320  31.633  34.885  1.00  0.00     0.163 HD
BRANCH   6   9
ATOM      9  C   UNL A   1      40.154  29.831  34.413  1.00  0.00     0.273 C 
ATOM     10  C   UNL A   1      45.067  25.697  35.878  1.00  0.00     0.259 C 
ATOM     11  O   UNL A   1      46.203  26.182  35.873  1.00  0.00    -0.269 OA
ATOM     12  N   UNL A   1      43.958  26.536  35.889  1.00  0.00    -0.338 N 
ATOM     13  C   UNL A   1      44.149  27.909  35.444  1.00  0.00     0.120 C 
ATOM     14  C   UNL A   1      42.648  26.273  36.466  1.00  0.00     0.120 C 
ATOM     15  C   UNL A   1      43.203  28.168  34.284  1.00  0.00     0.034 C 
ATOM     16  C   UNL A   1      41.488  26.704  35.549  1.00  0.00     0.034 C 
ATOM     17  C   UNL A   1      41.721  27.973  34.669  1.00  0.00     0.029 C 
ATOM     18  C   UNL A   1      40.898  27.900  33.357  1.00  0.00     0.268 C 
ATOM     19  C   UNL A   1      41.175  29.238  35.379  1.00  0.00     0.088 C 
ATOM     20  N   UNL A   1      39.704  28.694  33.589  1.00  0.00    -0.336 N 
ATOM     21  H   UNL A   1      39.000  28.148  34.085  1.00  0.00     0.346 HD
ATOM     22  H   UNL A   1      39.274  29.001  32.716  1.00  0.00     0.346 HD
BRANCH  10  23
ATOM     23  C   UNL A   1      44.932  24.206  35.712  1.00  0.00     0.108 A 
ATOM     24  C   UNL A   1      44.524  24.217  33.179  1.00  0.00     0.045 C 
ATOM     25  C   UNL A   1      44.742  23.590  34.521  1.00  0.00    -0.031 A 
ATOM     26  C   UNL A   1      44.862  22.152  34.404  1.00  0.00     0.026 A 
ATOM     27  C   UNL A   1      45.381  21.401  35.382  1.00  0.00     0.018 A 
ATOM     28  C   UNL A   1      45.352  23.333  36.882  1.00  0.00     0.263 A 
ATOM     29  C   UNL A   1      45.609  19.937  35.118  1.00  0.00     0.064 C 
ATOM     30  N   UNL A   1      45.679  21.991  36.603  1.00  0.00    -0.315 N 
ATOM     31  O   UNL A   1      45.401  23.794  38.022  1.00  0.00    -0.268 OA
ATOM     32  C   UNL A   1      46.310  21.213  37.662  1.00  0.00     0.153 C 
ENDBRANCH  10  23
ENDBRANCH   6   9
ENDBRANCH   4   5
ENDBRANCH   3   4
ENDBRANCH   2   3
ENDBRANCH   1   2
BRANCH   1  33
ATOM     33  C   UNL A   1      35.504  33.290  29.904  1.00  0.00     0.021 C 
BRANCH  33  34
ATOM     34  C   UNL A   1      35.170  33.163  28.422  1.00  0.00     0.116 C 
BRANCH  34  35
ATOM     35  N   UNL A   1      34.216  32.093  28.174  1.00  0.00    -0.352 N 
ATOM     36  C   UNL A   1      34.445  30.752  27.990  1.00  0.00     0.251 C 
ATOM     37  H   UNL A   1      33.273  32.369  28.132  1.00  0.00     0.163 HD
ATOM     38  O   UNL A   1      33.559  30.020  27.572  1.00  0.00    -0.269 OA
BRANCH  36  39
ATOM     39  C   UNL A   1      35.783  30.203  28.287  1.00  0.00     0.039 A 
ATOM     40  C   UNL A   1      36.761  30.229  27.291  1.00  0.00     0.014 A 
ATOM     41  C   UNL A   1      36.069  29.668  29.547  1.00  0.00     0.014 A 
ATOM     42  C   UNL A   1      38.045  29.764  27.576  1.00  0.00     0.010 A 
ATOM     43  C   UNL A   1      37.367  29.278  29.853  1.00  0.00     0.010 A 
ATOM     44  C   UNL A   1      38.365  29.312  28.868  1.00  0.00    -0.014 A 
BRANCH  44  45
ATOM     45  C   UNL A   1      39.735  28.854  29.197  1.00  0.00     0.031 A 
ATOM     46  C   UNL A   1      40.661  29.750  29.971  1.00  0.00     0.074 A 
ATOM     47  C   UNL A   1      40.158  27.649  28.769  1.00  0.00     0.049 A 
ATOM     48  N   UNL A   1      41.899  29.534  30.337  1.00  0.00    -0.248 NA
ATOM     49  C   UNL A   1      40.138  31.067  30.368  1.00  0.00     0.031 C 
ATOM     50  C   UNL A   1      39.362  26.702  27.985  1.00  0.00     0.029 A 
ATOM     51  N   UNL A   1      41.362  27.013  28.936  1.00  0.00    -0.354 N 
ATOM     52  C   UNL A   1      42.300  30.687  30.999  1.00  0.00     0.074 A 
ATOM     53  C   UNL A   1      41.199  31.621  30.935  1.00  0.00     0.031 C 
ATOM     54  C   UNL A   1      40.085  25.591  27.775  1.00  0.00     0.029 A 
ATOM     55  C   UNL A   1      41.408  25.763  28.367  1.00  0.00     0.049 A 
ATOM     56  H   UNL A   1      42.122  27.414  29.417  1.00  0.00     0.167 HD
ATOM     57  C   UNL A   1      43.473  30.936  31.628  1.00  0.00     0.031 A 
ATOM     58  C   UNL A   1      42.404  24.857  28.327  1.00  0.00     0.031 A 
ATOM     59  C   UNL A   1      44.563  30.002  31.697  1.00  0.00     0.049 A 
ATOM     60  C   UNL A   1      43.709  25.170  29.002  1.00  0.00     0.074 A 
ATOM     61  C   UNL A   1      45.773  30.143  32.353  1.00  0.00     0.029 A 
ATOM     62  N   UNL A   1      44.578  28.757  31.089  1.00  0.00    -0.354 N 
ATOM     63  N   UNL A   1      44.051  26.241  29.677  1.00  0.00    -0.248 NA
ATOM     64  C   UNL A   1      44.764  24.150  28.915  1.00  0.00     0.031 C 
ATOM     65  C   UNL A   1      46.546  29.011  32.088  1.00  0.00     0.029 A 
ATOM     66  C   UNL A   1      45.791  28.134  31.324  1.00  0.00     0.049 A 
ATOM     67  H   UNL A   1      43.836  28.374  30.567  1.00  0.00     0.167 HD
ATOM     68  C   UNL A   1      45.350  26.015  30.114  1.00  0.00     0.074 A 
ATOM     69  C   UNL A   1      45.728  24.699  29.642  1.00  0.00     0.031 C 
ATOM     70  C   UNL A   1      46.157  26.827  30.840  1.00  0.00     0.031 A 
BRANCH  57  71
ATOM     71  C   UNL A   1      43.638  32.275  32.292  1.00  0.00    -0.014 A 
ATOM     72  C   UNL A   1      43.310  32.461  33.645  1.00  0.00     0.009 A 
ATOM     73  C   UNL A   1      44.185  33.349  31.573  1.00  0.00     0.009 A 
ATOM     74  C   UNL A   1      43.499  33.702  34.255  1.00  0.00     0.001 A 
ATOM     75  C   UNL A   1      44.402  34.580  32.194  1.00  0.00     0.001 A 
ATOM     76  C   UNL A   1      44.053  34.758  33.532  1.00  0.00     0.000 A 
ENDBRANCH  57  71
BRANCH  58  77
ATOM     77  C   UNL A   1      42.187  23.556  27.639  1.00  0.00    -0.014 A 
ATOM     78  C   UNL A   1      42.566  23.388  26.299  1.00  0.00     0.009 A 
ATOM     79  C   UNL A   1      41.626  22.467  28.326  1.00  0.00     0.009 A 
ATOM     80  C   UNL A   1      42.379  22.160  25.659  1.00  0.00     0.001 A 
ATOM     81  C   UNL A   1      41.467  21.233  27.693  1.00  0.00     0.001 A 
ATOM     82  C   UNL A   1      41.838  21.083  26.358  1.00  0.00     0.000 A 
ENDBRANCH  58  77
BRANCH  70  83
ATOM     83  C   UNL A   1      47.530  26.321  31.183  1.00  0.00    -0.014 A 
ATOM     84  C   UNL A   1      47.784  25.684  32.407  1.00  0.00     0.009 A 
ATOM     85  C   UNL A   1      48.561  26.404  30.233  1.00  0.00     0.009 A 
ATOM     86  C   UNL A   1      49.048  25.159  32.681  1.00  0.00     0.001 A 
ATOM     87  C   UNL A   1      49.814  25.850  30.497  1.00  0.00     0.001 A 
ATOM     88  C   UNL A   1      50.058  25.234  31.722  1.00  0.00     0.000 A 
ENDBRANCH  70  83
ENDBRANCH  44  45
ENDBRANCH  36  39
ENDBRANCH  34  35
ENDBRANCH  33  34
ENDBRANCH   1  33
TORSDOF 14
ENDMDL
MODEL 3
REMARK VINA RESULT:      -9.4      0.520      5.717
REMARK SMILES Cc1cc(C)n(C)c(=O)c1C(=O)N1CCC2(CC1)C[NH2+][C@@H](C(=O)NCCCCCCNC(=O)c1ccc(-c3c4nc(c(-c5ccccc5)c5ccc([nH]5)c(-c5ccccc5)c5nc(c(-c6ccccc6)c6ccc3[nH]6)C=C5)C=C4)cc1)C2
REMARK SMILES IDX 28 1 27 2 26 3 25 4 24 5 22 6 23 7 21 9 11 10 12 11 13 12
REMARK SMILES IDX 14 13 18 14 15 15 17 16 16 17 19 18 82 19 20 20 10 23 1 24
REMARK SMILES IDX 2 25 3 26 4 27 8 28 5 29 6 30 9 31 7 32 29 33 30 34 31 35
REMARK SMILES IDX 32 36 33 38 34 39 35 40 81 41 36 42 80 43 37 44 38 45 39 46
REMARK SMILES IDX 74 47 40 48 79 49 73 50 75 51 41 52 78 53 72 54 71 55 42 57
REMARK SMILES IDX 64 58 49 59 63 60 50 61 53 62 62 63 76 64 51 65 52 66 61 68
REMARK SMILES IDX 77 69 54 70 43 71 44 72 48 73 45 74 47 75 46 76 65 77 66 78
REMARK SMILES IDX 70 79 67 80 69 81 68 82 55 83 56 84 60 85 57 86 59 87 58 88
REMARK H PARENT 24 8 20 21 20 22 31 37 75 56 53 67
REMARK Flexibility Score: inf
ROOT
ATOM      1  C   UNL A   1      42.406  22.211  25.662  1.00  0.00     0.002 C 
ENDROOT
BRANCH   1   2
ATOM      2  C   UNL A   1      43.092  23.364  26.400  1.00  0.00     0.002 C 
BRANCH   2   3
ATOM      3  C   UNL A   1      43.578  24.497  25.493  1.00  0.00     0.021 C 
BRANCH   3   4
ATOM      4  C   UNL A   1      44.133  25.694  26.260  1.00  0.00     0.116 C 
BRANCH   4   5
ATOM      5  N   UNL A   1      45.089  26.432  25.457  1.00  0.00    -0.351 N 
ATOM      6  C   UNL A   1      45.428  27.752  25.501  1.00  0.00     0.278 C 
ATOM      7  O   UNL A   1      46.266  28.161  24.692  1.00  0.00    -0.268 OA
ATOM      8  H   UNL A   1      45.566  25.900  24.780  1.00  0.00     0.163 HD
BRANCH   6   9
ATOM      9  C   UNL A   1      44.782  28.711  26.508  1.00  0.00     0.273 C 
ATOM     10  C   UNL A   1      45.002  35.044  28.304  1.00  0.00     0.259 C 
ATOM     11  O   UNL A   1      45.504  35.277  29.407  1.00  0.00    -0.269 OA
ATOM     12  N   UNL A   1      45.187  33.800  27.709  1.00  0.00    -0.338 N 
ATOM     13  C   UNL A   1      45.564  32.691  28.573  1.00  0.00     0.120 C 
ATOM     14  C   UNL A   1      45.233  33.490  26.288  1.00  0.00     0.120 C 
ATOM     15  C   UNL A   1      44.519  31.598  28.425  1.00  0.00     0.034 C 
ATOM     16  C   UNL A   1      44.429  32.229  25.919  1.00  0.00     0.034 C 
ATOM     17  C   UNL A   1      44.401  31.080  26.976  1.00  0.00     0.029 C 
ATOM     18  C   UNL A   1      43.089  30.259  26.874  1.00  0.00     0.268 C 
ATOM     19  C   UNL A   1      45.512  30.039  26.681  1.00  0.00     0.088 C 
ATOM     20  N   UNL A   1      43.415  29.078  26.094  1.00  0.00    -0.336 N 
ATOM     21  H   UNL A   1      43.387  29.287  25.096  1.00  0.00     0.346 HD
ATOM     22  H   UNL A   1      42.751  28.320  26.252  1.00  0.00     0.346 HD
BRANCH  10  23
ATOM     23  C   UNL A   1      44.071  36.073  27.716  1.00  0.00     0.108 A 
ATOM     24  C   UNL A   1      41.925  35.213  28.827  1.00  0.00     0.045 C 
ATOM     25  C   UNL A   1      42.749  36.147  27.998  1.00  0.00    -0.031 A 
ATOM     26  C   UNL A   1      41.970  37.297  27.592  1.00  0.00     0.026 A 
ATOM     27  C   UNL A   1      42.542  38.419  27.137  1.00  0.00     0.018 A 
ATOM     28  C   UNL A   1      44.702  37.275  27.035  1.00  0.00     0.263 A 
ATOM     29  C   UNL A   1      41.668  39.617  26.882  1.00  0.00     0.064 C 
ATOM     30  N   UNL A   1      43.912  38.435  26.908  1.00  0.00    -0.315 N 
ATOM     31  O   UNL A   1      45.858  37.224  26.617  1.00  0.00    -0.268 OA
ATOM     32  C   UNL A   1      44.572  39.662  26.481  1.00  0.00     0.153 C 
ENDBRANCH  10  23
ENDBRANCH   6   9
ENDBRANCH   4   5
ENDBRANCH   3   4
ENDBRANCH   2   3
ENDBRANCH   1   2
BRANCH   1  33
ATOM     33  C   UNL A   1      41.800  21.141  26.571  1.00  0.00     0.021 C 
BRANCH  33  34
ATOM     34  C   UNL A   1      40.498  21.561  27.243  1.00  0.00     0.116 C 
BRANCH  34  35
ATOM     35  N   UNL A   1      39.486  21.940  26.270  1.00  0.00    -0.352 N 
ATOM     36  C   UNL A   1      38.825  23.135  26.126  1.00  0.00     0.251 C 
ATOM     37  H   UNL A   1      39.241  21.241  25.622  1.00  0.00     0.163 HD
ATOM     38  O   UNL A   1      37.846  23.221  25.398  1.00  0.00    -0.269 OA
BRANCH  36  39
ATOM     39  C   UNL A   1      39.300  24.315  26.874  1.00  0.00     0.039 A 
ATOM     40  C   UNL A   1      40.063  25.276  26.208  1.00  0.00     0.014 A 
ATOM     41  C   UNL A   1      38.989  24.471  28.228  1.00  0.00     0.014 A 
ATOM     42  C   UNL A   1      40.471  26.423  26.889  1.00  0.00     0.010 A 
ATOM     43  C   UNL A   1      39.328  25.650  28.883  1.00  0.00     0.010 A 
ATOM     44  C   UNL A   1      40.083  26.631  28.224  1.00  0.00    -0.014 A 
BRANCH  44  45
ATOM     45  C   UNL A   1      40.473  27.864  28.947  1.00  0.00     0.031 A 
ATOM     46  C   UNL A   1      39.502  29.004  29.068  1.00  0.00     0.074 A 
ATOM     47  C   UNL A   1      41.712  27.971  29.463  1.00  0.00     0.049 A 
ATOM     48  N   UNL A   1      39.667  30.167  29.645  1.00  0.00    -0.248 NA
ATOM     49  C   UNL A   1      38.181  28.825  28.443  1.00  0.00     0.031 C 
ATOM     50  C   UNL A   1      42.754  26.944  29.385  1.00  0.00     0.029 A 
ATOM     51  N   UNL A   1      42.306  28.994  30.159  1.00  0.00    -0.354 N 
ATOM     52  C   UNL A   1      38.477  30.855  29.446  1.00  0.00     0.074 A 
ATOM     53  C   UNL A   1      37.622  30.008  28.648  1.00  0.00     0.031 C 
ATOM     54  C   UNL A   1      43.842  27.373  30.043  1.00  0.00     0.029 A 
ATOM     55  C   UNL A   1      43.594  28.719  30.549  1.00  0.00     0.049 A 
ATOM     56  H   UNL A   1      41.852  29.844  30.360  1.00  0.00     0.167 HD
ATOM     57  C   UNL A   1      38.118  32.076  29.910  1.00  0.00     0.031 A 
ATOM     58  C   UNL A   1      44.478  29.468  31.237  1.00  0.00     0.031 A 
ATOM     59  C   UNL A   1      38.969  32.914  30.711  1.00  0.00     0.049 A 
ATOM     60  C   UNL A   1      44.069  30.834  31.712  1.00  0.00     0.074 A 
ATOM     61  C   UNL A   1      38.679  34.146  31.270  1.00  0.00     0.029 A 
ATOM     62  N   UNL A   1      40.274  32.609  31.064  1.00  0.00    -0.354 N 
ATOM     63  N   UNL A   1      42.919  31.446  31.569  1.00  0.00    -0.248 NA
ATOM     64  C   UNL A   1      45.078  31.611  32.446  1.00  0.00     0.031 C 
ATOM     65  C   UNL A   1      39.829  34.616  31.907  1.00  0.00     0.029 A 
ATOM     66  C   UNL A   1      40.815  33.646  31.804  1.00  0.00     0.049 A 
ATOM     67  H   UNL A   1      40.746  31.779  30.824  1.00  0.00     0.167 HD
ATOM     68  C   UNL A   1      43.056  32.669  32.214  1.00  0.00     0.074 A 
ATOM     69  C   UNL A   1      44.396  32.705  32.763  1.00  0.00     0.031 C 
ATOM     70  C   UNL A   1      42.153  33.672  32.337  1.00  0.00     0.031 A 
BRANCH  57  71
ATOM     71  C   UNL A   1      36.746  32.580  29.562  1.00  0.00    -0.014 A 
ATOM     72  C   UNL A   1      35.671  32.440  30.455  1.00  0.00     0.009 A 
ATOM     73  C   UNL A   1      36.537  33.257  28.350  1.00  0.00     0.009 A 
ATOM     74  C   UNL A   1      34.410  32.942  30.130  1.00  0.00     0.001 A 
ATOM     75  C   UNL A   1      35.282  33.784  28.041  1.00  0.00     0.001 A 
ATOM     76  C   UNL A   1      34.218  33.621  28.927  1.00  0.00     0.000 A 
ENDBRANCH  57  71
BRANCH  58  77
ATOM     77  C   UNL A   1      45.828  28.922  31.537  1.00  0.00    -0.014 A 
ATOM     78  C   UNL A   1      46.895  29.137  30.652  1.00  0.00     0.009 A 
ATOM     79  C   UNL A   1      46.066  28.208  32.723  1.00  0.00     0.009 A 
ATOM     80  C   UNL A   1      48.168  28.640  30.942  1.00  0.00     0.001 A 
ATOM     81  C   UNL A   1      47.345  27.738  33.025  1.00  0.00     0.001 A 
ATOM     82  C   UNL A   1      48.393  27.948  32.131  1.00  0.00     0.000 A 
ENDBRANCH  58  77
BRANCH  70  83
ATOM     83  C   UNL A   1      42.570  34.896  33.102  1.00  0.00    -0.014 A 
ATOM     84  C   UNL A   1      43.226  35.962  32.465  1.00  0.00     0.009 A 
ATOM     85  C   UNL A   1      42.224  35.023  34.457  1.00  0.00     0.009 A 
ATOM     86  C   UNL A   1      43.544  37.121  33.177  1.00  0.00     0.001 A 
ATOM     87  C   UNL A   1      42.515  36.195  35.156  1.00  0.00     0.001 A 
ATOM     88  C   UNL A   1      43.180  37.239  34.518  1.00  0.00     0.000 A 
ENDBRANCH  70  83
ENDBRANCH  44  45
ENDBRANCH  36  39
ENDBRANCH  34  35
ENDBRANCH  33  34
ENDBRANCH   1  33
TORSDOF 14
ENDMDL
