MODEL 1
REMARK VINA RESULT:     -11.3      0.000      0.000
REMARK SMILES O=C(NCCCCCCNC(=O)c1ccc(-c2c3nc(c(-c4ccccc4)c4ccc([nH]4)c(-c4ccccc4)c4nc(c(-c5ccccc5)c5ccc2[nH]5)C=C4)C=C3)cc1)C1=Cc2cc(Cl)cc(Cl)c2O[C@@H]1C(F)(F)F
REMARK SMILES IDX 7 1 6 2 5 3 4 4 3 5 1 6 2 7 61 9 62 10 72 11 63 12 71 13
REMARK SMILES IDX 64 14 70 15 65 16 68 17 66 18 67 19 69 20 73 21 74 22 75 23
REMARK SMILES IDX 76 24 8 25 9 26 10 27 11 28 12 30 13 31 14 32 60 33 15 34
REMARK SMILES IDX 59 35 16 36 17 37 18 38 53 39 19 40 58 41 52 42 54 43 20 44
REMARK SMILES IDX 57 45 51 46 50 47 21 49 43 50 28 51 42 52 29 53 32 54 41 55
REMARK SMILES IDX 55 56 30 57 31 58 40 60 56 61 33 62 22 63 23 64 27 65 24 66
REMARK SMILES IDX 26 67 25 68 44 69 45 70 49 71 46 72 48 73 47 74 34 75 35 76
REMARK SMILES IDX 39 77 36 78 38 79 37 80
REMARK H PARENT 3 8 10 29 54 48 32 59
REMARK Flexibility Score: inf
ROOT
ATOM      1  C   UNL A   1      33.061  29.323  24.837  1.00  0.00     0.002 C 
ENDROOT
BRANCH   1   2
ATOM      2  C   UNL A   1      32.755  28.854  23.410  1.00  0.00     0.002 C 
BRANCH   2   3
ATOM      3  C   UNL A   1      31.289  28.871  22.984  1.00  0.00     0.021 C 
BRANCH   3   4
ATOM      4  C   UNL A   1      30.764  27.596  22.336  1.00  0.00     0.116 C 
BRANCH   4   5
ATOM      5  N   UNL A   1      31.780  26.697  21.820  1.00  0.00    -0.352 N 
ATOM      6  O   UNL A   1      32.892  24.765  21.537  1.00  0.00    -0.270 OA
ATOM      7  C   UNL A   1      32.106  25.427  22.213  1.00  0.00     0.251 C 
ATOM      8  H   UNL A   1      32.314  27.054  21.074  1.00  0.00     0.163 HD
BRANCH   7   9
ATOM      9  C   UNL A   1      31.468  24.771  23.393  1.00  0.00     0.067 C 
ATOM     10  C   UNL A   1      31.121  23.472  23.376  1.00  0.00     0.025 C 
ATOM     11  C   UNL A   1      31.860  25.411  24.703  1.00  0.00     0.314 C 
ATOM     12  C   UNL A   1      31.993  22.655  24.257  1.00  0.00     0.020 A 
ATOM     13  O   UNL A   1      32.876  24.629  25.386  1.00  0.00    -0.474 OA
ATOM     14  C   UNL A   1      32.107  21.288  23.973  1.00  0.00     0.032 A 
ATOM     15  C   UNL A   1      32.910  23.280  25.122  1.00  0.00     0.146 A 
ATOM     16  C   UNL A   1      33.191  20.572  24.475  1.00  0.00     0.043 A 
ATOM     17  C   UNL A   1      33.979  22.535  25.636  1.00  0.00     0.085 A 
ATOM     18  Cl  UNL A   1      33.438  18.946  23.971  1.00  0.00    -0.084 Cl
ATOM     19  C   UNL A   1      34.132  21.189  25.296  1.00  0.00     0.045 A 
ATOM     20  Cl  UNL A   1      35.213  23.281  26.586  1.00  0.00    -0.080 Cl
BRANCH  11  21
ATOM     21  C   UNL A   1      30.644  25.669  25.610  1.00  0.00     0.429 C 
ATOM     22  F   UNL A   1      30.842  26.746  26.406  1.00  0.00    -0.167 F 
ATOM     23  F   UNL A   1      29.523  25.909  24.888  1.00  0.00    -0.167 F 
ATOM     24  F   UNL A   1      30.376  24.615  26.418  1.00  0.00    -0.167 F 
ENDBRANCH  11  21
ENDBRANCH   7   9
ENDBRANCH   4   5
ENDBRANCH   3   4
ENDBRANCH   2   3
ENDBRANCH   1   2
BRANCH   1  25
ATOM     25  C   UNL A   1      33.757  28.321  25.763  1.00  0.00     0.021 C 
BRANCH  25  26
ATOM     26  C   UNL A   1      33.560  28.538  27.262  1.00  0.00     0.116 C 
BRANCH  26  27
ATOM     27  N   UNL A   1      33.529  29.942  27.633  1.00  0.00    -0.352 N 
ATOM     28  C   UNL A   1      34.488  30.724  28.228  1.00  0.00     0.251 C 
ATOM     29  H   UNL A   1      32.687  30.406  27.425  1.00  0.00     0.163 HD
ATOM     30  O   UNL A   1      34.207  31.866  28.579  1.00  0.00    -0.269 OA
BRANCH  28  31
ATOM     31  C   UNL A   1      35.852  30.201  28.470  1.00  0.00     0.039 A 
ATOM     32  C   UNL A   1      36.781  30.253  27.425  1.00  0.00     0.014 A 
ATOM     33  C   UNL A   1      36.212  29.628  29.692  1.00  0.00     0.014 A 
ATOM     34  C   UNL A   1      38.080  29.781  27.622  1.00  0.00     0.010 A 
ATOM     35  C   UNL A   1      37.528  29.222  29.910  1.00  0.00     0.010 A 
ATOM     36  C   UNL A   1      38.474  29.287  28.875  1.00  0.00    -0.014 A 
BRANCH  36  37
ATOM     37  C   UNL A   1      39.867  28.831  29.116  1.00  0.00     0.031 A 
ATOM     38  C   UNL A   1      40.877  29.761  29.730  1.00  0.00     0.074 A 
ATOM     39  C   UNL A   1      40.238  27.593  28.736  1.00  0.00     0.049 A 
ATOM     40  N   UNL A   1      42.146  29.556  29.977  1.00  0.00    -0.248 NA
ATOM     41  C   UNL A   1      40.405  31.106  30.093  1.00  0.00     0.031 C 
ATOM     42  C   UNL A   1      39.365  26.606  28.097  1.00  0.00     0.029 A 
ATOM     43  N   UNL A   1      41.450  26.956  28.827  1.00  0.00    -0.354 N 
ATOM     44  C   UNL A   1      42.624  30.745  30.511  1.00  0.00     0.074 A 
ATOM     45  C   UNL A   1      41.524  31.684  30.501  1.00  0.00     0.031 C 
ATOM     46  C   UNL A   1      40.065  25.482  27.875  1.00  0.00     0.029 A 
ATOM     47  C   UNL A   1      41.441  25.681  28.318  1.00  0.00     0.049 A 
ATOM     48  H   UNL A   1      42.251  27.374  29.220  1.00  0.00     0.167 HD
ATOM     49  C   UNL A   1      43.861  31.027  30.988  1.00  0.00     0.031 A 
ATOM     50  C   UNL A   1      42.430  24.774  28.209  1.00  0.00     0.031 A 
ATOM     51  C   UNL A   1      44.958  30.095  30.995  1.00  0.00     0.049 A 
ATOM     52  C   UNL A   1      43.801  25.115  28.722  1.00  0.00     0.074 A 
ATOM     53  C   UNL A   1      46.237  30.271  31.495  1.00  0.00     0.029 A 
ATOM     54  N   UNL A   1      44.906  28.812  30.471  1.00  0.00    -0.354 N 
ATOM     55  N   UNL A   1      44.220  26.224  29.283  1.00  0.00    -0.248 NA
ATOM     56  C   UNL A   1      44.831  24.075  28.598  1.00  0.00     0.031 C 
ATOM     57  C   UNL A   1      46.974  29.113  31.225  1.00  0.00     0.029 A 
ATOM     58  C   UNL A   1      46.138  28.194  30.613  1.00  0.00     0.049 A 
ATOM     59  H   UNL A   1      44.112  28.401  30.060  1.00  0.00     0.167 HD
ATOM     60  C   UNL A   1      45.554  26.006  29.603  1.00  0.00     0.074 A 
ATOM     61  C   UNL A   1      45.868  24.655  29.188  1.00  0.00     0.031 C 
ATOM     62  C   UNL A   1      46.439  26.850  30.188  1.00  0.00     0.031 A 
BRANCH  49  63
ATOM     63  C   UNL A   1      44.091  32.413  31.530  1.00  0.00    -0.014 A 
ATOM     64  C   UNL A   1      44.438  33.477  30.682  1.00  0.00     0.009 A 
ATOM     65  C   UNL A   1      43.939  32.662  32.902  1.00  0.00     0.009 A 
ATOM     66  C   UNL A   1      44.678  34.750  31.204  1.00  0.00     0.001 A 
ATOM     67  C   UNL A   1      44.147  33.944  33.417  1.00  0.00     0.001 A 
ATOM     68  C   UNL A   1      44.528  34.983  32.571  1.00  0.00     0.000 A 
ENDBRANCH  49  63
BRANCH  50  69
ATOM     69  C   UNL A   1      42.154  23.449  27.595  1.00  0.00    -0.014 A 
ATOM     70  C   UNL A   1      41.529  22.434  28.335  1.00  0.00     0.009 A 
ATOM     71  C   UNL A   1      42.504  23.196  26.259  1.00  0.00     0.009 A 
ATOM     72  C   UNL A   1      41.280  21.187  27.759  1.00  0.00     0.001 A 
ATOM     73  C   UNL A   1      42.227  21.958  25.675  1.00  0.00     0.001 A 
ATOM     74  C   UNL A   1      41.623  20.952  26.427  1.00  0.00     0.000 A 
ENDBRANCH  50  69
BRANCH  62  75
ATOM     75  C   UNL A   1      47.824  26.326  30.441  1.00  0.00    -0.014 A 
ATOM     76  C   UNL A   1      48.182  25.773  31.681  1.00  0.00     0.009 A 
ATOM     77  C   UNL A   1      48.776  26.351  29.408  1.00  0.00     0.009 A 
ATOM     78  C   UNL A   1      49.475  25.288  31.890  1.00  0.00     0.001 A 
ATOM     79  C   UNL A   1      50.056  25.836  29.611  1.00  0.00     0.001 A 
ATOM     80  C   UNL A   1      50.408  25.314  30.855  1.00  0.00     0.000 A 
ENDBRANCH  62  75
ENDBRANCH  36  37
ENDBRANCH  28  31
ENDBRANCH  26  27
ENDBRANCH  25  26
ENDBRANCH   1  25
TORSDOF 14
ENDMDL
MODEL 2
REMARK VINA RESULT:     -11.2      2.273      6.658
REMARK SMILES O=C(NCCCCCCNC(=O)c1ccc(-c2c3nc(c(-c4ccccc4)c4ccc([nH]4)c(-c4ccccc4)c4nc(c(-c5ccccc5)c5ccc2[nH]5)C=C4)C=C3)cc1)C1=Cc2cc(Cl)cc(Cl)c2O[C@@H]1C(F)(F)F
REMARK SMILES IDX 7 1 6 2 5 3 4 4 3 5 1 6 2 7 61 9 62 10 72 11 63 12 71 13
REMARK SMILES IDX 64 14 70 15 65 16 68 17 66 18 67 19 69 20 73 21 74 22 75 23
REMARK SMILES IDX 76 24 8 25 9 26 10 27 11 28 12 30 13 31 14 32 60 33 15 34
REMARK SMILES IDX 59 35 16 36 17 37 18 38 53 39 19 40 58 41 52 42 54 43 20 44
REMARK SMILES IDX 57 45 51 46 50 47 21 49 43 50 28 51 42 52 29 53 32 54 41 55
REMARK SMILES IDX 55 56 30 57 31 58 40 60 56 61 33 62 22 63 23 64 27 65 24 66
REMARK SMILES IDX 26 67 25 68 44 69 45 70 49 71 46 72 48 73 47 74 34 75 35 76
REMARK SMILES IDX 39 77 36 78 38 79 37 80
REMARK H PARENT 3 8 10 29 54 48 32 59
REMARK Flexibility Score: inf
ROOT
ATOM      1  C   UNL A   1      31.632  29.839  25.201  1.00  0.00     0.002 C 
ENDROOT
BRANCH   1   2
ATOM      2  C   UNL A   1      30.651  29.454  24.087  1.00  0.00     0.002 C 
BRANCH   2   3
ATOM      3  C   UNL A   1      31.260  28.915  22.795  1.00  0.00     0.021 C 
BRANCH   3   4
ATOM      4  C   UNL A   1      30.813  27.520  22.375  1.00  0.00     0.116 C 
BRANCH   4   5
ATOM      5  N   UNL A   1      31.856  26.671  21.829  1.00  0.00    -0.352 N 
ATOM      6  O   UNL A   1      33.169  24.858  21.641  1.00  0.00    -0.270 OA
ATOM      7  C   UNL A   1      32.408  25.527  22.338  1.00  0.00     0.251 C 
ATOM      8  H   UNL A   1      32.220  26.961  20.961  1.00  0.00     0.163 HD
BRANCH   7   9
ATOM      9  C   UNL A   1      32.048  25.002  23.689  1.00  0.00     0.067 C 
ATOM     10  C   UNL A   1      31.573  23.755  23.858  1.00  0.00     0.025 C 
ATOM     11  C   UNL A   1      32.846  25.642  24.799  1.00  0.00     0.314 C 
ATOM     12  C   UNL A   1      32.559  22.875  24.533  1.00  0.00     0.020 A 
ATOM     13  O   UNL A   1      33.919  24.771  25.243  1.00  0.00    -0.474 OA
ATOM     14  C   UNL A   1      32.446  21.494  24.328  1.00  0.00     0.032 A 
ATOM     15  C   UNL A   1      33.737  23.418  25.077  1.00  0.00     0.146 A 
ATOM     16  C   UNL A   1      33.543  20.672  24.575  1.00  0.00     0.043 A 
ATOM     17  C   UNL A   1      34.820  22.570  25.343  1.00  0.00     0.085 A 
ATOM     18  Cl  UNL A   1      33.470  19.009  24.143  1.00  0.00    -0.084 Cl
ATOM     19  C   UNL A   1      34.732  21.203  25.072  1.00  0.00     0.045 A 
ATOM     20  Cl  UNL A   1      36.337  23.198  25.876  1.00  0.00    -0.080 Cl
BRANCH  11  21
ATOM     21  C   UNL A   1      31.955  26.083  25.974  1.00  0.00     0.429 C 
ATOM     22  F   UNL A   1      32.523  27.096  26.670  1.00  0.00    -0.167 F 
ATOM     23  F   UNL A   1      30.747  26.522  25.549  1.00  0.00    -0.167 F 
ATOM     24  F   UNL A   1      31.726  25.073  26.848  1.00  0.00    -0.167 F 
ENDBRANCH  11  21
ENDBRANCH   7   9
ENDBRANCH   4   5
ENDBRANCH   3   4
ENDBRANCH   2   3
ENDBRANCH   1   2
BRANCH   1  25
ATOM     25  C   UNL A   1      31.297  31.087  26.023  1.00  0.00     0.021 C 
BRANCH  25  26
ATOM     26  C   UNL A   1      32.401  31.607  26.940  1.00  0.00     0.116 C 
BRANCH  26  27
ATOM     27  N   UNL A   1      32.206  32.991  27.336  1.00  0.00    -0.352 N 
ATOM     28  C   UNL A   1      32.983  33.808  28.118  1.00  0.00     0.251 C 
ATOM     29  H   UNL A   1      31.385  33.408  26.988  1.00  0.00     0.163 HD
ATOM     30  O   UNL A   1      32.564  34.916  28.441  1.00  0.00    -0.269 OA
BRANCH  28  31
ATOM     31  C   UNL A   1      34.312  33.364  28.595  1.00  0.00     0.039 A 
ATOM     32  C   UNL A   1      34.385  32.652  29.798  1.00  0.00     0.014 A 
ATOM     33  C   UNL A   1      35.483  33.672  27.898  1.00  0.00     0.014 A 
ATOM     34  C   UNL A   1      35.621  32.207  30.271  1.00  0.00     0.010 A 
ATOM     35  C   UNL A   1      36.707  33.167  28.334  1.00  0.00     0.010 A 
ATOM     36  C   UNL A   1      36.790  32.436  29.528  1.00  0.00    -0.014 A 
BRANCH  36  37
ATOM     37  C   UNL A   1      38.105  31.922  29.992  1.00  0.00     0.031 A 
ATOM     38  C   UNL A   1      38.630  30.608  29.482  1.00  0.00     0.074 A 
ATOM     39  C   UNL A   1      38.805  32.615  30.910  1.00  0.00     0.049 A 
ATOM     40  N   UNL A   1      39.734  29.979  29.803  1.00  0.00    -0.248 NA
ATOM     41  C   UNL A   1      37.797  29.896  28.502  1.00  0.00     0.031 C 
ATOM     42  C   UNL A   1      38.390  33.884  31.512  1.00  0.00     0.029 A 
ATOM     43  N   UNL A   1      40.012  32.344  31.504  1.00  0.00    -0.354 N 
ATOM     44  C   UNL A   1      39.720  28.797  29.074  1.00  0.00     0.074 A 
ATOM     45  C   UNL A   1      38.474  28.769  28.339  1.00  0.00     0.031 C 
ATOM     46  C   UNL A   1      39.338  34.292  32.370  1.00  0.00     0.029 A 
ATOM     47  C   UNL A   1      40.405  33.297  32.411  1.00  0.00     0.049 A 
ATOM     48  H   UNL A   1      40.547  31.542  31.299  1.00  0.00     0.167 HD
ATOM     49  C   UNL A   1      40.666  27.829  29.005  1.00  0.00     0.031 A 
ATOM     50  C   UNL A   1      41.497  33.362  33.196  1.00  0.00     0.031 A 
ATOM     51  C   UNL A   1      41.904  27.854  29.739  1.00  0.00     0.049 A 
ATOM     52  C   UNL A   1      42.523  32.267  33.121  1.00  0.00     0.074 A 
ATOM     53  C   UNL A   1      42.946  26.943  29.704  1.00  0.00     0.029 A 
ATOM     54  N   UNL A   1      42.264  28.839  30.646  1.00  0.00    -0.354 N 
ATOM     55  N   UNL A   1      42.524  31.186  32.379  1.00  0.00    -0.248 NA
ATOM     56  C   UNL A   1      43.705  32.408  33.984  1.00  0.00     0.031 C 
ATOM     57  C   UNL A   1      43.912  27.349  30.630  1.00  0.00     0.029 A 
ATOM     58  C   UNL A   1      43.501  28.545  31.196  1.00  0.00     0.049 A 
ATOM     59  H   UNL A   1      41.721  29.630  30.866  1.00  0.00     0.167 HD
ATOM     60  C   UNL A   1      43.715  30.531  32.665  1.00  0.00     0.074 A 
ATOM     61  C   UNL A   1      44.418  31.345  33.636  1.00  0.00     0.031 C 
ATOM     62  C   UNL A   1      44.185  29.361  32.167  1.00  0.00     0.031 A 
BRANCH  49  63
ATOM     63  C   UNL A   1      40.384  26.653  28.108  1.00  0.00    -0.014 A 
ATOM     64  C   UNL A   1      40.877  26.607  26.794  1.00  0.00     0.009 A 
ATOM     65  C   UNL A   1      39.632  25.571  28.588  1.00  0.00     0.009 A 
ATOM     66  C   UNL A   1      40.581  25.522  25.964  1.00  0.00     0.001 A 
ATOM     67  C   UNL A   1      39.365  24.473  27.767  1.00  0.00     0.001 A 
ATOM     68  C   UNL A   1      39.829  24.455  26.453  1.00  0.00     0.000 A 
ENDBRANCH  49  63
BRANCH  50  69
ATOM     69  C   UNL A   1      41.679  34.516  34.116  1.00  0.00    -0.014 A 
ATOM     70  C   UNL A   1      41.197  34.463  35.432  1.00  0.00     0.009 A 
ATOM     71  C   UNL A   1      42.347  35.673  33.685  1.00  0.00     0.009 A 
ATOM     72  C   UNL A   1      41.360  35.552  36.291  1.00  0.00     0.001 A 
ATOM     73  C   UNL A   1      42.535  36.750  34.554  1.00  0.00     0.001 A 
ATOM     74  C   UNL A   1      42.035  36.691  35.853  1.00  0.00     0.000 A 
ENDBRANCH  50  69
BRANCH  62  75
ATOM     75  C   UNL A   1      45.536  28.905  32.642  1.00  0.00    -0.014 A 
ATOM     76  C   UNL A   1      46.713  29.302  31.990  1.00  0.00     0.009 A 
ATOM     77  C   UNL A   1      45.633  28.096  33.787  1.00  0.00     0.009 A 
ATOM     78  C   UNL A   1      47.958  28.870  32.454  1.00  0.00     0.001 A 
ATOM     79  C   UNL A   1      46.879  27.691  34.265  1.00  0.00     0.001 A 
ATOM     80  C   UNL A   1      48.040  28.070  33.593  1.00  0.00     0.000 A 
ENDBRANCH  62  75
ENDBRANCH  36  37
ENDBRANCH  28  31
ENDBRANCH  26  27
ENDBRANCH  25  26
ENDBRANCH   1  25
TORSDOF 14
ENDMDL
MODEL 3
REMARK VINA RESULT:     -11.2      2.804      7.152
REMARK SMILES O=C(NCCCCCCNC(=O)c1ccc(-c2c3nc(c(-c4ccccc4)c4ccc([nH]4)c(-c4ccccc4)c4nc(c(-c5ccccc5)c5ccc2[nH]5)C=C4)C=C3)cc1)C1=Cc2cc(Cl)cc(Cl)c2O[C@@H]1C(F)(F)F
REMARK SMILES IDX 7 1 6 2 5 3 4 4 3 5 1 6 2 7 61 9 62 10 72 11 63 12 71 13
REMARK SMILES IDX 64 14 70 15 65 16 68 17 66 18 67 19 69 20 73 21 74 22 75 23
REMARK SMILES IDX 76 24 8 25 9 26 10 27 11 28 12 30 13 31 14 32 60 33 15 34
REMARK SMILES IDX 59 35 16 36 17 37 18 38 53 39 19 40 58 41 52 42 54 43 20 44
REMARK SMILES IDX 57 45 51 46 50 47 21 49 43 50 28 51 42 52 29 53 32 54 41 55
REMARK SMILES IDX 55 56 30 57 31 58 40 60 56 61 33 62 22 63 23 64 27 65 24 66
REMARK SMILES IDX 26 67 25 68 44 69 45 70 49 71 46 72 48 73 47 74 34 75 35 76
REMARK SMILES IDX 39 77 36 78 38 79 37 80
REMARK H PARENT 3 8 10 29 54 48 32 59
REMARK Flexibility Score: inf
ROOT
ATOM      1  C   UNL A   1      31.565  29.760  25.379  1.00  0.00     0.002 C 
ENDROOT
BRANCH   1   2
ATOM      2  C   UNL A   1      30.919  29.402  24.035  1.00  0.00     0.002 C 
BRANCH   2   3
ATOM      3  C   UNL A   1      31.789  28.638  23.040  1.00  0.00     0.021 C 
BRANCH   3   4
ATOM      4  C   UNL A   1      31.213  27.330  22.512  1.00  0.00     0.116 C 
BRANCH   4   5
ATOM      5  N   UNL A   1      31.862  26.797  21.328  1.00  0.00    -0.352 N 
ATOM      6  O   UNL A   1      32.979  25.313  20.065  1.00  0.00    -0.270 OA
ATOM      7  C   UNL A   1      32.658  25.692  21.190  1.00  0.00     0.251 C 
ATOM      8  H   UNL A   1      31.706  27.307  20.501  1.00  0.00     0.163 HD
BRANCH   7   9
ATOM      9  C   UNL A   1      33.080  24.864  22.359  1.00  0.00     0.067 C 
ATOM     10  C   UNL A   1      33.966  25.317  23.262  1.00  0.00     0.025 C 
ATOM     11  C   UNL A   1      32.018  23.884  22.796  1.00  0.00     0.314 C 
ATOM     12  C   UNL A   1      33.323  25.604  24.570  1.00  0.00     0.020 A 
ATOM     13  O   UNL A   1      31.310  24.366  23.968  1.00  0.00    -0.474 OA
ATOM     14  C   UNL A   1      33.953  26.526  25.415  1.00  0.00     0.032 A 
ATOM     15  C   UNL A   1      31.990  25.222  24.803  1.00  0.00     0.146 A 
ATOM     16  C   UNL A   1      33.220  27.137  26.430  1.00  0.00     0.043 A 
ATOM     17  C   UNL A   1      31.277  25.830  25.844  1.00  0.00     0.085 A 
ATOM     18  Cl  UNL A   1      33.934  28.408  27.344  1.00  0.00    -0.084 Cl
ATOM     19  C   UNL A   1      31.884  26.802  26.643  1.00  0.00     0.045 A 
ATOM     20  Cl  UNL A   1      29.600  25.508  26.088  1.00  0.00    -0.080 Cl
BRANCH  11  21
ATOM     21  C   UNL A   1      32.589  22.473  23.024  1.00  0.00     0.429 C 
ATOM     22  F   UNL A   1      33.943  22.475  22.980  1.00  0.00    -0.167 F 
ATOM     23  F   UNL A   1      32.233  21.979  24.234  1.00  0.00    -0.167 F 
ATOM     24  F   UNL A   1      32.157  21.590  22.092  1.00  0.00    -0.167 F 
ENDBRANCH  11  21
ENDBRANCH   7   9
ENDBRANCH   4   5
ENDBRANCH   3   4
ENDBRANCH   2   3
ENDBRANCH   1   2
BRANCH   1  25
ATOM     25  C   UNL A   1      31.355  31.188  25.893  1.00  0.00     0.021 C 
BRANCH  25  26
ATOM     26  C   UNL A   1      32.303  31.655  26.994  1.00  0.00     0.116 C 
BRANCH  26  27
ATOM     27  N   UNL A   1      32.127  33.054  27.340  1.00  0.00    -0.352 N 
ATOM     28  C   UNL A   1      32.913  33.888  28.096  1.00  0.00     0.251 C 
ATOM     29  H   UNL A   1      31.313  33.470  26.975  1.00  0.00     0.163 HD
ATOM     30  O   UNL A   1      32.509  35.012  28.378  1.00  0.00    -0.269 OA
BRANCH  28  31
ATOM     31  C   UNL A   1      34.235  33.442  28.592  1.00  0.00     0.039 A 
ATOM     32  C   UNL A   1      34.289  32.724  29.792  1.00  0.00     0.014 A 
ATOM     33  C   UNL A   1      35.417  33.755  27.916  1.00  0.00     0.014 A 
ATOM     34  C   UNL A   1      35.517  32.278  30.284  1.00  0.00     0.010 A 
ATOM     35  C   UNL A   1      36.634  33.248  28.370  1.00  0.00     0.010 A 
ATOM     36  C   UNL A   1      36.698  32.511  29.562  1.00  0.00    -0.014 A 
BRANCH  36  37
ATOM     37  C   UNL A   1      38.005  31.995  30.044  1.00  0.00     0.031 A 
ATOM     38  C   UNL A   1      38.542  30.686  29.534  1.00  0.00     0.074 A 
ATOM     39  C   UNL A   1      38.688  32.682  30.980  1.00  0.00     0.049 A 
ATOM     40  N   UNL A   1      39.640  30.057  29.869  1.00  0.00    -0.248 NA
ATOM     41  C   UNL A   1      37.727  29.980  28.534  1.00  0.00     0.031 C 
ATOM     42  C   UNL A   1      38.261  33.946  31.584  1.00  0.00     0.029 A 
ATOM     43  N   UNL A   1      39.885  32.409  31.592  1.00  0.00    -0.354 N 
ATOM     44  C   UNL A   1      39.641  28.880  29.131  1.00  0.00     0.074 A 
ATOM     45  C   UNL A   1      38.408  28.856  28.374  1.00  0.00     0.031 C 
ATOM     46  C   UNL A   1      39.192  34.349  32.462  1.00  0.00     0.029 A 
ATOM     47  C   UNL A   1      40.261  33.356  32.514  1.00  0.00     0.049 A 
ATOM     48  H   UNL A   1      40.424  31.610  31.391  1.00  0.00     0.167 HD
ATOM     49  C   UNL A   1      40.590  27.914  29.071  1.00  0.00     0.031 A 
ATOM     50  C   UNL A   1      41.339  33.416  33.318  1.00  0.00     0.031 A 
ATOM     51  C   UNL A   1      41.815  27.935  29.826  1.00  0.00     0.049 A 
ATOM     52  C   UNL A   1      42.368  32.323  33.253  1.00  0.00     0.074 A 
ATOM     53  C   UNL A   1      42.859  27.026  29.803  1.00  0.00     0.029 A 
ATOM     54  N   UNL A   1      42.158  28.914  30.747  1.00  0.00    -0.354 N 
ATOM     55  N   UNL A   1      42.383  31.248  32.503  1.00  0.00    -0.248 NA
ATOM     56  C   UNL A   1      43.533  32.459  34.137  1.00  0.00     0.031 C 
ATOM     57  C   UNL A   1      43.808  27.427  30.749  1.00  0.00     0.029 A 
ATOM     58  C   UNL A   1      43.385  28.618  31.317  1.00  0.00     0.049 A 
ATOM     59  H   UNL A   1      41.610  29.702  30.963  1.00  0.00     0.167 HD
ATOM     60  C   UNL A   1      43.570  30.593  32.804  1.00  0.00     0.074 A 
ATOM     61  C   UNL A   1      44.254  31.400  33.793  1.00  0.00     0.031 C 
ATOM     62  C   UNL A   1      44.051  29.427  32.306  1.00  0.00     0.031 A 
BRANCH  49  63
ATOM     63  C   UNL A   1      40.326  26.745  28.160  1.00  0.00    -0.014 A 
ATOM     64  C   UNL A   1      39.591  25.632  28.601  1.00  0.00     0.009 A 
ATOM     65  C   UNL A   1      40.800  26.765  26.840  1.00  0.00     0.009 A 
ATOM     66  C   UNL A   1      39.381  24.542  27.753  1.00  0.00     0.001 A 
ATOM     67  C   UNL A   1      40.559  25.687  25.984  1.00  0.00     0.001 A 
ATOM     68  C   UNL A   1      39.862  24.572  26.445  1.00  0.00     0.000 A 
ENDBRANCH  49  63
BRANCH  50  69
ATOM     69  C   UNL A   1      41.502  34.563  34.249  1.00  0.00    -0.014 A 
ATOM     70  C   UNL A   1      42.180  35.723  33.843  1.00  0.00     0.009 A 
ATOM     71  C   UNL A   1      40.969  34.509  35.547  1.00  0.00     0.009 A 
ATOM     72  C   UNL A   1      42.341  36.794  34.724  1.00  0.00     0.001 A 
ATOM     73  C   UNL A   1      41.105  35.594  36.416  1.00  0.00     0.001 A 
ATOM     74  C   UNL A   1      41.798  36.732  36.007  1.00  0.00     0.000 A 
ENDBRANCH  50  69
BRANCH  62  75
ATOM     75  C   UNL A   1      45.394  28.970  32.801  1.00  0.00    -0.014 A 
ATOM     76  C   UNL A   1      46.582  29.381  32.178  1.00  0.00     0.009 A 
ATOM     77  C   UNL A   1      45.472  28.144  33.935  1.00  0.00     0.009 A 
ATOM     78  C   UNL A   1      47.819  28.947  32.660  1.00  0.00     0.001 A 
ATOM     79  C   UNL A   1      46.710  27.737  34.432  1.00  0.00     0.001 A 
ATOM     80  C   UNL A   1      47.882  28.131  33.789  1.00  0.00     0.000 A 
ENDBRANCH  62  75
ENDBRANCH  36  37
ENDBRANCH  28  31
ENDBRANCH  26  27
ENDBRANCH  25  26
ENDBRANCH   1  25
TORSDOF 14
ENDMDL
