MODEL 1
REMARK VINA RESULT:     -10.9      0.000      0.000
REMARK SMILES C[C@@H]1CCC[C@H](C)N1C(=O)Cn1cccc1C(=O)NCCCCCCNC(=O)c1ccc(-c2c3nc(c(-c4ccccc4)c4ccc([nH]4)c(-c4ccccc4)c4nc(c(-c5ccccc5)c5ccc2[nH]5)C=C4)C=C3)cc1
REMARK SMILES IDX 22 1 21 2 20 3 19 4 17 5 18 6 16 8 12 9 13 10 14 11 15 12
REMARK SMILES IDX 11 13 9 14 10 15 8 16 1 17 2 18 3 19 4 20 6 21 5 22 7 23
REMARK SMILES IDX 23 24 24 25 25 26 26 27 27 28 28 30 29 31 30 32 76 33 31 34
REMARK SMILES IDX 75 35 32 36 33 37 34 38 69 39 35 40 74 41 68 42 70 43 36 44
REMARK SMILES IDX 73 45 67 46 66 47 37 49 59 50 44 51 58 52 45 53 48 54 57 55
REMARK SMILES IDX 71 56 46 57 47 58 56 60 72 61 49 62 38 63 39 64 43 65 40 66
REMARK SMILES IDX 42 67 41 68 60 69 61 70 65 71 62 72 64 73 63 74 50 75 51 76
REMARK SMILES IDX 55 77 52 78 54 79 53 80
REMARK H PARENT 19 7 26 29 70 48 48 59
REMARK Flexibility Score: inf
ROOT
ATOM      1  C   UNL A   1      36.399  20.616  25.018  1.00  0.00     0.002 C 
ENDROOT
BRANCH   1   2
ATOM      2  C   UNL A   1      35.101  21.077  25.684  1.00  0.00     0.021 C 
BRANCH   2   3
ATOM      3  C   UNL A   1      33.757  20.379  25.403  1.00  0.00     0.116 C 
BRANCH   3   4
ATOM      4  N   UNL A   1      32.569  21.160  25.737  1.00  0.00    -0.351 N 
ATOM      5  C   UNL A   1      31.820  22.193  25.231  1.00  0.00     0.267 C 
ATOM      6  O   UNL A   1      30.709  22.249  25.779  1.00  0.00    -0.268 OA
ATOM      7  H   UNL A   1      32.187  20.849  26.590  1.00  0.00     0.163 HD
BRANCH   5   8
ATOM      8  C   UNL A   1      32.129  23.154  24.169  1.00  0.00     0.107 A 
ATOM      9  N   UNL A   1      31.731  24.442  23.846  1.00  0.00    -0.334 N 
ATOM     10  C   UNL A   1      32.444  24.886  22.733  1.00  0.00     0.087 A 
ATOM     11  C   UNL A   1      33.051  23.811  22.148  1.00  0.00     0.020 A 
ATOM     12  C   UNL A   1      32.843  22.736  23.029  1.00  0.00     0.033 A 
BRANCH   9  13
ATOM     13  C   UNL A   1      30.665  25.306  24.343  1.00  0.00     0.222 C 
BRANCH  13  14
ATOM     14  C   UNL A   1      30.714  26.789  24.072  1.00  0.00     0.242 C 
ATOM     15  O   UNL A   1      30.060  27.228  23.120  1.00  0.00    -0.273 OA
BRANCH  14  16
ATOM     16  N   UNL A   1      31.282  27.630  25.030  1.00  0.00    -0.336 N 
ATOM     17  C   UNL A   1      32.860  28.900  23.644  1.00  0.00     0.031 C 
ATOM     18  C   UNL A   1      31.635  28.968  24.563  1.00  0.00     0.082 C 
ATOM     19  C   UNL A   1      31.758  29.980  25.705  1.00  0.00     0.025 C 
ATOM     20  C   UNL A   1      32.520  29.469  26.922  1.00  0.00     0.004 C 
ATOM     21  C   UNL A   1      31.976  27.117  26.242  1.00  0.00     0.082 C 
ATOM     22  C   UNL A   1      31.939  28.145  27.374  1.00  0.00     0.025 C 
ATOM     23  C   UNL A   1      33.385  26.551  26.043  1.00  0.00     0.031 C 
ENDBRANCH  14  16
ENDBRANCH  13  14
ENDBRANCH   9  13
ENDBRANCH   5   8
ENDBRANCH   3   4
ENDBRANCH   2   3
ENDBRANCH   1   2
BRANCH   1  24
ATOM     24  C   UNL A   1      37.391  21.739  24.744  1.00  0.00     0.002 C 
BRANCH  24  25
ATOM     25  C   UNL A   1      36.859  23.162  25.002  1.00  0.00     0.021 C 
BRANCH  25  26
ATOM     26  C   UNL A   1      37.662  23.989  26.013  1.00  0.00     0.116 C 
BRANCH  26  27
ATOM     27  N   UNL A   1      38.950  23.362  26.263  1.00  0.00    -0.352 N 
ATOM     28  C   UNL A   1      40.128  23.939  26.653  1.00  0.00     0.251 C 
ATOM     29  H   UNL A   1      38.978  22.387  26.133  1.00  0.00     0.163 HD
ATOM     30  O   UNL A   1      41.191  23.401  26.400  1.00  0.00    -0.269 OA
BRANCH  28  31
ATOM     31  C   UNL A   1      40.106  25.181  27.442  1.00  0.00     0.039 A 
ATOM     32  C   UNL A   1      39.328  25.215  28.605  1.00  0.00     0.014 A 
ATOM     33  C   UNL A   1      40.717  26.335  26.938  1.00  0.00     0.014 A 
ATOM     34  C   UNL A   1      39.174  26.416  29.278  1.00  0.00     0.010 A 
ATOM     35  C   UNL A   1      40.572  27.533  27.609  1.00  0.00     0.010 A 
ATOM     36  C   UNL A   1      39.801  27.564  28.774  1.00  0.00    -0.014 A 
BRANCH  36  37
ATOM     37  C   UNL A   1      39.748  28.802  29.566  1.00  0.00     0.031 A 
ATOM     38  C   UNL A   1      40.681  28.703  30.795  1.00  0.00     0.074 A 
ATOM     39  C   UNL A   1      38.889  29.752  29.085  1.00  0.00     0.049 A 
ATOM     40  N   UNL A   1      40.653  29.342  31.922  1.00  0.00    -0.248 NA
ATOM     41  C   UNL A   1      41.794  27.706  30.790  1.00  0.00     0.031 C 
ATOM     42  C   UNL A   1      38.111  29.637  27.822  1.00  0.00     0.029 A 
ATOM     43  N   UNL A   1      38.476  30.986  29.529  1.00  0.00    -0.354 N 
ATOM     44  C   UNL A   1      41.787  28.957  32.680  1.00  0.00     0.074 A 
ATOM     45  C   UNL A   1      42.415  27.894  31.958  1.00  0.00     0.031 C 
ATOM     46  C   UNL A   1      37.271  30.684  27.667  1.00  0.00     0.029 A 
ATOM     47  C   UNL A   1      37.408  31.573  28.800  1.00  0.00     0.049 A 
ATOM     48  H   UNL A   1      38.892  31.433  30.300  1.00  0.00     0.167 HD
ATOM     49  C   UNL A   1      42.187  29.612  33.810  1.00  0.00     0.031 A 
ATOM     50  C   UNL A   1      36.641  32.656  29.135  1.00  0.00     0.031 A 
ATOM     51  C   UNL A   1      41.227  30.598  34.165  1.00  0.00     0.049 A 
ATOM     52  C   UNL A   1      37.225  33.164  30.385  1.00  0.00     0.074 A 
ATOM     53  C   UNL A   1      39.985  30.504  34.735  1.00  0.00     0.029 A 
ATOM     54  N   UNL A   1      41.360  31.829  33.573  1.00  0.00    -0.354 N 
ATOM     55  N   UNL A   1      38.364  33.774  30.478  1.00  0.00    -0.248 NA
ATOM     56  C   UNL A   1      36.555  32.846  31.651  1.00  0.00     0.031 C 
ATOM     57  C   UNL A   1      39.234  31.447  33.999  1.00  0.00     0.029 A 
ATOM     58  C   UNL A   1      40.094  32.230  33.222  1.00  0.00     0.049 A 
ATOM     59  H   UNL A   1      42.197  32.326  33.427  1.00  0.00     0.167 HD
ATOM     60  C   UNL A   1      38.712  33.552  31.787  1.00  0.00     0.074 A 
ATOM     61  C   UNL A   1      37.482  33.279  32.500  1.00  0.00     0.031 C 
ATOM     62  C   UNL A   1      39.963  33.123  32.098  1.00  0.00     0.031 A 
BRANCH  49  63
ATOM     63  C   UNL A   1      43.480  29.615  34.579  1.00  0.00    -0.014 A 
ATOM     64  C   UNL A   1      44.594  30.249  33.971  1.00  0.00     0.009 A 
ATOM     65  C   UNL A   1      43.740  28.760  35.653  1.00  0.00     0.009 A 
ATOM     66  C   UNL A   1      45.908  29.937  34.323  1.00  0.00     0.001 A 
ATOM     67  C   UNL A   1      45.062  28.473  36.032  1.00  0.00     0.001 A 
ATOM     68  C   UNL A   1      46.141  29.026  35.342  1.00  0.00     0.000 A 
ENDBRANCH  49  63
BRANCH  50  69
ATOM     69  C   UNL A   1      35.351  33.297  28.690  1.00  0.00    -0.014 A 
ATOM     70  C   UNL A   1      34.234  32.635  28.175  1.00  0.00     0.009 A 
ATOM     71  C   UNL A   1      35.190  34.697  28.892  1.00  0.00     0.009 A 
ATOM     72  C   UNL A   1      33.006  33.309  27.993  1.00  0.00     0.001 A 
ATOM     73  C   UNL A   1      33.966  35.360  28.764  1.00  0.00     0.001 A 
ATOM     74  C   UNL A   1      32.862  34.655  28.329  1.00  0.00     0.000 A 
ENDBRANCH  50  69
BRANCH  62  75
ATOM     75  C   UNL A   1      41.007  33.317  31.003  1.00  0.00    -0.014 A 
ATOM     76  C   UNL A   1      41.586  32.200  30.382  1.00  0.00     0.009 A 
ATOM     77  C   UNL A   1      41.527  34.577  30.649  1.00  0.00     0.009 A 
ATOM     78  C   UNL A   1      42.648  32.333  29.475  1.00  0.00     0.001 A 
ATOM     79  C   UNL A   1      42.589  34.717  29.740  1.00  0.00     0.001 A 
ATOM     80  C   UNL A   1      43.152  33.590  29.155  1.00  0.00     0.000 A 
ENDBRANCH  62  75
ENDBRANCH  36  37
ENDBRANCH  28  31
ENDBRANCH  26  27
ENDBRANCH  25  26
ENDBRANCH  24  25
ENDBRANCH   1  24
TORSDOF 16
ENDMDL
MODEL 2
REMARK VINA RESULT:     -10.8      4.253      8.346
REMARK SMILES C[C@@H]1CCC[C@H](C)N1C(=O)Cn1cccc1C(=O)NCCCCCCNC(=O)c1ccc(-c2c3nc(c(-c4ccccc4)c4ccc([nH]4)c(-c4ccccc4)c4nc(c(-c5ccccc5)c5ccc2[nH]5)C=C4)C=C3)cc1
REMARK SMILES IDX 22 1 21 2 20 3 19 4 17 5 18 6 16 8 12 9 13 10 14 11 15 12
REMARK SMILES IDX 11 13 9 14 10 15 8 16 1 17 2 18 3 19 4 20 6 21 5 22 7 23
REMARK SMILES IDX 23 24 24 25 25 26 26 27 27 28 28 30 29 31 30 32 76 33 31 34
REMARK SMILES IDX 75 35 32 36 33 37 34 38 69 39 35 40 74 41 68 42 70 43 36 44
REMARK SMILES IDX 73 45 67 46 66 47 37 49 59 50 44 51 58 52 45 53 48 54 57 55
REMARK SMILES IDX 71 56 46 57 47 58 56 60 72 61 49 62 38 63 39 64 43 65 40 66
REMARK SMILES IDX 42 67 41 68 60 69 61 70 65 71 62 72 64 73 63 74 50 75 51 76
REMARK SMILES IDX 55 77 52 78 54 79 53 80
REMARK H PARENT 19 7 26 29 70 48 48 59
REMARK Flexibility Score: inf
ROOT
ATOM      1  C   UNL A   1      37.880  23.261  26.337  1.00  0.00     0.002 C 
ENDROOT
BRANCH   1   2
ATOM      2  C   UNL A   1      36.857  23.555  25.239  1.00  0.00     0.021 C 
BRANCH   2   3
ATOM      3  C   UNL A   1      36.637  22.589  24.059  1.00  0.00     0.116 C 
BRANCH   3   4
ATOM      4  N   UNL A   1      35.978  21.332  24.400  1.00  0.00    -0.351 N 
ATOM      5  C   UNL A   1      34.858  20.881  25.055  1.00  0.00     0.267 C 
ATOM      6  O   UNL A   1      34.617  19.700  24.766  1.00  0.00    -0.268 OA
ATOM      7  H   UNL A   1      36.497  20.571  24.053  1.00  0.00     0.163 HD
BRANCH   5   8
ATOM      8  C   UNL A   1      33.948  21.583  25.964  1.00  0.00     0.107 A 
ATOM      9  N   UNL A   1      32.726  22.227  25.847  1.00  0.00    -0.334 N 
ATOM     10  C   UNL A   1      32.297  22.646  27.105  1.00  0.00     0.087 A 
ATOM     11  C   UNL A   1      33.350  22.571  27.972  1.00  0.00     0.020 A 
ATOM     12  C   UNL A   1      34.376  21.926  27.261  1.00  0.00     0.033 A 
BRANCH   9  13
ATOM     13  C   UNL A   1      31.930  22.645  24.697  1.00  0.00     0.222 C 
BRANCH  13  14
ATOM     14  C   UNL A   1      32.432  23.748  23.799  1.00  0.00     0.242 C 
ATOM     15  O   UNL A   1      33.392  23.505  23.060  1.00  0.00    -0.273 OA
BRANCH  14  16
ATOM     16  N   UNL A   1      31.659  24.901  23.653  1.00  0.00    -0.336 N 
ATOM     17  C   UNL A   1      33.406  26.625  23.672  1.00  0.00     0.031 C 
ATOM     18  C   UNL A   1      32.272  25.974  22.873  1.00  0.00     0.082 C 
ATOM     19  C   UNL A   1      31.242  26.961  22.317  1.00  0.00     0.025 C 
ATOM     20  C   UNL A   1      30.168  27.382  23.314  1.00  0.00     0.004 C 
ATOM     21  C   UNL A   1      30.577  25.271  24.604  1.00  0.00     0.082 C 
ATOM     22  C   UNL A   1      29.527  26.154  23.928  1.00  0.00     0.025 C 
ATOM     23  C   UNL A   1      31.012  25.848  25.954  1.00  0.00     0.031 C 
ENDBRANCH  14  16
ENDBRANCH  13  14
ENDBRANCH   9  13
ENDBRANCH   5   8
ENDBRANCH   3   4
ENDBRANCH   2   3
ENDBRANCH   1   2
BRANCH   1  24
ATOM     24  C   UNL A   1      39.090  22.466  25.864  1.00  0.00     0.002 C 
BRANCH  24  25
ATOM     25  C   UNL A   1      39.189  21.030  26.416  1.00  0.00     0.021 C 
BRANCH  25  26
ATOM     26  C   UNL A   1      39.566  19.958  25.387  1.00  0.00     0.116 C 
BRANCH  26  27
ATOM     27  N   UNL A   1      40.536  19.037  25.955  1.00  0.00    -0.352 N 
ATOM     28  C   UNL A   1      41.858  19.248  26.244  1.00  0.00     0.251 C 
ATOM     29  H   UNL A   1      40.196  18.137  26.159  1.00  0.00     0.163 HD
ATOM     30  O   UNL A   1      42.636  18.313  26.288  1.00  0.00    -0.269 OA
BRANCH  28  31
ATOM     31  C   UNL A   1      42.325  20.604  26.572  1.00  0.00     0.039 A 
ATOM     32  C   UNL A   1      42.237  21.035  27.900  1.00  0.00     0.014 A 
ATOM     33  C   UNL A   1      42.686  21.482  25.542  1.00  0.00     0.014 A 
ATOM     34  C   UNL A   1      42.530  22.355  28.203  1.00  0.00     0.010 A 
ATOM     35  C   UNL A   1      42.985  22.797  25.839  1.00  0.00     0.010 A 
ATOM     36  C   UNL A   1      42.904  23.224  27.168  1.00  0.00    -0.014 A 
BRANCH  36  37
ATOM     37  C   UNL A   1      43.346  24.582  27.512  1.00  0.00     0.031 A 
ATOM     38  C   UNL A   1      42.134  25.535  27.639  1.00  0.00     0.074 A 
ATOM     39  C   UNL A   1      44.702  24.732  27.619  1.00  0.00     0.049 A 
ATOM     40  N   UNL A   1      42.067  26.824  27.528  1.00  0.00    -0.248 NA
ATOM     41  C   UNL A   1      40.776  24.961  27.883  1.00  0.00     0.031 C 
ATOM     42  C   UNL A   1      45.694  23.630  27.497  1.00  0.00     0.029 A 
ATOM     43  N   UNL A   1      45.536  25.804  27.840  1.00  0.00    -0.354 N 
ATOM     44  C   UNL A   1      40.741  27.227  27.827  1.00  0.00     0.074 A 
ATOM     45  C   UNL A   1      39.976  26.028  27.970  1.00  0.00     0.031 C 
ATOM     46  C   UNL A   1      46.959  24.102  27.543  1.00  0.00     0.029 A 
ATOM     47  C   UNL A   1      46.923  25.541  27.691  1.00  0.00     0.049 A 
ATOM     48  H   UNL A   1      45.193  26.693  28.084  1.00  0.00     0.167 HD
ATOM     49  C   UNL A   1      40.385  28.530  28.034  1.00  0.00     0.031 A 
ATOM     50  C   UNL A   1      47.956  26.435  27.613  1.00  0.00     0.031 A 
ATOM     51  C   UNL A   1      41.487  29.384  27.756  1.00  0.00     0.049 A 
ATOM     52  C   UNL A   1      47.337  27.751  27.822  1.00  0.00     0.074 A 
ATOM     53  C   UNL A   1      42.055  29.791  26.578  1.00  0.00     0.029 A 
ATOM     54  N   UNL A   1      42.369  29.607  28.783  1.00  0.00    -0.354 N 
ATOM     55  N   UNL A   1      46.873  28.182  28.953  1.00  0.00    -0.248 NA
ATOM     56  C   UNL A   1      47.089  28.602  26.653  1.00  0.00     0.031 C 
ATOM     57  C   UNL A   1      43.437  29.729  26.860  1.00  0.00     0.029 A 
ATOM     58  C   UNL A   1      43.628  29.546  28.234  1.00  0.00     0.049 A 
ATOM     59  H   UNL A   1      42.145  29.777  29.726  1.00  0.00     0.167 HD
ATOM     60  C   UNL A   1      45.960  29.127  28.556  1.00  0.00     0.074 A 
ATOM     61  C   UNL A   1      46.353  29.549  27.228  1.00  0.00     0.031 C 
ATOM     62  C   UNL A   1      44.712  29.140  29.093  1.00  0.00     0.031 A 
BRANCH  49  63
ATOM     63  C   UNL A   1      39.176  29.165  28.663  1.00  0.00    -0.014 A 
ATOM     64  C   UNL A   1      38.959  28.921  30.044  1.00  0.00     0.009 A 
ATOM     65  C   UNL A   1      38.101  29.669  27.928  1.00  0.00     0.009 A 
ATOM     66  C   UNL A   1      37.697  29.037  30.628  1.00  0.00     0.001 A 
ATOM     67  C   UNL A   1      36.838  29.822  28.525  1.00  0.00     0.001 A 
ATOM     68  C   UNL A   1      36.628  29.467  29.858  1.00  0.00     0.000 A 
ENDBRANCH  49  63
BRANCH  50  69
ATOM     69  C   UNL A   1      49.412  26.435  27.221  1.00  0.00    -0.014 A 
ATOM     70  C   UNL A   1      50.502  26.513  28.092  1.00  0.00     0.009 A 
ATOM     71  C   UNL A   1      49.740  26.239  25.850  1.00  0.00     0.009 A 
ATOM     72  C   UNL A   1      51.819  26.287  27.633  1.00  0.00     0.001 A 
ATOM     73  C   UNL A   1      51.033  25.964  25.397  1.00  0.00     0.001 A 
ATOM     74  C   UNL A   1      52.078  25.970  26.300  1.00  0.00     0.000 A 
ENDBRANCH  50  69
BRANCH  62  75
ATOM     75  C   UNL A   1      44.557  28.359  30.395  1.00  0.00    -0.014 A 
ATOM     76  C   UNL A   1      44.992  28.921  31.605  1.00  0.00     0.009 A 
ATOM     77  C   UNL A   1      44.102  27.027  30.444  1.00  0.00     0.009 A 
ATOM     78  C   UNL A   1      44.997  28.182  32.797  1.00  0.00     0.001 A 
ATOM     79  C   UNL A   1      44.104  26.282  31.635  1.00  0.00     0.001 A 
ATOM     80  C   UNL A   1      44.557  26.862  32.813  1.00  0.00     0.000 A 
ENDBRANCH  62  75
ENDBRANCH  36  37
ENDBRANCH  28  31
ENDBRANCH  26  27
ENDBRANCH  25  26
ENDBRANCH  24  25
ENDBRANCH   1  24
TORSDOF 16
ENDMDL
MODEL 3
REMARK VINA RESULT:     -10.5      3.178      7.873
REMARK SMILES C[C@@H]1CCC[C@H](C)N1C(=O)Cn1cccc1C(=O)NCCCCCCNC(=O)c1ccc(-c2c3nc(c(-c4ccccc4)c4ccc([nH]4)c(-c4ccccc4)c4nc(c(-c5ccccc5)c5ccc2[nH]5)C=C4)C=C3)cc1
REMARK SMILES IDX 22 1 21 2 20 3 19 4 17 5 18 6 16 8 12 9 13 10 14 11 15 12
REMARK SMILES IDX 11 13 9 14 10 15 8 16 1 17 2 18 3 19 4 20 6 21 5 22 7 23
REMARK SMILES IDX 23 24 24 25 25 26 26 27 27 28 28 30 29 31 30 32 76 33 31 34
REMARK SMILES IDX 75 35 32 36 33 37 34 38 69 39 35 40 74 41 68 42 70 43 36 44
REMARK SMILES IDX 73 45 67 46 66 47 37 49 59 50 44 51 58 52 45 53 48 54 57 55
REMARK SMILES IDX 71 56 46 57 47 58 56 60 72 61 49 62 38 63 39 64 43 65 40 66
REMARK SMILES IDX 42 67 41 68 60 69 61 70 65 71 62 72 64 73 63 74 50 75 51 76
REMARK SMILES IDX 55 77 52 78 54 79 53 80
REMARK H PARENT 19 7 26 29 70 48 48 59
REMARK Flexibility Score: inf
ROOT
ATOM      1  C   UNL A   1      35.604  30.930  27.997  1.00  0.00     0.002 C 
ENDROOT
BRANCH   1   2
ATOM      2  C   UNL A   1      35.340  29.444  27.749  1.00  0.00     0.021 C 
BRANCH   2   3
ATOM      3  C   UNL A   1      34.416  28.967  26.613  1.00  0.00     0.116 C 
BRANCH   3   4
ATOM      4  N   UNL A   1      33.092  28.520  27.035  1.00  0.00    -0.351 N 
ATOM      5  C   UNL A   1      32.054  27.745  26.578  1.00  0.00     0.267 C 
ATOM      6  O   UNL A   1      31.283  27.444  27.501  1.00  0.00    -0.268 OA
ATOM      7  H   UNL A   1      32.876  28.888  27.922  1.00  0.00     0.163 HD
BRANCH   5   8
ATOM      8  C   UNL A   1      31.778  27.230  25.235  1.00  0.00     0.107 A 
ATOM      9  N   UNL A   1      32.449  26.438  24.316  1.00  0.00    -0.334 N 
ATOM     10  C   UNL A   1      31.633  26.214  23.208  1.00  0.00     0.087 A 
ATOM     11  C   UNL A   1      30.589  27.096  23.251  1.00  0.00     0.020 A 
ATOM     12  C   UNL A   1      30.688  27.734  24.499  1.00  0.00     0.033 A 
BRANCH   9  13
ATOM     13  C   UNL A   1      33.822  25.949  24.242  1.00  0.00     0.222 C 
BRANCH  13  14
ATOM     14  C   UNL A   1      34.087  24.517  23.852  1.00  0.00     0.242 C 
ATOM     15  O   UNL A   1      34.448  24.286  22.693  1.00  0.00    -0.273 OA
BRANCH  14  16
ATOM     16  N   UNL A   1      34.158  23.549  24.855  1.00  0.00    -0.336 N 
ATOM     17  C   UNL A   1      32.799  21.763  23.859  1.00  0.00     0.031 C 
ATOM     18  C   UNL A   1      34.179  22.163  24.391  1.00  0.00     0.082 C 
ATOM     19  C   UNL A   1      34.759  21.201  25.431  1.00  0.00     0.025 C 
ATOM     20  C   UNL A   1      34.254  21.427  26.852  1.00  0.00     0.004 C 
ATOM     21  C   UNL A   1      33.711  23.801  26.251  1.00  0.00     0.082 C 
ATOM     22  C   UNL A   1      34.436  22.882  27.236  1.00  0.00     0.025 C 
ATOM     23  C   UNL A   1      32.201  23.815  26.502  1.00  0.00     0.031 C 
ENDBRANCH  14  16
ENDBRANCH  13  14
ENDBRANCH   9  13
ENDBRANCH   5   8
ENDBRANCH   3   4
ENDBRANCH   2   3
ENDBRANCH   1   2
BRANCH   1  24
ATOM     24  C   UNL A   1      34.345  31.760  28.210  1.00  0.00     0.002 C 
BRANCH  24  25
ATOM     25  C   UNL A   1      34.390  32.726  29.410  1.00  0.00     0.021 C 
BRANCH  25  26
ATOM     26  C   UNL A   1      35.683  33.536  29.551  1.00  0.00     0.116 C 
BRANCH  26  27
ATOM     27  N   UNL A   1      35.998  33.739  30.955  1.00  0.00    -0.352 N 
ATOM     28  C   UNL A   1      36.695  32.925  31.808  1.00  0.00     0.251 C 
ATOM     29  H   UNL A   1      35.664  34.577  31.348  1.00  0.00     0.163 HD
ATOM     30  O   UNL A   1      36.509  32.989  33.009  1.00  0.00    -0.269 OA
BRANCH  28  31
ATOM     31  C   UNL A   1      37.723  32.018  31.274  1.00  0.00     0.039 A 
ATOM     32  C   UNL A   1      38.333  31.115  32.152  1.00  0.00     0.014 A 
ATOM     33  C   UNL A   1      38.183  32.185  29.962  1.00  0.00     0.014 A 
ATOM     34  C   UNL A   1      39.405  30.359  31.705  1.00  0.00     0.010 A 
ATOM     35  C   UNL A   1      39.248  31.430  29.511  1.00  0.00     0.010 A 
ATOM     36  C   UNL A   1      39.850  30.522  30.386  1.00  0.00    -0.014 A 
BRANCH  36  37
ATOM     37  C   UNL A   1      40.894  29.622  29.877  1.00  0.00     0.031 A 
ATOM     38  C   UNL A   1      42.250  30.359  29.779  1.00  0.00     0.074 A 
ATOM     39  C   UNL A   1      40.462  28.359  29.575  1.00  0.00     0.049 A 
ATOM     40  N   UNL A   1      43.290  30.108  29.047  1.00  0.00    -0.248 NA
ATOM     41  C   UNL A   1      42.470  31.596  30.589  1.00  0.00     0.031 C 
ATOM     42  C   UNL A   1      39.082  27.852  29.804  1.00  0.00     0.029 A 
ATOM     43  N   UNL A   1      41.054  27.249  29.018  1.00  0.00    -0.354 N 
ATOM     44  C   UNL A   1      44.312  31.024  29.398  1.00  0.00     0.074 A 
ATOM     45  C   UNL A   1      43.724  31.960  30.305  1.00  0.00     0.031 C 
ATOM     46  C   UNL A   1      38.930  26.605  29.307  1.00  0.00     0.029 A 
ATOM     47  C   UNL A   1      40.175  26.178  28.706  1.00  0.00     0.049 A 
ATOM     48  H   UNL A   1      42.022  27.200  28.848  1.00  0.00     0.167 HD
ATOM     49  C   UNL A   1      45.609  30.889  28.990  1.00  0.00     0.031 A 
ATOM     50  C   UNL A   1      40.422  25.067  27.947  1.00  0.00     0.031 A 
ATOM     51  C   UNL A   1      45.717  29.812  28.068  1.00  0.00     0.049 A 
ATOM     52  C   UNL A   1      41.846  25.156  27.594  1.00  0.00     0.074 A 
ATOM     53  C   UNL A   1      45.355  29.693  26.752  1.00  0.00     0.029 A 
ATOM     54  N   UNL A   1      45.901  28.561  28.601  1.00  0.00    -0.354 N 
ATOM     55  N   UNL A   1      42.828  24.973  28.419  1.00  0.00    -0.248 NA
ATOM     56  C   UNL A   1      42.207  25.620  26.250  1.00  0.00     0.031 C 
ATOM     57  C   UNL A   1      44.805  28.394  26.697  1.00  0.00     0.029 A 
ATOM     58  C   UNL A   1      45.092  27.711  27.885  1.00  0.00     0.049 A 
ATOM     59  H   UNL A   1      46.494  28.319  29.348  1.00  0.00     0.167 HD
ATOM     60  C   UNL A   1      43.849  25.670  27.822  1.00  0.00     0.074 A 
ATOM     61  C   UNL A   1      43.519  25.760  26.415  1.00  0.00     0.031 C 
ATOM     62  C   UNL A   1      44.609  26.528  28.551  1.00  0.00     0.031 A 
BRANCH  49  63
ATOM     63  C   UNL A   1      46.895  31.504  29.469  1.00  0.00    -0.014 A 
ATOM     64  C   UNL A   1      47.910  31.721  28.502  1.00  0.00     0.009 A 
ATOM     65  C   UNL A   1      47.274  31.549  30.812  1.00  0.00     0.009 A 
ATOM     66  C   UNL A   1      49.256  31.832  28.852  1.00  0.00     0.001 A 
ATOM     67  C   UNL A   1      48.625  31.698  31.167  1.00  0.00     0.001 A 
ATOM     68  C   UNL A   1      49.616  31.797  30.190  1.00  0.00     0.000 A 
ENDBRANCH  49  63
BRANCH  50  69
ATOM     69  C   UNL A   1      39.635  23.965  27.283  1.00  0.00    -0.014 A 
ATOM     70  C   UNL A   1      38.448  24.117  26.563  1.00  0.00     0.009 A 
ATOM     71  C   UNL A   1      40.179  22.650  27.292  1.00  0.00     0.009 A 
ATOM     72  C   UNL A   1      37.915  23.050  25.804  1.00  0.00     0.001 A 
ATOM     73  C   UNL A   1      39.687  21.605  26.505  1.00  0.00     0.001 A 
ATOM     74  C   UNL A   1      38.557  21.814  25.741  1.00  0.00     0.000 A 
ENDBRANCH  50  69
BRANCH  62  75
ATOM     75  C   UNL A   1      44.532  26.340  30.063  1.00  0.00    -0.014 A 
ATOM     76  C   UNL A   1      45.088  25.196  30.656  1.00  0.00     0.009 A 
ATOM     77  C   UNL A   1      43.816  27.206  30.911  1.00  0.00     0.009 A 
ATOM     78  C   UNL A   1      44.914  24.919  32.020  1.00  0.00     0.001 A 
ATOM     79  C   UNL A   1      43.639  26.935  32.278  1.00  0.00     0.001 A 
ATOM     80  C   UNL A   1      44.187  25.785  32.831  1.00  0.00     0.000 A 
ENDBRANCH  62  75
ENDBRANCH  36  37
ENDBRANCH  28  31
ENDBRANCH  26  27
ENDBRANCH  25  26
ENDBRANCH  24  25
ENDBRANCH   1  24
TORSDOF 16
ENDMDL
