MODEL 1
REMARK VINA RESULT:     -11.6      0.000      0.000
REMARK SMILES CC(C)[C@H]1CC[C@@H](C)/C(=C/c2ccc(NC(=O)CCC(=O)NCCCCCCNC(=O)c3ccc(-c4c5nc(c(-c6ccccc6)c6ccc([nH]6)c(-c6ccccc6)c6nc(c(-c7ccccc7)c7ccc4[nH]7)C=C6)C=C5)cc3)cc2)C1=O
REMARK SMILES IDX 24 1 23 2 22 3 20 4 21 5 19 7 18 8 16 9 15 10 17 12 14 13
REMARK SMILES IDX 11 14 12 15 81 16 13 17 80 18 10 19 4 20 5 21 82 22 6 23
REMARK SMILES IDX 9 24 83 25 7 26 8 27 2 28 1 29 3 30 25 31 26 32 27 33 28 34
REMARK SMILES IDX 29 35 30 36 31 38 32 39 33 40 79 41 34 42 78 43 35 44 36 45
REMARK SMILES IDX 37 46 72 47 38 48 77 49 71 50 73 51 39 52 76 53 70 54 69 55
REMARK SMILES IDX 40 57 62 58 47 59 61 60 48 61 51 62 60 63 74 64 49 65 50 66
REMARK SMILES IDX 59 68 75 69 52 70 41 71 42 72 46 73 43 74 45 75 44 76 63 77
REMARK SMILES IDX 64 78 68 79 65 80 67 81 66 82 53 83 54 84 58 85 55 86 57 87
REMARK SMILES IDX 56 88
REMARK H PARENT 22 6 15 11 29 37 73 56 51 67
REMARK Flexibility Score: inf
ROOT
ATOM      1  C   UNL A   1      33.060  29.158  23.109  1.00  0.00     0.021 C 
ENDROOT
BRANCH   1   2
ATOM      2  C   UNL A   1      31.757  28.756  22.424  1.00  0.00     0.116 C 
BRANCH   2   3
ATOM      3  N   UNL A   1      30.966  29.895  22.002  1.00  0.00    -0.356 N 
ATOM      4  C   UNL A   1      29.617  30.077  22.024  1.00  0.00     0.220 C 
ATOM      5  O   UNL A   1      29.164  31.185  21.731  1.00  0.00    -0.275 OA
ATOM      6  H   UNL A   1      31.482  30.652  21.643  1.00  0.00     0.163 HD
BRANCH   4   7
ATOM      7  C   UNL A   1      28.701  28.947  22.435  1.00  0.00     0.110 C 
BRANCH   7   8
ATOM      8  C   UNL A   1      29.163  28.090  23.608  1.00  0.00     0.110 C 
BRANCH   8   9
ATOM      9  C   UNL A   1      28.369  26.830  23.876  1.00  0.00     0.224 C 
ATOM     10  N   UNL A   1      28.954  25.602  23.995  1.00  0.00    -0.326 N 
ATOM     11  H   UNL A   1      28.333  24.838  24.011  1.00  0.00     0.169 HD
ATOM     12  O   UNL A   1      27.151  26.905  24.074  1.00  0.00    -0.275 OA
BRANCH  10  13
ATOM     13  C   UNL A   1      30.311  25.277  24.095  1.00  0.00     0.041 A 
ATOM     14  C   UNL A   1      33.043  24.870  24.530  1.00  0.00    -0.025 A 
ATOM     15  C   UNL A   1      32.561  25.129  23.244  1.00  0.00     0.010 A 
ATOM     16  C   UNL A   1      32.144  24.809  25.598  1.00  0.00     0.010 A 
ATOM     17  C   UNL A   1      31.198  25.332  23.027  1.00  0.00     0.027 A 
ATOM     18  C   UNL A   1      30.779  24.931  25.364  1.00  0.00     0.027 A 
BRANCH  14  19
ATOM     19  C   UNL A   1      34.470  24.597  24.698  1.00  0.00     0.015 C 
ATOM     20  C   UNL A   1      34.522  20.961  25.008  1.00  0.00     0.063 C 
ATOM     21  C   UNL A   1      36.036  20.704  25.067  1.00  0.00     0.013 C 
ATOM     22  C   UNL A   1      34.256  22.178  24.122  1.00  0.00     0.162 C 
ATOM     23  C   UNL A   1      36.814  21.963  25.466  1.00  0.00     0.009 C 
ATOM     24  C   UNL A   1      35.049  23.404  24.475  1.00  0.00    -0.001 C 
ATOM     25  O   UNL A   1      33.443  22.187  23.204  1.00  0.00    -0.294 OA
ATOM     26  C   UNL A   1      36.532  23.158  24.544  1.00  0.00     0.020 C 
ATOM     27  C   UNL A   1      37.084  22.955  23.126  1.00  0.00     0.013 C 
BRANCH  20  28
ATOM     28  C   UNL A   1      33.676  19.735  24.583  1.00  0.00    -0.007 C 
ATOM     29  C   UNL A   1      34.452  18.414  24.586  1.00  0.00     0.008 C 
ATOM     30  C   UNL A   1      32.422  19.590  25.453  1.00  0.00     0.008 C 
ENDBRANCH  20  28
ENDBRANCH  14  19
ENDBRANCH  10  13
ENDBRANCH   8   9
ENDBRANCH   7   8
ENDBRANCH   4   7
ENDBRANCH   2   3
ENDBRANCH   1   2
BRANCH   1  31
ATOM     31  C   UNL A   1      33.287  28.541  24.492  1.00  0.00     0.002 C 
BRANCH  31  32
ATOM     32  C   UNL A   1      32.142  28.753  25.479  1.00  0.00     0.002 C 
BRANCH  32  33
ATOM     33  C   UNL A   1      32.478  28.397  26.927  1.00  0.00     0.021 C 
BRANCH  33  34
ATOM     34  C   UNL A   1      33.879  28.800  27.371  1.00  0.00     0.116 C 
BRANCH  34  35
ATOM     35  N   UNL A   1      33.900  30.109  28.002  1.00  0.00    -0.352 N 
ATOM     36  C   UNL A   1      34.918  30.704  28.704  1.00  0.00     0.251 C 
ATOM     37  H   UNL A   1      33.074  30.639  27.915  1.00  0.00     0.163 HD
ATOM     38  O   UNL A   1      34.729  31.726  29.346  1.00  0.00    -0.269 OA
BRANCH  36  39
ATOM     39  C   UNL A   1      36.249  30.067  28.687  1.00  0.00     0.039 A 
ATOM     40  C   UNL A   1      37.031  30.172  27.538  1.00  0.00     0.014 A 
ATOM     41  C   UNL A   1      36.730  29.406  29.822  1.00  0.00     0.014 A 
ATOM     42  C   UNL A   1      38.321  29.646  27.542  1.00  0.00     0.010 A 
ATOM     43  C   UNL A   1      38.045  28.957  29.851  1.00  0.00     0.010 A 
ATOM     44  C   UNL A   1      38.849  29.060  28.707  1.00  0.00    -0.014 A 
BRANCH  44  45
ATOM     45  C   UNL A   1      40.242  28.554  28.721  1.00  0.00     0.031 A 
ATOM     46  C   UNL A   1      40.536  27.122  28.371  1.00  0.00     0.074 A 
ATOM     47  C   UNL A   1      41.242  29.391  29.056  1.00  0.00     0.049 A 
ATOM     48  N   UNL A   1      41.695  26.527  28.246  1.00  0.00    -0.248 NA
ATOM     49  C   UNL A   1      39.381  26.236  28.151  1.00  0.00     0.031 C 
ATOM     50  C   UNL A   1      41.076  30.786  29.474  1.00  0.00     0.029 A 
ATOM     51  N   UNL A   1      42.599  29.197  29.081  1.00  0.00    -0.354 N 
ATOM     52  C   UNL A   1      41.408  25.203  27.937  1.00  0.00     0.074 A 
ATOM     53  C   UNL A   1      39.969  25.066  27.958  1.00  0.00     0.031 C 
ATOM     54  C   UNL A   1      42.286  31.337  29.658  1.00  0.00     0.029 A 
ATOM     55  C   UNL A   1      43.310  30.328  29.406  1.00  0.00     0.049 A 
ATOM     56  H   UNL A   1      43.024  28.331  28.885  1.00  0.00     0.167 HD
ATOM     57  C   UNL A   1      42.264  24.199  27.635  1.00  0.00     0.031 A 
ATOM     58  C   UNL A   1      44.638  30.531  29.480  1.00  0.00     0.031 A 
ATOM     59  C   UNL A   1      43.696  24.338  27.622  1.00  0.00     0.049 A 
ATOM     60  C   UNL A   1      45.566  29.398  29.145  1.00  0.00     0.074 A 
ATOM     61  C   UNL A   1      44.652  23.397  27.284  1.00  0.00     0.029 A 
ATOM     62  N   UNL A   1      44.377  25.494  27.972  1.00  0.00    -0.354 N 
ATOM     63  N   UNL A   1      45.278  28.175  28.766  1.00  0.00    -0.248 NA
ATOM     64  C   UNL A   1      47.004  29.681  29.229  1.00  0.00     0.031 C 
ATOM     65  C   UNL A   1      45.914  23.965  27.489  1.00  0.00     0.029 A 
ATOM     66  C   UNL A   1      45.744  25.281  27.886  1.00  0.00     0.049 A 
ATOM     67  H   UNL A   1      43.953  26.340  28.242  1.00  0.00     0.167 HD
ATOM     68  C   UNL A   1      46.499  27.551  28.544  1.00  0.00     0.074 A 
ATOM     69  C   UNL A   1      47.525  28.542  28.799  1.00  0.00     0.031 C 
ATOM     70  C   UNL A   1      46.751  26.273  28.163  1.00  0.00     0.031 A 
BRANCH  57  71
ATOM     71  C   UNL A   1      41.666  22.857  27.305  1.00  0.00    -0.014 A 
ATOM     72  C   UNL A   1      41.099  22.601  26.045  1.00  0.00     0.009 A 
ATOM     73  C   UNL A   1      41.694  21.825  28.255  1.00  0.00     0.009 A 
ATOM     74  C   UNL A   1      40.535  21.355  25.761  1.00  0.00     0.001 A 
ATOM     75  C   UNL A   1      41.160  20.569  27.957  1.00  0.00     0.001 A 
ATOM     76  C   UNL A   1      40.573  20.339  26.714  1.00  0.00     0.000 A 
ENDBRANCH  57  71
BRANCH  58  77
ATOM     77  C   UNL A   1      45.170  31.867  29.859  1.00  0.00    -0.014 A 
ATOM     78  C   UNL A   1      45.305  32.883  28.900  1.00  0.00     0.009 A 
ATOM     79  C   UNL A   1      45.557  32.131  31.182  1.00  0.00     0.009 A 
ATOM     80  C   UNL A   1      45.847  34.123  29.250  1.00  0.00     0.001 A 
ATOM     81  C   UNL A   1      46.068  33.381  31.537  1.00  0.00     0.001 A 
ATOM     82  C   UNL A   1      46.224  34.371  30.569  1.00  0.00     0.000 A 
ENDBRANCH  58  77
BRANCH  70  83
ATOM     83  C   UNL A   1      48.194  25.893  27.979  1.00  0.00    -0.014 A 
ATOM     84  C   UNL A   1      48.992  25.498  29.066  1.00  0.00     0.009 A 
ATOM     85  C   UNL A   1      48.764  25.929  26.697  1.00  0.00     0.009 A 
ATOM     86  C   UNL A   1      50.343  25.203  28.880  1.00  0.00     0.001 A 
ATOM     87  C   UNL A   1      50.107  25.596  26.509  1.00  0.00     0.001 A 
ATOM     88  C   UNL A   1      50.899  25.251  27.602  1.00  0.00     0.000 A 
ENDBRANCH  70  83
ENDBRANCH  44  45
ENDBRANCH  36  39
ENDBRANCH  34  35
ENDBRANCH  33  34
ENDBRANCH  32  33
ENDBRANCH  31  32
ENDBRANCH   1  31
TORSDOF 18
ENDMDL
MODEL 2
REMARK VINA RESULT:     -11.0      4.051      7.632
REMARK SMILES CC(C)[C@H]1CC[C@@H](C)/C(=C/c2ccc(NC(=O)CCC(=O)NCCCCCCNC(=O)c3ccc(-c4c5nc(c(-c6ccccc6)c6ccc([nH]6)c(-c6ccccc6)c6nc(c(-c7ccccc7)c7ccc4[nH]7)C=C6)C=C5)cc3)cc2)C1=O
REMARK SMILES IDX 24 1 23 2 22 3 20 4 21 5 19 7 18 8 16 9 15 10 17 12 14 13
REMARK SMILES IDX 11 14 12 15 81 16 13 17 80 18 10 19 4 20 5 21 82 22 6 23
REMARK SMILES IDX 9 24 83 25 7 26 8 27 2 28 1 29 3 30 25 31 26 32 27 33 28 34
REMARK SMILES IDX 29 35 30 36 31 38 32 39 33 40 79 41 34 42 78 43 35 44 36 45
REMARK SMILES IDX 37 46 72 47 38 48 77 49 71 50 73 51 39 52 76 53 70 54 69 55
REMARK SMILES IDX 40 57 62 58 47 59 61 60 48 61 51 62 60 63 74 64 49 65 50 66
REMARK SMILES IDX 59 68 75 69 52 70 41 71 42 72 46 73 43 74 45 75 44 76 63 77
REMARK SMILES IDX 64 78 68 79 65 80 67 81 66 82 53 83 54 84 58 85 55 86 57 87
REMARK SMILES IDX 56 88
REMARK H PARENT 22 6 15 11 29 37 73 56 51 67
REMARK Flexibility Score: inf
ROOT
ATOM      1  C   UNL A   1      33.721  29.336  26.635  1.00  0.00     0.021 C 
ENDROOT
BRANCH   1   2
ATOM      2  C   UNL A   1      33.548  28.232  25.595  1.00  0.00     0.116 C 
BRANCH   2   3
ATOM      3  N   UNL A   1      34.364  28.437  24.415  1.00  0.00    -0.356 N 
ATOM      4  C   UNL A   1      34.017  28.414  23.098  1.00  0.00     0.220 C 
ATOM      5  O   UNL A   1      34.856  28.743  22.259  1.00  0.00    -0.275 OA
ATOM      6  H   UNL A   1      35.315  28.620  24.591  1.00  0.00     0.163 HD
BRANCH   4   7
ATOM      7  C   UNL A   1      32.616  28.023  22.686  1.00  0.00     0.110 C 
BRANCH   7   8
ATOM      8  C   UNL A   1      31.519  29.048  22.951  1.00  0.00     0.110 C 
BRANCH   8   9
ATOM      9  C   UNL A   1      30.118  28.661  22.526  1.00  0.00     0.224 C 
ATOM     10  N   UNL A   1      29.587  27.429  22.776  1.00  0.00    -0.326 N 
ATOM     11  H   UNL A   1      28.735  27.235  22.320  1.00  0.00     0.169 HD
ATOM     12  O   UNL A   1      29.385  29.504  21.998  1.00  0.00    -0.275 OA
BRANCH  10  13
ATOM     13  C   UNL A   1      30.082  26.402  23.586  1.00  0.00     0.041 A 
ATOM     14  C   UNL A   1      30.850  24.148  25.051  1.00  0.00    -0.025 A 
ATOM     15  C   UNL A   1      30.445  25.314  25.706  1.00  0.00     0.010 A 
ATOM     16  C   UNL A   1      30.877  24.121  23.655  1.00  0.00     0.010 A 
ATOM     17  C   UNL A   1      30.061  26.438  24.976  1.00  0.00     0.027 A 
ATOM     18  C   UNL A   1      30.571  25.270  22.933  1.00  0.00     0.027 A 
BRANCH  14  19
ATOM     19  C   UNL A   1      31.308  23.018  25.860  1.00  0.00     0.015 C 
ATOM     20  C   UNL A   1      34.779  22.668  24.790  1.00  0.00     0.063 C 
ATOM     21  C   UNL A   1      35.256  21.553  25.735  1.00  0.00     0.013 C 
ATOM     22  C   UNL A   1      33.728  23.515  25.506  1.00  0.00     0.162 C 
ATOM     23  C   UNL A   1      34.083  20.756  26.314  1.00  0.00     0.009 C 
ATOM     24  C   UNL A   1      32.598  22.738  26.118  1.00  0.00    -0.001 C 
ATOM     25  O   UNL A   1      33.767  24.739  25.567  1.00  0.00    -0.294 OA
ATOM     26  C   UNL A   1      33.056  21.640  27.038  1.00  0.00     0.020 C 
ATOM     27  C   UNL A   1      33.612  22.253  28.332  1.00  0.00     0.013 C 
BRANCH  20  28
ATOM     28  C   UNL A   1      35.915  23.533  24.189  1.00  0.00    -0.007 C 
ATOM     29  C   UNL A   1      37.063  23.814  25.164  1.00  0.00     0.008 C 
ATOM     30  C   UNL A   1      36.478  22.909  22.907  1.00  0.00     0.008 C 
ENDBRANCH  20  28
ENDBRANCH  14  19
ENDBRANCH  10  13
ENDBRANCH   8   9
ENDBRANCH   7   8
ENDBRANCH   4   7
ENDBRANCH   2   3
ENDBRANCH   1   2
BRANCH   1  31
ATOM     31  C   UNL A   1      32.417  29.909  27.199  1.00  0.00     0.002 C 
BRANCH  31  32
ATOM     32  C   UNL A   1      31.583  30.701  26.195  1.00  0.00     0.002 C 
BRANCH  32  33
ATOM     33  C   UNL A   1      31.388  32.174  26.553  1.00  0.00     0.021 C 
BRANCH  33  34
ATOM     34  C   UNL A   1      32.572  32.814  27.269  1.00  0.00     0.116 C 
BRANCH  34  35
ATOM     35  N   UNL A   1      32.306  34.192  27.646  1.00  0.00    -0.352 N 
ATOM     36  C   UNL A   1      32.946  34.961  28.585  1.00  0.00     0.251 C 
ATOM     37  H   UNL A   1      31.568  34.632  27.164  1.00  0.00     0.163 HD
ATOM     38  O   UNL A   1      32.491  36.039  28.935  1.00  0.00    -0.269 OA
BRANCH  36  39
ATOM     39  C   UNL A   1      34.192  34.445  29.185  1.00  0.00     0.039 A 
ATOM     40  C   UNL A   1      34.119  33.735  30.381  1.00  0.00     0.014 A 
ATOM     41  C   UNL A   1      35.418  34.634  28.538  1.00  0.00     0.014 A 
ATOM     42  C   UNL A   1      35.279  33.173  30.911  1.00  0.00     0.010 A 
ATOM     43  C   UNL A   1      36.557  34.003  29.024  1.00  0.00     0.010 A 
ATOM     44  C   UNL A   1      36.501  33.278  30.223  1.00  0.00    -0.014 A 
BRANCH  44  45
ATOM     45  C   UNL A   1      37.719  32.629  30.764  1.00  0.00     0.031 A 
ATOM     46  C   UNL A   1      38.349  33.131  32.033  1.00  0.00     0.074 A 
ATOM     47  C   UNL A   1      38.258  31.588  30.103  1.00  0.00     0.049 A 
ATOM     48  N   UNL A   1      39.362  32.638  32.700  1.00  0.00    -0.248 NA
ATOM     49  C   UNL A   1      37.786  34.357  32.621  1.00  0.00     0.031 C 
ATOM     50  C   UNL A   1      37.772  31.049  28.829  1.00  0.00     0.029 A 
ATOM     51  N   UNL A   1      39.322  30.783  30.418  1.00  0.00    -0.354 N 
ATOM     52  C   UNL A   1      39.555  33.491  33.779  1.00  0.00     0.074 A 
ATOM     53  C   UNL A   1      38.600  34.568  33.643  1.00  0.00     0.031 C 
ATOM     54  C   UNL A   1      38.500  29.970  28.503  1.00  0.00     0.029 A 
ATOM     55  C   UNL A   1      39.523  29.761  29.522  1.00  0.00     0.049 A 
ATOM     56  H   UNL A   1      39.889  30.924  31.212  1.00  0.00     0.167 HD
ATOM     57  C   UNL A   1      40.429  33.374  34.806  1.00  0.00     0.031 A 
ATOM     58  C   UNL A   1      40.423  28.761  29.528  1.00  0.00     0.031 A 
ATOM     59  C   UNL A   1      41.382  32.304  34.934  1.00  0.00     0.049 A 
ATOM     60  C   UNL A   1      41.386  28.657  30.677  1.00  0.00     0.074 A 
ATOM     61  C   UNL A   1      42.280  32.065  35.959  1.00  0.00     0.029 A 
ATOM     62  N   UNL A   1      41.565  31.297  33.998  1.00  0.00    -0.354 N 
ATOM     63  N   UNL A   1      41.496  29.421  31.738  1.00  0.00    -0.248 NA
ATOM     64  C   UNL A   1      42.336  27.538  30.638  1.00  0.00     0.031 C 
ATOM     65  C   UNL A   1      43.049  30.948  35.613  1.00  0.00     0.029 A 
ATOM     66  C   UNL A   1      42.583  30.451  34.407  1.00  0.00     0.049 A 
ATOM     67  H   UNL A   1      41.049  31.199  33.165  1.00  0.00     0.167 HD
ATOM     68  C   UNL A   1      42.510  28.861  32.504  1.00  0.00     0.074 A 
ATOM     69  C   UNL A   1      42.958  27.676  31.799  1.00  0.00     0.031 C 
ATOM     70  C   UNL A   1      43.028  29.288  33.683  1.00  0.00     0.031 A 
BRANCH  57  71
ATOM     71  C   UNL A   1      40.396  34.442  35.867  1.00  0.00    -0.014 A 
ATOM     72  C   UNL A   1      39.576  34.319  37.001  1.00  0.00     0.009 A 
ATOM     73  C   UNL A   1      41.215  35.574  35.746  1.00  0.00     0.009 A 
ATOM     74  C   UNL A   1      39.547  35.326  37.969  1.00  0.00     0.001 A 
ATOM     75  C   UNL A   1      41.210  36.564  36.732  1.00  0.00     0.001 A 
ATOM     76  C   UNL A   1      40.368  36.444  37.836  1.00  0.00     0.000 A 
ENDBRANCH  57  71
BRANCH  58  77
ATOM     77  C   UNL A   1      40.439  27.762  28.427  1.00  0.00    -0.014 A 
ATOM     78  C   UNL A   1      41.171  28.001  27.254  1.00  0.00     0.009 A 
ATOM     79  C   UNL A   1      39.711  26.567  28.538  1.00  0.00     0.009 A 
ATOM     80  C   UNL A   1      41.148  27.080  26.202  1.00  0.00     0.001 A 
ATOM     81  C   UNL A   1      39.715  25.633  27.499  1.00  0.00     0.001 A 
ATOM     82  C   UNL A   1      40.423  25.896  26.328  1.00  0.00     0.000 A 
ENDBRANCH  58  77
BRANCH  70  83
ATOM     83  C   UNL A   1      44.118  28.446  34.289  1.00  0.00    -0.014 A 
ATOM     84  C   UNL A   1      43.824  27.372  35.145  1.00  0.00     0.009 A 
ATOM     85  C   UNL A   1      45.460  28.734  33.998  1.00  0.00     0.009 A 
ATOM     86  C   UNL A   1      44.853  26.641  35.740  1.00  0.00     0.001 A 
ATOM     87  C   UNL A   1      46.486  27.976  34.564  1.00  0.00     0.001 A 
ATOM     88  C   UNL A   1      46.183  26.942  35.447  1.00  0.00     0.000 A 
ENDBRANCH  70  83
ENDBRANCH  44  45
ENDBRANCH  36  39
ENDBRANCH  34  35
ENDBRANCH  33  34
ENDBRANCH  32  33
ENDBRANCH  31  32
ENDBRANCH   1  31
TORSDOF 18
ENDMDL
MODEL 3
REMARK VINA RESULT:     -11.0      5.562      8.442
REMARK SMILES CC(C)[C@H]1CC[C@@H](C)/C(=C/c2ccc(NC(=O)CCC(=O)NCCCCCCNC(=O)c3ccc(-c4c5nc(c(-c6ccccc6)c6ccc([nH]6)c(-c6ccccc6)c6nc(c(-c7ccccc7)c7ccc4[nH]7)C=C6)C=C5)cc3)cc2)C1=O
REMARK SMILES IDX 24 1 23 2 22 3 20 4 21 5 19 7 18 8 16 9 15 10 17 12 14 13
REMARK SMILES IDX 11 14 12 15 81 16 13 17 80 18 10 19 4 20 5 21 82 22 6 23
REMARK SMILES IDX 9 24 83 25 7 26 8 27 2 28 1 29 3 30 25 31 26 32 27 33 28 34
REMARK SMILES IDX 29 35 30 36 31 38 32 39 33 40 79 41 34 42 78 43 35 44 36 45
REMARK SMILES IDX 37 46 72 47 38 48 77 49 71 50 73 51 39 52 76 53 70 54 69 55
REMARK SMILES IDX 40 57 62 58 47 59 61 60 48 61 51 62 60 63 74 64 49 65 50 66
REMARK SMILES IDX 59 68 75 69 52 70 41 71 42 72 46 73 43 74 45 75 44 76 63 77
REMARK SMILES IDX 64 78 68 79 65 80 67 81 66 82 53 83 54 84 58 85 55 86 57 87
REMARK SMILES IDX 56 88
REMARK H PARENT 22 6 15 11 29 37 73 56 51 67
REMARK Flexibility Score: inf
ROOT
ATOM      1  C   UNL A   1      34.519  34.041  30.380  1.00  0.00     0.021 C 
ENDROOT
BRANCH   1   2
ATOM      2  C   UNL A   1      35.335  33.895  29.099  1.00  0.00     0.116 C 
BRANCH   2   3
ATOM      3  N   UNL A   1      36.612  34.578  29.163  1.00  0.00    -0.356 N 
ATOM      4  C   UNL A   1      37.817  34.134  29.616  1.00  0.00     0.220 C 
ATOM      5  O   UNL A   1      38.808  34.849  29.458  1.00  0.00    -0.275 OA
ATOM      6  H   UNL A   1      36.608  35.504  28.828  1.00  0.00     0.163 HD
BRANCH   4   7
ATOM      7  C   UNL A   1      37.933  32.776  30.269  1.00  0.00     0.110 C 
BRANCH   7   8
ATOM      8  C   UNL A   1      38.549  31.667  29.425  1.00  0.00     0.110 C 
BRANCH   8   9
ATOM      9  C   UNL A   1      37.642  30.509  29.067  1.00  0.00     0.224 C 
ATOM     10  N   UNL A   1      38.119  29.309  28.625  1.00  0.00    -0.326 N 
ATOM     11  H   UNL A   1      37.441  28.687  28.274  1.00  0.00     0.169 HD
ATOM     12  O   UNL A   1      36.423  30.609  29.247  1.00  0.00    -0.275 OA
BRANCH  10  13
ATOM     13  C   UNL A   1      39.436  28.839  28.599  1.00  0.00     0.041 A 
ATOM     14  C   UNL A   1      41.988  27.749  28.255  1.00  0.00    -0.025 A 
ATOM     15  C   UNL A   1      41.268  27.509  29.428  1.00  0.00     0.010 A 
ATOM     16  C   UNL A   1      41.424  28.547  27.256  1.00  0.00     0.010 A 
ATOM     17  C   UNL A   1      39.995  28.053  29.600  1.00  0.00     0.027 A 
ATOM     18  C   UNL A   1      40.190  29.151  27.466  1.00  0.00     0.027 A 
BRANCH  14  19
ATOM     19  C   UNL A   1      43.346  27.214  28.149  1.00  0.00     0.015 C 
ATOM     20  C   UNL A   1      42.727  23.659  27.608  1.00  0.00     0.063 C 
ATOM     21  C   UNL A   1      44.161  23.151  27.390  1.00  0.00     0.013 C 
ATOM     22  C   UNL A   1      42.613  25.085  27.072  1.00  0.00     0.162 C 
ATOM     23  C   UNL A   1      45.203  24.126  27.950  1.00  0.00     0.009 C 
ATOM     24  C   UNL A   1      43.658  26.037  27.579  1.00  0.00    -0.001 C 
ATOM     25  O   UNL A   1      41.730  25.457  26.306  1.00  0.00    -0.294 OA
ATOM     26  C   UNL A   1      45.066  25.544  27.376  1.00  0.00     0.020 C 
ATOM     27  C   UNL A   1      45.425  25.616  25.885  1.00  0.00     0.013 C 
BRANCH  20  28
ATOM     28  C   UNL A   1      41.622  22.732  27.040  1.00  0.00    -0.007 C 
ATOM     29  C   UNL A   1      42.022  22.008  25.751  1.00  0.00     0.008 C 
ATOM     30  C   UNL A   1      41.162  21.704  28.080  1.00  0.00     0.008 C 
ENDBRANCH  20  28
ENDBRANCH  14  19
ENDBRANCH  10  13
ENDBRANCH   8   9
ENDBRANCH   7   8
ENDBRANCH   4   7
ENDBRANCH   2   3
ENDBRANCH   1   2
BRANCH   1  31
ATOM     31  C   UNL A   1      34.521  32.813  31.297  1.00  0.00     0.002 C 
BRANCH  31  32
ATOM     32  C   UNL A   1      35.090  33.061  32.691  1.00  0.00     0.002 C 
BRANCH  32  33
ATOM     33  C   UNL A   1      35.829  34.389  32.849  1.00  0.00     0.021 C 
BRANCH  33  34
ATOM     34  C   UNL A   1      37.181  34.284  33.546  1.00  0.00     0.116 C 
BRANCH  34  35
ATOM     35  N   UNL A   1      37.087  33.599  34.824  1.00  0.00    -0.352 N 
ATOM     36  C   UNL A   1      37.724  32.453  35.229  1.00  0.00     0.251 C 
ATOM     37  H   UNL A   1      36.488  34.012  35.488  1.00  0.00     0.163 HD
ATOM     38  O   UNL A   1      37.402  31.882  36.260  1.00  0.00    -0.269 OA
BRANCH  36  39
ATOM     39  C   UNL A   1      38.797  31.905  34.375  1.00  0.00     0.039 A 
ATOM     40  C   UNL A   1      40.107  32.332  34.585  1.00  0.00     0.014 A 
ATOM     41  C   UNL A   1      38.503  30.945  33.402  1.00  0.00     0.014 A 
ATOM     42  C   UNL A   1      41.136  31.759  33.840  1.00  0.00     0.010 A 
ATOM     43  C   UNL A   1      39.539  30.317  32.720  1.00  0.00     0.010 A 
ATOM     44  C   UNL A   1      40.865  30.728  32.923  1.00  0.00    -0.014 A 
BRANCH  44  45
ATOM     45  C   UNL A   1      41.972  30.084  32.176  1.00  0.00     0.031 A 
ATOM     46  C   UNL A   1      42.548  30.740  30.953  1.00  0.00     0.074 A 
ATOM     47  C   UNL A   1      42.453  28.902  32.604  1.00  0.00     0.049 A 
ATOM     48  N   UNL A   1      43.571  30.370  30.225  1.00  0.00    -0.248 NA
ATOM     49  C   UNL A   1      41.878  31.959  30.469  1.00  0.00     0.031 C 
ATOM     50  C   UNL A   1      41.935  28.138  33.742  1.00  0.00     0.029 A 
ATOM     51  N   UNL A   1      43.497  28.143  32.142  1.00  0.00    -0.354 N 
ATOM     52  C   UNL A   1      43.664  31.306  29.202  1.00  0.00     0.074 A 
ATOM     53  C   UNL A   1      42.557  32.222  29.363  1.00  0.00     0.031 C 
ATOM     54  C   UNL A   1      42.699  27.050  33.925  1.00  0.00     0.029 A 
ATOM     55  C   UNL A   1      43.736  27.020  32.898  1.00  0.00     0.049 A 
ATOM     56  H   UNL A   1      44.026  28.379  31.346  1.00  0.00     0.167 HD
ATOM     57  C   UNL A   1      44.603  31.410  28.232  1.00  0.00     0.031 A 
ATOM     58  C   UNL A   1      44.692  26.080  32.784  1.00  0.00     0.031 A 
ATOM     59  C   UNL A   1      45.699  30.492  28.072  1.00  0.00     0.049 A 
ATOM     60  C   UNL A   1      45.718  26.216  31.695  1.00  0.00     0.074 A 
ATOM     61  C   UNL A   1      46.733  30.534  27.153  1.00  0.00     0.029 A 
ATOM     62  N   UNL A   1      45.898  29.360  28.847  1.00  0.00    -0.354 N 
ATOM     63  N   UNL A   1      45.847  27.157  30.790  1.00  0.00    -0.248 NA
ATOM     64  C   UNL A   1      46.745  25.168  31.627  1.00  0.00     0.031 C 
ATOM     65  C   UNL A   1      47.522  29.393  27.332  1.00  0.00     0.029 A 
ATOM     66  C   UNL A   1      47.021  28.678  28.408  1.00  0.00     0.049 A 
ATOM     67  H   UNL A   1      45.325  29.081  29.597  1.00  0.00     0.167 HD
ATOM     68  C   UNL A   1      46.982  26.828  30.061  1.00  0.00     0.074 A 
ATOM     69  C   UNL A   1      47.520  25.619  30.652  1.00  0.00     0.031 C 
ATOM     70  C   UNL A   1      47.531  27.466  28.996  1.00  0.00     0.031 A 
BRANCH  57  71
ATOM     71  C   UNL A   1      44.473  32.556  27.264  1.00  0.00    -0.014 A 
ATOM     72  C   UNL A   1      43.878  32.382  26.004  1.00  0.00     0.009 A 
ATOM     73  C   UNL A   1      44.928  33.833  27.626  1.00  0.00     0.009 A 
ATOM     74  C   UNL A   1      43.779  33.452  25.111  1.00  0.00     0.001 A 
ATOM     75  C   UNL A   1      44.797  34.909  26.745  1.00  0.00     0.001 A 
ATOM     76  C   UNL A   1      44.233  34.716  25.486  1.00  0.00     0.000 A 
ENDBRANCH  57  71
BRANCH  58  77
ATOM     77  C   UNL A   1      44.741  24.943  33.741  1.00  0.00    -0.014 A 
ATOM     78  C   UNL A   1      44.087  23.735  33.454  1.00  0.00     0.009 A 
ATOM     79  C   UNL A   1      45.434  25.063  34.956  1.00  0.00     0.009 A 
ATOM     80  C   UNL A   1      44.098  22.684  34.375  1.00  0.00     0.001 A 
ATOM     81  C   UNL A   1      45.471  24.001  35.862  1.00  0.00     0.001 A 
ATOM     82  C   UNL A   1      44.793  22.818  35.576  1.00  0.00     0.000 A 
ENDBRANCH  58  77
BRANCH  70  83
ATOM     83  C   UNL A   1      48.791  26.873  28.427  1.00  0.00    -0.014 A 
ATOM     84  C   UNL A   1      48.749  25.849  27.466  1.00  0.00     0.009 A 
ATOM     85  C   UNL A   1      50.038  27.349  28.858  1.00  0.00     0.009 A 
ATOM     86  C   UNL A   1      49.931  25.276  26.994  1.00  0.00     0.001 A 
ATOM     87  C   UNL A   1      51.219  26.800  28.354  1.00  0.00     0.001 A 
ATOM     88  C   UNL A   1      51.165  25.753  27.436  1.00  0.00     0.000 A 
ENDBRANCH  70  83
ENDBRANCH  44  45
ENDBRANCH  36  39
ENDBRANCH  34  35
ENDBRANCH  33  34
ENDBRANCH  32  33
ENDBRANCH  31  32
ENDBRANCH   1  31
TORSDOF 18
ENDMDL
