MODEL 1
REMARK VINA RESULT:     -10.6      0.000      0.000
REMARK SMILES Cc1cc(Br)cc(C(=O)NCCCCCCNC(=O)c2ccc(-c3c4nc(c(-c5ccccc5)c5ccc([nH]5)c(-c5ccccc5)c5nc(c(-c6ccccc6)c6ccc3[nH]6)C=C5)C=C4)cc2)c1Br
REMARK SMILES IDX 14 1 13 2 12 3 11 4 10 5 8 6 9 7 7 9 1 10 2 11 3 12 68 13
REMARK SMILES IDX 4 14 69 15 5 16 6 17 15 18 16 19 17 20 18 21 19 23 20 24
REMARK SMILES IDX 21 25 67 26 22 27 66 28 23 29 24 30 25 31 60 32 26 33 65 34
REMARK SMILES IDX 59 35 61 36 27 37 64 38 58 39 57 40 28 42 50 43 35 44 49 45
REMARK SMILES IDX 36 46 39 47 48 48 62 49 37 50 38 51 47 53 63 54 40 55 29 56
REMARK SMILES IDX 30 57 34 58 31 59 33 60 32 61 51 62 52 63 56 64 53 65 55 66
REMARK SMILES IDX 54 67 41 68 42 69 46 70 43 71 45 72 44 73
REMARK H PARENT 10 8 17 22 61 41 39 52
REMARK Flexibility Score: inf
ROOT
ATOM      1  C   UNL A   1      31.776  30.731  26.003  1.00  0.00     0.002 C 
ENDROOT
BRANCH   1   2
ATOM      2  C   UNL A   1      32.509  29.634  26.782  1.00  0.00     0.002 C 
BRANCH   2   3
ATOM      3  C   UNL A   1      31.671  28.607  27.554  1.00  0.00     0.021 C 
BRANCH   3   4
ATOM      4  C   UNL A   1      31.937  27.131  27.270  1.00  0.00     0.116 C 
BRANCH   4   5
ATOM      5  N   UNL A   1      30.856  26.428  26.612  1.00  0.00    -0.352 N 
ATOM      6  C   UNL A   1      30.490  26.392  25.287  1.00  0.00     0.252 C 
ATOM      7  O   UNL A   1      29.585  25.628  24.950  1.00  0.00    -0.269 OA
ATOM      8  H   UNL A   1      30.291  25.887  27.211  1.00  0.00     0.163 HD
BRANCH   6   9
ATOM      9  C   UNL A   1      31.041  27.325  24.266  1.00  0.00     0.055 A 
ATOM     10  C   UNL A   1      34.204  28.599  22.496  1.00  0.00     0.045 C 
ATOM     11  C   UNL A   1      32.764  28.366  22.879  1.00  0.00    -0.035 A 
ATOM     12  C   UNL A   1      31.804  29.266  22.386  1.00  0.00     0.020 A 
ATOM     13  C   UNL A   1      32.356  27.339  23.765  1.00  0.00     0.033 A 
ATOM     14  C   UNL A   1      30.474  29.160  22.776  1.00  0.00     0.019 A 
ATOM     15  Br  UNL A   1      33.547  25.878  24.068  1.00  0.00    -0.050 Br
ATOM     16  Br  UNL A   1      29.178  30.299  22.003  1.00  0.00    -0.051 Br
ATOM     17  C   UNL A   1      30.097  28.222  23.731  1.00  0.00     0.030 A 
ENDBRANCH   6   9
ENDBRANCH   4   5
ENDBRANCH   3   4
ENDBRANCH   2   3
ENDBRANCH   1   2
BRANCH   1  18
ATOM     18  C   UNL A   1      31.435  32.021  26.745  1.00  0.00     0.021 C 
BRANCH  18  19
ATOM     19  C   UNL A   1      32.602  32.804  27.330  1.00  0.00     0.116 C 
BRANCH  19  20
ATOM     20  N   UNL A   1      32.291  34.190  27.637  1.00  0.00    -0.352 N 
ATOM     21  C   UNL A   1      32.907  35.051  28.516  1.00  0.00     0.251 C 
ATOM     22  H   UNL A   1      31.526  34.568  27.144  1.00  0.00     0.163 HD
ATOM     23  O   UNL A   1      32.454  36.179  28.699  1.00  0.00    -0.269 OA
BRANCH  21  24
ATOM     24  C   UNL A   1      34.091  34.604  29.286  1.00  0.00     0.039 A 
ATOM     25  C   UNL A   1      35.363  34.587  28.710  1.00  0.00     0.014 A 
ATOM     26  C   UNL A   1      33.914  34.157  30.599  1.00  0.00     0.014 A 
ATOM     27  C   UNL A   1      36.410  33.951  29.370  1.00  0.00     0.010 A 
ATOM     28  C   UNL A   1      34.989  33.595  31.296  1.00  0.00     0.010 A 
ATOM     29  C   UNL A   1      36.232  33.433  30.664  1.00  0.00    -0.014 A 
BRANCH  29  30
ATOM     30  C   UNL A   1      37.347  32.703  31.323  1.00  0.00     0.031 A 
ATOM     31  C   UNL A   1      38.011  31.534  30.642  1.00  0.00     0.074 A 
ATOM     32  C   UNL A   1      37.810  33.133  32.512  1.00  0.00     0.049 A 
ATOM     33  N   UNL A   1      39.023  30.810  31.052  1.00  0.00    -0.248 NA
ATOM     34  C   UNL A   1      37.477  31.125  29.333  1.00  0.00     0.031 C 
ATOM     35  C   UNL A   1      37.271  34.269  33.262  1.00  0.00     0.029 A 
ATOM     36  N   UNL A   1      38.855  32.690  33.284  1.00  0.00    -0.354 N 
ATOM     37  C   UNL A   1      39.233  29.855  30.065  1.00  0.00     0.074 A 
ATOM     38  C   UNL A   1      38.228  30.070  29.048  1.00  0.00     0.031 C 
ATOM     39  C   UNL A   1      38.025  34.471  34.354  1.00  0.00     0.029 A 
ATOM     40  C   UNL A   1      39.058  33.442  34.415  1.00  0.00     0.049 A 
ATOM     41  H   UNL A   1      39.406  31.908  33.049  1.00  0.00     0.167 HD
ATOM     42  C   UNL A   1      40.185  28.893  30.004  1.00  0.00     0.031 A 
ATOM     43  C   UNL A   1      39.967  33.319  35.402  1.00  0.00     0.031 A 
ATOM     44  C   UNL A   1      41.192  28.683  31.010  1.00  0.00     0.049 A 
ATOM     45  C   UNL A   1      40.977  32.211  35.340  1.00  0.00     0.074 A 
ATOM     46  C   UNL A   1      42.208  27.742  31.025  1.00  0.00     0.029 A 
ATOM     47  N   UNL A   1      41.314  29.421  32.176  1.00  0.00    -0.354 N 
ATOM     48  N   UNL A   1      41.163  31.320  34.396  1.00  0.00    -0.248 NA
ATOM     49  C   UNL A   1      41.900  32.086  36.476  1.00  0.00     0.031 C 
ATOM     50  C   UNL A   1      42.908  27.873  32.225  1.00  0.00     0.029 A 
ATOM     51  C   UNL A   1      42.371  28.939  32.930  1.00  0.00     0.049 A 
ATOM     52  H   UNL A   1      40.735  30.175  32.432  1.00  0.00     0.167 HD
ATOM     53  C   UNL A   1      42.228  30.536  34.819  1.00  0.00     0.074 A 
ATOM     54  C   UNL A   1      42.661  31.068  36.094  1.00  0.00     0.031 C 
ATOM     55  C   UNL A   1      42.791  29.470  34.201  1.00  0.00     0.031 A 
BRANCH  42  56
ATOM     56  C   UNL A   1      40.184  27.973  28.813  1.00  0.00    -0.014 A 
ATOM     57  C   UNL A   1      39.554  26.721  28.900  1.00  0.00     0.009 A 
ATOM     58  C   UNL A   1      40.880  28.301  27.640  1.00  0.00     0.009 A 
ATOM     59  C   UNL A   1      39.626  25.814  27.842  1.00  0.00     0.001 A 
ATOM     60  C   UNL A   1      40.928  27.403  26.571  1.00  0.00     0.001 A 
ATOM     61  C   UNL A   1      40.309  26.157  26.676  1.00  0.00     0.000 A 
ENDBRANCH  42  56
BRANCH  43  62
ATOM     62  C   UNL A   1      39.955  34.293  36.524  1.00  0.00    -0.014 A 
ATOM     63  C   UNL A   1      39.192  34.043  37.677  1.00  0.00     0.009 A 
ATOM     64  C   UNL A   1      40.649  35.507  36.422  1.00  0.00     0.009 A 
ATOM     65  C   UNL A   1      39.096  35.002  38.687  1.00  0.00     0.001 A 
ATOM     66  C   UNL A   1      40.576  36.452  37.448  1.00  0.00     0.001 A 
ATOM     67  C   UNL A   1      39.790  36.204  38.574  1.00  0.00     0.000 A 
ENDBRANCH  43  62
BRANCH  55  68
ATOM     68  C   UNL A   1      43.948  28.795  34.881  1.00  0.00    -0.014 A 
ATOM     69  C   UNL A   1      43.710  27.763  35.803  1.00  0.00     0.009 A 
ATOM     70  C   UNL A   1      45.262  29.251  34.694  1.00  0.00     0.009 A 
ATOM     71  C   UNL A   1      44.761  27.210  36.537  1.00  0.00     0.001 A 
ATOM     72  C   UNL A   1      46.316  28.678  35.410  1.00  0.00     0.001 A 
ATOM     73  C   UNL A   1      46.062  27.667  36.337  1.00  0.00     0.000 A 
ENDBRANCH  55  68
ENDBRANCH  29  30
ENDBRANCH  21  24
ENDBRANCH  19  20
ENDBRANCH  18  19
ENDBRANCH   1  18
TORSDOF 13
ENDMDL
MODEL 2
REMARK VINA RESULT:     -10.5      1.909      6.706
REMARK SMILES Cc1cc(Br)cc(C(=O)NCCCCCCNC(=O)c2ccc(-c3c4nc(c(-c5ccccc5)c5ccc([nH]5)c(-c5ccccc5)c5nc(c(-c6ccccc6)c6ccc3[nH]6)C=C5)C=C4)cc2)c1Br
REMARK SMILES IDX 14 1 13 2 12 3 11 4 10 5 8 6 9 7 7 9 1 10 2 11 3 12 68 13
REMARK SMILES IDX 4 14 69 15 5 16 6 17 15 18 16 19 17 20 18 21 19 23 20 24
REMARK SMILES IDX 21 25 67 26 22 27 66 28 23 29 24 30 25 31 60 32 26 33 65 34
REMARK SMILES IDX 59 35 61 36 27 37 64 38 58 39 57 40 28 42 50 43 35 44 49 45
REMARK SMILES IDX 36 46 39 47 48 48 62 49 37 50 38 51 47 53 63 54 40 55 29 56
REMARK SMILES IDX 30 57 34 58 31 59 33 60 32 61 51 62 52 63 56 64 53 65 55 66
REMARK SMILES IDX 54 67 41 68 42 69 46 70 43 71 45 72 44 73
REMARK H PARENT 10 8 17 22 61 41 39 52
REMARK Flexibility Score: inf
ROOT
ATOM      1  C   UNL A   1      32.256  29.959  25.691  1.00  0.00     0.002 C 
ENDROOT
BRANCH   1   2
ATOM      2  C   UNL A   1      33.323  29.023  26.266  1.00  0.00     0.002 C 
BRANCH   2   3
ATOM      3  C   UNL A   1      32.951  27.553  26.501  1.00  0.00     0.021 C 
BRANCH   3   4
ATOM      4  C   UNL A   1      31.557  27.105  26.073  1.00  0.00     0.116 C 
BRANCH   4   5
ATOM      5  N   UNL A   1      31.096  25.871  26.675  1.00  0.00    -0.352 N 
ATOM      6  C   UNL A   1      31.571  24.586  26.553  1.00  0.00     0.252 C 
ATOM      7  O   UNL A   1      31.070  23.708  27.254  1.00  0.00    -0.269 OA
ATOM      8  H   UNL A   1      30.317  25.968  27.268  1.00  0.00     0.163 HD
BRANCH   6   9
ATOM      9  C   UNL A   1      32.566  24.182  25.521  1.00  0.00     0.055 A 
ATOM     10  C   UNL A   1      33.097  22.957  21.920  1.00  0.00     0.045 C 
ATOM     11  C   UNL A   1      33.343  23.460  23.319  1.00  0.00    -0.035 A 
ATOM     12  C   UNL A   1      34.649  23.357  23.829  1.00  0.00     0.020 A 
ATOM     13  C   UNL A   1      32.314  23.955  24.156  1.00  0.00     0.033 A 
ATOM     14  C   UNL A   1      34.922  23.719  25.143  1.00  0.00     0.019 A 
ATOM     15  Br  UNL A   1      30.676  24.510  23.345  1.00  0.00    -0.050 Br
ATOM     16  Br  UNL A   1      36.705  23.693  25.770  1.00  0.00    -0.051 Br
ATOM     17  C   UNL A   1      33.890  24.097  25.994  1.00  0.00     0.030 A 
ENDBRANCH   6   9
ENDBRANCH   4   5
ENDBRANCH   3   4
ENDBRANCH   2   3
ENDBRANCH   1   2
BRANCH   1  18
ATOM     18  C   UNL A   1      31.804  31.134  26.555  1.00  0.00     0.021 C 
BRANCH  18  19
ATOM     19  C   UNL A   1      32.897  31.933  27.250  1.00  0.00     0.116 C 
BRANCH  19  20
ATOM     20  N   UNL A   1      32.506  33.287  27.605  1.00  0.00    -0.352 N 
ATOM     21  C   UNL A   1      33.135  34.192  28.430  1.00  0.00     0.251 C 
ATOM     22  H   UNL A   1      31.667  33.604  27.195  1.00  0.00     0.163 HD
ATOM     23  O   UNL A   1      32.612  35.277  28.672  1.00  0.00    -0.269 OA
BRANCH  21  24
ATOM     24  C   UNL A   1      34.422  33.840  29.073  1.00  0.00     0.039 A 
ATOM     25  C   UNL A   1      35.640  34.208  28.498  1.00  0.00     0.014 A 
ATOM     26  C   UNL A   1      34.405  33.094  30.255  1.00  0.00     0.014 A 
ATOM     27  C   UNL A   1      36.825  33.671  28.993  1.00  0.00     0.010 A 
ATOM     28  C   UNL A   1      35.605  32.626  30.802  1.00  0.00     0.010 A 
ATOM     29  C   UNL A   1      36.821  32.860  30.141  1.00  0.00    -0.014 A 
BRANCH  29  30
ATOM     30  C   UNL A   1      38.091  32.248  30.613  1.00  0.00     0.031 A 
ATOM     31  C   UNL A   1      38.824  32.816  31.800  1.00  0.00     0.074 A 
ATOM     32  C   UNL A   1      38.554  31.136  30.011  1.00  0.00     0.049 A 
ATOM     33  N   UNL A   1      39.921  32.385  32.372  1.00  0.00    -0.248 NA
ATOM     34  C   UNL A   1      38.257  34.019  32.430  1.00  0.00     0.031 C 
ATOM     35  C   UNL A   1      37.922  30.473  28.869  1.00  0.00     0.029 A 
ATOM     36  N   UNL A   1      39.643  30.348  30.293  1.00  0.00    -0.354 N 
ATOM     37  C   UNL A   1      40.182  33.268  33.412  1.00  0.00     0.074 A 
ATOM     38  C   UNL A   1      39.147  34.278  33.378  1.00  0.00     0.031 C 
ATOM     39  C   UNL A   1      38.598  29.349  28.586  1.00  0.00     0.029 A 
ATOM     40  C   UNL A   1      39.745  29.245  29.482  1.00  0.00     0.049 A 
ATOM     41  H   UNL A   1      40.288  30.555  31.008  1.00  0.00     0.167 HD
ATOM     42  C   UNL A   1      41.185  33.236  34.322  1.00  0.00     0.031 A 
ATOM     43  C   UNL A   1      40.662  28.258  29.451  1.00  0.00     0.031 A 
ATOM     44  C   UNL A   1      42.210  32.227  34.364  1.00  0.00     0.049 A 
ATOM     45  C   UNL A   1      41.796  28.275  30.434  1.00  0.00     0.074 A 
ATOM     46  C   UNL A   1      43.258  32.106  35.260  1.00  0.00     0.029 A 
ATOM     47  N   UNL A   1      42.318  31.170  33.476  1.00  0.00    -0.354 N 
ATOM     48  N   UNL A   1      42.024  29.117  31.413  1.00  0.00    -0.248 NA
ATOM     49  C   UNL A   1      42.802  27.211  30.309  1.00  0.00     0.031 C 
ATOM     50  C   UNL A   1      44.032  31.007  34.881  1.00  0.00     0.029 A 
ATOM     51  C   UNL A   1      43.430  30.405  33.787  1.00  0.00     0.049 A 
ATOM     52  H   UNL A   1      41.698  30.987  32.734  1.00  0.00     0.167 HD
ATOM     53  C   UNL A   1      43.190  28.680  32.026  1.00  0.00     0.074 A 
ATOM     54  C   UNL A   1      43.613  27.487  31.322  1.00  0.00     0.031 C 
ATOM     55  C   UNL A   1      43.848  29.224  33.077  1.00  0.00     0.031 A 
BRANCH  42  56
ATOM     56  C   UNL A   1      41.242  34.333  35.351  1.00  0.00    -0.014 A 
ATOM     57  C   UNL A   1      42.002  35.487  35.098  1.00  0.00     0.009 A 
ATOM     58  C   UNL A   1      40.621  34.191  36.601  1.00  0.00     0.009 A 
ATOM     59  C   UNL A   1      42.147  36.470  36.077  1.00  0.00     0.001 A 
ATOM     60  C   UNL A   1      40.745  35.190  37.570  1.00  0.00     0.001 A 
ATOM     61  C   UNL A   1      41.514  36.324  37.311  1.00  0.00     0.000 A 
ENDBRANCH  42  56
BRANCH  43  62
ATOM     62  C   UNL A   1      40.522  27.170  28.449  1.00  0.00    -0.014 A 
ATOM     63  C   UNL A   1      41.068  27.311  27.161  1.00  0.00     0.009 A 
ATOM     64  C   UNL A   1      39.786  26.016  28.749  1.00  0.00     0.009 A 
ATOM     65  C   UNL A   1      40.849  26.337  26.187  1.00  0.00     0.001 A 
ATOM     66  C   UNL A   1      39.594  25.027  27.781  1.00  0.00     0.001 A 
ATOM     67  C   UNL A   1      40.115  25.194  26.497  1.00  0.00     0.000 A 
ENDBRANCH  43  62
BRANCH  55  68
ATOM     68  C   UNL A   1      45.100  28.542  33.552  1.00  0.00    -0.014 A 
ATOM     69  C   UNL A   1      46.337  28.875  32.975  1.00  0.00     0.009 A 
ATOM     70  C   UNL A   1      45.044  27.497  34.485  1.00  0.00     0.009 A 
ATOM     71  C   UNL A   1      47.490  28.166  33.313  1.00  0.00     0.001 A 
ATOM     72  C   UNL A   1      46.205  26.806  34.842  1.00  0.00     0.001 A 
ATOM     73  C   UNL A   1      47.423  27.134  34.247  1.00  0.00     0.000 A 
ENDBRANCH  55  68
ENDBRANCH  29  30
ENDBRANCH  21  24
ENDBRANCH  19  20
ENDBRANCH  18  19
ENDBRANCH   1  18
TORSDOF 13
ENDMDL
MODEL 3
REMARK VINA RESULT:     -10.4      4.861      9.584
REMARK SMILES Cc1cc(Br)cc(C(=O)NCCCCCCNC(=O)c2ccc(-c3c4nc(c(-c5ccccc5)c5ccc([nH]5)c(-c5ccccc5)c5nc(c(-c6ccccc6)c6ccc3[nH]6)C=C5)C=C4)cc2)c1Br
REMARK SMILES IDX 14 1 13 2 12 3 11 4 10 5 8 6 9 7 7 9 1 10 2 11 3 12 68 13
REMARK SMILES IDX 4 14 69 15 5 16 6 17 15 18 16 19 17 20 18 21 19 23 20 24
REMARK SMILES IDX 21 25 67 26 22 27 66 28 23 29 24 30 25 31 60 32 26 33 65 34
REMARK SMILES IDX 59 35 61 36 27 37 64 38 58 39 57 40 28 42 50 43 35 44 49 45
REMARK SMILES IDX 36 46 39 47 48 48 62 49 37 50 38 51 47 53 63 54 40 55 29 56
REMARK SMILES IDX 30 57 34 58 31 59 33 60 32 61 51 62 52 63 56 64 53 65 55 66
REMARK SMILES IDX 54 67 41 68 42 69 46 70 43 71 45 72 44 73
REMARK H PARENT 10 8 17 22 61 41 39 52
REMARK Flexibility Score: inf
ROOT
ATOM      1  C   UNL A   1      36.998  22.186  24.449  1.00  0.00     0.002 C 
ENDROOT
BRANCH   1   2
ATOM      2  C   UNL A   1      35.468  22.246  24.405  1.00  0.00     0.002 C 
BRANCH   2   3
ATOM      3  C   UNL A   1      34.686  21.776  25.638  1.00  0.00     0.021 C 
BRANCH   3   4
ATOM      4  C   UNL A   1      33.195  21.504  25.462  1.00  0.00     0.116 C 
BRANCH   4   5
ATOM      5  N   UNL A   1      32.333  22.157  26.424  1.00  0.00    -0.352 N 
ATOM      6  C   UNL A   1      31.828  23.437  26.445  1.00  0.00     0.252 C 
ATOM      7  O   UNL A   1      31.021  23.733  27.326  1.00  0.00    -0.269 OA
ATOM      8  H   UNL A   1      32.064  21.595  27.185  1.00  0.00     0.163 HD
BRANCH   6   9
ATOM      9  C   UNL A   1      32.309  24.515  25.539  1.00  0.00     0.055 A 
ATOM     10  C   UNL A   1      32.934  25.571  21.898  1.00  0.00     0.045 C 
ATOM     11  C   UNL A   1      32.801  25.592  23.400  1.00  0.00    -0.035 A 
ATOM     12  C   UNL A   1      33.386  26.667  24.092  1.00  0.00     0.020 A 
ATOM     13  C   UNL A   1      32.188  24.550  24.137  1.00  0.00     0.033 A 
ATOM     14  C   UNL A   1      33.378  26.698  25.481  1.00  0.00     0.019 A 
ATOM     15  Br  UNL A   1      31.024  23.351  23.213  1.00  0.00    -0.050 Br
ATOM     16  Br  UNL A   1      34.056  28.212  26.388  1.00  0.00    -0.051 Br
ATOM     17  C   UNL A   1      32.875  25.621  26.202  1.00  0.00     0.030 A 
ENDBRANCH   6   9
ENDBRANCH   4   5
ENDBRANCH   3   4
ENDBRANCH   2   3
ENDBRANCH   1   2
BRANCH   1  18
ATOM     18  C   UNL A   1      37.646  20.840  24.771  1.00  0.00     0.021 C 
BRANCH  18  19
ATOM     19  C   UNL A   1      38.694  20.832  25.875  1.00  0.00     0.116 C 
BRANCH  19  20
ATOM     20  N   UNL A   1      39.670  19.762  25.756  1.00  0.00    -0.352 N 
ATOM     21  C   UNL A   1      41.020  19.774  26.030  1.00  0.00     0.251 C 
ATOM     22  H   UNL A   1      39.315  18.903  25.431  1.00  0.00     0.163 HD
ATOM     23  O   UNL A   1      41.708  18.783  25.797  1.00  0.00    -0.269 OA
BRANCH  21  24
ATOM     24  C   UNL A   1      41.658  21.002  26.559  1.00  0.00     0.039 A 
ATOM     25  C   UNL A   1      41.694  21.263  27.930  1.00  0.00     0.014 A 
ATOM     26  C   UNL A   1      42.197  21.925  25.658  1.00  0.00     0.014 A 
ATOM     27  C   UNL A   1      42.089  22.519  28.381  1.00  0.00     0.010 A 
ATOM     28  C   UNL A   1      42.675  23.156  26.122  1.00  0.00     0.010 A 
ATOM     29  C   UNL A   1      42.568  23.486  27.482  1.00  0.00    -0.014 A 
BRANCH  29  30
ATOM     30  C   UNL A   1      42.925  24.841  27.981  1.00  0.00     0.031 A 
ATOM     31  C   UNL A   1      41.856  25.870  28.244  1.00  0.00     0.074 A 
ATOM     32  C   UNL A   1      44.211  25.127  28.261  1.00  0.00     0.049 A 
ATOM     33  N   UNL A   1      41.984  27.085  28.718  1.00  0.00    -0.248 NA
ATOM     34  C   UNL A   1      40.467  25.492  27.939  1.00  0.00     0.031 C 
ATOM     35  C   UNL A   1      45.335  24.208  28.076  1.00  0.00     0.029 A 
ATOM     36  N   UNL A   1      44.786  26.256  28.790  1.00  0.00    -0.354 N 
ATOM     37  C   UNL A   1      40.700  27.617  28.753  1.00  0.00     0.074 A 
ATOM     38  C   UNL A   1      39.810  26.608  28.225  1.00  0.00     0.031 C 
ATOM     39  C   UNL A   1      46.454  24.786  28.540  1.00  0.00     0.029 A 
ATOM     40  C   UNL A   1      46.139  26.137  28.994  1.00  0.00     0.049 A 
ATOM     41  H   UNL A   1      44.277  27.072  29.003  1.00  0.00     0.167 HD
ATOM     42  C   UNL A   1      40.297  28.833  29.195  1.00  0.00     0.031 A 
ATOM     43  C   UNL A   1      47.035  27.015  29.484  1.00  0.00     0.031 A 
ATOM     44  C   UNL A   1      41.181  29.835  29.729  1.00  0.00     0.049 A 
ATOM     45  C   UNL A   1      46.573  28.376  29.916  1.00  0.00     0.074 A 
ATOM     46  C   UNL A   1      40.859  31.091  30.216  1.00  0.00     0.029 A 
ATOM     47  N   UNL A   1      42.554  29.700  29.847  1.00  0.00    -0.354 N 
ATOM     48  N   UNL A   1      45.354  28.860  29.945  1.00  0.00    -0.248 NA
ATOM     49  C   UNL A   1      47.605  29.314  30.379  1.00  0.00     0.031 C 
ATOM     50  C   UNL A   1      42.043  31.736  30.576  1.00  0.00     0.029 A 
ATOM     51  C   UNL A   1      43.098  30.860  30.375  1.00  0.00     0.049 A 
ATOM     52  H   UNL A   1      43.069  28.900  29.593  1.00  0.00     0.167 HD
ATOM     53  C   UNL A   1      45.471  30.153  30.438  1.00  0.00     0.074 A 
ATOM     54  C   UNL A   1      46.876  30.372  30.713  1.00  0.00     0.031 C 
ATOM     55  C   UNL A   1      44.497  31.072  30.639  1.00  0.00     0.031 A 
BRANCH  42  56
ATOM     56  C   UNL A   1      38.832  29.164  29.113  1.00  0.00    -0.014 A 
ATOM     57  C   UNL A   1      38.313  29.739  27.941  1.00  0.00     0.009 A 
ATOM     58  C   UNL A   1      37.984  28.995  30.218  1.00  0.00     0.009 A 
ATOM     59  C   UNL A   1      36.979  30.144  27.880  1.00  0.00     0.001 A 
ATOM     60  C   UNL A   1      36.642  29.375  30.144  1.00  0.00     0.001 A 
ATOM     61  C   UNL A   1      36.142  29.958  28.979  1.00  0.00     0.000 A 
ENDBRANCH  42  56
BRANCH  43  62
ATOM     62  C   UNL A   1      48.460  26.610  29.595  1.00  0.00    -0.014 A 
ATOM     63  C   UNL A   1      48.922  25.930  30.735  1.00  0.00     0.009 A 
ATOM     64  C   UNL A   1      49.380  26.960  28.597  1.00  0.00     0.009 A 
ATOM     65  C   UNL A   1      50.279  25.641  30.888  1.00  0.00     0.001 A 
ATOM     66  C   UNL A   1      50.733  26.642  28.738  1.00  0.00     0.001 A 
ATOM     67  C   UNL A   1      51.183  25.993  29.889  1.00  0.00     0.000 A 
ENDBRANCH  43  62
BRANCH  55  68
ATOM     68  C   UNL A   1      44.899  32.410  31.193  1.00  0.00    -0.014 A 
ATOM     69  C   UNL A   1      44.895  32.619  32.582  1.00  0.00     0.009 A 
ATOM     70  C   UNL A   1      45.173  33.491  30.342  1.00  0.00     0.009 A 
ATOM     71  C   UNL A   1      45.144  33.887  33.108  1.00  0.00     0.001 A 
ATOM     72  C   UNL A   1      45.448  34.754  30.873  1.00  0.00     0.001 A 
ATOM     73  C   UNL A   1      45.422  34.952  32.253  1.00  0.00     0.000 A 
ENDBRANCH  55  68
ENDBRANCH  29  30
ENDBRANCH  21  24
ENDBRANCH  19  20
ENDBRANCH  18  19
ENDBRANCH   1  18
TORSDOF 13
ENDMDL
