MODEL 1
REMARK VINA RESULT:     -12.0      0.000      0.000
REMARK SMILES COc1ccccc1[C@@H]1C[N@@H+](Cc2cc3c(cc2C)OCO3)C[C@H]1C(=O)NCCCCCCNC(=O)c1ccc(-c2c3nc(c(-c4ccccc4)c4ccc([nH]4)c(-c4ccccc4)c4nc(c(-c5ccccc5)c5ccc2[nH]5)C=C4)C=C3)cc1
REMARK SMILES IDX 30 1 29 2 28 3 27 4 25 5 26 6 24 8 9 9 10 10 11 11 23 12
REMARK SMILES IDX 8 14 3 15 4 16 5 17 7 18 6 19 2 20 1 21 12 22 13 23 14 24
REMARK SMILES IDX 18 25 15 26 17 27 19 28 16 29 22 30 20 31 21 32 31 33 32 34
REMARK SMILES IDX 33 35 34 36 35 37 36 39 37 40 38 41 84 42 39 43 83 44 40 45
REMARK SMILES IDX 41 46 42 47 77 48 43 49 82 50 76 51 78 52 44 53 81 54 75 55
REMARK SMILES IDX 74 56 45 58 67 59 52 60 66 61 53 62 56 63 65 64 79 65 54 66
REMARK SMILES IDX 55 67 64 69 80 70 57 71 46 72 47 73 51 74 48 75 50 76 49 77
REMARK SMILES IDX 68 78 69 79 73 80 70 81 72 82 71 83 58 84 59 85 63 86 60 87
REMARK SMILES IDX 62 88 61 89
REMARK H PARENT 27 7 11 13 34 38 78 57 56 68
REMARK Flexibility Score: inf
ROOT
ATOM      1  C   UNL A   1      34.874  32.623  28.039  1.00  0.00     0.002 C 
ENDROOT
BRANCH   1   2
ATOM      2  C   UNL A   1      34.591  31.142  28.317  1.00  0.00     0.021 C 
BRANCH   2   3
ATOM      3  C   UNL A   1      34.994  29.958  27.368  1.00  0.00     0.116 C 
BRANCH   3   4
ATOM      4  N   UNL A   1      33.895  28.919  26.913  1.00  0.00    -0.356 N 
ATOM      5  C   UNL A   1      33.359  27.950  26.106  1.00  0.00     0.229 C 
ATOM      6  O   UNL A   1      32.300  27.558  26.663  1.00  0.00    -0.275 OA
ATOM      7  H   UNL A   1      33.198  29.033  27.598  1.00  0.00     0.163 HD
BRANCH   5   8
ATOM      8  C   UNL A   1      33.613  27.172  24.683  1.00  0.00     0.146 C 
ATOM      9  C   UNL A   1      33.248  25.652  24.497  1.00  0.00     0.096 C 
ATOM     10  C   UNL A   1      33.148  25.410  22.972  1.00  0.00     0.272 C 
ATOM     11  N   UNL A   1      32.772  26.690  22.367  1.00  0.00    -0.330 N 
ATOM     12  C   UNL A   1      33.415  27.714  23.235  1.00  0.00     0.276 C 
ATOM     13  H   UNL A   1      33.124  26.868  21.426  1.00  0.00     0.348 HD
BRANCH   9  14
ATOM     14  C   UNL A   1      33.908  24.450  25.173  1.00  0.00     0.004 A 
ATOM     15  C   UNL A   1      33.433  23.675  26.247  1.00  0.00     0.122 A 
ATOM     16  C   UNL A   1      34.283  22.738  26.877  1.00  0.00     0.047 A 
ATOM     17  C   UNL A   1      35.619  22.593  26.509  1.00  0.00     0.004 A 
ATOM     18  C   UNL A   1      35.280  24.278  24.834  1.00  0.00     0.008 A 
ATOM     19  C   UNL A   1      36.127  23.387  25.498  1.00  0.00     0.001 A 
BRANCH  15  20
ATOM     20  O   UNL A   1      32.287  23.875  26.970  1.00  0.00    -0.496 OA
ATOM     21  C   UNL A   1      31.130  23.176  26.557  1.00  0.00     0.278 C 
ENDBRANCH  15  20
ENDBRANCH   9  14
BRANCH  11  22
ATOM     22  C   UNL A   1      31.330  26.760  21.969  1.00  0.00     0.299 C 
BRANCH  22  23
ATOM     23  C   UNL A   1      30.497  27.824  22.666  1.00  0.00     0.013 A 
ATOM     24  C   UNL A   1      30.509  29.211  22.387  1.00  0.00     0.060 A 
ATOM     25  C   UNL A   1      29.495  27.341  23.482  1.00  0.00    -0.038 A 
ATOM     26  C   UNL A   1      29.375  29.952  22.693  1.00  0.00     0.166 A 
ATOM     27  C   UNL A   1      28.273  27.976  23.324  1.00  0.00     0.054 A 
ATOM     28  C   UNL A   1      29.777  26.211  24.430  1.00  0.00     0.045 C 
ATOM     29  C   UNL A   1      28.236  29.298  23.022  1.00  0.00     0.166 A 
ATOM     30  O   UNL A   1      29.145  31.291  22.641  1.00  0.00    -0.454 OA
ATOM     31  O   UNL A   1      27.130  30.074  23.107  1.00  0.00    -0.454 OA
ATOM     32  C   UNL A   1      27.779  31.350  23.147  1.00  0.00     0.468 C 
ENDBRANCH  22  23
ENDBRANCH  11  22
ENDBRANCH   5   8
ENDBRANCH   3   4
ENDBRANCH   2   3
ENDBRANCH   1   2
BRANCH   1  33
ATOM     33  C   UNL A   1      34.548  33.650  29.137  1.00  0.00     0.002 C 
BRANCH  33  34
ATOM     34  C   UNL A   1      33.323  34.577  28.983  1.00  0.00     0.021 C 
BRANCH  34  35
ATOM     35  C   UNL A   1      33.406  36.000  29.544  1.00  0.00     0.116 C 
BRANCH  35  36
ATOM     36  N   UNL A   1      32.523  36.223  30.678  1.00  0.00    -0.352 N 
ATOM     37  C   UNL A   1      32.571  35.732  31.963  1.00  0.00     0.251 C 
ATOM     38  H   UNL A   1      31.765  36.824  30.497  1.00  0.00     0.163 HD
ATOM     39  O   UNL A   1      31.617  35.868  32.713  1.00  0.00    -0.269 OA
BRANCH  37  40
ATOM     40  C   UNL A   1      33.778  35.026  32.440  1.00  0.00     0.039 A 
ATOM     41  C   UNL A   1      33.648  33.738  32.966  1.00  0.00     0.014 A 
ATOM     42  C   UNL A   1      35.027  35.649  32.397  1.00  0.00     0.014 A 
ATOM     43  C   UNL A   1      34.788  33.038  33.368  1.00  0.00     0.010 A 
ATOM     44  C   UNL A   1      36.169  34.931  32.751  1.00  0.00     0.010 A 
ATOM     45  C   UNL A   1      36.061  33.613  33.223  1.00  0.00    -0.014 A 
BRANCH  45  46
ATOM     46  C   UNL A   1      37.290  32.830  33.511  1.00  0.00     0.031 A 
ATOM     47  C   UNL A   1      38.084  33.079  34.765  1.00  0.00     0.074 A 
ATOM     48  C   UNL A   1      37.727  31.938  32.599  1.00  0.00     0.049 A 
ATOM     49  N   UNL A   1      39.204  32.526  35.153  1.00  0.00    -0.248 NA
ATOM     50  C   UNL A   1      37.563  34.096  35.694  1.00  0.00     0.031 C 
ATOM     51  C   UNL A   1      37.068  31.639  31.323  1.00  0.00     0.029 A 
ATOM     52  N   UNL A   1      38.834  31.125  32.595  1.00  0.00    -0.354 N 
ATOM     53  C   UNL A   1      39.531  33.137  36.357  1.00  0.00     0.074 A 
ATOM     54  C   UNL A   1      38.511  34.128  36.621  1.00  0.00     0.031 C 
ATOM     55  C   UNL A   1      37.770  30.698  30.674  1.00  0.00     0.029 A 
ATOM     56  C   UNL A   1      38.952  30.358  31.459  1.00  0.00     0.049 A 
ATOM     57  H   UNL A   1      39.482  31.093  33.335  1.00  0.00     0.167 HD
ATOM     58  C   UNL A   1      40.582  32.885  37.173  1.00  0.00     0.031 A 
ATOM     59  C   UNL A   1      39.913  29.493  31.083  1.00  0.00     0.031 A 
ATOM     60  C   UNL A   1      41.586  31.888  36.912  1.00  0.00     0.049 A 
ATOM     61  C   UNL A   1      41.080  29.256  32.004  1.00  0.00     0.074 A 
ATOM     62  C   UNL A   1      42.642  31.502  37.721  1.00  0.00     0.029 A 
ATOM     63  N   UNL A   1      41.669  31.132  35.755  1.00  0.00    -0.354 N 
ATOM     64  N   UNL A   1      41.312  29.762  33.190  1.00  0.00    -0.248 NA
ATOM     65  C   UNL A   1      42.115  28.323  31.535  1.00  0.00     0.031 C 
ATOM     66  C   UNL A   1      43.405  30.565  37.020  1.00  0.00     0.029 A 
ATOM     67  C   UNL A   1      42.786  30.317  35.807  1.00  0.00     0.049 A 
ATOM     68  H   UNL A   1      41.028  31.169  35.008  1.00  0.00     0.167 HD
ATOM     69  C   UNL A   1      42.506  29.194  33.616  1.00  0.00     0.074 A 
ATOM     70  C   UNL A   1      42.932  28.281  32.577  1.00  0.00     0.031 C 
ATOM     71  C   UNL A   1      43.194  29.413  34.763  1.00  0.00     0.031 A 
BRANCH  58  72
ATOM     72  C   UNL A   1      40.721  33.705  38.426  1.00  0.00    -0.014 A 
ATOM     73  C   UNL A   1      40.167  33.280  39.643  1.00  0.00     0.009 A 
ATOM     74  C   UNL A   1      41.501  34.872  38.406  1.00  0.00     0.009 A 
ATOM     75  C   UNL A   1      40.379  34.015  40.810  1.00  0.00     0.001 A 
ATOM     76  C   UNL A   1      41.735  35.591  39.579  1.00  0.00     0.001 A 
ATOM     77  C   UNL A   1      41.169  35.164  40.780  1.00  0.00     0.000 A 
ENDBRANCH  58  72
BRANCH  59  78
ATOM     78  C   UNL A   1      39.842  28.803  29.766  1.00  0.00    -0.014 A 
ATOM     79  C   UNL A   1      39.320  27.504  29.662  1.00  0.00     0.009 A 
ATOM     80  C   UNL A   1      40.349  29.420  28.611  1.00  0.00     0.009 A 
ATOM     81  C   UNL A   1      39.352  26.821  28.443  1.00  0.00     0.001 A 
ATOM     82  C   UNL A   1      40.345  28.749  27.385  1.00  0.00     0.001 A 
ATOM     83  C   UNL A   1      39.862  27.445  27.305  1.00  0.00     0.000 A 
ENDBRANCH  59  78
BRANCH  71  84
ATOM     84  C   UNL A   1      44.466  28.639  34.962  1.00  0.00    -0.014 A 
ATOM     85  C   UNL A   1      45.695  29.130  34.496  1.00  0.00     0.009 A 
ATOM     86  C   UNL A   1      44.439  27.425  35.665  1.00  0.00     0.009 A 
ATOM     87  C   UNL A   1      46.870  28.403  34.705  1.00  0.00     0.001 A 
ATOM     88  C   UNL A   1      45.619  26.719  35.902  1.00  0.00     0.001 A 
ATOM     89  C   UNL A   1      46.831  27.203  35.413  1.00  0.00     0.000 A 
ENDBRANCH  71  84
ENDBRANCH  45  46
ENDBRANCH  37  40
ENDBRANCH  35  36
ENDBRANCH  34  35
ENDBRANCH  33  34
ENDBRANCH   1  33
TORSDOF 17
ENDMDL
MODEL 2
REMARK VINA RESULT:     -11.9      5.502     10.665
REMARK SMILES COc1ccccc1[C@@H]1C[N@@H+](Cc2cc3c(cc2C)OCO3)C[C@H]1C(=O)NCCCCCCNC(=O)c1ccc(-c2c3nc(c(-c4ccccc4)c4ccc([nH]4)c(-c4ccccc4)c4nc(c(-c5ccccc5)c5ccc2[nH]5)C=C4)C=C3)cc1
REMARK SMILES IDX 30 1 29 2 28 3 27 4 25 5 26 6 24 8 9 9 10 10 11 11 23 12
REMARK SMILES IDX 8 14 3 15 4 16 5 17 7 18 6 19 2 20 1 21 12 22 13 23 14 24
REMARK SMILES IDX 18 25 15 26 17 27 19 28 16 29 22 30 20 31 21 32 31 33 32 34
REMARK SMILES IDX 33 35 34 36 35 37 36 39 37 40 38 41 84 42 39 43 83 44 40 45
REMARK SMILES IDX 41 46 42 47 77 48 43 49 82 50 76 51 78 52 44 53 81 54 75 55
REMARK SMILES IDX 74 56 45 58 67 59 52 60 66 61 53 62 56 63 65 64 79 65 54 66
REMARK SMILES IDX 55 67 64 69 80 70 57 71 46 72 47 73 51 74 48 75 50 76 49 77
REMARK SMILES IDX 68 78 69 79 73 80 70 81 72 82 71 83 58 84 59 85 63 86 60 87
REMARK SMILES IDX 62 88 61 89
REMARK H PARENT 27 7 11 13 34 38 78 57 56 68
REMARK Flexibility Score: inf
ROOT
ATOM      1  C   UNL A   1      40.614  22.648  27.096  1.00  0.00     0.002 C 
ENDROOT
BRANCH   1   2
ATOM      2  C   UNL A   1      39.199  22.921  26.571  1.00  0.00     0.021 C 
BRANCH   2   3
ATOM      3  C   UNL A   1      38.459  22.052  25.492  1.00  0.00     0.116 C 
BRANCH   3   4
ATOM      4  N   UNL A   1      37.281  22.691  24.655  1.00  0.00    -0.356 N 
ATOM      5  C   UNL A   1      36.046  23.256  24.480  1.00  0.00     0.229 C 
ATOM      6  O   UNL A   1      35.974  23.606  23.272  1.00  0.00    -0.275 OA
ATOM      7  H   UNL A   1      37.637  22.669  23.738  1.00  0.00     0.163 HD
BRANCH   5   8
ATOM      8  C   UNL A   1      34.657  23.595  25.287  1.00  0.00     0.146 C 
ATOM      9  C   UNL A   1      33.469  24.366  24.599  1.00  0.00     0.096 C 
ATOM     10  C   UNL A   1      32.207  24.067  25.443  1.00  0.00     0.272 C 
ATOM     11  N   UNL A   1      32.422  22.763  26.074  1.00  0.00    -0.330 N 
ATOM     12  C   UNL A   1      33.892  22.703  26.311  1.00  0.00     0.276 C 
ATOM     13  H   UNL A   1      31.992  22.625  26.989  1.00  0.00     0.348 HD
BRANCH   9  14
ATOM     14  C   UNL A   1      33.454  25.822  24.135  1.00  0.00     0.004 A 
ATOM     15  C   UNL A   1      33.542  26.329  22.826  1.00  0.00     0.122 A 
ATOM     16  C   UNL A   1      33.730  27.714  22.611  1.00  0.00     0.047 A 
ATOM     17  C   UNL A   1      33.895  28.606  23.668  1.00  0.00     0.004 A 
ATOM     18  C   UNL A   1      33.636  26.765  25.187  1.00  0.00     0.008 A 
ATOM     19  C   UNL A   1      33.873  28.123  24.964  1.00  0.00     0.001 A 
BRANCH  15  20
ATOM     20  O   UNL A   1      33.730  25.616  21.672  1.00  0.00    -0.496 OA
ATOM     21  C   UNL A   1      32.646  25.551  20.767  1.00  0.00     0.278 C 
ENDBRANCH  15  20
ENDBRANCH   9  14
BRANCH  11  22
ATOM     22  C   UNL A   1      31.665  21.650  25.418  1.00  0.00     0.299 C 
BRANCH  22  23
ATOM     23  C   UNL A   1      32.503  20.614  24.686  1.00  0.00     0.013 A 
ATOM     24  C   UNL A   1      33.234  19.558  25.280  1.00  0.00     0.060 A 
ATOM     25  C   UNL A   1      32.342  20.594  23.315  1.00  0.00    -0.038 A 
ATOM     26  C   UNL A   1      33.492  18.428  24.516  1.00  0.00     0.166 A 
ATOM     27  C   UNL A   1      32.194  19.326  22.777  1.00  0.00     0.054 A 
ATOM     28  C   UNL A   1      32.330  21.880  22.541  1.00  0.00     0.045 C 
ATOM     29  C   UNL A   1      32.848  18.276  23.334  1.00  0.00     0.166 A 
ATOM     30  O   UNL A   1      34.248  17.328  24.778  1.00  0.00    -0.454 OA
ATOM     31  O   UNL A   1      32.994  17.065  22.749  1.00  0.00    -0.454 OA
ATOM     32  C   UNL A   1      34.101  16.594  23.527  1.00  0.00     0.468 C 
ENDBRANCH  22  23
ENDBRANCH  11  22
ENDBRANCH   5   8
ENDBRANCH   3   4
ENDBRANCH   2   3
ENDBRANCH   1   2
BRANCH   1  33
ATOM     33  C   UNL A   1      40.856  21.370  27.915  1.00  0.00     0.002 C 
BRANCH  33  34
ATOM     34  C   UNL A   1      41.586  20.171  27.271  1.00  0.00     0.021 C 
BRANCH  34  35
ATOM     35  C   UNL A   1      41.782  20.164  25.751  1.00  0.00     0.116 C 
BRANCH  35  36
ATOM     36  N   UNL A   1      43.169  19.992  25.351  1.00  0.00    -0.352 N 
ATOM     37  C   UNL A   1      44.191  20.906  25.238  1.00  0.00     0.251 C 
ATOM     38  H   UNL A   1      43.419  19.068  25.122  1.00  0.00     0.163 HD
ATOM     39  O   UNL A   1      45.235  20.602  24.682  1.00  0.00    -0.269 OA
BRANCH  37  40
ATOM     40  C   UNL A   1      44.026  22.270  25.783  1.00  0.00     0.039 A 
ATOM     41  C   UNL A   1      44.287  22.495  27.138  1.00  0.00     0.014 A 
ATOM     42  C   UNL A   1      43.585  23.312  24.966  1.00  0.00     0.014 A 
ATOM     43  C   UNL A   1      44.189  23.790  27.654  1.00  0.00     0.010 A 
ATOM     44  C   UNL A   1      43.537  24.611  25.469  1.00  0.00     0.010 A 
ATOM     45  C   UNL A   1      43.855  24.865  26.813  1.00  0.00    -0.014 A 
BRANCH  45  46
ATOM     46  C   UNL A   1      43.888  26.263  27.314  1.00  0.00     0.031 A 
ATOM     47  C   UNL A   1      45.195  26.993  27.467  1.00  0.00     0.074 A 
ATOM     48  C   UNL A   1      42.736  26.848  27.698  1.00  0.00     0.049 A 
ATOM     49  N   UNL A   1      45.416  28.195  27.933  1.00  0.00    -0.248 NA
ATOM     50  C   UNL A   1      46.414  26.273  27.062  1.00  0.00     0.031 C 
ATOM     51  C   UNL A   1      41.409  26.227  27.639  1.00  0.00     0.029 A 
ATOM     52  N   UNL A   1      42.492  28.094  28.224  1.00  0.00    -0.354 N 
ATOM     53  C   UNL A   1      46.794  28.369  27.896  1.00  0.00     0.074 A 
ATOM     54  C   UNL A   1      47.363  27.138  27.394  1.00  0.00     0.031 C 
ATOM     55  C   UNL A   1      40.493  27.098  28.090  1.00  0.00     0.029 A 
ATOM     56  C   UNL A   1      41.166  28.321  28.512  1.00  0.00     0.049 A 
ATOM     57  H   UNL A   1      43.198  28.760  28.379  1.00  0.00     0.167 HD
ATOM     58  C   UNL A   1      47.516  29.462  28.240  1.00  0.00     0.031 A 
ATOM     59  C   UNL A   1      40.563  29.386  29.073  1.00  0.00     0.031 A 
ATOM     60  C   UNL A   1      46.942  30.689  28.725  1.00  0.00     0.049 A 
ATOM     61  C   UNL A   1      41.400  30.574  29.465  1.00  0.00     0.074 A 
ATOM     62  C   UNL A   1      47.586  31.879  29.019  1.00  0.00     0.029 A 
ATOM     63  N   UNL A   1      45.599  30.880  29.000  1.00  0.00    -0.354 N 
ATOM     64  N   UNL A   1      42.689  30.761  29.318  1.00  0.00    -0.248 NA
ATOM     65  C   UNL A   1      40.697  31.700  30.098  1.00  0.00     0.031 C 
ATOM     66  C   UNL A   1      46.642  32.766  29.542  1.00  0.00     0.029 A 
ATOM     67  C   UNL A   1      45.401  32.152  29.509  1.00  0.00     0.049 A 
ATOM     68  H   UNL A   1      44.891  30.211  28.856  1.00  0.00     0.167 HD
ATOM     69  C   UNL A   1      42.946  32.031  29.818  1.00  0.00     0.074 A 
ATOM     70  C   UNL A   1      41.676  32.581  30.243  1.00  0.00     0.031 C 
ATOM     71  C   UNL A   1      44.129  32.683  29.925  1.00  0.00     0.031 A 
BRANCH  58  72
ATOM     72  C   UNL A   1      49.013  29.390  28.120  1.00  0.00    -0.014 A 
ATOM     73  C   UNL A   1      49.676  29.821  26.961  1.00  0.00     0.009 A 
ATOM     74  C   UNL A   1      49.776  28.974  29.224  1.00  0.00     0.009 A 
ATOM     75  C   UNL A   1      51.071  29.822  26.904  1.00  0.00     0.001 A 
ATOM     76  C   UNL A   1      51.170  29.002  29.175  1.00  0.00     0.001 A 
ATOM     77  C   UNL A   1      51.816  29.422  28.013  1.00  0.00     0.000 A 
ENDBRANCH  58  72
BRANCH  59  78
ATOM     78  C   UNL A   1      39.096  29.383  29.330  1.00  0.00    -0.014 A 
ATOM     79  C   UNL A   1      38.192  29.800  28.339  1.00  0.00     0.009 A 
ATOM     80  C   UNL A   1      38.595  29.013  30.588  1.00  0.00     0.009 A 
ATOM     81  C   UNL A   1      36.827  29.893  28.620  1.00  0.00     0.001 A 
ATOM     82  C   UNL A   1      37.225  29.072  30.854  1.00  0.00     0.001 A 
ATOM     83  C   UNL A   1      36.343  29.527  29.875  1.00  0.00     0.000 A 
ENDBRANCH  59  78
BRANCH  71  84
ATOM     84  C   UNL A   1      44.103  34.069  30.504  1.00  0.00    -0.014 A 
ATOM     85  C   UNL A   1      43.883  35.191  29.690  1.00  0.00     0.009 A 
ATOM     86  C   UNL A   1      44.253  34.249  31.887  1.00  0.00     0.009 A 
ATOM     87  C   UNL A   1      43.846  36.471  30.249  1.00  0.00     0.001 A 
ATOM     88  C   UNL A   1      44.181  35.525  32.446  1.00  0.00     0.001 A 
ATOM     89  C   UNL A   1      43.987  36.635  31.626  1.00  0.00     0.000 A 
ENDBRANCH  71  84
ENDBRANCH  45  46
ENDBRANCH  37  40
ENDBRANCH  35  36
ENDBRANCH  34  35
ENDBRANCH  33  34
ENDBRANCH   1  33
TORSDOF 17
ENDMDL
MODEL 3
REMARK VINA RESULT:     -11.8      0.702      5.650
REMARK SMILES COc1ccccc1[C@@H]1C[N@@H+](Cc2cc3c(cc2C)OCO3)C[C@H]1C(=O)NCCCCCCNC(=O)c1ccc(-c2c3nc(c(-c4ccccc4)c4ccc([nH]4)c(-c4ccccc4)c4nc(c(-c5ccccc5)c5ccc2[nH]5)C=C4)C=C3)cc1
REMARK SMILES IDX 30 1 29 2 28 3 27 4 25 5 26 6 24 8 9 9 10 10 11 11 23 12
REMARK SMILES IDX 8 14 3 15 4 16 5 17 7 18 6 19 2 20 1 21 12 22 13 23 14 24
REMARK SMILES IDX 18 25 15 26 17 27 19 28 16 29 22 30 20 31 21 32 31 33 32 34
REMARK SMILES IDX 33 35 34 36 35 37 36 39 37 40 38 41 84 42 39 43 83 44 40 45
REMARK SMILES IDX 41 46 42 47 77 48 43 49 82 50 76 51 78 52 44 53 81 54 75 55
REMARK SMILES IDX 74 56 45 58 67 59 52 60 66 61 53 62 56 63 65 64 79 65 54 66
REMARK SMILES IDX 55 67 64 69 80 70 57 71 46 72 47 73 51 74 48 75 50 76 49 77
REMARK SMILES IDX 68 78 69 79 73 80 70 81 72 82 71 83 58 84 59 85 63 86 60 87
REMARK SMILES IDX 62 88 61 89
REMARK H PARENT 27 7 11 13 34 38 78 57 56 68
REMARK Flexibility Score: inf
ROOT
ATOM      1  C   UNL A   1      34.733  32.048  28.659  1.00  0.00     0.002 C 
ENDROOT
BRANCH   1   2
ATOM      2  C   UNL A   1      34.303  31.003  27.622  1.00  0.00     0.021 C 
BRANCH   2   3
ATOM      3  C   UNL A   1      34.810  29.517  27.581  1.00  0.00     0.116 C 
BRANCH   3   4
ATOM      4  N   UNL A   1      33.858  28.387  27.022  1.00  0.00    -0.356 N 
ATOM      5  C   UNL A   1      33.423  27.474  26.097  1.00  0.00     0.229 C 
ATOM      6  O   UNL A   1      32.488  26.827  26.639  1.00  0.00    -0.275 OA
ATOM      7  H   UNL A   1      33.209  28.276  27.752  1.00  0.00     0.163 HD
BRANCH   5   8
ATOM      8  C   UNL A   1      33.685  26.976  24.556  1.00  0.00     0.146 C 
ATOM      9  C   UNL A   1      33.425  25.487  24.114  1.00  0.00     0.096 C 
ATOM     10  C   UNL A   1      33.291  25.506  22.572  1.00  0.00     0.272 C 
ATOM     11  N   UNL A   1      32.803  26.838  22.208  1.00  0.00    -0.330 N 
ATOM     12  C   UNL A   1      33.399  27.744  23.229  1.00  0.00     0.276 C 
ATOM     13  H   UNL A   1      33.110  27.203  21.306  1.00  0.00     0.348 HD
BRANCH   9  14
ATOM     14  C   UNL A   1      34.193  24.242  24.556  1.00  0.00     0.004 A 
ATOM     15  C   UNL A   1      33.771  22.899  24.546  1.00  0.00     0.122 A 
ATOM     16  C   UNL A   1      34.541  21.909  25.196  1.00  0.00     0.047 A 
ATOM     17  C   UNL A   1      35.693  22.225  25.913  1.00  0.00     0.004 A 
ATOM     18  C   UNL A   1      35.370  24.524  25.305  1.00  0.00     0.008 A 
ATOM     19  C   UNL A   1      36.095  23.545  25.988  1.00  0.00     0.001 A 
BRANCH  15  20
ATOM     20  O   UNL A   1      32.537  22.421  24.195  1.00  0.00    -0.496 OA
ATOM     21  C   UNL A   1      32.429  21.760  22.950  1.00  0.00     0.278 C 
ENDBRANCH  15  20
ENDBRANCH   9  14
BRANCH  11  22
ATOM     22  C   UNL A   1      31.347  26.865  21.858  1.00  0.00     0.299 C 
BRANCH  22  23
ATOM     23  C   UNL A   1      30.502  27.889  22.598  1.00  0.00     0.013 A 
ATOM     24  C   UNL A   1      30.470  29.282  22.351  1.00  0.00     0.060 A 
ATOM     25  C   UNL A   1      29.533  27.360  23.426  1.00  0.00    -0.038 A 
ATOM     26  C   UNL A   1      29.324  29.984  22.700  1.00  0.00     0.166 A 
ATOM     27  C   UNL A   1      28.291  27.965  23.311  1.00  0.00     0.054 A 
ATOM     28  C   UNL A   1      29.868  26.218  24.341  1.00  0.00     0.045 C 
ATOM     29  C   UNL A   1      28.210  29.291  23.040  1.00  0.00     0.166 A 
ATOM     30  O   UNL A   1      29.055  31.317  22.684  1.00  0.00    -0.454 OA
ATOM     31  O   UNL A   1      27.087  30.034  23.168  1.00  0.00    -0.454 OA
ATOM     32  C   UNL A   1      27.701  31.327  23.222  1.00  0.00     0.468 C 
ENDBRANCH  22  23
ENDBRANCH  11  22
ENDBRANCH   5   8
ENDBRANCH   3   4
ENDBRANCH   2   3
ENDBRANCH   1   2
BRANCH   1  33
ATOM     33  C   UNL A   1      34.560  33.536  28.313  1.00  0.00     0.002 C 
BRANCH  33  34
ATOM     34  C   UNL A   1      33.282  34.283  28.750  1.00  0.00     0.021 C 
BRANCH  34  35
ATOM     35  C   UNL A   1      33.426  35.664  29.399  1.00  0.00     0.116 C 
BRANCH  35  36
ATOM     36  N   UNL A   1      32.540  35.860  30.536  1.00  0.00    -0.352 N 
ATOM     37  C   UNL A   1      32.635  35.415  31.835  1.00  0.00     0.251 C 
ATOM     38  H   UNL A   1      31.740  36.401  30.344  1.00  0.00     0.163 HD
ATOM     39  O   UNL A   1      31.681  35.508  32.591  1.00  0.00    -0.269 OA
BRANCH  37  40
ATOM     40  C   UNL A   1      33.894  34.812  32.319  1.00  0.00     0.039 A 
ATOM     41  C   UNL A   1      33.863  33.529  32.871  1.00  0.00     0.014 A 
ATOM     42  C   UNL A   1      35.092  35.526  32.257  1.00  0.00     0.014 A 
ATOM     43  C   UNL A   1      35.054  32.925  33.281  1.00  0.00     0.010 A 
ATOM     44  C   UNL A   1      36.285  34.904  32.620  1.00  0.00     0.010 A 
ATOM     45  C   UNL A   1      36.279  33.591  33.119  1.00  0.00    -0.014 A 
BRANCH  45  46
ATOM     46  C   UNL A   1      37.565  32.908  33.416  1.00  0.00     0.031 A 
ATOM     47  C   UNL A   1      38.132  31.892  32.462  1.00  0.00     0.074 A 
ATOM     48  C   UNL A   1      38.183  33.156  34.588  1.00  0.00     0.049 A 
ATOM     49  N   UNL A   1      39.213  31.164  32.582  1.00  0.00    -0.248 NA
ATOM     50  C   UNL A   1      37.379  31.647  31.221  1.00  0.00     0.031 C 
ATOM     51  C   UNL A   1      37.708  34.088  35.616  1.00  0.00     0.029 A 
ATOM     52  N   UNL A   1      39.340  32.642  35.121  1.00  0.00    -0.354 N 
ATOM     53  C   UNL A   1      39.260  30.365  31.446  1.00  0.00     0.074 A 
ATOM     54  C   UNL A   1      38.083  30.671  30.664  1.00  0.00     0.031 C 
ATOM     55  C   UNL A   1      38.573  34.093  36.641  1.00  0.00     0.029 A 
ATOM     56  C   UNL A   1      39.639  33.135  36.370  1.00  0.00     0.049 A 
ATOM     57  H   UNL A   1      39.902  31.983  34.654  1.00  0.00     0.167 HD
ATOM     58  C   UNL A   1      40.207  29.466  31.086  1.00  0.00     0.031 A 
ATOM     59  C   UNL A   1      40.647  32.835  37.210  1.00  0.00     0.031 A 
ATOM     60  C   UNL A   1      41.383  29.178  31.862  1.00  0.00     0.049 A 
ATOM     61  C   UNL A   1      41.669  31.813  36.787  1.00  0.00     0.074 A 
ATOM     62  C   UNL A   1      42.442  28.346  31.538  1.00  0.00     0.029 A 
ATOM     63  N   UNL A   1      41.652  29.698  33.117  1.00  0.00    -0.354 N 
ATOM     64  N   UNL A   1      41.755  31.149  35.660  1.00  0.00    -0.248 NA
ATOM     65  C   UNL A   1      42.733  31.501  37.752  1.00  0.00     0.031 C 
ATOM     66  C   UNL A   1      43.313  28.306  32.630  1.00  0.00     0.029 A 
ATOM     67  C   UNL A   1      42.833  29.166  33.603  1.00  0.00     0.049 A 
ATOM     68  H   UNL A   1      41.085  30.350  33.592  1.00  0.00     0.167 HD
ATOM     69  C   UNL A   1      42.893  30.362  35.772  1.00  0.00     0.074 A 
ATOM     70  C   UNL A   1      43.482  30.652  37.062  1.00  0.00     0.031 C 
ATOM     71  C   UNL A   1      43.404  29.469  34.889  1.00  0.00     0.031 A 
BRANCH  58  72
ATOM     72  C   UNL A   1      40.015  28.710  29.801  1.00  0.00    -0.014 A 
ATOM     73  C   UNL A   1      40.441  29.238  28.572  1.00  0.00     0.009 A 
ATOM     74  C   UNL A   1      39.488  27.409  29.836  1.00  0.00     0.009 A 
ATOM     75  C   UNL A   1      40.328  28.483  27.403  1.00  0.00     0.001 A 
ATOM     76  C   UNL A   1      39.401  26.646  28.670  1.00  0.00     0.001 A 
ATOM     77  C   UNL A   1      39.817  27.186  27.453  1.00  0.00     0.000 A 
ENDBRANCH  58  72
BRANCH  59  78
ATOM     78  C   UNL A   1      40.739  33.478  38.549  1.00  0.00    -0.014 A 
ATOM     79  C   UNL A   1      40.062  32.938  39.655  1.00  0.00     0.009 A 
ATOM     80  C   UNL A   1      41.461  34.671  38.718  1.00  0.00     0.009 A 
ATOM     81  C   UNL A   1      40.066  33.603  40.883  1.00  0.00     0.001 A 
ATOM     82  C   UNL A   1      41.495  35.313  39.958  1.00  0.00     0.001 A 
ATOM     83  C   UNL A   1      40.784  34.788  41.036  1.00  0.00     0.000 A 
ENDBRANCH  59  78
BRANCH  71  84
ATOM     84  C   UNL A   1      44.669  28.760  35.280  1.00  0.00    -0.014 A 
ATOM     85  C   UNL A   1      44.635  27.505  35.907  1.00  0.00     0.009 A 
ATOM     86  C   UNL A   1      45.912  29.335  34.975  1.00  0.00     0.009 A 
ATOM     87  C   UNL A   1      45.823  26.854  36.248  1.00  0.00     0.001 A 
ATOM     88  C   UNL A   1      47.097  28.667  35.286  1.00  0.00     0.001 A 
ATOM     89  C   UNL A   1      47.051  27.432  35.931  1.00  0.00     0.000 A 
ENDBRANCH  71  84
ENDBRANCH  45  46
ENDBRANCH  37  40
ENDBRANCH  35  36
ENDBRANCH  34  35
ENDBRANCH  33  34
ENDBRANCH   1  33
TORSDOF 17
ENDMDL
