MODEL 1
REMARK VINA RESULT:     -10.9      0.000      0.000
REMARK SMILES COc1c[nH]c(C[N@H+]2CCC[C@@H](c3ccc(C(=O)NCCCCCCNC(=O)c4ccc(-c5c6nc(c(-c7ccccc7)c7ccc([nH]7)c(-c7ccccc7)c7nc(c(-c8ccccc8)c8ccc5[nH]8)C=C7)C=C6)cc4)cc3)C2)cc1=O
REMARK SMILES IDX 21 1 20 2 19 3 17 4 18 5 16 7 13 8 14 9 78 10 15 11 77 12
REMARK SMILES IDX 12 13 8 14 9 15 79 16 10 18 11 19 7 20 6 21 3 22 4 23 81 24
REMARK SMILES IDX 5 25 80 26 82 27 2 29 1 30 22 31 23 32 24 33 25 34 26 35
REMARK SMILES IDX 27 36 28 38 29 39 30 40 76 41 31 42 75 43 32 44 33 45 34 46
REMARK SMILES IDX 69 47 35 48 74 49 68 50 70 51 36 52 73 53 67 54 66 55 37 57
REMARK SMILES IDX 59 58 44 59 58 60 45 61 48 62 57 63 71 64 46 65 47 66 56 68
REMARK SMILES IDX 72 69 49 70 38 71 39 72 43 73 40 74 42 75 41 76 60 77 61 78
REMARK SMILES IDX 65 79 62 80 64 81 63 82 50 83 51 84 55 85 52 86 54 87 53 88
REMARK H PARENT 19 6 8 17 5 28 26 37 70 56 48 67
REMARK Flexibility Score: inf
ROOT
ATOM      1  C   UNL A   1      34.764  21.833  26.765  1.00  0.00     0.021 C 
ENDROOT
BRANCH   1   2
ATOM      2  C   UNL A   1      33.739  21.076  27.610  1.00  0.00     0.116 C 
BRANCH   2   3
ATOM      3  N   UNL A   1      33.278  19.917  26.877  1.00  0.00    -0.352 N 
ATOM      4  C   UNL A   1      32.534  19.796  25.736  1.00  0.00     0.251 C 
ATOM      5  O   UNL A   1      32.231  18.661  25.367  1.00  0.00    -0.269 OA
ATOM      6  H   UNL A   1      33.551  19.057  27.272  1.00  0.00     0.163 HD
BRANCH   4   7
ATOM      7  C   UNL A   1      32.157  20.962  24.891  1.00  0.00     0.039 A 
ATOM      8  C   UNL A   1      31.734  23.184  23.201  1.00  0.00    -0.039 A 
ATOM      9  C   UNL A   1      32.476  22.076  22.762  1.00  0.00     0.005 A 
ATOM     10  C   UNL A   1      31.131  23.124  24.461  1.00  0.00     0.005 A 
ATOM     11  C   UNL A   1      32.701  20.989  23.604  1.00  0.00     0.014 A 
ATOM     12  C   UNL A   1      31.313  22.005  25.281  1.00  0.00     0.014 A 
BRANCH   8  13
ATOM     13  C   UNL A   1      31.566  24.423  22.335  1.00  0.00     0.074 C 
ATOM     14  N   UNL A   1      30.889  26.857  22.415  1.00  0.00    -0.329 N 
ATOM     15  C   UNL A   1      32.198  27.239  21.869  1.00  0.00     0.262 C 
ATOM     16  C   UNL A   1      30.968  25.590  23.151  1.00  0.00     0.270 C 
ATOM     17  H   UNL A   1      30.259  26.705  21.627  1.00  0.00     0.348 HD
ATOM     18  C   UNL A   1      32.768  26.147  20.961  1.00  0.00     0.062 C 
ATOM     19  C   UNL A   1      32.905  24.824  21.706  1.00  0.00     0.020 C 
BRANCH  14  20
ATOM     20  C   UNL A   1      30.286  27.944  23.220  1.00  0.00     0.317 C 
BRANCH  20  21
ATOM     21  C   UNL A   1      31.076  28.411  24.441  1.00  0.00     0.074 A 
ATOM     22  C   UNL A   1      32.442  29.631  26.633  1.00  0.00     0.182 A 
ATOM     23  C   UNL A   1      32.538  30.084  25.377  1.00  0.00     0.133 A 
ATOM     24  C   UNL A   1      31.632  28.377  26.830  1.00  0.00     0.223 A 
ATOM     25  N   UNL A   1      31.951  29.475  24.302  1.00  0.00    -0.357 N 
ATOM     26  C   UNL A   1      30.923  27.820  25.641  1.00  0.00     0.083 A 
ATOM     27  O   UNL A   1      31.513  27.820  27.918  1.00  0.00    -0.286 OA
ATOM     28  H   UNL A   1      32.157  29.806  23.398  1.00  0.00     0.166 HD
BRANCH  22  29
ATOM     29  O   UNL A   1      32.994  30.337  27.685  1.00  0.00    -0.491 OA
ATOM     30  C   UNL A   1      34.390  30.555  27.515  1.00  0.00     0.278 C 
ENDBRANCH  22  29
ENDBRANCH  20  21
ENDBRANCH  14  20
ENDBRANCH   8  13
ENDBRANCH   4   7
ENDBRANCH   2   3
ENDBRANCH   1   2
BRANCH   1  31
ATOM     31  C   UNL A   1      34.405  23.314  26.592  1.00  0.00     0.002 C 
BRANCH  31  32
ATOM     32  C   UNL A   1      34.727  23.882  25.205  1.00  0.00     0.002 C 
BRANCH  32  33
ATOM     33  C   UNL A   1      35.916  23.215  24.513  1.00  0.00     0.021 C 
BRANCH  33  34
ATOM     34  C   UNL A   1      37.260  23.805  24.918  1.00  0.00     0.116 C 
BRANCH  34  35
ATOM     35  N   UNL A   1      38.163  22.772  25.405  1.00  0.00    -0.352 N 
ATOM     36  C   UNL A   1      39.296  22.919  26.166  1.00  0.00     0.251 C 
ATOM     37  H   UNL A   1      37.931  21.849  25.156  1.00  0.00     0.163 HD
ATOM     38  O   UNL A   1      40.096  22.001  26.287  1.00  0.00    -0.269 OA
BRANCH  36  39
ATOM     39  C   UNL A   1      39.538  24.213  26.831  1.00  0.00     0.039 A 
ATOM     40  C   UNL A   1      38.992  24.448  28.093  1.00  0.00     0.014 A 
ATOM     41  C   UNL A   1      40.327  25.180  26.202  1.00  0.00     0.014 A 
ATOM     42  C   UNL A   1      39.281  25.644  28.752  1.00  0.00     0.010 A 
ATOM     43  C   UNL A   1      40.680  26.331  26.893  1.00  0.00     0.010 A 
ATOM     44  C   UNL A   1      40.149  26.581  28.168  1.00  0.00    -0.014 A 
BRANCH  44  45
ATOM     45  C   UNL A   1      40.497  27.853  28.845  1.00  0.00     0.031 A 
ATOM     46  C   UNL A   1      41.839  27.994  29.509  1.00  0.00     0.074 A 
ATOM     47  C   UNL A   1      39.587  28.840  28.937  1.00  0.00     0.049 A 
ATOM     48  N   UNL A   1      42.295  28.965  30.257  1.00  0.00    -0.248 NA
ATOM     49  C   UNL A   1      42.783  26.876  29.336  1.00  0.00     0.031 C 
ATOM     50  C   UNL A   1      38.242  28.814  28.357  1.00  0.00     0.029 A 
ATOM     51  N   UNL A   1      39.653  30.056  29.568  1.00  0.00    -0.354 N 
ATOM     52  C   UNL A   1      43.561  28.565  30.661  1.00  0.00     0.074 A 
ATOM     53  C   UNL A   1      43.782  27.241  30.124  1.00  0.00     0.031 C 
ATOM     54  C   UNL A   1      37.620  29.969  28.642  1.00  0.00     0.029 A 
ATOM     55  C   UNL A   1      38.498  30.794  29.465  1.00  0.00     0.049 A 
ATOM     56  H   UNL A   1      40.452  30.371  30.050  1.00  0.00     0.167 HD
ATOM     57  C   UNL A   1      44.469  29.246  31.400  1.00  0.00     0.031 A 
ATOM     58  C   UNL A   1      38.180  31.993  29.989  1.00  0.00     0.031 A 
ATOM     59  C   UNL A   1      44.251  30.567  31.922  1.00  0.00     0.049 A 
ATOM     60  C   UNL A   1      39.195  32.719  30.829  1.00  0.00     0.074 A 
ATOM     61  C   UNL A   1      45.125  31.365  32.639  1.00  0.00     0.029 A 
ATOM     62  N   UNL A   1      43.072  31.284  31.785  1.00  0.00    -0.354 N 
ATOM     63  N   UNL A   1      40.411  32.352  31.158  1.00  0.00    -0.248 NA
ATOM     64  C   UNL A   1      38.798  34.029  31.361  1.00  0.00     0.031 C 
ATOM     65  C   UNL A   1      44.454  32.542  32.986  1.00  0.00     0.029 A 
ATOM     66  C   UNL A   1      43.188  32.506  32.425  1.00  0.00     0.049 A 
ATOM     67  H   UNL A   1      42.273  30.971  31.304  1.00  0.00     0.167 HD
ATOM     68  C   UNL A   1      40.936  33.402  31.900  1.00  0.00     0.074 A 
ATOM     69  C   UNL A   1      39.911  34.422  31.966  1.00  0.00     0.031 C 
ATOM     70  C   UNL A   1      42.160  33.514  32.471  1.00  0.00     0.031 A 
BRANCH  57  71
ATOM     71  C   UNL A   1      45.777  28.563  31.693  1.00  0.00    -0.014 A 
ATOM     72  C   UNL A   1      46.904  28.759  30.879  1.00  0.00     0.009 A 
ATOM     73  C   UNL A   1      45.891  27.731  32.818  1.00  0.00     0.009 A 
ATOM     74  C   UNL A   1      48.105  28.104  31.162  1.00  0.00     0.001 A 
ATOM     75  C   UNL A   1      47.102  27.105  33.118  1.00  0.00     0.001 A 
ATOM     76  C   UNL A   1      48.204  27.282  32.283  1.00  0.00     0.000 A 
ENDBRANCH  57  71
BRANCH  58  77
ATOM     77  C   UNL A   1      36.843  32.590  29.729  1.00  0.00    -0.014 A 
ATOM     78  C   UNL A   1      36.633  33.405  28.606  1.00  0.00     0.009 A 
ATOM     79  C   UNL A   1      35.773  32.361  30.609  1.00  0.00     0.009 A 
ATOM     80  C   UNL A   1      35.390  34.005  28.387  1.00  0.00     0.001 A 
ATOM     81  C   UNL A   1      34.523  32.935  30.370  1.00  0.00     0.001 A 
ATOM     82  C   UNL A   1      34.335  33.765  29.266  1.00  0.00     0.000 A 
ENDBRANCH  58  77
BRANCH  70  83
ATOM     83  C   UNL A   1      42.485  34.806  33.168  1.00  0.00    -0.014 A 
ATOM     84  C   UNL A   1      43.136  35.857  32.504  1.00  0.00     0.009 A 
ATOM     85  C   UNL A   1      42.076  34.991  34.499  1.00  0.00     0.009 A 
ATOM     86  C   UNL A   1      43.397  37.057  33.170  1.00  0.00     0.001 A 
ATOM     87  C   UNL A   1      42.308  36.202  35.151  1.00  0.00     0.001 A 
ATOM     88  C   UNL A   1      42.977  37.230  34.490  1.00  0.00     0.000 A 
ENDBRANCH  70  83
ENDBRANCH  44  45
ENDBRANCH  36  39
ENDBRANCH  34  35
ENDBRANCH  33  34
ENDBRANCH  32  33
ENDBRANCH  31  32
ENDBRANCH   1  31
TORSDOF 17
ENDMDL
MODEL 2
REMARK VINA RESULT:     -10.9      2.099      2.893
REMARK SMILES COc1c[nH]c(C[N@H+]2CCC[C@@H](c3ccc(C(=O)NCCCCCCNC(=O)c4ccc(-c5c6nc(c(-c7ccccc7)c7ccc([nH]7)c(-c7ccccc7)c7nc(c(-c8ccccc8)c8ccc5[nH]8)C=C7)C=C6)cc4)cc3)C2)cc1=O
REMARK SMILES IDX 21 1 20 2 19 3 17 4 18 5 16 7 13 8 14 9 78 10 15 11 77 12
REMARK SMILES IDX 12 13 8 14 9 15 79 16 10 18 11 19 7 20 6 21 3 22 4 23 81 24
REMARK SMILES IDX 5 25 80 26 82 27 2 29 1 30 22 31 23 32 24 33 25 34 26 35
REMARK SMILES IDX 27 36 28 38 29 39 30 40 76 41 31 42 75 43 32 44 33 45 34 46
REMARK SMILES IDX 69 47 35 48 74 49 68 50 70 51 36 52 73 53 67 54 66 55 37 57
REMARK SMILES IDX 59 58 44 59 58 60 45 61 48 62 57 63 71 64 46 65 47 66 56 68
REMARK SMILES IDX 72 69 49 70 38 71 39 72 43 73 40 74 42 75 41 76 60 77 61 78
REMARK SMILES IDX 65 79 62 80 64 81 63 82 50 83 51 84 55 85 52 86 54 87 53 88
REMARK H PARENT 19 6 8 17 5 28 26 37 70 56 48 67
REMARK Flexibility Score: inf
ROOT
ATOM      1  C   UNL A   1      34.062  21.269  25.624  1.00  0.00     0.021 C 
ENDROOT
BRANCH   1   2
ATOM      2  C   UNL A   1      32.791  20.422  25.543  1.00  0.00     0.116 C 
BRANCH   2   3
ATOM      3  N   UNL A   1      32.545  20.061  24.164  1.00  0.00    -0.352 N 
ATOM      4  C   UNL A   1      32.209  20.813  23.071  1.00  0.00     0.251 C 
ATOM      5  O   UNL A   1      31.994  20.221  22.013  1.00  0.00    -0.269 OA
ATOM      6  H   UNL A   1      32.635  19.099  23.977  1.00  0.00     0.163 HD
BRANCH   4   7
ATOM      7  C   UNL A   1      32.179  22.301  23.093  1.00  0.00     0.039 A 
ATOM      8  C   UNL A   1      32.428  25.113  23.151  1.00  0.00    -0.039 A 
ATOM      9  C   UNL A   1      33.249  24.334  22.320  1.00  0.00     0.005 A 
ATOM     10  C   UNL A   1      31.422  24.472  23.881  1.00  0.00     0.005 A 
ATOM     11  C   UNL A   1      33.138  22.945  22.307  1.00  0.00     0.014 A 
ATOM     12  C   UNL A   1      31.279  23.082  23.821  1.00  0.00     0.014 A 
BRANCH   8  13
ATOM     13  C   UNL A   1      32.604  26.620  23.257  1.00  0.00     0.074 C 
ATOM     14  N   UNL A   1      31.409  28.743  23.929  1.00  0.00    -0.329 N 
ATOM     15  C   UNL A   1      32.471  29.033  24.902  1.00  0.00     0.262 C 
ATOM     16  C   UNL A   1      31.287  27.301  23.687  1.00  0.00     0.270 C 
ATOM     17  H   UNL A   1      31.677  29.171  23.042  1.00  0.00     0.348 HD
ATOM     18  C   UNL A   1      33.818  28.468  24.447  1.00  0.00     0.062 C 
ATOM     19  C   UNL A   1      33.740  26.961  24.228  1.00  0.00     0.020 C 
BRANCH  14  20
ATOM     20  C   UNL A   1      30.120  29.365  24.312  1.00  0.00     0.317 C 
BRANCH  20  21
ATOM     21  C   UNL A   1      29.590  30.463  23.392  1.00  0.00     0.074 A 
ATOM     22  C   UNL A   1      28.315  32.284  21.598  1.00  0.00     0.182 A 
ATOM     23  C   UNL A   1      28.536  31.000  21.292  1.00  0.00     0.133 A 
ATOM     24  C   UNL A   1      28.851  32.755  22.925  1.00  0.00     0.223 A 
ATOM     25  N   UNL A   1      29.208  30.129  22.105  1.00  0.00    -0.357 N 
ATOM     26  C   UNL A   1      29.474  31.735  23.818  1.00  0.00     0.083 A 
ATOM     27  O   UNL A   1      28.771  33.920  23.303  1.00  0.00    -0.286 OA
ATOM     28  H   UNL A   1      29.425  29.231  21.763  1.00  0.00     0.166 HD
BRANCH  22  29
ATOM     29  O   UNL A   1      27.562  33.090  20.767  1.00  0.00    -0.491 OA
ATOM     30  C   UNL A   1      27.791  32.811  19.391  1.00  0.00     0.278 C 
ENDBRANCH  22  29
ENDBRANCH  20  21
ENDBRANCH  14  20
ENDBRANCH   8  13
ENDBRANCH   4   7
ENDBRANCH   2   3
ENDBRANCH   1   2
BRANCH   1  31
ATOM     31  C   UNL A   1      33.846  22.582  26.388  1.00  0.00     0.002 C 
BRANCH  31  32
ATOM     32  C   UNL A   1      34.870  23.675  26.063  1.00  0.00     0.002 C 
BRANCH  32  33
ATOM     33  C   UNL A   1      35.762  23.363  24.860  1.00  0.00     0.021 C 
BRANCH  33  34
ATOM     34  C   UNL A   1      37.220  23.744  25.074  1.00  0.00     0.116 C 
BRANCH  34  35
ATOM     35  N   UNL A   1      37.993  22.615  25.574  1.00  0.00    -0.352 N 
ATOM     36  C   UNL A   1      39.175  22.631  26.271  1.00  0.00     0.251 C 
ATOM     37  H   UNL A   1      37.618  21.725  25.387  1.00  0.00     0.163 HD
ATOM     38  O   UNL A   1      39.840  21.613  26.404  1.00  0.00    -0.269 OA
BRANCH  36  39
ATOM     39  C   UNL A   1      39.635  23.906  26.852  1.00  0.00     0.039 A 
ATOM     40  C   UNL A   1      40.515  24.712  26.130  1.00  0.00     0.014 A 
ATOM     41  C   UNL A   1      39.169  24.304  28.109  1.00  0.00     0.014 A 
ATOM     42  C   UNL A   1      40.893  25.951  26.650  1.00  0.00     0.010 A 
ATOM     43  C   UNL A   1      39.479  25.570  28.584  1.00  0.00     0.010 A 
ATOM     44  C   UNL A   1      40.355  26.400  27.867  1.00  0.00    -0.014 A 
BRANCH  44  45
ATOM     45  C   UNL A   1      40.714  27.719  28.442  1.00  0.00     0.031 A 
ATOM     46  C   UNL A   1      42.106  27.942  28.967  1.00  0.00     0.074 A 
ATOM     47  C   UNL A   1      39.777  28.677  28.569  1.00  0.00     0.049 A 
ATOM     48  N   UNL A   1      42.590  28.969  29.617  1.00  0.00    -0.248 NA
ATOM     49  C   UNL A   1      43.073  26.850  28.763  1.00  0.00     0.031 C 
ATOM     50  C   UNL A   1      38.387  28.571  28.121  1.00  0.00     0.029 A 
ATOM     51  N   UNL A   1      39.854  29.927  29.127  1.00  0.00    -0.354 N 
ATOM     52  C   UNL A   1      43.904  28.636  29.919  1.00  0.00     0.074 A 
ATOM     53  C   UNL A   1      44.126  27.294  29.432  1.00  0.00     0.031 C 
ATOM     54  C   UNL A   1      37.748  29.719  28.405  1.00  0.00     0.029 A 
ATOM     55  C   UNL A   1      38.666  30.618  29.097  1.00  0.00     0.049 A 
ATOM     56  H   UNL A   1      40.681  30.296  29.514  1.00  0.00     0.167 HD
ATOM     57  C   UNL A   1      44.848  29.388  30.531  1.00  0.00     0.031 A 
ATOM     58  C   UNL A   1      38.350  31.832  29.585  1.00  0.00     0.031 A 
ATOM     59  C   UNL A   1      44.627  30.728  31.003  1.00  0.00     0.049 A 
ATOM     60  C   UNL A   1      39.410  32.638  30.287  1.00  0.00     0.074 A 
ATOM     61  C   UNL A   1      45.531  31.594  31.591  1.00  0.00     0.029 A 
ATOM     62  N   UNL A   1      43.412  31.395  30.942  1.00  0.00    -0.354 N 
ATOM     63  N   UNL A   1      40.664  32.333  30.517  1.00  0.00    -0.248 NA
ATOM     64  C   UNL A   1      39.011  33.961  30.786  1.00  0.00     0.031 C 
ATOM     65  C   UNL A   1      44.850  32.764  31.939  1.00  0.00     0.029 A 
ATOM     66  C   UNL A   1      43.539  32.653  31.503  1.00  0.00     0.049 A 
ATOM     67  H   UNL A   1      42.585  31.027  30.555  1.00  0.00     0.167 HD
ATOM     68  C   UNL A   1      41.214  33.440  31.150  1.00  0.00     0.074 A 
ATOM     69  C   UNL A   1      40.159  34.426  31.260  1.00  0.00     0.031 C 
ATOM     70  C   UNL A   1      42.480  33.625  31.596  1.00  0.00     0.031 A 
BRANCH  57  71
ATOM     71  C   UNL A   1      46.204  28.768  30.734  1.00  0.00    -0.014 A 
ATOM     72  C   UNL A   1      46.530  28.095  31.922  1.00  0.00     0.009 A 
ATOM     73  C   UNL A   1      47.161  28.836  29.709  1.00  0.00     0.009 A 
ATOM     74  C   UNL A   1      47.800  27.539  32.095  1.00  0.00     0.001 A 
ATOM     75  C   UNL A   1      48.417  28.248  29.871  1.00  0.00     0.001 A 
ATOM     76  C   UNL A   1      48.739  27.611  31.068  1.00  0.00     0.000 A 
ENDBRANCH  57  71
BRANCH  58  77
ATOM     77  C   UNL A   1      36.972  32.367  29.424  1.00  0.00    -0.014 A 
ATOM     78  C   UNL A   1      36.017  32.193  30.439  1.00  0.00     0.009 A 
ATOM     79  C   UNL A   1      36.598  33.042  28.252  1.00  0.00     0.009 A 
ATOM     80  C   UNL A   1      34.709  32.654  30.268  1.00  0.00     0.001 A 
ATOM     81  C   UNL A   1      35.299  33.531  28.098  1.00  0.00     0.001 A 
ATOM     82  C   UNL A   1      34.353  33.326  29.101  1.00  0.00     0.000 A 
ENDBRANCH  58  77
BRANCH  70  83
ATOM     83  C   UNL A   1      42.817  34.965  32.190  1.00  0.00    -0.014 A 
ATOM     84  C   UNL A   1      42.566  35.256  33.540  1.00  0.00     0.009 A 
ATOM     85  C   UNL A   1      43.452  35.930  31.393  1.00  0.00     0.009 A 
ATOM     86  C   UNL A   1      42.917  36.499  34.070  1.00  0.00     0.001 A 
ATOM     87  C   UNL A   1      43.832  37.159  31.934  1.00  0.00     0.001 A 
ATOM     88  C   UNL A   1      43.556  37.446  33.269  1.00  0.00     0.000 A 
ENDBRANCH  70  83
ENDBRANCH  44  45
ENDBRANCH  36  39
ENDBRANCH  34  35
ENDBRANCH  33  34
ENDBRANCH  32  33
ENDBRANCH  31  32
ENDBRANCH   1  31
TORSDOF 17
ENDMDL
MODEL 3
REMARK VINA RESULT:     -10.4      4.425      8.200
REMARK SMILES COc1c[nH]c(C[N@H+]2CCC[C@@H](c3ccc(C(=O)NCCCCCCNC(=O)c4ccc(-c5c6nc(c(-c7ccccc7)c7ccc([nH]7)c(-c7ccccc7)c7nc(c(-c8ccccc8)c8ccc5[nH]8)C=C7)C=C6)cc4)cc3)C2)cc1=O
REMARK SMILES IDX 21 1 20 2 19 3 17 4 18 5 16 7 13 8 14 9 78 10 15 11 77 12
REMARK SMILES IDX 12 13 8 14 9 15 79 16 10 18 11 19 7 20 6 21 3 22 4 23 81 24
REMARK SMILES IDX 5 25 80 26 82 27 2 29 1 30 22 31 23 32 24 33 25 34 26 35
REMARK SMILES IDX 27 36 28 38 29 39 30 40 76 41 31 42 75 43 32 44 33 45 34 46
REMARK SMILES IDX 69 47 35 48 74 49 68 50 70 51 36 52 73 53 67 54 66 55 37 57
REMARK SMILES IDX 59 58 44 59 58 60 45 61 48 62 57 63 71 64 46 65 47 66 56 68
REMARK SMILES IDX 72 69 49 70 38 71 39 72 43 73 40 74 42 75 41 76 60 77 61 78
REMARK SMILES IDX 65 79 62 80 64 81 63 82 50 83 51 84 55 85 52 86 54 87 53 88
REMARK H PARENT 19 6 8 17 5 28 26 37 70 56 48 67
REMARK Flexibility Score: inf
ROOT
ATOM      1  C   UNL A   1      36.301  30.711  28.442  1.00  0.00     0.021 C 
ENDROOT
BRANCH   1   2
ATOM      2  C   UNL A   1      35.411  29.529  28.054  1.00  0.00     0.116 C 
BRANCH   2   3
ATOM      3  N   UNL A   1      34.049  29.989  27.899  1.00  0.00    -0.352 N 
ATOM      4  C   UNL A   1      33.031  29.566  27.088  1.00  0.00     0.251 C 
ATOM      5  O   UNL A   1      31.974  30.197  27.121  1.00  0.00    -0.269 OA
ATOM      6  H   UNL A   1      33.810  30.744  28.484  1.00  0.00     0.163 HD
BRANCH   4   7
ATOM      7  C   UNL A   1      33.124  28.342  26.246  1.00  0.00     0.039 A 
ATOM      8  C   UNL A   1      33.374  25.870  24.906  1.00  0.00    -0.039 A 
ATOM      9  C   UNL A   1      32.672  25.964  26.119  1.00  0.00     0.005 A 
ATOM     10  C   UNL A   1      33.868  27.044  24.330  1.00  0.00     0.005 A 
ATOM     11  C   UNL A   1      32.567  27.181  26.789  1.00  0.00     0.014 A 
ATOM     12  C   UNL A   1      33.710  28.273  24.980  1.00  0.00     0.014 A 
BRANCH   8  13
ATOM     13  C   UNL A   1      33.589  24.533  24.214  1.00  0.00     0.074 C 
ATOM     14  N   UNL A   1      32.811  22.128  24.195  1.00  0.00    -0.329 N 
ATOM     15  C   UNL A   1      32.442  22.258  22.779  1.00  0.00     0.262 C 
ATOM     16  C   UNL A   1      32.750  23.423  24.883  1.00  0.00     0.270 C 
ATOM     17  H   UNL A   1      33.782  21.816  24.234  1.00  0.00     0.348 HD
ATOM     18  C   UNL A   1      33.335  23.271  22.058  1.00  0.00     0.062 C 
ATOM     19  C   UNL A   1      33.262  24.643  22.721  1.00  0.00     0.020 C 
BRANCH  14  20
ATOM     20  C   UNL A   1      32.016  21.083  24.881  1.00  0.00     0.317 C 
BRANCH  20  21
ATOM     21  C   UNL A   1      32.523  19.647  24.759  1.00  0.00     0.074 A 
ATOM     22  C   UNL A   1      33.214  16.876  24.788  1.00  0.00     0.182 A 
ATOM     23  C   UNL A   1      33.081  17.602  25.905  1.00  0.00     0.133 A 
ATOM     24  C   UNL A   1      33.059  17.619  23.487  1.00  0.00     0.223 A 
ATOM     25  N   UNL A   1      32.822  18.945  25.913  1.00  0.00    -0.357 N 
ATOM     26  C   UNL A   1      32.666  19.057  23.557  1.00  0.00     0.083 A 
ATOM     27  O   UNL A   1      33.216  17.089  22.391  1.00  0.00    -0.286 OA
ATOM     28  H   UNL A   1      32.846  19.428  26.770  1.00  0.00     0.166 HD
BRANCH  22  29
ATOM     29  O   UNL A   1      33.398  15.508  24.850  1.00  0.00    -0.491 OA
ATOM     30  C   UNL A   1      32.379  14.859  25.602  1.00  0.00     0.278 C 
ENDBRANCH  22  29
ENDBRANCH  20  21
ENDBRANCH  14  20
ENDBRANCH   8  13
ENDBRANCH   4   7
ENDBRANCH   2   3
ENDBRANCH   1   2
BRANCH   1  31
ATOM     31  C   UNL A   1      35.506  31.871  29.055  1.00  0.00     0.002 C 
BRANCH  31  32
ATOM     32  C   UNL A   1      36.118  32.445  30.338  1.00  0.00     0.002 C 
BRANCH  32  33
ATOM     33  C   UNL A   1      35.563  31.834  31.626  1.00  0.00     0.021 C 
BRANCH  33  34
ATOM     34  C   UNL A   1      36.541  31.890  32.791  1.00  0.00     0.116 C 
BRANCH  34  35
ATOM     35  N   UNL A   1      36.943  30.554  33.206  1.00  0.00    -0.352 N 
ATOM     36  C   UNL A   1      38.046  29.835  32.817  1.00  0.00     0.251 C 
ATOM     37  H   UNL A   1      36.347  30.108  33.850  1.00  0.00     0.163 HD
ATOM     38  O   UNL A   1      38.127  28.635  33.044  1.00  0.00    -0.269 OA
BRANCH  36  39
ATOM     39  C   UNL A   1      39.133  30.536  32.110  1.00  0.00     0.039 A 
ATOM     40  C   UNL A   1      40.044  31.303  32.838  1.00  0.00     0.014 A 
ATOM     41  C   UNL A   1      39.254  30.411  30.723  1.00  0.00     0.014 A 
ATOM     42  C   UNL A   1      41.113  31.907  32.177  1.00  0.00     0.010 A 
ATOM     43  C   UNL A   1      40.363  30.942  30.081  1.00  0.00     0.010 A 
ATOM     44  C   UNL A   1      41.296  31.708  30.798  1.00  0.00    -0.014 A 
BRANCH  44  45
ATOM     45  C   UNL A   1      42.432  32.315  30.064  1.00  0.00     0.031 A 
ATOM     46  C   UNL A   1      43.713  31.541  29.913  1.00  0.00     0.074 A 
ATOM     47  C   UNL A   1      42.344  33.579  29.611  1.00  0.00     0.049 A 
ATOM     48  N   UNL A   1      44.860  31.929  29.421  1.00  0.00    -0.248 NA
ATOM     49  C   UNL A   1      43.712  30.156  30.415  1.00  0.00     0.031 C 
ATOM     50  C   UNL A   1      41.164  34.442  29.719  1.00  0.00     0.029 A 
ATOM     51  N   UNL A   1      43.274  34.365  28.980  1.00  0.00    -0.354 N 
ATOM     52  C   UNL A   1      45.719  30.849  29.576  1.00  0.00     0.074 A 
ATOM     53  C   UNL A   1      44.980  29.810  30.256  1.00  0.00     0.031 C 
ATOM     54  C   UNL A   1      41.438  35.629  29.153  1.00  0.00     0.029 A 
ATOM     55  C   UNL A   1      42.822  35.630  28.690  1.00  0.00     0.049 A 
ATOM     56  H   UNL A   1      44.181  34.053  28.756  1.00  0.00     0.167 HD
ATOM     57  C   UNL A   1      47.005  30.725  29.171  1.00  0.00     0.031 A 
ATOM     58  C   UNL A   1      43.457  36.676  28.129  1.00  0.00     0.031 A 
ATOM     59  C   UNL A   1      47.734  31.756  28.483  1.00  0.00     0.049 A 
ATOM     60  C   UNL A   1      44.895  36.523  27.712  1.00  0.00     0.074 A 
ATOM     61  C   UNL A   1      49.024  31.712  27.985  1.00  0.00     0.029 A 
ATOM     62  N   UNL A   1      47.235  33.018  28.199  1.00  0.00    -0.354 N 
ATOM     63  N   UNL A   1      45.678  35.477  27.815  1.00  0.00    -0.248 NA
ATOM     64  C   UNL A   1      45.531  37.693  27.092  1.00  0.00     0.031 C 
ATOM     65  C   UNL A   1      49.326  32.968  27.450  1.00  0.00     0.029 A 
ATOM     66  C   UNL A   1      48.200  33.770  27.552  1.00  0.00     0.049 A 
ATOM     67  H   UNL A   1      46.329  33.331  28.422  1.00  0.00     0.167 HD
ATOM     68  C   UNL A   1      46.885  35.849  27.237  1.00  0.00     0.074 A 
ATOM     69  C   UNL A   1      46.727  37.213  26.779  1.00  0.00     0.031 C 
ATOM     70  C   UNL A   1      48.022  35.124  27.094  1.00  0.00     0.031 A 
BRANCH  57  71
ATOM     71  C   UNL A   1      47.706  29.429  29.476  1.00  0.00    -0.014 A 
ATOM     72  C   UNL A   1      47.933  28.468  28.478  1.00  0.00     0.009 A 
ATOM     73  C   UNL A   1      48.170  29.178  30.776  1.00  0.00     0.009 A 
ATOM     74  C   UNL A   1      48.574  27.265  28.786  1.00  0.00     0.001 A 
ATOM     75  C   UNL A   1      48.841  27.990  31.073  1.00  0.00     0.001 A 
ATOM     76  C   UNL A   1      49.031  27.030  30.081  1.00  0.00     0.000 A 
ENDBRANCH  57  71
BRANCH  58  77
ATOM     77  C   UNL A   1      42.738  37.962  27.919  1.00  0.00    -0.014 A 
ATOM     78  C   UNL A   1      42.048  38.203  26.720  1.00  0.00     0.009 A 
ATOM     79  C   UNL A   1      42.749  38.958  28.907  1.00  0.00     0.009 A 
ATOM     80  C   UNL A   1      41.413  39.429  26.504  1.00  0.00     0.001 A 
ATOM     81  C   UNL A   1      42.085  40.169  28.701  1.00  0.00     0.001 A 
ATOM     82  C   UNL A   1      41.428  40.408  27.496  1.00  0.00     0.000 A 
ENDBRANCH  58  77
BRANCH  70  83
ATOM     83  C   UNL A   1      49.166  35.766  26.361  1.00  0.00    -0.014 A 
ATOM     84  C   UNL A   1      50.181  36.458  27.041  1.00  0.00     0.009 A 
ATOM     85  C   UNL A   1      49.257  35.621  24.967  1.00  0.00     0.009 A 
ATOM     86  C   UNL A   1      51.247  37.018  26.334  1.00  0.00     0.001 A 
ATOM     87  C   UNL A   1      50.341  36.153  24.268  1.00  0.00     0.001 A 
ATOM     88  C   UNL A   1      51.329  36.859  24.950  1.00  0.00     0.000 A 
ENDBRANCH  70  83
ENDBRANCH  44  45
ENDBRANCH  36  39
ENDBRANCH  34  35
ENDBRANCH  33  34
ENDBRANCH  32  33
ENDBRANCH  31  32
ENDBRANCH   1  31
TORSDOF 17
ENDMDL
