MODEL 1
REMARK VINA RESULT:     -11.4      0.000      0.000
REMARK SMILES O=C(NCCCCCCNC(=O)[C@H]1CCCC[C@@H]1C(=O)Nc1ccc(Br)c(Cl)c1)c1ccc(-c2c3nc(c(-c4ccccc4)c4ccc([nH]4)c(-c4ccccc4)c4nc(c(-c5ccccc5)c5ccc2[nH]5)C=C4)C=C3)cc1
REMARK SMILES IDX 6 1 5 2 4 3 3 4 1 5 2 6 30 8 31 9 77 10 32 11 76 12 33 13
REMARK SMILES IDX 34 14 35 15 70 16 36 17 75 18 69 19 71 20 37 21 74 22 68 23
REMARK SMILES IDX 67 24 38 26 60 27 45 28 59 29 46 30 49 31 58 32 72 33 47 34
REMARK SMILES IDX 48 35 57 37 73 38 50 39 39 40 40 41 44 42 41 43 43 44 42 45
REMARK SMILES IDX 61 46 62 47 66 48 63 49 65 50 64 51 51 52 52 53 56 54 53 55
REMARK SMILES IDX 55 56 54 57 7 58 8 59 9 60 10 61 11 62 12 64 13 65 14 66
REMARK SMILES IDX 18 67 15 68 17 69 16 70 19 71 20 72 21 73 22 75 23 76 29 77
REMARK SMILES IDX 24 78 27 79 25 80 28 81 26 82
REMARK H PARENT 3 7 71 25 49 36 10 63 21 74
REMARK Flexibility Score: inf
ROOT
ATOM      1  C   UNL A   1      36.462  20.393  24.950  1.00  0.00     0.002 C 
ENDROOT
BRANCH   1   2
ATOM      2  C   UNL A   1      37.799  19.654  24.857  1.00  0.00     0.021 C 
BRANCH   2   3
ATOM      3  C   UNL A   1      38.875  20.150  25.816  1.00  0.00     0.116 C 
BRANCH   3   4
ATOM      4  N   UNL A   1      40.029  19.270  25.846  1.00  0.00    -0.352 N 
ATOM      5  O   UNL A   1      42.209  18.717  25.873  1.00  0.00    -0.269 OA
ATOM      6  C   UNL A   1      41.346  19.563  26.086  1.00  0.00     0.251 C 
ATOM      7  H   UNL A   1      39.836  18.321  25.667  1.00  0.00     0.163 HD
BRANCH   6   8
ATOM      8  C   UNL A   1      41.733  20.895  26.596  1.00  0.00     0.039 A 
ATOM      9  C   UNL A   1      41.690  21.120  27.974  1.00  0.00     0.014 A 
ATOM     10  C   UNL A   1      42.088  21.932  25.728  1.00  0.00     0.014 A 
ATOM     11  C   UNL A   1      42.017  22.378  28.479  1.00  0.00     0.010 A 
ATOM     12  C   UNL A   1      42.499  23.160  26.238  1.00  0.00     0.010 A 
ATOM     13  C   UNL A   1      42.435  23.406  27.615  1.00  0.00    -0.014 A 
BRANCH  13  14
ATOM     14  C   UNL A   1      42.752  24.753  28.149  1.00  0.00     0.031 A 
ATOM     15  C   UNL A   1      44.181  25.155  28.393  1.00  0.00     0.074 A 
ATOM     16  C   UNL A   1      41.754  25.617  28.412  1.00  0.00     0.049 A 
ATOM     17  N   UNL A   1      44.655  26.305  28.800  1.00  0.00    -0.248 NA
ATOM     18  C   UNL A   1      45.212  24.127  28.172  1.00  0.00     0.031 C 
ATOM     19  C   UNL A   1      40.327  25.329  28.258  1.00  0.00     0.029 A 
ATOM     20  N   UNL A   1      41.788  26.919  28.844  1.00  0.00    -0.354 N 
ATOM     21  C   UNL A   1      46.032  26.137  28.880  1.00  0.00     0.074 A 
ATOM     22  C   UNL A   1      46.311  24.757  28.557  1.00  0.00     0.031 C 
ATOM     23  C   UNL A   1      39.625  26.439  28.536  1.00  0.00     0.029 A 
ATOM     24  C   UNL A   1      40.548  27.503  28.920  1.00  0.00     0.049 A 
ATOM     25  H   UNL A   1      42.622  27.389  29.076  1.00  0.00     0.167 HD
ATOM     26  C   UNL A   1      46.983  27.058  29.159  1.00  0.00     0.031 A 
ATOM     27  C   UNL A   1      40.191  28.761  29.245  1.00  0.00     0.031 A 
ATOM     28  C   UNL A   1      46.702  28.434  29.474  1.00  0.00     0.049 A 
ATOM     29  C   UNL A   1      41.259  29.768  29.563  1.00  0.00     0.074 A 
ATOM     30  C   UNL A   1      47.597  29.456  29.734  1.00  0.00     0.029 A 
ATOM     31  N   UNL A   1      45.430  28.979  29.570  1.00  0.00    -0.354 N 
ATOM     32  N   UNL A   1      42.562  29.610  29.578  1.00  0.00    -0.248 NA
ATOM     33  C   UNL A   1      40.813  31.128  29.893  1.00  0.00     0.031 C 
ATOM     34  C   UNL A   1      46.866  30.604  30.050  1.00  0.00     0.029 A 
ATOM     35  C   UNL A   1      45.516  30.317  29.914  1.00  0.00     0.049 A 
ATOM     36  H   UNL A   1      44.592  28.487  29.416  1.00  0.00     0.167 HD
ATOM     37  C   UNL A   1      43.092  30.849  29.913  1.00  0.00     0.074 A 
ATOM     38  C   UNL A   1      41.970  31.756  30.061  1.00  0.00     0.031 C 
ATOM     39  C   UNL A   1      44.390  31.201  30.088  1.00  0.00     0.031 A 
BRANCH  26  40
ATOM     40  C   UNL A   1      48.421  26.611  29.121  1.00  0.00    -0.014 A 
ATOM     41  C   UNL A   1      49.143  26.659  27.919  1.00  0.00     0.009 A 
ATOM     42  C   UNL A   1      49.047  26.091  30.267  1.00  0.00     0.009 A 
ATOM     43  C   UNL A   1      50.459  26.196  27.863  1.00  0.00     0.001 A 
ATOM     44  C   UNL A   1      50.375  25.661  30.217  1.00  0.00     0.001 A 
ATOM     45  C   UNL A   1      51.077  25.705  29.013  1.00  0.00     0.000 A 
ENDBRANCH  26  40
BRANCH  27  46
ATOM     46  C   UNL A   1      38.751  29.130  29.222  1.00  0.00    -0.014 A 
ATOM     47  C   UNL A   1      38.167  29.658  28.058  1.00  0.00     0.009 A 
ATOM     48  C   UNL A   1      37.974  29.037  30.386  1.00  0.00     0.009 A 
ATOM     49  C   UNL A   1      36.848  30.116  28.070  1.00  0.00     0.001 A 
ATOM     50  C   UNL A   1      36.645  29.469  30.387  1.00  0.00     0.001 A 
ATOM     51  C   UNL A   1      36.088  30.020  29.234  1.00  0.00     0.000 A 
ENDBRANCH  27  46
BRANCH  39  52
ATOM     52  C   UNL A   1      44.679  32.623  30.487  1.00  0.00    -0.014 A 
ATOM     53  C   UNL A   1      44.874  33.603  29.500  1.00  0.00     0.009 A 
ATOM     54  C   UNL A   1      44.845  32.974  31.835  1.00  0.00     0.009 A 
ATOM     55  C   UNL A   1      45.242  34.903  29.855  1.00  0.00     0.001 A 
ATOM     56  C   UNL A   1      45.179  34.283  32.189  1.00  0.00     0.001 A 
ATOM     57  C   UNL A   1      45.386  35.243  31.199  1.00  0.00     0.000 A 
ENDBRANCH  39  52
ENDBRANCH  13  14
ENDBRANCH   6   8
ENDBRANCH   3   4
ENDBRANCH   2   3
ENDBRANCH   1   2
BRANCH   1  58
ATOM     58  C   UNL A   1      36.486  21.867  24.527  1.00  0.00     0.002 C 
BRANCH  58  59
ATOM     59  C   UNL A   1      36.159  22.875  25.630  1.00  0.00     0.021 C 
BRANCH  59  60
ATOM     60  C   UNL A   1      35.218  23.998  25.198  1.00  0.00     0.116 C 
BRANCH  60  61
ATOM     61  N   UNL A   1      34.754  23.822  23.833  1.00  0.00    -0.356 N 
ATOM     62  C   UNL A   1      33.676  23.317  23.197  1.00  0.00     0.223 C 
ATOM     63  H   UNL A   1      35.413  24.172  23.189  1.00  0.00     0.163 HD
ATOM     64  O   UNL A   1      33.750  23.390  21.960  1.00  0.00    -0.275 OA
BRANCH  62  65
ATOM     65  C   UNL A   1      32.391  22.732  23.813  1.00  0.00     0.091 C 
ATOM     66  C   UNL A   1      32.041  21.394  23.133  1.00  0.00     0.014 C 
ATOM     67  C   UNL A   1      32.245  22.654  25.329  1.00  0.00     0.091 C 
ATOM     68  C   UNL A   1      32.869  20.244  23.679  1.00  0.00     0.001 C 
ATOM     69  C   UNL A   1      32.936  21.409  25.925  1.00  0.00     0.014 C 
ATOM     70  C   UNL A   1      32.668  20.103  25.180  1.00  0.00     0.001 C 
BRANCH  67  71
ATOM     71  C   UNL A   1      30.794  22.773  25.816  1.00  0.00     0.228 C 
ATOM     72  O   UNL A   1      30.092  21.782  26.017  1.00  0.00    -0.274 OA
ATOM     73  N   UNL A   1      30.314  24.009  26.195  1.00  0.00    -0.326 N 
ATOM     74  H   UNL A   1      29.506  23.988  26.756  1.00  0.00     0.169 HD
BRANCH  73  75
ATOM     75  C   UNL A   1      30.800  25.296  25.903  1.00  0.00     0.042 A 
ATOM     76  C   UNL A   1      31.908  25.838  26.554  1.00  0.00     0.027 A 
ATOM     77  C   UNL A   1      30.193  26.027  24.881  1.00  0.00     0.047 A 
ATOM     78  C   UNL A   1      32.353  27.128  26.262  1.00  0.00     0.019 A 
ATOM     79  C   UNL A   1      30.625  27.330  24.591  1.00  0.00     0.057 A 
ATOM     80  C   UNL A   1      31.700  27.887  25.292  1.00  0.00     0.036 A 
ATOM     81  Cl  UNL A   1      29.770  28.199  23.366  1.00  0.00    -0.083 Cl
ATOM     82  Br  UNL A   1      32.342  29.646  24.982  1.00  0.00    -0.049 Br
ENDBRANCH  73  75
ENDBRANCH  67  71
ENDBRANCH  62  65
ENDBRANCH  60  61
ENDBRANCH  59  60
ENDBRANCH  58  59
ENDBRANCH   1  58
TORSDOF 15
ENDMDL
MODEL 2
REMARK VINA RESULT:     -11.4      0.471      5.843
REMARK SMILES O=C(NCCCCCCNC(=O)[C@H]1CCCC[C@@H]1C(=O)Nc1ccc(Br)c(Cl)c1)c1ccc(-c2c3nc(c(-c4ccccc4)c4ccc([nH]4)c(-c4ccccc4)c4nc(c(-c5ccccc5)c5ccc2[nH]5)C=C4)C=C3)cc1
REMARK SMILES IDX 6 1 5 2 4 3 3 4 1 5 2 6 30 8 31 9 77 10 32 11 76 12 33 13
REMARK SMILES IDX 34 14 35 15 70 16 36 17 75 18 69 19 71 20 37 21 74 22 68 23
REMARK SMILES IDX 67 24 38 26 60 27 45 28 59 29 46 30 49 31 58 32 72 33 47 34
REMARK SMILES IDX 48 35 57 37 73 38 50 39 39 40 40 41 44 42 41 43 43 44 42 45
REMARK SMILES IDX 61 46 62 47 66 48 63 49 65 50 64 51 51 52 52 53 56 54 53 55
REMARK SMILES IDX 55 56 54 57 7 58 8 59 9 60 10 61 11 62 12 64 13 65 14 66
REMARK SMILES IDX 18 67 15 68 17 69 16 70 19 71 20 72 21 73 22 75 23 76 29 77
REMARK SMILES IDX 24 78 27 79 25 80 28 81 26 82
REMARK H PARENT 3 7 71 25 49 36 10 63 21 74
REMARK Flexibility Score: inf
ROOT
ATOM      1  C   UNL A   1      36.455  20.578  24.992  1.00  0.00     0.002 C 
ENDROOT
BRANCH   1   2
ATOM      2  C   UNL A   1      37.728  19.729  24.962  1.00  0.00     0.021 C 
BRANCH   2   3
ATOM      3  C   UNL A   1      38.906  20.313  25.734  1.00  0.00     0.116 C 
BRANCH   3   4
ATOM      4  N   UNL A   1      40.011  19.377  25.836  1.00  0.00    -0.352 N 
ATOM      5  O   UNL A   1      42.157  18.715  25.951  1.00  0.00    -0.269 OA
ATOM      6  C   UNL A   1      41.334  19.612  26.102  1.00  0.00     0.251 C 
ATOM      7  H   UNL A   1      39.774  18.432  25.692  1.00  0.00     0.163 HD
BRANCH   6   8
ATOM      8  C   UNL A   1      41.777  20.944  26.568  1.00  0.00     0.039 A 
ATOM      9  C   UNL A   1      41.698  21.234  27.932  1.00  0.00     0.014 A 
ATOM     10  C   UNL A   1      42.219  21.919  25.668  1.00  0.00     0.014 A 
ATOM     11  C   UNL A   1      42.076  22.495  28.392  1.00  0.00     0.010 A 
ATOM     12  C   UNL A   1      42.679  23.145  26.139  1.00  0.00     0.010 A 
ATOM     13  C   UNL A   1      42.580  23.457  27.500  1.00  0.00    -0.014 A 
BRANCH  13  14
ATOM     14  C   UNL A   1      42.953  24.809  27.985  1.00  0.00     0.031 A 
ATOM     15  C   UNL A   1      41.895  25.857  28.198  1.00  0.00     0.074 A 
ATOM     16  C   UNL A   1      44.245  25.092  28.238  1.00  0.00     0.049 A 
ATOM     17  N   UNL A   1      42.023  27.072  28.669  1.00  0.00    -0.248 NA
ATOM     18  C   UNL A   1      40.519  25.506  27.811  1.00  0.00     0.031 C 
ATOM     19  C   UNL A   1      45.366  24.175  28.031  1.00  0.00     0.029 A 
ATOM     20  N   UNL A   1      44.829  26.226  28.745  1.00  0.00    -0.354 N 
ATOM     21  C   UNL A   1      40.748  27.623  28.636  1.00  0.00     0.074 A 
ATOM     22  C   UNL A   1      39.877  26.643  28.028  1.00  0.00     0.031 C 
ATOM     23  C   UNL A   1      46.495  24.761  28.459  1.00  0.00     0.029 A 
ATOM     24  C   UNL A   1      46.183  26.104  28.937  1.00  0.00     0.049 A 
ATOM     25  H   UNL A   1      44.326  27.048  28.950  1.00  0.00     0.167 HD
ATOM     26  C   UNL A   1      40.330  28.821  29.106  1.00  0.00     0.031 A 
ATOM     27  C   UNL A   1      47.075  26.970  29.458  1.00  0.00     0.031 A 
ATOM     28  C   UNL A   1      41.199  29.792  29.718  1.00  0.00     0.049 A 
ATOM     29  C   UNL A   1      46.596  28.300  29.964  1.00  0.00     0.074 A 
ATOM     30  C   UNL A   1      40.868  31.020  30.260  1.00  0.00     0.029 A 
ATOM     31  N   UNL A   1      42.570  29.642  29.867  1.00  0.00    -0.354 N 
ATOM     32  N   UNL A   1      45.377  28.785  29.981  1.00  0.00    -0.248 NA
ATOM     33  C   UNL A   1      47.609  29.197  30.537  1.00  0.00     0.031 C 
ATOM     34  C   UNL A   1      42.047  31.641  30.681  1.00  0.00     0.029 A 
ATOM     35  C   UNL A   1      43.104  30.769  30.468  1.00  0.00     0.049 A 
ATOM     36  H   UNL A   1      43.086  28.852  29.587  1.00  0.00     0.167 HD
ATOM     37  C   UNL A   1      45.474  30.039  30.569  1.00  0.00     0.074 A 
ATOM     38  C   UNL A   1      46.867  30.226  30.925  1.00  0.00     0.031 C 
ATOM     39  C   UNL A   1      44.498  30.955  30.788  1.00  0.00     0.031 A 
BRANCH  26  40
ATOM     40  C   UNL A   1      38.864  29.144  28.991  1.00  0.00    -0.014 A 
ATOM     41  C   UNL A   1      38.350  29.676  27.798  1.00  0.00     0.009 A 
ATOM     42  C   UNL A   1      37.996  28.970  30.083  1.00  0.00     0.009 A 
ATOM     43  C   UNL A   1      37.002  30.028  27.702  1.00  0.00     0.001 A 
ATOM     44  C   UNL A   1      36.642  29.290  29.973  1.00  0.00     0.001 A 
ATOM     45  C   UNL A   1      36.148  29.827  28.785  1.00  0.00     0.000 A 
ENDBRANCH  26  40
BRANCH  27  46
ATOM     46  C   UNL A   1      48.499  26.558  29.569  1.00  0.00    -0.014 A 
ATOM     47  C   UNL A   1      48.963  25.891  30.716  1.00  0.00     0.009 A 
ATOM     48  C   UNL A   1      49.419  26.903  28.569  1.00  0.00     0.009 A 
ATOM     49  C   UNL A   1      50.321  25.610  30.874  1.00  0.00     0.001 A 
ATOM     50  C   UNL A   1      50.774  26.594  28.716  1.00  0.00     0.001 A 
ATOM     51  C   UNL A   1      51.225  25.961  29.873  1.00  0.00     0.000 A 
ENDBRANCH  27  46
BRANCH  39  52
ATOM     52  C   UNL A   1      44.896  32.260  31.422  1.00  0.00    -0.014 A 
ATOM     53  C   UNL A   1      45.319  33.331  30.618  1.00  0.00     0.009 A 
ATOM     54  C   UNL A   1      44.935  32.402  32.817  1.00  0.00     0.009 A 
ATOM     55  C   UNL A   1      45.786  34.513  31.199  1.00  0.00     0.001 A 
ATOM     56  C   UNL A   1      45.369  33.597  33.395  1.00  0.00     0.001 A 
ATOM     57  C   UNL A   1      45.802  34.647  32.586  1.00  0.00     0.000 A 
ENDBRANCH  39  52
ENDBRANCH  13  14
ENDBRANCH   6   8
ENDBRANCH   3   4
ENDBRANCH   2   3
ENDBRANCH   1   2
BRANCH   1  58
ATOM     58  C   UNL A   1      36.598  22.011  24.466  1.00  0.00     0.002 C 
BRANCH  58  59
ATOM     59  C   UNL A   1      36.363  23.119  25.495  1.00  0.00     0.021 C 
BRANCH  59  60
ATOM     60  C   UNL A   1      35.222  24.071  25.144  1.00  0.00     0.116 C 
BRANCH  60  61
ATOM     61  N   UNL A   1      34.745  23.871  23.787  1.00  0.00    -0.356 N 
ATOM     62  C   UNL A   1      33.670  23.337  23.170  1.00  0.00     0.223 C 
ATOM     63  H   UNL A   1      35.389  24.227  23.131  1.00  0.00     0.163 HD
ATOM     64  O   UNL A   1      33.727  23.398  21.932  1.00  0.00    -0.275 OA
BRANCH  62  65
ATOM     65  C   UNL A   1      32.404  22.733  23.809  1.00  0.00     0.091 C 
ATOM     66  C   UNL A   1      32.098  21.362  23.178  1.00  0.00     0.014 C 
ATOM     67  C   UNL A   1      32.263  22.704  25.327  1.00  0.00     0.091 C 
ATOM     68  C   UNL A   1      32.963  20.259  23.763  1.00  0.00     0.001 C 
ATOM     69  C   UNL A   1      32.994  21.504  25.966  1.00  0.00     0.014 C 
ATOM     70  C   UNL A   1      32.768  20.164  25.268  1.00  0.00     0.001 C 
BRANCH  67  71
ATOM     71  C   UNL A   1      30.809  22.794  25.812  1.00  0.00     0.228 C 
ATOM     72  O   UNL A   1      30.129  21.788  26.019  1.00  0.00    -0.274 OA
ATOM     73  N   UNL A   1      30.300  24.021  26.183  1.00  0.00    -0.326 N 
ATOM     74  H   UNL A   1      29.493  23.985  26.744  1.00  0.00     0.169 HD
BRANCH  73  75
ATOM     75  C   UNL A   1      30.757  25.317  25.884  1.00  0.00     0.042 A 
ATOM     76  C   UNL A   1      31.803  25.917  26.585  1.00  0.00     0.027 A 
ATOM     77  C   UNL A   1      30.190  25.997  24.805  1.00  0.00     0.047 A 
ATOM     78  C   UNL A   1      32.219  27.214  26.282  1.00  0.00     0.019 A 
ATOM     79  C   UNL A   1      30.593  27.306  24.504  1.00  0.00     0.057 A 
ATOM     80  C   UNL A   1      31.602  27.922  25.252  1.00  0.00     0.036 A 
ATOM     81  Cl  UNL A   1      29.785  28.109  23.204  1.00  0.00    -0.083 Cl
ATOM     82  Br  UNL A   1      32.199  29.694  24.931  1.00  0.00    -0.049 Br
ENDBRANCH  73  75
ENDBRANCH  67  71
ENDBRANCH  62  65
ENDBRANCH  60  61
ENDBRANCH  59  60
ENDBRANCH  58  59
ENDBRANCH   1  58
TORSDOF 15
ENDMDL
MODEL 3
REMARK VINA RESULT:     -11.3      4.417      9.309
REMARK SMILES O=C(NCCCCCCNC(=O)[C@H]1CCCC[C@@H]1C(=O)Nc1ccc(Br)c(Cl)c1)c1ccc(-c2c3nc(c(-c4ccccc4)c4ccc([nH]4)c(-c4ccccc4)c4nc(c(-c5ccccc5)c5ccc2[nH]5)C=C4)C=C3)cc1
REMARK SMILES IDX 6 1 5 2 4 3 3 4 1 5 2 6 30 8 31 9 77 10 32 11 76 12 33 13
REMARK SMILES IDX 34 14 35 15 70 16 36 17 75 18 69 19 71 20 37 21 74 22 68 23
REMARK SMILES IDX 67 24 38 26 60 27 45 28 59 29 46 30 49 31 58 32 72 33 47 34
REMARK SMILES IDX 48 35 57 37 73 38 50 39 39 40 40 41 44 42 41 43 43 44 42 45
REMARK SMILES IDX 61 46 62 47 66 48 63 49 65 50 64 51 51 52 52 53 56 54 53 55
REMARK SMILES IDX 55 56 54 57 7 58 8 59 9 60 10 61 11 62 12 64 13 65 14 66
REMARK SMILES IDX 18 67 15 68 17 69 16 70 19 71 20 72 21 73 22 75 23 76 29 77
REMARK SMILES IDX 24 78 27 79 25 80 28 81 26 82
REMARK H PARENT 3 7 71 25 49 36 10 63 21 74
REMARK Flexibility Score: inf
ROOT
ATOM      1  C   UNL A   1      31.449  30.442  26.020  1.00  0.00     0.002 C 
ENDROOT
BRANCH   1   2
ATOM      2  C   UNL A   1      31.337  31.898  26.477  1.00  0.00     0.021 C 
BRANCH   2   3
ATOM      3  C   UNL A   1      32.613  32.483  27.072  1.00  0.00     0.116 C 
BRANCH   3   4
ATOM      4  N   UNL A   1      32.421  33.839  27.553  1.00  0.00    -0.352 N 
ATOM      5  O   UNL A   1      32.650  35.594  28.941  1.00  0.00    -0.269 OA
ATOM      6  C   UNL A   1      33.086  34.520  28.539  1.00  0.00     0.251 C 
ATOM      7  H   UNL A   1      31.705  34.345  27.104  1.00  0.00     0.163 HD
BRANCH   6   8
ATOM      8  C   UNL A   1      34.326  33.965  29.124  1.00  0.00     0.039 A 
ATOM      9  C   UNL A   1      35.551  34.339  28.569  1.00  0.00     0.014 A 
ATOM     10  C   UNL A   1      34.284  33.045  30.176  1.00  0.00     0.014 A 
ATOM     11  C   UNL A   1      36.733  33.803  29.079  1.00  0.00     0.010 A 
ATOM     12  C   UNL A   1      35.467  32.579  30.742  1.00  0.00     0.010 A 
ATOM     13  C   UNL A   1      36.701  32.926  30.177  1.00  0.00    -0.014 A 
BRANCH  13  14
ATOM     14  C   UNL A   1      37.955  32.331  30.700  1.00  0.00     0.031 A 
ATOM     15  C   UNL A   1      38.580  32.865  31.960  1.00  0.00     0.074 A 
ATOM     16  C   UNL A   1      38.531  31.307  30.043  1.00  0.00     0.049 A 
ATOM     17  N   UNL A   1      39.640  32.438  32.599  1.00  0.00    -0.248 NA
ATOM     18  C   UNL A   1      37.948  34.045  32.572  1.00  0.00     0.031 C 
ATOM     19  C   UNL A   1      38.045  30.731  28.789  1.00  0.00     0.029 A 
ATOM     20  N   UNL A   1      39.639  30.557  30.349  1.00  0.00    -0.354 N 
ATOM     21  C   UNL A   1      39.796  33.293  33.683  1.00  0.00     0.074 A 
ATOM     22  C   UNL A   1      38.773  34.308  33.574  1.00  0.00     0.031 C 
ATOM     23  C   UNL A   1      38.816  29.682  28.462  1.00  0.00     0.029 A 
ATOM     24  C   UNL A   1      39.869  29.534  29.462  1.00  0.00     0.049 A 
ATOM     25  H   UNL A   1      40.213  30.736  31.129  1.00  0.00     0.167 HD
ATOM     26  C   UNL A   1      40.685  33.218  34.700  1.00  0.00     0.031 A 
ATOM     27  C   UNL A   1      40.812  28.572  29.462  1.00  0.00     0.031 A 
ATOM     28  C   UNL A   1      41.698  32.202  34.809  1.00  0.00     0.049 A 
ATOM     29  C   UNL A   1      41.798  28.510  30.593  1.00  0.00     0.074 A 
ATOM     30  C   UNL A   1      42.624  32.017  35.820  1.00  0.00     0.029 A 
ATOM     31  N   UNL A   1      41.917  31.201  33.874  1.00  0.00    -0.354 N 
ATOM     32  N   UNL A   1      41.897  29.291  31.643  1.00  0.00    -0.248 NA
ATOM     33  C   UNL A   1      42.792  27.429  30.550  1.00  0.00     0.031 C 
ATOM     34  C   UNL A   1      43.443  30.941  35.467  1.00  0.00     0.029 A 
ATOM     35  C   UNL A   1      42.983  30.411  34.271  1.00  0.00     0.049 A 
ATOM     36  H   UNL A   1      41.393  31.072  33.052  1.00  0.00     0.167 HD
ATOM     37  C   UNL A   1      42.958  28.795  32.388  1.00  0.00     0.074 A 
ATOM     38  C   UNL A   1      43.450  27.625  31.686  1.00  0.00     0.031 C 
ATOM     39  C   UNL A   1      43.481  29.268  33.546  1.00  0.00     0.031 A 
BRANCH  26  40
ATOM     40  C   UNL A   1      40.592  34.257  35.786  1.00  0.00    -0.014 A 
ATOM     41  C   UNL A   1      39.753  34.049  36.891  1.00  0.00     0.009 A 
ATOM     42  C   UNL A   1      41.298  35.468  35.692  1.00  0.00     0.009 A 
ATOM     43  C   UNL A   1      39.619  35.030  37.876  1.00  0.00     0.001 A 
ATOM     44  C   UNL A   1      41.190  36.434  36.695  1.00  0.00     0.001 A 
ATOM     45  C   UNL A   1      40.344  36.218  37.782  1.00  0.00     0.000 A 
ENDBRANCH  26  40
BRANCH  27  46
ATOM     46  C   UNL A   1      40.810  27.562  28.371  1.00  0.00    -0.014 A 
ATOM     47  C   UNL A   1      41.476  27.817  27.160  1.00  0.00     0.009 A 
ATOM     48  C   UNL A   1      40.075  26.375  28.501  1.00  0.00     0.009 A 
ATOM     49  C   UNL A   1      41.376  26.924  26.092  1.00  0.00     0.001 A 
ATOM     50  C   UNL A   1      40.000  25.468  27.440  1.00  0.00     0.001 A 
ATOM     51  C   UNL A   1      40.639  25.749  26.234  1.00  0.00     0.000 A 
ENDBRANCH  27  46
BRANCH  39  52
ATOM     52  C   UNL A   1      44.666  28.544  34.124  1.00  0.00    -0.014 A 
ATOM     53  C   UNL A   1      44.475  27.540  35.087  1.00  0.00     0.009 A 
ATOM     54  C   UNL A   1      45.976  28.913  33.781  1.00  0.00     0.009 A 
ATOM     55  C   UNL A   1      45.570  26.930  35.704  1.00  0.00     0.001 A 
ATOM     56  C   UNL A   1      47.069  28.278  34.374  1.00  0.00     0.001 A 
ATOM     57  C   UNL A   1      46.865  27.294  35.341  1.00  0.00     0.000 A 
ENDBRANCH  39  52
ENDBRANCH  13  14
ENDBRANCH   6   8
ENDBRANCH   3   4
ENDBRANCH   2   3
ENDBRANCH   1   2
BRANCH   1  58
ATOM     58  C   UNL A   1      32.836  29.803  26.168  1.00  0.00     0.002 C 
BRANCH  58  59
ATOM     59  C   UNL A   1      32.889  28.533  27.021  1.00  0.00     0.021 C 
BRANCH  59  60
ATOM     60  C   UNL A   1      32.843  27.234  26.219  1.00  0.00     0.116 C 
BRANCH  60  61
ATOM     61  N   UNL A   1      31.569  26.552  26.363  1.00  0.00    -0.356 N 
ATOM     62  C   UNL A   1      30.576  26.101  25.567  1.00  0.00     0.223 C 
ATOM     63  H   UNL A   1      31.374  26.365  27.311  1.00  0.00     0.163 HD
ATOM     64  O   UNL A   1      29.644  25.567  26.189  1.00  0.00    -0.275 OA
BRANCH  62  65
ATOM     65  C   UNL A   1      30.500  26.125  24.028  1.00  0.00     0.091 C 
ATOM     66  C   UNL A   1      29.262  26.921  23.574  1.00  0.00     0.014 C 
ATOM     67  C   UNL A   1      31.739  26.487  23.215  1.00  0.00     0.091 C 
ATOM     68  C   UNL A   1      29.499  28.420  23.621  1.00  0.00     0.001 C 
ATOM     69  C   UNL A   1      31.941  28.012  23.094  1.00  0.00     0.014 C 
ATOM     70  C   UNL A   1      30.683  28.805  22.747  1.00  0.00     0.001 C 
BRANCH  67  71
ATOM     71  C   UNL A   1      31.793  25.807  21.839  1.00  0.00     0.228 C 
ATOM     72  O   UNL A   1      31.202  26.268  20.862  1.00  0.00    -0.274 OA
ATOM     73  N   UNL A   1      32.654  24.746  21.650  1.00  0.00    -0.326 N 
ATOM     74  H   UNL A   1      32.861  24.541  20.710  1.00  0.00     0.169 HD
BRANCH  73  75
ATOM     75  C   UNL A   1      33.282  23.912  22.592  1.00  0.00     0.042 A 
ATOM     76  C   UNL A   1      34.431  24.300  23.280  1.00  0.00     0.027 A 
ATOM     77  C   UNL A   1      32.696  22.682  22.896  1.00  0.00     0.047 A 
ATOM     78  C   UNL A   1      35.047  23.441  24.191  1.00  0.00     0.019 A 
ATOM     79  C   UNL A   1      33.316  21.807  23.800  1.00  0.00     0.057 A 
ATOM     80  C   UNL A   1      34.502  22.182  24.440  1.00  0.00     0.036 A 
ATOM     81  Cl  UNL A   1      32.570  20.270  24.061  1.00  0.00    -0.083 Cl
ATOM     82  Br  UNL A   1      35.423  21.059  25.662  1.00  0.00    -0.049 Br
ENDBRANCH  73  75
ENDBRANCH  67  71
ENDBRANCH  62  65
ENDBRANCH  60  61
ENDBRANCH  59  60
ENDBRANCH  58  59
ENDBRANCH   1  58
TORSDOF 15
ENDMDL
