MODEL 1
REMARK VINA RESULT:      -9.2      0.000      0.000
REMARK SMILES COC[C@@H](C)CC(=O)Nc1cccc(/C=C/C(=O)NCCCCCCNC(=O)c2ccc(-c3c4nc(c(-c5ccccc5)c5ccc([nH]5)c(-c5ccccc5)c5nc(c(-c6ccccc6)c6ccc3[nH]6)C=C5)C=C4)cc2)c1
REMARK SMILES IDX 20 1 19 2 17 3 18 4 16 6 15 7 14 8 10 9 11 10 77 11 12 12
REMARK SMILES IDX 13 13 9 14 7 15 8 16 6 18 4 19 5 20 3 21 2 22 1 23 21 24
REMARK SMILES IDX 22 25 23 26 24 27 25 28 26 29 27 30 28 32 29 33 30 34 76 35
REMARK SMILES IDX 31 36 75 37 32 38 33 39 34 40 69 41 35 42 74 43 68 44 70 45
REMARK SMILES IDX 36 46 73 47 67 48 66 49 37 51 59 52 44 53 58 54 45 55 48 56
REMARK SMILES IDX 57 57 71 58 46 59 47 60 56 62 72 63 49 64 38 65 39 66 43 67
REMARK SMILES IDX 40 68 42 69 41 70 60 71 61 72 65 73 62 74 64 75 63 76 50 77
REMARK SMILES IDX 51 78 55 79 52 80 54 81 53 82
REMARK H PARENT 19 5 9 17 26 31 70 50 48 61
REMARK Flexibility Score: inf
ROOT
ATOM      1  C   UNL A   1      38.072  32.301  29.391  1.00  0.00     0.116 C 
ENDROOT
BRANCH   1   2
ATOM      2  N   UNL A   1      37.094  31.350  28.898  1.00  0.00    -0.353 N 
ATOM      3  C   UNL A   1      37.278  30.114  28.354  1.00  0.00     0.243 C 
ATOM      4  O   UNL A   1      36.322  29.348  28.253  1.00  0.00    -0.270 OA
ATOM      5  H   UNL A   1      36.156  31.641  28.965  1.00  0.00     0.163 HD
BRANCH   3   6
ATOM      6  C   UNL A   1      38.628  29.624  27.980  1.00  0.00     0.072 C 
ATOM      7  C   UNL A   1      39.427  28.867  28.750  1.00  0.00     0.014 C 
BRANCH   7   8
ATOM      8  C   UNL A   1      40.742  28.384  28.289  1.00  0.00    -0.023 A 
ATOM      9  C   UNL A   1      42.452  26.644  28.389  1.00  0.00     0.041 A 
ATOM     10  C   UNL A   1      43.179  27.287  27.393  1.00  0.00     0.026 A 
ATOM     11  C   UNL A   1      41.298  27.247  28.894  1.00  0.00     0.034 A 
ATOM     12  C   UNL A   1      42.673  28.458  26.818  1.00  0.00     0.003 A 
ATOM     13  C   UNL A   1      41.452  28.990  27.247  1.00  0.00     0.008 A 
BRANCH   9  14
ATOM     14  N   UNL A   1      42.927  25.439  28.927  1.00  0.00    -0.326 N 
ATOM     15  C   UNL A   1      42.694  24.161  28.474  1.00  0.00     0.224 C 
ATOM     16  O   UNL A   1      42.645  23.226  29.273  1.00  0.00    -0.275 OA
ATOM     17  H   UNL A   1      43.495  25.518  29.727  1.00  0.00     0.169 HD
BRANCH  15  18
ATOM     18  C   UNL A   1      42.758  23.904  26.966  1.00  0.00     0.106 C 
BRANCH  18  19
ATOM     19  C   UNL A   1      43.995  23.154  26.440  1.00  0.00     0.021 C 
ATOM     20  C   UNL A   1      45.239  24.049  26.507  1.00  0.00     0.010 C 
BRANCH  19  21
ATOM     21  C   UNL A   1      43.747  22.649  25.012  1.00  0.00     0.163 C 
BRANCH  21  22
ATOM     22  O   UNL A   1      43.529  21.245  24.936  1.00  0.00    -0.384 OA
ATOM     23  C   UNL A   1      44.724  20.506  25.193  1.00  0.00     0.194 C 
ENDBRANCH  21  22
ENDBRANCH  19  21
ENDBRANCH  18  19
ENDBRANCH  15  18
ENDBRANCH   9  14
ENDBRANCH   7   8
ENDBRANCH   3   6
ENDBRANCH   1   2
BRANCH   1  24
ATOM     24  C   UNL A   1      37.687  32.913  30.735  1.00  0.00     0.021 C 
BRANCH  24  25
ATOM     25  C   UNL A   1      36.288  32.535  31.239  1.00  0.00     0.002 C 
BRANCH  25  26
ATOM     26  C   UNL A   1      35.901  33.071  32.624  1.00  0.00     0.002 C 
BRANCH  26  27
ATOM     27  C   UNL A   1      36.558  34.386  33.051  1.00  0.00     0.021 C 
BRANCH  27  28
ATOM     28  C   UNL A   1      37.769  34.251  33.968  1.00  0.00     0.116 C 
BRANCH  28  29
ATOM     29  N   UNL A   1      37.515  33.415  35.131  1.00  0.00    -0.352 N 
ATOM     30  C   UNL A   1      38.017  32.174  35.437  1.00  0.00     0.251 C 
ATOM     31  H   UNL A   1      36.896  33.794  35.795  1.00  0.00     0.163 HD
ATOM     32  O   UNL A   1      37.591  31.557  36.413  1.00  0.00    -0.269 OA
BRANCH  30  33
ATOM     33  C   UNL A   1      39.052  31.562  34.578  1.00  0.00     0.039 A 
ATOM     34  C   UNL A   1      38.656  30.731  33.526  1.00  0.00     0.014 A 
ATOM     35  C   UNL A   1      40.409  31.805  34.807  1.00  0.00     0.014 A 
ATOM     36  C   UNL A   1      39.618  30.197  32.664  1.00  0.00     0.010 A 
ATOM     37  C   UNL A   1      41.358  31.335  33.904  1.00  0.00     0.010 A 
ATOM     38  C   UNL A   1      40.974  30.522  32.826  1.00  0.00    -0.014 A 
BRANCH  38  39
ATOM     39  C   UNL A   1      42.015  30.015  31.897  1.00  0.00     0.031 A 
ATOM     40  C   UNL A   1      42.692  28.701  32.176  1.00  0.00     0.074 A 
ATOM     41  C   UNL A   1      42.408  30.766  30.849  1.00  0.00     0.049 A 
ATOM     42  N   UNL A   1      43.697  28.138  31.552  1.00  0.00    -0.248 NA
ATOM     43  C   UNL A   1      42.192  27.931  33.326  1.00  0.00     0.031 C 
ATOM     44  C   UNL A   1      41.850  32.069  30.482  1.00  0.00     0.029 A 
ATOM     45  N   UNL A   1      43.383  30.545  29.908  1.00  0.00    -0.354 N 
ATOM     46  C   UNL A   1      43.960  26.964  32.247  1.00  0.00     0.074 A 
ATOM     47  C   UNL A   1      43.048  26.921  33.368  1.00  0.00     0.031 C 
ATOM     48  C   UNL A   1      42.478  32.521  29.383  1.00  0.00     0.029 A 
ATOM     49  C   UNL A   1      43.514  31.567  28.999  1.00  0.00     0.049 A 
ATOM     50  H   UNL A   1      43.936  29.731  29.888  1.00  0.00     0.167 HD
ATOM     51  C   UNL A   1      44.871  26.000  31.970  1.00  0.00     0.031 A 
ATOM     52  C   UNL A   1      44.379  31.726  27.981  1.00  0.00     0.031 A 
ATOM     53  C   UNL A   1      45.775  26.041  30.853  1.00  0.00     0.049 A 
ATOM     54  C   UNL A   1      45.404  30.657  27.713  1.00  0.00     0.074 A 
ATOM     55  C   UNL A   1      46.700  25.090  30.457  1.00  0.00     0.029 A 
ATOM     56  N   UNL A   1      45.871  27.091  29.953  1.00  0.00    -0.354 N 
ATOM     57  N   UNL A   1      45.603  29.525  28.344  1.00  0.00    -0.248 NA
ATOM     58  C   UNL A   1      46.317  30.884  26.583  1.00  0.00     0.031 C 
ATOM     59  C   UNL A   1      47.397  25.593  29.354  1.00  0.00     0.029 A 
ATOM     60  C   UNL A   1      46.857  26.824  29.019  1.00  0.00     0.049 A 
ATOM     61  H   UNL A   1      45.319  27.907  29.975  1.00  0.00     0.167 HD
ATOM     62  C   UNL A   1      46.637  28.889  27.667  1.00  0.00     0.074 A 
ATOM     63  C   UNL A   1      47.014  29.756  26.570  1.00  0.00     0.031 C 
ATOM     64  C   UNL A   1      47.217  27.693  27.928  1.00  0.00     0.031 A 
BRANCH  51  65
ATOM     65  C   UNL A   1      44.939  24.823  32.905  1.00  0.00    -0.014 A 
ATOM     66  C   UNL A   1      44.099  23.709  32.742  1.00  0.00     0.009 A 
ATOM     67  C   UNL A   1      45.877  24.815  33.950  1.00  0.00     0.009 A 
ATOM     68  C   UNL A   1      44.167  22.634  33.630  1.00  0.00     0.001 A 
ATOM     69  C   UNL A   1      45.967  23.724  34.815  1.00  0.00     0.001 A 
ATOM     70  C   UNL A   1      45.104  22.640  34.662  1.00  0.00     0.000 A 
ENDBRANCH  51  65
BRANCH  52  71
ATOM     71  C   UNL A   1      44.316  32.943  27.128  1.00  0.00    -0.014 A 
ATOM     72  C   UNL A   1      44.773  34.178  27.615  1.00  0.00     0.009 A 
ATOM     73  C   UNL A   1      43.789  32.882  25.830  1.00  0.00     0.009 A 
ATOM     74  C   UNL A   1      44.672  35.331  26.831  1.00  0.00     0.001 A 
ATOM     75  C   UNL A   1      43.720  34.029  25.035  1.00  0.00     0.001 A 
ATOM     76  C   UNL A   1      44.151  35.254  25.541  1.00  0.00     0.000 A 
ENDBRANCH  52  71
BRANCH  64  77
ATOM     77  C   UNL A   1      48.287  27.220  26.982  1.00  0.00    -0.014 A 
ATOM     78  C   UNL A   1      47.970  26.577  25.775  1.00  0.00     0.009 A 
ATOM     79  C   UNL A   1      49.635  27.470  27.286  1.00  0.00     0.009 A 
ATOM     80  C   UNL A   1      48.986  26.165  24.908  1.00  0.00     0.001 A 
ATOM     81  C   UNL A   1      50.645  27.087  26.402  1.00  0.00     0.001 A 
ATOM     82  C   UNL A   1      50.320  26.426  25.219  1.00  0.00     0.000 A 
ENDBRANCH  64  77
ENDBRANCH  38  39
ENDBRANCH  30  33
ENDBRANCH  28  29
ENDBRANCH  27  28
ENDBRANCH  26  27
ENDBRANCH  25  26
ENDBRANCH  24  25
ENDBRANCH   1  24
TORSDOF 19
ENDMDL
MODEL 2
REMARK VINA RESULT:      -9.2      4.455     10.213
REMARK SMILES COC[C@@H](C)CC(=O)Nc1cccc(/C=C/C(=O)NCCCCCCNC(=O)c2ccc(-c3c4nc(c(-c5ccccc5)c5ccc([nH]5)c(-c5ccccc5)c5nc(c(-c6ccccc6)c6ccc3[nH]6)C=C5)C=C4)cc2)c1
REMARK SMILES IDX 20 1 19 2 17 3 18 4 16 6 15 7 14 8 10 9 11 10 77 11 12 12
REMARK SMILES IDX 13 13 9 14 7 15 8 16 6 18 4 19 5 20 3 21 2 22 1 23 21 24
REMARK SMILES IDX 22 25 23 26 24 27 25 28 26 29 27 30 28 32 29 33 30 34 76 35
REMARK SMILES IDX 31 36 75 37 32 38 33 39 34 40 69 41 35 42 74 43 68 44 70 45
REMARK SMILES IDX 36 46 73 47 67 48 66 49 37 51 59 52 44 53 58 54 45 55 48 56
REMARK SMILES IDX 57 57 71 58 46 59 47 60 56 62 72 63 49 64 38 65 39 66 43 67
REMARK SMILES IDX 40 68 42 69 41 70 60 71 61 72 65 73 62 74 64 75 63 76 50 77
REMARK SMILES IDX 51 78 55 79 52 80 54 81 53 82
REMARK H PARENT 19 5 9 17 26 31 70 50 48 61
REMARK Flexibility Score: inf
ROOT
ATOM      1  C   UNL A   1      37.465  22.786  25.516  1.00  0.00     0.116 C 
ENDROOT
BRANCH   1   2
ATOM      2  N   UNL A   1      36.380  22.201  26.280  1.00  0.00    -0.353 N 
ATOM      3  C   UNL A   1      35.057  22.091  25.971  1.00  0.00     0.243 C 
ATOM      4  O   UNL A   1      34.347  21.322  26.616  1.00  0.00    -0.270 OA
ATOM      5  H   UNL A   1      36.637  21.828  27.154  1.00  0.00     0.163 HD
BRANCH   3   6
ATOM      6  C   UNL A   1      34.472  22.795  24.803  1.00  0.00     0.072 C 
ATOM      7  C   UNL A   1      33.621  23.832  24.860  1.00  0.00     0.014 C 
BRANCH   7   8
ATOM      8  C   UNL A   1      33.114  24.506  23.650  1.00  0.00    -0.023 A 
ATOM      9  C   UNL A   1      32.016  26.461  22.684  1.00  0.00     0.041 A 
ATOM     10  C   UNL A   1      32.219  25.955  21.405  1.00  0.00     0.026 A 
ATOM     11  C   UNL A   1      32.374  25.689  23.792  1.00  0.00     0.034 A 
ATOM     12  C   UNL A   1      32.900  24.745  21.243  1.00  0.00     0.003 A 
ATOM     13  C   UNL A   1      33.365  24.036  22.357  1.00  0.00     0.008 A 
BRANCH   9  14
ATOM     14  N   UNL A   1      31.385  27.703  22.848  1.00  0.00    -0.326 N 
ATOM     15  C   UNL A   1      31.588  28.629  23.845  1.00  0.00     0.224 C 
ATOM     16  O   UNL A   1      30.656  29.341  24.220  1.00  0.00    -0.275 OA
ATOM     17  H   UNL A   1      30.713  27.939  22.168  1.00  0.00     0.169 HD
BRANCH  15  18
ATOM     18  C   UNL A   1      33.026  28.924  24.279  1.00  0.00     0.106 C 
BRANCH  18  19
ATOM     19  C   UNL A   1      33.323  28.867  25.788  1.00  0.00     0.021 C 
ATOM     20  C   UNL A   1      32.400  27.859  26.484  1.00  0.00     0.010 C 
BRANCH  19  21
ATOM     21  C   UNL A   1      33.195  30.264  26.410  1.00  0.00     0.163 C 
BRANCH  21  22
ATOM     22  O   UNL A   1      31.902  30.534  26.940  1.00  0.00    -0.384 OA
ATOM     23  C   UNL A   1      31.403  31.801  26.511  1.00  0.00     0.194 C 
ENDBRANCH  21  22
ENDBRANCH  19  21
ENDBRANCH  18  19
ENDBRANCH  15  18
ENDBRANCH   9  14
ENDBRANCH   7   8
ENDBRANCH   3   6
ENDBRANCH   1   2
BRANCH   1  24
ATOM     24  C   UNL A   1      38.370  23.686  26.353  1.00  0.00     0.021 C 
BRANCH  24  25
ATOM     25  C   UNL A   1      39.820  23.202  26.482  1.00  0.00     0.002 C 
BRANCH  25  26
ATOM     26  C   UNL A   1      40.028  21.878  27.229  1.00  0.00     0.002 C 
BRANCH  26  27
ATOM     27  C   UNL A   1      40.422  20.671  26.372  1.00  0.00     0.021 C 
BRANCH  27  28
ATOM     28  C   UNL A   1      41.620  19.871  26.872  1.00  0.00     0.116 C 
BRANCH  28  29
ATOM     29  N   UNL A   1      42.689  19.768  25.892  1.00  0.00    -0.352 N 
ATOM     30  C   UNL A   1      43.491  20.754  25.372  1.00  0.00     0.251 C 
ATOM     31  H   UNL A   1      42.863  18.861  25.552  1.00  0.00     0.163 HD
ATOM     32  O   UNL A   1      44.266  20.500  24.451  1.00  0.00    -0.269 OA
BRANCH  30  33
ATOM     33  C   UNL A   1      43.406  22.132  25.898  1.00  0.00     0.039 A 
ATOM     34  C   UNL A   1      43.590  22.347  27.268  1.00  0.00     0.014 A 
ATOM     35  C   UNL A   1      43.148  23.210  25.047  1.00  0.00     0.014 A 
ATOM     36  C   UNL A   1      43.579  23.650  27.772  1.00  0.00     0.010 A 
ATOM     37  C   UNL A   1      43.214  24.510  25.539  1.00  0.00     0.010 A 
ATOM     38  C   UNL A   1      43.425  24.745  26.907  1.00  0.00    -0.014 A 
BRANCH  38  39
ATOM     39  C   UNL A   1      43.462  26.144  27.403  1.00  0.00     0.031 A 
ATOM     40  C   UNL A   1      44.784  26.814  27.658  1.00  0.00     0.074 A 
ATOM     41  C   UNL A   1      42.314  26.785  27.698  1.00  0.00     0.049 A 
ATOM     42  N   UNL A   1      45.031  27.984  28.192  1.00  0.00    -0.248 NA
ATOM     43  C   UNL A   1      45.991  26.056  27.290  1.00  0.00     0.031 C 
ATOM     44  C   UNL A   1      40.967  26.240  27.521  1.00  0.00     0.029 A 
ATOM     45  N   UNL A   1      42.099  28.034  28.226  1.00  0.00    -0.354 N 
ATOM     46  C   UNL A   1      46.415  28.090  28.244  1.00  0.00     0.074 A 
ATOM     47  C   UNL A   1      46.954  26.847  27.737  1.00  0.00     0.031 C 
ATOM     48  C   UNL A   1      40.067  27.157  27.913  1.00  0.00     0.029 A 
ATOM     49  C   UNL A   1      40.772  28.332  28.415  1.00  0.00     0.049 A 
ATOM     50  H   UNL A   1      42.829  28.657  28.447  1.00  0.00     0.167 HD
ATOM     51  C   UNL A   1      47.171  29.133  28.661  1.00  0.00     0.031 A 
ATOM     52  C   UNL A   1      40.188  29.422  28.948  1.00  0.00     0.031 A 
ATOM     53  C   UNL A   1      46.635  30.371  29.161  1.00  0.00     0.049 A 
ATOM     54  C   UNL A   1      41.050  30.554  29.436  1.00  0.00     0.074 A 
ATOM     55  C   UNL A   1      47.317  31.506  29.562  1.00  0.00     0.029 A 
ATOM     56  N   UNL A   1      45.284  30.633  29.331  1.00  0.00    -0.354 N 
ATOM     57  N   UNL A   1      42.356  30.663  29.425  1.00  0.00    -0.248 NA
ATOM     58  C   UNL A   1      40.354  31.719  30.001  1.00  0.00     0.031 C 
ATOM     59  C   UNL A   1      46.381  32.433  30.032  1.00  0.00     0.029 A 
ATOM     60  C   UNL A   1      45.113  31.903  29.855  1.00  0.00     0.049 A 
ATOM     61  H   UNL A   1      44.555  30.009  29.112  1.00  0.00     0.167 HD
ATOM     62  C   UNL A   1      42.637  31.921  29.945  1.00  0.00     0.074 A 
ATOM     63  C   UNL A   1      41.364  32.541  30.250  1.00  0.00     0.031 C 
ATOM     64  C   UNL A   1      43.840  32.510  30.147  1.00  0.00     0.031 A 
BRANCH  51  65
ATOM     65  C   UNL A   1      48.666  28.970  28.607  1.00  0.00    -0.014 A 
ATOM     66  C   UNL A   1      49.397  28.539  29.727  1.00  0.00     0.009 A 
ATOM     67  C   UNL A   1      49.353  29.226  27.409  1.00  0.00     0.009 A 
ATOM     68  C   UNL A   1      50.786  28.411  29.661  1.00  0.00     0.001 A 
ATOM     69  C   UNL A   1      50.737  29.062  27.336  1.00  0.00     0.001 A 
ATOM     70  C   UNL A   1      51.454  28.667  28.464  1.00  0.00     0.000 A 
ENDBRANCH  51  65
BRANCH  52  71
ATOM     71  C   UNL A   1      38.705  29.504  29.044  1.00  0.00    -0.014 A 
ATOM     72  C   UNL A   1      37.938  29.867  27.926  1.00  0.00     0.009 A 
ATOM     73  C   UNL A   1      38.050  29.234  30.255  1.00  0.00     0.009 A 
ATOM     74  C   UNL A   1      36.550  29.989  28.027  1.00  0.00     0.001 A 
ATOM     75  C   UNL A   1      36.659  29.323  30.346  1.00  0.00     0.001 A 
ATOM     76  C   UNL A   1      35.911  29.712  29.235  1.00  0.00     0.000 A 
ENDBRANCH  52  71
BRANCH  64  77
ATOM     77  C   UNL A   1      43.842  33.919  30.675  1.00  0.00    -0.014 A 
ATOM     78  C   UNL A   1      43.739  35.026  29.819  1.00  0.00     0.009 A 
ATOM     79  C   UNL A   1      43.899  34.135  32.062  1.00  0.00     0.009 A 
ATOM     80  C   UNL A   1      43.726  36.322  30.341  1.00  0.00     0.001 A 
ATOM     81  C   UNL A   1      43.853  35.429  32.582  1.00  0.00     0.001 A 
ATOM     82  C   UNL A   1      43.776  36.521  31.721  1.00  0.00     0.000 A 
ENDBRANCH  64  77
ENDBRANCH  38  39
ENDBRANCH  30  33
ENDBRANCH  28  29
ENDBRANCH  27  28
ENDBRANCH  26  27
ENDBRANCH  25  26
ENDBRANCH  24  25
ENDBRANCH   1  24
TORSDOF 19
ENDMDL
MODEL 3
REMARK VINA RESULT:      -9.2      4.733      7.674
REMARK SMILES COC[C@@H](C)CC(=O)Nc1cccc(/C=C/C(=O)NCCCCCCNC(=O)c2ccc(-c3c4nc(c(-c5ccccc5)c5ccc([nH]5)c(-c5ccccc5)c5nc(c(-c6ccccc6)c6ccc3[nH]6)C=C5)C=C4)cc2)c1
REMARK SMILES IDX 20 1 19 2 17 3 18 4 16 6 15 7 14 8 10 9 11 10 77 11 12 12
REMARK SMILES IDX 13 13 9 14 7 15 8 16 6 18 4 19 5 20 3 21 2 22 1 23 21 24
REMARK SMILES IDX 22 25 23 26 24 27 25 28 26 29 27 30 28 32 29 33 30 34 76 35
REMARK SMILES IDX 31 36 75 37 32 38 33 39 34 40 69 41 35 42 74 43 68 44 70 45
REMARK SMILES IDX 36 46 73 47 67 48 66 49 37 51 59 52 44 53 58 54 45 55 48 56
REMARK SMILES IDX 57 57 71 58 46 59 47 60 56 62 72 63 49 64 38 65 39 66 43 67
REMARK SMILES IDX 40 68 42 69 41 70 60 71 61 72 65 73 62 74 64 75 63 76 50 77
REMARK SMILES IDX 51 78 55 79 52 80 54 81 53 82
REMARK H PARENT 19 5 9 17 26 31 70 50 48 61
REMARK Flexibility Score: inf
ROOT
ATOM      1  C   UNL A   1      35.338  29.501  27.201  1.00  0.00     0.116 C 
ENDROOT
BRANCH   1   2
ATOM      2  N   UNL A   1      34.225  30.342  26.806  1.00  0.00    -0.353 N 
ATOM      3  C   UNL A   1      32.964  29.995  26.422  1.00  0.00     0.243 C 
ATOM      4  O   UNL A   1      32.083  30.851  26.394  1.00  0.00    -0.270 OA
ATOM      5  H   UNL A   1      34.407  31.309  26.816  1.00  0.00     0.163 HD
BRANCH   3   6
ATOM      6  C   UNL A   1      32.599  28.584  26.142  1.00  0.00     0.072 C 
ATOM      7  C   UNL A   1      31.509  28.177  25.470  1.00  0.00     0.014 C 
BRANCH   7   8
ATOM      8  C   UNL A   1      31.236  26.754  25.196  1.00  0.00    -0.023 A 
ATOM      9  C   UNL A   1      31.404  24.885  23.633  1.00  0.00     0.041 A 
ATOM     10  C   UNL A   1      30.889  24.023  24.595  1.00  0.00     0.026 A 
ATOM     11  C   UNL A   1      31.478  26.253  23.908  1.00  0.00     0.034 A 
ATOM     12  C   UNL A   1      30.581  24.514  25.867  1.00  0.00     0.003 A 
ATOM     13  C   UNL A   1      30.775  25.867  26.173  1.00  0.00     0.008 A 
BRANCH   9  14
ATOM     14  N   UNL A   1      31.767  24.385  22.375  1.00  0.00    -0.326 N 
ATOM     15  C   UNL A   1      33.006  23.947  21.965  1.00  0.00     0.224 C 
ATOM     16  O   UNL A   1      33.347  24.086  20.790  1.00  0.00    -0.275 OA
ATOM     17  H   UNL A   1      31.049  24.343  21.702  1.00  0.00     0.169 HD
BRANCH  15  18
ATOM     18  C   UNL A   1      33.819  23.072  22.922  1.00  0.00     0.106 C 
BRANCH  18  19
ATOM     19  C   UNL A   1      34.979  23.753  23.671  1.00  0.00     0.021 C 
ATOM     20  C   UNL A   1      36.302  23.028  23.393  1.00  0.00     0.010 C 
BRANCH  19  21
ATOM     21  C   UNL A   1      34.681  23.814  25.175  1.00  0.00     0.163 C 
BRANCH  21  22
ATOM     22  O   UNL A   1      35.487  22.934  25.951  1.00  0.00    -0.384 OA
ATOM     23  C   UNL A   1      34.706  21.935  26.607  1.00  0.00     0.194 C 
ENDBRANCH  21  22
ENDBRANCH  19  21
ENDBRANCH  18  19
ENDBRANCH  15  18
ENDBRANCH   9  14
ENDBRANCH   7   8
ENDBRANCH   3   6
ENDBRANCH   1   2
BRANCH   1  24
ATOM     24  C   UNL A   1      36.502  30.289  27.796  1.00  0.00     0.021 C 
BRANCH  24  25
ATOM     25  C   UNL A   1      36.095  31.423  28.746  1.00  0.00     0.002 C 
BRANCH  25  26
ATOM     26  C   UNL A   1      36.167  32.844  28.173  1.00  0.00     0.002 C 
BRANCH  26  27
ATOM     27  C   UNL A   1      35.007  33.778  28.529  1.00  0.00     0.021 C 
BRANCH  27  28
ATOM     28  C   UNL A   1      34.178  33.367  29.741  1.00  0.00     0.116 C 
BRANCH  28  29
ATOM     29  N   UNL A   1      34.218  34.342  30.820  1.00  0.00    -0.352 N 
ATOM     30  C   UNL A   1      35.136  34.482  31.831  1.00  0.00     0.251 C 
ATOM     31  H   UNL A   1      33.482  34.994  30.825  1.00  0.00     0.163 HD
ATOM     32  O   UNL A   1      34.941  35.292  32.736  1.00  0.00    -0.269 OA
BRANCH  30  33
ATOM     33  C   UNL A   1      36.350  33.639  31.852  1.00  0.00     0.039 A 
ATOM     34  C   UNL A   1      37.522  34.124  31.263  1.00  0.00     0.014 A 
ATOM     35  C   UNL A   1      36.336  32.377  32.451  1.00  0.00     0.014 A 
ATOM     36  C   UNL A   1      38.696  33.369  31.332  1.00  0.00     0.010 A 
ATOM     37  C   UNL A   1      37.523  31.662  32.585  1.00  0.00     0.010 A 
ATOM     38  C   UNL A   1      38.714  32.148  32.023  1.00  0.00    -0.014 A 
BRANCH  38  39
ATOM     39  C   UNL A   1      39.957  31.347  32.160  1.00  0.00     0.031 A 
ATOM     40  C   UNL A   1      40.240  30.231  31.191  1.00  0.00     0.074 A 
ATOM     41  C   UNL A   1      40.790  31.567  33.196  1.00  0.00     0.049 A 
ATOM     42  N   UNL A   1      41.208  29.349  31.204  1.00  0.00    -0.248 NA
ATOM     43  C   UNL A   1      39.293  30.068  30.076  1.00  0.00     0.031 C 
ATOM     44  C   UNL A   1      40.619  32.600  34.219  1.00  0.00     0.029 A 
ATOM     45  N   UNL A   1      41.944  30.921  33.567  1.00  0.00    -0.354 N 
ATOM     46  C   UNL A   1      40.972  28.517  30.117  1.00  0.00     0.074 A 
ATOM     47  C   UNL A   1      39.744  28.965  29.498  1.00  0.00     0.031 C 
ATOM     48  C   UNL A   1      41.641  32.530  35.088  1.00  0.00     0.029 A 
ATOM     49  C   UNL A   1      42.510  31.419  34.715  1.00  0.00     0.049 A 
ATOM     50  H   UNL A   1      42.328  30.171  33.057  1.00  0.00     0.167 HD
ATOM     51  C   UNL A   1      41.718  27.481  29.664  1.00  0.00     0.031 A 
ATOM     52  C   UNL A   1      43.597  31.018  35.399  1.00  0.00     0.031 A 
ATOM     53  C   UNL A   1      42.941  27.037  30.276  1.00  0.00     0.049 A 
ATOM     54  C   UNL A   1      44.391  29.843  34.895  1.00  0.00     0.074 A 
ATOM     55  C   UNL A   1      43.795  26.029  29.865  1.00  0.00     0.029 A 
ATOM     56  N   UNL A   1      43.482  27.573  31.435  1.00  0.00    -0.354 N 
ATOM     57  N   UNL A   1      44.188  29.102  33.832  1.00  0.00    -0.248 NA
ATOM     58  C   UNL A   1      45.571  29.456  35.681  1.00  0.00     0.031 C 
ATOM     59  C   UNL A   1      44.822  25.916  30.808  1.00  0.00     0.029 A 
ATOM     60  C   UNL A   1      44.645  26.900  31.767  1.00  0.00     0.049 A 
ATOM     61  H   UNL A   1      43.096  28.322  31.946  1.00  0.00     0.167 HD
ATOM     62  C   UNL A   1      45.234  28.187  33.802  1.00  0.00     0.074 A 
ATOM     63  C   UNL A   1      46.075  28.474  34.945  1.00  0.00     0.031 C 
ATOM     64  C   UNL A   1      45.477  27.202  32.904  1.00  0.00     0.031 A 
BRANCH  51  65
ATOM     65  C   UNL A   1      41.218  26.746  28.449  1.00  0.00    -0.014 A 
ATOM     66  C   UNL A   1      41.612  27.120  27.154  1.00  0.00     0.009 A 
ATOM     67  C   UNL A   1      40.360  25.645  28.603  1.00  0.00     0.009 A 
ATOM     68  C   UNL A   1      41.123  26.436  26.039  1.00  0.00     0.001 A 
ATOM     69  C   UNL A   1      39.901  24.942  27.489  1.00  0.00     0.001 A 
ATOM     70  C   UNL A   1      40.273  25.345  26.207  1.00  0.00     0.000 A 
ENDBRANCH  51  65
BRANCH  52  71
ATOM     71  C   UNL A   1      44.010  31.734  36.636  1.00  0.00    -0.014 A 
ATOM     72  C   UNL A   1      43.493  31.356  37.885  1.00  0.00     0.009 A 
ATOM     73  C   UNL A   1      44.912  32.807  36.575  1.00  0.00     0.009 A 
ATOM     74  C   UNL A   1      43.845  32.057  39.041  1.00  0.00     0.001 A 
ATOM     75  C   UNL A   1      45.289  33.486  37.736  1.00  0.00     0.001 A 
ATOM     76  C   UNL A   1      44.747  33.117  38.966  1.00  0.00     0.000 A 
ENDBRANCH  52  71
BRANCH  64  77
ATOM     77  C   UNL A   1      46.731  26.392  33.088  1.00  0.00    -0.014 A 
ATOM     78  C   UNL A   1      46.746  25.223  33.865  1.00  0.00     0.009 A 
ATOM     79  C   UNL A   1      47.907  26.783  32.427  1.00  0.00     0.009 A 
ATOM     80  C   UNL A   1      47.923  24.483  34.003  1.00  0.00     0.001 A 
ATOM     81  C   UNL A   1      49.072  26.023  32.539  1.00  0.00     0.001 A 
ATOM     82  C   UNL A   1      49.081  24.879  33.334  1.00  0.00     0.000 A 
ENDBRANCH  64  77
ENDBRANCH  38  39
ENDBRANCH  30  33
ENDBRANCH  28  29
ENDBRANCH  27  28
ENDBRANCH  26  27
ENDBRANCH  25  26
ENDBRANCH  24  25
ENDBRANCH   1  24
TORSDOF 19
ENDMDL
