MODEL 1
REMARK VINA RESULT:     -11.1      0.000      0.000
REMARK SMILES O=C(NCCCCCCNC(=O)c1c(F)cccc1NC(=O)C1CCCCC1)c1ccc(-c2c3nc(c(-c4ccccc4)c4ccc([nH]4)c(-c4ccccc4)c4nc(c(-c5ccccc5)c5ccc2[nH]5)C=C4)C=C3)cc1
REMARK SMILES IDX 6 1 5 2 4 3 3 4 1 5 2 6 29 8 30 9 76 10 31 11 75 12 32 13
REMARK SMILES IDX 33 14 34 15 69 16 35 17 74 18 68 19 70 20 36 21 73 22 67 23
REMARK SMILES IDX 66 24 37 26 59 27 44 28 58 29 45 30 48 31 57 32 71 33 46 34
REMARK SMILES IDX 47 35 56 37 72 38 49 39 38 40 39 41 43 42 40 43 42 44 41 45
REMARK SMILES IDX 60 46 61 47 65 48 62 49 64 50 63 51 50 52 51 53 55 54 52 55
REMARK SMILES IDX 54 56 53 57 7 58 8 59 9 60 10 61 11 62 12 64 13 65 14 66
REMARK SMILES IDX 19 67 15 68 16 69 18 70 17 71 20 72 21 73 22 75 23 76 24 77
REMARK SMILES IDX 28 78 25 79 27 80 26 81
REMARK H PARENT 3 7 70 25 48 36 10 63 20 74
REMARK Flexibility Score: inf
ROOT
ATOM      1  C   UNL A   1      36.189  20.478  24.996  1.00  0.00     0.002 C 
ENDROOT
BRANCH   1   2
ATOM      2  C   UNL A   1      37.585  19.925  24.706  1.00  0.00     0.021 C 
BRANCH   2   3
ATOM      3  C   UNL A   1      38.657  20.269  25.733  1.00  0.00     0.116 C 
BRANCH   3   4
ATOM      4  N   UNL A   1      39.778  19.346  25.716  1.00  0.00    -0.352 N 
ATOM      5  O   UNL A   1      41.931  18.692  25.861  1.00  0.00    -0.269 OA
ATOM      6  C   UNL A   1      41.091  19.565  26.055  1.00  0.00     0.251 C 
ATOM      7  H   UNL A   1      39.567  18.432  25.419  1.00  0.00     0.163 HD
BRANCH   6   8
ATOM      8  C   UNL A   1      41.505  20.866  26.627  1.00  0.00     0.039 A 
ATOM      9  C   UNL A   1      41.531  21.072  28.008  1.00  0.00     0.014 A 
ATOM     10  C   UNL A   1      41.885  21.895  25.760  1.00  0.00     0.014 A 
ATOM     11  C   UNL A   1      41.802  22.340  28.514  1.00  0.00     0.010 A 
ATOM     12  C   UNL A   1      42.230  23.148  26.273  1.00  0.00     0.010 A 
ATOM     13  C   UNL A   1      42.157  23.391  27.653  1.00  0.00    -0.014 A 
BRANCH  13  14
ATOM     14  C   UNL A   1      42.485  24.721  28.226  1.00  0.00     0.031 A 
ATOM     15  C   UNL A   1      43.901  25.097  28.562  1.00  0.00     0.074 A 
ATOM     16  C   UNL A   1      41.492  25.615  28.405  1.00  0.00     0.049 A 
ATOM     17  N   UNL A   1      44.366  26.242  29.000  1.00  0.00    -0.248 NA
ATOM     18  C   UNL A   1      44.929  24.059  28.394  1.00  0.00     0.031 C 
ATOM     19  C   UNL A   1      40.076  25.367  28.124  1.00  0.00     0.029 A 
ATOM     20  N   UNL A   1      41.527  26.916  28.833  1.00  0.00    -0.354 N 
ATOM     21  C   UNL A   1      45.731  26.054  29.181  1.00  0.00     0.074 A 
ATOM     22  C   UNL A   1      46.018  24.682  28.823  1.00  0.00     0.031 C 
ATOM     23  C   UNL A   1      39.386  26.499  28.328  1.00  0.00     0.029 A 
ATOM     24  C   UNL A   1      40.300  27.534  28.799  1.00  0.00     0.049 A 
ATOM     25  H   UNL A   1      42.349  27.365  29.134  1.00  0.00     0.167 HD
ATOM     26  C   UNL A   1      46.660  26.945  29.604  1.00  0.00     0.031 A 
ATOM     27  C   UNL A   1      39.947  28.794  29.111  1.00  0.00     0.031 A 
ATOM     28  C   UNL A   1      46.381  28.314  29.950  1.00  0.00     0.049 A 
ATOM     29  C   UNL A   1      40.996  29.756  29.584  1.00  0.00     0.074 A 
ATOM     30  C   UNL A   1      47.266  29.302  30.346  1.00  0.00     0.029 A 
ATOM     31  N   UNL A   1      45.119  28.887  29.946  1.00  0.00    -0.354 N 
ATOM     32  N   UNL A   1      42.286  29.572  29.709  1.00  0.00    -0.248 NA
ATOM     33  C   UNL A   1      40.534  31.100  29.959  1.00  0.00     0.031 C 
ATOM     34  C   UNL A   1      46.534  30.463  30.620  1.00  0.00     0.029 A 
ATOM     35  C   UNL A   1      45.199  30.209  30.354  1.00  0.00     0.049 A 
ATOM     36  H   UNL A   1      44.289  28.423  29.691  1.00  0.00     0.167 HD
ATOM     37  C   UNL A   1      42.795  30.779  30.167  1.00  0.00     0.074 A 
ATOM     38  C   UNL A   1      41.676  31.693  30.276  1.00  0.00     0.031 C 
ATOM     39  C   UNL A   1      44.076  31.101  30.469  1.00  0.00     0.031 A 
BRANCH  26  40
ATOM     40  C   UNL A   1      48.074  26.455  29.741  1.00  0.00    -0.014 A 
ATOM     41  C   UNL A   1      48.526  25.859  30.929  1.00  0.00     0.009 A 
ATOM     42  C   UNL A   1      48.953  26.555  28.652  1.00  0.00     0.009 A 
ATOM     43  C   UNL A   1      49.842  25.400  31.031  1.00  0.00     0.001 A 
ATOM     44  C   UNL A   1      50.260  26.076  28.751  1.00  0.00     0.001 A 
ATOM     45  C   UNL A   1      50.706  25.506  29.941  1.00  0.00     0.000 A 
ENDBRANCH  26  40
BRANCH  27  46
ATOM     46  C   UNL A   1      38.532  29.217  28.968  1.00  0.00    -0.014 A 
ATOM     47  C   UNL A   1      37.668  29.185  30.073  1.00  0.00     0.009 A 
ATOM     48  C   UNL A   1      38.045  29.673  27.734  1.00  0.00     0.009 A 
ATOM     49  C   UNL A   1      36.339  29.589  29.939  1.00  0.00     0.001 A 
ATOM     50  C   UNL A   1      36.722  30.099  27.609  1.00  0.00     0.001 A 
ATOM     51  C   UNL A   1      35.869  30.052  28.710  1.00  0.00     0.000 A 
ENDBRANCH  27  46
BRANCH  39  52
ATOM     52  C   UNL A   1      44.330  32.505  30.930  1.00  0.00    -0.014 A 
ATOM     53  C   UNL A   1      44.609  33.530  30.012  1.00  0.00     0.009 A 
ATOM     54  C   UNL A   1      44.276  32.810  32.299  1.00  0.00     0.009 A 
ATOM     55  C   UNL A   1      44.861  34.827  30.460  1.00  0.00     0.001 A 
ATOM     56  C   UNL A   1      44.507  34.113  32.742  1.00  0.00     0.001 A 
ATOM     57  C   UNL A   1      44.808  35.118  31.824  1.00  0.00     0.000 A 
ENDBRANCH  39  52
ENDBRANCH  13  14
ENDBRANCH   6   8
ENDBRANCH   3   4
ENDBRANCH   2   3
ENDBRANCH   1   2
BRANCH   1  58
ATOM     58  C   UNL A   1      36.099  21.990  25.223  1.00  0.00     0.002 C 
BRANCH  58  59
ATOM     59  C   UNL A   1      35.448  22.432  26.535  1.00  0.00     0.021 C 
BRANCH  59  60
ATOM     60  C   UNL A   1      34.141  23.202  26.387  1.00  0.00     0.116 C 
BRANCH  60  61
ATOM     61  N   UNL A   1      32.970  22.343  26.438  1.00  0.00    -0.352 N 
ATOM     62  C   UNL A   1      32.006  22.179  25.472  1.00  0.00     0.256 C 
ATOM     63  H   UNL A   1      32.853  21.816  27.262  1.00  0.00     0.163 HD
ATOM     64  O   UNL A   1      31.009  21.497  25.675  1.00  0.00    -0.269 OA
BRANCH  62  65
ATOM     65  C   UNL A   1      32.135  22.935  24.216  1.00  0.00     0.099 A 
ATOM     66  C   UNL A   1      32.960  22.408  23.215  1.00  0.00     0.138 A 
ATOM     67  C   UNL A   1      31.520  24.193  24.067  1.00  0.00     0.057 A 
ATOM     68  F   UNL A   1      33.495  21.185  23.341  1.00  0.00    -0.206 F 
ATOM     69  C   UNL A   1      33.287  23.160  22.098  1.00  0.00     0.040 A 
ATOM     70  C   UNL A   1      31.941  24.961  22.982  1.00  0.00     0.027 A 
ATOM     71  C   UNL A   1      32.806  24.458  22.001  1.00  0.00     0.005 A 
BRANCH  67  72
ATOM     72  N   UNL A   1      30.545  24.602  25.006  1.00  0.00    -0.325 N 
ATOM     73  C   UNL A   1      30.334  25.666  25.830  1.00  0.00     0.227 C 
ATOM     74  H   UNL A   1      29.821  23.939  25.085  1.00  0.00     0.169 HD
ATOM     75  O   UNL A   1      29.331  25.595  26.556  1.00  0.00    -0.274 OA
BRANCH  73  76
ATOM     76  C   UNL A   1      31.212  26.911  25.946  1.00  0.00     0.079 C 
ATOM     77  C   UNL A   1      32.628  26.528  26.394  1.00  0.00     0.013 C 
ATOM     78  C   UNL A   1      31.064  27.904  24.784  1.00  0.00     0.013 C 
ATOM     79  C   UNL A   1      33.625  27.674  26.292  1.00  0.00     0.001 C 
ATOM     80  C   UNL A   1      32.201  28.915  24.644  1.00  0.00     0.001 C 
ATOM     81  C   UNL A   1      33.583  28.346  24.929  1.00  0.00     0.000 C 
ENDBRANCH  73  76
ENDBRANCH  67  72
ENDBRANCH  62  65
ENDBRANCH  60  61
ENDBRANCH  59  60
ENDBRANCH  58  59
ENDBRANCH   1  58
TORSDOF 15
ENDMDL
MODEL 2
REMARK VINA RESULT:     -11.1      1.639      3.370
REMARK SMILES O=C(NCCCCCCNC(=O)c1c(F)cccc1NC(=O)C1CCCCC1)c1ccc(-c2c3nc(c(-c4ccccc4)c4ccc([nH]4)c(-c4ccccc4)c4nc(c(-c5ccccc5)c5ccc2[nH]5)C=C4)C=C3)cc1
REMARK SMILES IDX 6 1 5 2 4 3 3 4 1 5 2 6 29 8 30 9 76 10 31 11 75 12 32 13
REMARK SMILES IDX 33 14 34 15 69 16 35 17 74 18 68 19 70 20 36 21 73 22 67 23
REMARK SMILES IDX 66 24 37 26 59 27 44 28 58 29 45 30 48 31 57 32 71 33 46 34
REMARK SMILES IDX 47 35 56 37 72 38 49 39 38 40 39 41 43 42 40 43 42 44 41 45
REMARK SMILES IDX 60 46 61 47 65 48 62 49 64 50 63 51 50 52 51 53 55 54 52 55
REMARK SMILES IDX 54 56 53 57 7 58 8 59 9 60 10 61 11 62 12 64 13 65 14 66
REMARK SMILES IDX 19 67 15 68 16 69 18 70 17 71 20 72 21 73 22 75 23 76 24 77
REMARK SMILES IDX 28 78 25 79 27 80 26 81
REMARK H PARENT 3 7 70 25 48 36 10 63 20 74
REMARK Flexibility Score: inf
ROOT
ATOM      1  C   UNL A   1      37.331  21.010  24.709  1.00  0.00     0.002 C 
ENDROOT
BRANCH   1   2
ATOM      2  C   UNL A   1      38.203  19.761  24.859  1.00  0.00     0.021 C 
BRANCH   2   3
ATOM      3  C   UNL A   1      39.131  19.747  26.066  1.00  0.00     0.116 C 
BRANCH   3   4
ATOM      4  N   UNL A   1      40.403  19.100  25.797  1.00  0.00    -0.352 N 
ATOM      5  O   UNL A   1      42.637  18.943  25.529  1.00  0.00    -0.269 OA
ATOM      6  C   UNL A   1      41.677  19.599  25.921  1.00  0.00     0.251 C 
ATOM      7  H   UNL A   1      40.344  18.170  25.481  1.00  0.00     0.163 HD
BRANCH   6   8
ATOM      8  C   UNL A   1      41.896  20.944  26.499  1.00  0.00     0.039 A 
ATOM      9  C   UNL A   1      42.094  22.058  25.680  1.00  0.00     0.014 A 
ATOM     10  C   UNL A   1      41.892  21.091  27.889  1.00  0.00     0.014 A 
ATOM     11  C   UNL A   1      42.422  23.286  26.248  1.00  0.00     0.010 A 
ATOM     12  C   UNL A   1      42.149  22.342  28.460  1.00  0.00     0.010 A 
ATOM     13  C   UNL A   1      42.450  23.442  27.644  1.00  0.00    -0.014 A 
BRANCH  13  14
ATOM     14  C   UNL A   1      42.759  24.775  28.220  1.00  0.00     0.031 A 
ATOM     15  C   UNL A   1      44.173  25.179  28.536  1.00  0.00     0.074 A 
ATOM     16  C   UNL A   1      41.751  25.646  28.422  1.00  0.00     0.049 A 
ATOM     17  N   UNL A   1      44.620  26.330  28.974  1.00  0.00    -0.248 NA
ATOM     18  C   UNL A   1      45.220  24.164  28.343  1.00  0.00     0.031 C 
ATOM     19  C   UNL A   1      40.336  25.370  28.163  1.00  0.00     0.029 A 
ATOM     20  N   UNL A   1      41.765  26.945  28.858  1.00  0.00    -0.354 N 
ATOM     21  C   UNL A   1      45.991  26.171  29.131  1.00  0.00     0.074 A 
ATOM     22  C   UNL A   1      46.302  24.808  28.758  1.00  0.00     0.031 C 
ATOM     23  C   UNL A   1      39.626  26.486  28.386  1.00  0.00     0.029 A 
ATOM     24  C   UNL A   1      40.525  27.536  28.849  1.00  0.00     0.049 A 
ATOM     25  H   UNL A   1      42.582  27.409  29.149  1.00  0.00     0.167 HD
ATOM     26  C   UNL A   1      46.909  27.079  29.544  1.00  0.00     0.031 A 
ATOM     27  C   UNL A   1      40.151  28.786  29.176  1.00  0.00     0.031 A 
ATOM     28  C   UNL A   1      46.606  28.438  29.904  1.00  0.00     0.049 A 
ATOM     29  C   UNL A   1      41.186  29.767  29.637  1.00  0.00     0.074 A 
ATOM     30  C   UNL A   1      47.477  29.443  30.292  1.00  0.00     0.029 A 
ATOM     31  N   UNL A   1      45.332  28.985  29.925  1.00  0.00    -0.354 N 
ATOM     32  N   UNL A   1      42.482  29.610  29.740  1.00  0.00    -0.248 NA
ATOM     33  C   UNL A   1      40.703  31.098  30.030  1.00  0.00     0.031 C 
ATOM     34  C   UNL A   1      46.725  30.586  30.586  1.00  0.00     0.029 A 
ATOM     35  C   UNL A   1      45.392  30.305  30.341  1.00  0.00     0.049 A 
ATOM     36  H   UNL A   1      44.509  28.505  29.680  1.00  0.00     0.167 HD
ATOM     37  C   UNL A   1      42.973  30.825  30.197  1.00  0.00     0.074 A 
ATOM     38  C   UNL A   1      41.836  31.714  30.332  1.00  0.00     0.031 C 
ATOM     39  C   UNL A   1      44.252  31.173  30.481  1.00  0.00     0.031 A 
BRANCH  26  40
ATOM     40  C   UNL A   1      48.334  26.618  29.655  1.00  0.00    -0.014 A 
ATOM     41  C   UNL A   1      49.244  26.799  28.600  1.00  0.00     0.009 A 
ATOM     42  C   UNL A   1      48.785  26.031  30.848  1.00  0.00     0.009 A 
ATOM     43  C   UNL A   1      50.568  26.373  28.730  1.00  0.00     0.001 A 
ATOM     44  C   UNL A   1      50.113  25.626  30.981  1.00  0.00     0.001 A 
ATOM     45  C   UNL A   1      51.002  25.790  29.920  1.00  0.00     0.000 A 
ENDBRANCH  26  40
BRANCH  27  46
ATOM     46  C   UNL A   1      38.725  29.180  29.059  1.00  0.00    -0.014 A 
ATOM     47  C   UNL A   1      38.212  29.631  27.833  1.00  0.00     0.009 A 
ATOM     48  C   UNL A   1      37.867  29.089  30.165  1.00  0.00     0.009 A 
ATOM     49  C   UNL A   1      36.869  29.995  27.723  1.00  0.00     0.001 A 
ATOM     50  C   UNL A   1      36.519  29.432  30.046  1.00  0.00     0.001 A 
ATOM     51  C   UNL A   1      36.023  29.889  28.827  1.00  0.00     0.000 A 
ENDBRANCH  27  46
BRANCH  39  52
ATOM     52  C   UNL A   1      44.483  32.579  30.948  1.00  0.00    -0.014 A 
ATOM     53  C   UNL A   1      44.725  33.615  30.032  1.00  0.00     0.009 A 
ATOM     54  C   UNL A   1      44.445  32.873  32.319  1.00  0.00     0.009 A 
ATOM     55  C   UNL A   1      44.957  34.914  30.485  1.00  0.00     0.001 A 
ATOM     56  C   UNL A   1      44.656  34.178  32.767  1.00  0.00     0.001 A 
ATOM     57  C   UNL A   1      44.921  35.195  31.851  1.00  0.00     0.000 A 
ENDBRANCH  39  52
ENDBRANCH  13  14
ENDBRANCH   6   8
ENDBRANCH   3   4
ENDBRANCH   2   3
ENDBRANCH   1   2
BRANCH   1  58
ATOM     58  C   UNL A   1      37.763  22.233  25.523  1.00  0.00     0.002 C 
BRANCH  58  59
ATOM     59  C   UNL A   1      37.044  23.543  25.194  1.00  0.00     0.021 C 
BRANCH  59  60
ATOM     60  C   UNL A   1      35.551  23.415  24.916  1.00  0.00     0.116 C 
BRANCH  60  61
ATOM     61  N   UNL A   1      35.169  23.962  23.625  1.00  0.00    -0.352 N 
ATOM     62  C   UNL A   1      33.923  24.387  23.228  1.00  0.00     0.256 C 
ATOM     63  H   UNL A   1      35.887  24.037  22.955  1.00  0.00     0.163 HD
ATOM     64  O   UNL A   1      33.706  24.737  22.074  1.00  0.00    -0.269 OA
BRANCH  62  65
ATOM     65  C   UNL A   1      32.814  24.306  24.191  1.00  0.00     0.099 A 
ATOM     66  C   UNL A   1      32.793  25.226  25.245  1.00  0.00     0.138 A 
ATOM     67  C   UNL A   1      31.858  23.275  24.103  1.00  0.00     0.057 A 
ATOM     68  F   UNL A   1      33.672  26.238  25.290  1.00  0.00    -0.206 F 
ATOM     69  C   UNL A   1      31.900  25.080  26.295  1.00  0.00     0.040 A 
ATOM     70  C   UNL A   1      31.037  23.099  25.215  1.00  0.00     0.027 A 
ATOM     71  C   UNL A   1      31.044  23.988  26.299  1.00  0.00     0.005 A 
BRANCH  67  72
ATOM     72  N   UNL A   1      31.792  22.490  22.928  1.00  0.00    -0.325 N 
ATOM     73  C   UNL A   1      32.009  21.192  22.580  1.00  0.00     0.227 C 
ATOM     74  H   UNL A   1      31.514  23.028  22.152  1.00  0.00     0.169 HD
ATOM     75  O   UNL A   1      31.878  20.928  21.375  1.00  0.00    -0.274 OA
BRANCH  73  76
ATOM     76  C   UNL A   1      32.403  20.054  23.520  1.00  0.00     0.079 C 
ATOM     77  C   UNL A   1      32.296  18.704  22.800  1.00  0.00     0.013 C 
ATOM     78  C   UNL A   1      33.659  20.329  24.359  1.00  0.00     0.013 C 
ATOM     79  C   UNL A   1      32.907  17.551  23.585  1.00  0.00     0.001 C 
ATOM     80  C   UNL A   1      34.317  19.092  24.970  1.00  0.00     0.001 C 
ATOM     81  C   UNL A   1      34.313  17.869  24.064  1.00  0.00     0.000 C 
ENDBRANCH  73  76
ENDBRANCH  67  72
ENDBRANCH  62  65
ENDBRANCH  60  61
ENDBRANCH  59  60
ENDBRANCH  58  59
ENDBRANCH   1  58
TORSDOF 15
ENDMDL
MODEL 3
REMARK VINA RESULT:     -11.0      2.268      4.091
REMARK SMILES O=C(NCCCCCCNC(=O)c1c(F)cccc1NC(=O)C1CCCCC1)c1ccc(-c2c3nc(c(-c4ccccc4)c4ccc([nH]4)c(-c4ccccc4)c4nc(c(-c5ccccc5)c5ccc2[nH]5)C=C4)C=C3)cc1
REMARK SMILES IDX 6 1 5 2 4 3 3 4 1 5 2 6 29 8 30 9 76 10 31 11 75 12 32 13
REMARK SMILES IDX 33 14 34 15 69 16 35 17 74 18 68 19 70 20 36 21 73 22 67 23
REMARK SMILES IDX 66 24 37 26 59 27 44 28 58 29 45 30 48 31 57 32 71 33 46 34
REMARK SMILES IDX 47 35 56 37 72 38 49 39 38 40 39 41 43 42 40 43 42 44 41 45
REMARK SMILES IDX 60 46 61 47 65 48 62 49 64 50 63 51 50 52 51 53 55 54 52 55
REMARK SMILES IDX 54 56 53 57 7 58 8 59 9 60 10 61 11 62 12 64 13 65 14 66
REMARK SMILES IDX 19 67 15 68 16 69 18 70 17 71 20 72 21 73 22 75 23 76 24 77
REMARK SMILES IDX 28 78 25 79 27 80 26 81
REMARK H PARENT 3 7 70 25 48 36 10 63 20 74
REMARK Flexibility Score: inf
ROOT
ATOM      1  C   UNL A   1      34.947  23.213  23.399  1.00  0.00     0.002 C 
ENDROOT
BRANCH   1   2
ATOM      2  C   UNL A   1      36.469  23.324  23.494  1.00  0.00     0.021 C 
BRANCH   2   3
ATOM      3  C   UNL A   1      37.026  23.571  24.890  1.00  0.00     0.116 C 
BRANCH   3   4
ATOM      4  N   UNL A   1      37.967  22.549  25.315  1.00  0.00    -0.352 N 
ATOM      5  O   UNL A   1      39.846  21.712  26.239  1.00  0.00    -0.269 OA
ATOM      6  C   UNL A   1      39.101  22.674  26.081  1.00  0.00     0.251 C 
ATOM      7  H   UNL A   1      37.762  21.636  25.012  1.00  0.00     0.163 HD
BRANCH   6   8
ATOM      8  C   UNL A   1      39.446  23.977  26.692  1.00  0.00     0.039 A 
ATOM      9  C   UNL A   1      40.155  24.944  25.976  1.00  0.00     0.014 A 
ATOM     10  C   UNL A   1      39.041  24.236  28.004  1.00  0.00     0.014 A 
ATOM     11  C   UNL A   1      40.575  26.108  26.614  1.00  0.00     0.010 A 
ATOM     12  C   UNL A   1      39.400  25.438  28.621  1.00  0.00     0.010 A 
ATOM     13  C   UNL A   1      40.201  26.369  27.942  1.00  0.00    -0.014 A 
BRANCH  13  14
ATOM     14  C   UNL A   1      40.626  27.640  28.582  1.00  0.00     0.031 A 
ATOM     15  C   UNL A   1      42.062  27.880  28.958  1.00  0.00     0.074 A 
ATOM     16  C   UNL A   1      39.708  28.604  28.786  1.00  0.00     0.049 A 
ATOM     17  N   UNL A   1      42.611  28.961  29.456  1.00  0.00    -0.248 NA
ATOM     18  C   UNL A   1      43.003  26.768  28.757  1.00  0.00     0.031 C 
ATOM     19  C   UNL A   1      38.282  28.489  28.472  1.00  0.00     0.029 A 
ATOM     20  N   UNL A   1      39.841  29.878  29.275  1.00  0.00    -0.354 N 
ATOM     21  C   UNL A   1      43.952  28.652  29.650  1.00  0.00     0.074 A 
ATOM     22  C   UNL A   1      44.132  27.278  29.232  1.00  0.00     0.031 C 
ATOM     23  C   UNL A   1      37.684  29.665  28.717  1.00  0.00     0.029 A 
ATOM     24  C   UNL A   1      38.671  30.597  29.250  1.00  0.00     0.049 A 
ATOM     25  H   UNL A   1      40.692  30.242  29.609  1.00  0.00     0.167 HD
ATOM     26  C   UNL A   1      44.944  29.442  30.128  1.00  0.00     0.031 A 
ATOM     27  C   UNL A   1      38.418  31.867  29.615  1.00  0.00     0.031 A 
ATOM     28  C   UNL A   1      44.772  30.812  30.533  1.00  0.00     0.049 A 
ATOM     29  C   UNL A   1      39.533  32.715  30.148  1.00  0.00     0.074 A 
ATOM     30  C   UNL A   1      45.728  31.704  30.988  1.00  0.00     0.029 A 
ATOM     31  N   UNL A   1      43.562  31.489  30.535  1.00  0.00    -0.354 N 
ATOM     32  N   UNL A   1      40.801  32.418  30.285  1.00  0.00    -0.248 NA
ATOM     33  C   UNL A   1      39.177  34.074  30.578  1.00  0.00     0.031 C 
ATOM     34  C   UNL A   1      45.090  32.909  31.304  1.00  0.00     0.029 A 
ATOM     35  C   UNL A   1      43.744  32.779  31.006  1.00  0.00     0.049 A 
ATOM     36  H   UNL A   1      42.702  31.108  30.246  1.00  0.00     0.167 HD
ATOM     37  C   UNL A   1      41.399  33.557  30.807  1.00  0.00     0.074 A 
ATOM     38  C   UNL A   1      40.358  34.555  30.941  1.00  0.00     0.031 C 
ATOM     39  C   UNL A   1      42.697  33.757  31.144  1.00  0.00     0.031 A 
BRANCH  26  40
ATOM     40  C   UNL A   1      46.309  28.830  30.265  1.00  0.00    -0.014 A 
ATOM     41  C   UNL A   1      47.260  28.931  29.238  1.00  0.00     0.009 A 
ATOM     42  C   UNL A   1      46.661  28.177  31.457  1.00  0.00     0.009 A 
ATOM     43  C   UNL A   1      48.528  28.363  29.392  1.00  0.00     0.001 A 
ATOM     44  C   UNL A   1      47.935  27.630  31.615  1.00  0.00     0.001 A 
ATOM     45  C   UNL A   1      48.864  27.716  30.581  1.00  0.00     0.000 A 
ENDBRANCH  26  40
BRANCH  27  46
ATOM     46  C   UNL A   1      37.046  32.413  29.469  1.00  0.00    -0.014 A 
ATOM     47  C   UNL A   1      36.669  33.075  28.291  1.00  0.00     0.009 A 
ATOM     48  C   UNL A   1      36.104  32.258  30.497  1.00  0.00     0.009 A 
ATOM     49  C   UNL A   1      35.376  33.583  28.152  1.00  0.00     0.001 A 
ATOM     50  C   UNL A   1      34.805  32.746  30.345  1.00  0.00     0.001 A 
ATOM     51  C   UNL A   1      34.444  33.413  29.176  1.00  0.00     0.000 A 
ENDBRANCH  27  46
BRANCH  39  52
ATOM     52  C   UNL A   1      43.056  35.112  31.674  1.00  0.00    -0.014 A 
ATOM     53  C   UNL A   1      43.559  36.111  30.826  1.00  0.00     0.009 A 
ATOM     54  C   UNL A   1      42.877  35.398  33.036  1.00  0.00     0.009 A 
ATOM     55  C   UNL A   1      43.907  37.361  31.340  1.00  0.00     0.001 A 
ATOM     56  C   UNL A   1      43.206  36.657  33.542  1.00  0.00     0.001 A 
ATOM     57  C   UNL A   1      43.729  37.634  32.696  1.00  0.00     0.000 A 
ENDBRANCH  39  52
ENDBRANCH  13  14
ENDBRANCH   6   8
ENDBRANCH   3   4
ENDBRANCH   2   3
ENDBRANCH   1   2
BRANCH   1  58
ATOM     58  C   UNL A   1      34.195  24.513  23.094  1.00  0.00     0.002 C 
BRANCH  58  59
ATOM     59  C   UNL A   1      32.717  24.360  22.731  1.00  0.00     0.021 C 
BRANCH  59  60
ATOM     60  C   UNL A   1      32.046  25.616  22.186  1.00  0.00     0.116 C 
BRANCH  60  61
ATOM     61  N   UNL A   1      30.735  25.852  22.765  1.00  0.00    -0.352 N 
ATOM     62  C   UNL A   1      30.437  26.535  23.920  1.00  0.00     0.256 C 
ATOM     63  H   UNL A   1      29.968  25.478  22.272  1.00  0.00     0.163 HD
ATOM     64  O   UNL A   1      29.294  26.580  24.358  1.00  0.00    -0.269 OA
BRANCH  62  65
ATOM     65  C   UNL A   1      31.543  27.123  24.692  1.00  0.00     0.099 A 
ATOM     66  C   UNL A   1      32.204  28.231  24.151  1.00  0.00     0.138 A 
ATOM     67  C   UNL A   1      31.978  26.528  25.892  1.00  0.00     0.057 A 
ATOM     68  F   UNL A   1      31.748  28.826  23.039  1.00  0.00    -0.206 F 
ATOM     69  C   UNL A   1      33.376  28.705  24.720  1.00  0.00     0.040 A 
ATOM     70  C   UNL A   1      33.206  26.965  26.388  1.00  0.00     0.027 A 
ATOM     71  C   UNL A   1      33.899  28.044  25.822  1.00  0.00     0.005 A 
BRANCH  67  72
ATOM     72  N   UNL A   1      31.174  25.540  26.507  1.00  0.00    -0.325 N 
ATOM     73  C   UNL A   1      31.167  24.182  26.615  1.00  0.00     0.227 C 
ATOM     74  H   UNL A   1      30.415  25.942  26.987  1.00  0.00     0.169 HD
ATOM     75  O   UNL A   1      30.206  23.696  27.231  1.00  0.00    -0.274 OA
BRANCH  73  76
ATOM     76  C   UNL A   1      32.209  23.221  26.046  1.00  0.00     0.079 C 
ATOM     77  C   UNL A   1      33.307  22.948  27.082  1.00  0.00     0.013 C 
ATOM     78  C   UNL A   1      31.621  22.025  25.284  1.00  0.00     0.013 C 
ATOM     79  C   UNL A   1      34.242  21.814  26.687  1.00  0.00     0.001 C 
ATOM     80  C   UNL A   1      32.576  20.849  25.081  1.00  0.00     0.001 C 
ATOM     81  C   UNL A   1      33.480  20.566  26.273  1.00  0.00     0.000 C 
ENDBRANCH  73  76
ENDBRANCH  67  72
ENDBRANCH  62  65
ENDBRANCH  60  61
ENDBRANCH  59  60
ENDBRANCH  58  59
ENDBRANCH   1  58
TORSDOF 15
ENDMDL
