MODEL 1
REMARK VINA RESULT:     -10.7      0.000      0.000
REMARK SMILES CC1(C)C(n2c(SCC(=O)NCCCCCCNC(=O)c3ccc(-c4c5nc(c(-c6ccccc6)c6ccc([nH]6)c(-c6ccccc6)c6nc(c(-c7ccccc7)c7ccc4[nH]7)C=C6)C=C5)cc3)nc3cnccc32)C1(C)C
REMARK SMILES IDX 14 1 13 2 12 3 11 4 9 5 10 6 8 8 7 9 6 10 5 11 75 12 69 13
REMARK SMILES IDX 70 14 74 15 71 16 73 17 72 18 4 19 1 20 2 21 3 22 76 23
REMARK SMILES IDX 77 24 78 25 15 26 16 27 17 28 18 29 19 30 20 32 21 33 22 34
REMARK SMILES IDX 68 35 23 36 67 37 24 38 25 39 26 40 61 41 27 42 66 43 60 44
REMARK SMILES IDX 62 45 28 46 65 47 59 48 58 49 29 51 51 52 36 53 50 54 37 55
REMARK SMILES IDX 40 56 49 57 63 58 38 59 39 60 48 62 64 63 41 64 30 65 31 66
REMARK SMILES IDX 35 67 32 68 34 69 33 70 52 71 53 72 57 73 54 74 56 75 55 76
REMARK SMILES IDX 42 77 43 78 47 79 44 80 46 81 45 82
REMARK H PARENT 11 7 18 31 62 50 40 61
REMARK Flexibility Score: inf
ROOT
ATOM      1  C   UNL A   1      40.328  21.498  26.328  1.00  0.00     0.002 C 
ENDROOT
BRANCH   1   2
ATOM      2  C   UNL A   1      39.035  20.920  25.731  1.00  0.00     0.021 C 
BRANCH   2   3
ATOM      3  C   UNL A   1      37.846  21.881  25.765  1.00  0.00     0.116 C 
BRANCH   3   4
ATOM      4  N   UNL A   1      37.805  22.632  24.535  1.00  0.00    -0.355 N 
ATOM      5  C   UNL A   1      36.721  22.863  23.752  1.00  0.00     0.230 C 
ATOM      6  O   UNL A   1      36.937  23.077  22.561  1.00  0.00    -0.274 OA
ATOM      7  H   UNL A   1      38.657  23.019  24.230  1.00  0.00     0.163 HD
BRANCH   5   8
ATOM      8  C   UNL A   1      35.352  22.972  24.382  1.00  0.00     0.178 C 
BRANCH   8   9
ATOM      9  S   UNL A   1      35.022  24.430  25.333  1.00  0.00    -0.078 SA
BRANCH   9  10
ATOM     10  C   UNL A   1      33.372  24.564  25.825  1.00  0.00     0.169 A 
ATOM     11  N   UNL A   1      32.429  25.574  25.708  1.00  0.00    -0.315 N 
ATOM     12  C   UNL A   1      31.223  25.044  26.157  1.00  0.00     0.072 A 
ATOM     13  N   UNL A   1      32.887  23.550  26.518  1.00  0.00    -0.221 NA
ATOM     14  C   UNL A   1      31.562  23.812  26.707  1.00  0.00     0.108 A 
ATOM     15  C   UNL A   1      29.893  25.476  26.135  1.00  0.00     0.049 A 
ATOM     16  C   UNL A   1      30.571  23.023  27.300  1.00  0.00     0.141 A 
ATOM     17  C   UNL A   1      28.977  24.623  26.739  1.00  0.00     0.113 A 
ATOM     18  N   UNL A   1      29.279  23.440  27.318  1.00  0.00    -0.262 NA
BRANCH  11  19
ATOM     19  C   UNL A   1      32.466  26.794  24.920  1.00  0.00     0.102 C 
ATOM     20  C   UNL A   1      30.957  28.825  24.398  1.00  0.00     0.014 C 
ATOM     21  C   UNL A   1      31.908  28.140  25.365  1.00  0.00    -0.007 C 
ATOM     22  C   UNL A   1      31.586  28.462  26.807  1.00  0.00     0.014 C 
ATOM     23  C   UNL A   1      33.405  27.998  24.995  1.00  0.00    -0.007 C 
ATOM     24  C   UNL A   1      33.853  28.685  23.713  1.00  0.00     0.014 C 
ATOM     25  C   UNL A   1      34.448  28.084  26.096  1.00  0.00     0.014 C 
ENDBRANCH  11  19
ENDBRANCH   9  10
ENDBRANCH   8   9
ENDBRANCH   5   8
ENDBRANCH   3   4
ENDBRANCH   2   3
ENDBRANCH   1   2
BRANCH   1  26
ATOM     26  C   UNL A   1      40.903  20.713  27.508  1.00  0.00     0.002 C 
BRANCH  26  27
ATOM     27  C   UNL A   1      42.096  19.821  27.160  1.00  0.00     0.021 C 
BRANCH  27  28
ATOM     28  C   UNL A   1      42.167  19.424  25.686  1.00  0.00     0.116 C 
BRANCH  28  29
ATOM     29  N   UNL A   1      43.455  19.688  25.089  1.00  0.00    -0.352 N 
ATOM     30  C   UNL A   1      44.309  20.755  25.104  1.00  0.00     0.251 C 
ATOM     31  H   UNL A   1      43.792  18.933  24.554  1.00  0.00     0.163 HD
ATOM     32  O   UNL A   1      45.374  20.611  24.502  1.00  0.00    -0.269 OA
BRANCH  30  33
ATOM     33  C   UNL A   1      44.025  22.067  25.755  1.00  0.00     0.039 A 
ATOM     34  C   UNL A   1      44.520  22.491  26.987  1.00  0.00     0.014 A 
ATOM     35  C   UNL A   1      43.170  22.935  25.050  1.00  0.00     0.014 A 
ATOM     36  C   UNL A   1      44.121  23.704  27.534  1.00  0.00     0.010 A 
ATOM     37  C   UNL A   1      42.795  24.171  25.575  1.00  0.00     0.010 A 
ATOM     38  C   UNL A   1      43.253  24.546  26.833  1.00  0.00    -0.014 A 
BRANCH  38  39
ATOM     39  C   UNL A   1      42.988  25.856  27.420  1.00  0.00     0.031 A 
ATOM     40  C   UNL A   1      43.990  26.907  27.094  1.00  0.00     0.074 A 
ATOM     41  C   UNL A   1      41.895  26.187  28.133  1.00  0.00     0.049 A 
ATOM     42  N   UNL A   1      44.760  27.549  27.910  1.00  0.00    -0.248 NA
ATOM     43  C   UNL A   1      44.215  27.222  25.675  1.00  0.00     0.031 C 
ATOM     44  C   UNL A   1      40.668  25.409  28.301  1.00  0.00     0.029 A 
ATOM     45  N   UNL A   1      41.621  27.360  28.782  1.00  0.00    -0.354 N 
ATOM     46  C   UNL A   1      45.459  28.468  27.132  1.00  0.00     0.074 A 
ATOM     47  C   UNL A   1      45.170  28.148  25.757  1.00  0.00     0.031 C 
ATOM     48  C   UNL A   1      39.702  26.212  28.801  1.00  0.00     0.029 A 
ATOM     49  C   UNL A   1      40.290  27.500  29.135  1.00  0.00     0.049 A 
ATOM     50  H   UNL A   1      42.306  28.039  28.980  1.00  0.00     0.167 HD
ATOM     51  C   UNL A   1      46.061  29.558  27.680  1.00  0.00     0.031 A 
ATOM     52  C   UNL A   1      39.694  28.608  29.631  1.00  0.00     0.031 A 
ATOM     53  C   UNL A   1      46.193  29.447  29.106  1.00  0.00     0.049 A 
ATOM     54  C   UNL A   1      40.719  29.464  30.261  1.00  0.00     0.074 A 
ATOM     55  C   UNL A   1      46.977  28.734  29.984  1.00  0.00     0.029 A 
ATOM     56  N   UNL A   1      45.153  29.976  29.822  1.00  0.00    -0.354 N 
ATOM     57  N   UNL A   1      41.365  29.137  31.343  1.00  0.00    -0.248 NA
ATOM     58  C   UNL A   1      41.233  30.633  29.559  1.00  0.00     0.031 C 
ATOM     59  C   UNL A   1      46.225  28.639  31.190  1.00  0.00     0.029 A 
ATOM     60  C   UNL A   1      45.013  29.308  31.011  1.00  0.00     0.049 A 
ATOM     61  H   UNL A   1      44.589  30.727  29.527  1.00  0.00     0.167 HD
ATOM     62  C   UNL A   1      42.587  29.768  31.217  1.00  0.00     0.074 A 
ATOM     63  C   UNL A   1      42.374  30.814  30.230  1.00  0.00     0.031 C 
ATOM     64  C   UNL A   1      43.729  29.179  31.673  1.00  0.00     0.031 A 
BRANCH  51  65
ATOM     65  C   UNL A   1      46.148  30.904  26.998  1.00  0.00    -0.014 A 
ATOM     66  C   UNL A   1      45.016  31.648  26.616  1.00  0.00     0.009 A 
ATOM     67  C   UNL A   1      47.379  31.588  27.002  1.00  0.00     0.009 A 
ATOM     68  C   UNL A   1      45.100  32.999  26.268  1.00  0.00     0.001 A 
ATOM     69  C   UNL A   1      47.461  32.951  26.691  1.00  0.00     0.001 A 
ATOM     70  C   UNL A   1      46.319  33.657  26.328  1.00  0.00     0.000 A 
ENDBRANCH  51  65
BRANCH  52  71
ATOM     71  C   UNL A   1      38.312  29.083  29.422  1.00  0.00    -0.014 A 
ATOM     72  C   UNL A   1      37.899  29.507  28.147  1.00  0.00     0.009 A 
ATOM     73  C   UNL A   1      37.492  29.395  30.518  1.00  0.00     0.009 A 
ATOM     74  C   UNL A   1      36.735  30.262  27.979  1.00  0.00     0.001 A 
ATOM     75  C   UNL A   1      36.331  30.157  30.350  1.00  0.00     0.001 A 
ATOM     76  C   UNL A   1      35.963  30.606  29.084  1.00  0.00     0.000 A 
ENDBRANCH  52  71
BRANCH  64  77
ATOM     77  C   UNL A   1      43.605  28.134  32.751  1.00  0.00    -0.014 A 
ATOM     78  C   UNL A   1      43.873  26.799  32.409  1.00  0.00     0.009 A 
ATOM     79  C   UNL A   1      43.140  28.408  34.048  1.00  0.00     0.009 A 
ATOM     80  C   UNL A   1      43.677  25.768  33.330  1.00  0.00     0.001 A 
ATOM     81  C   UNL A   1      42.975  27.380  34.981  1.00  0.00     0.001 A 
ATOM     82  C   UNL A   1      43.235  26.060  34.618  1.00  0.00     0.000 A 
ENDBRANCH  64  77
ENDBRANCH  38  39
ENDBRANCH  30  33
ENDBRANCH  28  29
ENDBRANCH  27  28
ENDBRANCH  26  27
ENDBRANCH   1  26
TORSDOF 16
ENDMDL
MODEL 2
REMARK VINA RESULT:     -10.7      2.567      4.095
REMARK SMILES CC1(C)C(n2c(SCC(=O)NCCCCCCNC(=O)c3ccc(-c4c5nc(c(-c6ccccc6)c6ccc([nH]6)c(-c6ccccc6)c6nc(c(-c7ccccc7)c7ccc4[nH]7)C=C6)C=C5)cc3)nc3cnccc32)C1(C)C
REMARK SMILES IDX 14 1 13 2 12 3 11 4 9 5 10 6 8 8 7 9 6 10 5 11 75 12 69 13
REMARK SMILES IDX 70 14 74 15 71 16 73 17 72 18 4 19 1 20 2 21 3 22 76 23
REMARK SMILES IDX 77 24 78 25 15 26 16 27 17 28 18 29 19 30 20 32 21 33 22 34
REMARK SMILES IDX 68 35 23 36 67 37 24 38 25 39 26 40 61 41 27 42 66 43 60 44
REMARK SMILES IDX 62 45 28 46 65 47 59 48 58 49 29 51 51 52 36 53 50 54 37 55
REMARK SMILES IDX 40 56 49 57 63 58 38 59 39 60 48 62 64 63 41 64 30 65 31 66
REMARK SMILES IDX 35 67 32 68 34 69 33 70 52 71 53 72 57 73 54 74 56 75 55 76
REMARK SMILES IDX 42 77 43 78 47 79 44 80 46 81 45 82
REMARK H PARENT 11 7 18 31 62 50 40 61
REMARK Flexibility Score: inf
ROOT
ATOM      1  C   UNL A   1      36.377  22.940  23.692  1.00  0.00     0.002 C 
ENDROOT
BRANCH   1   2
ATOM      2  C   UNL A   1      34.854  22.734  23.710  1.00  0.00     0.021 C 
BRANCH   2   3
ATOM      3  C   UNL A   1      34.079  23.849  24.414  1.00  0.00     0.116 C 
BRANCH   3   4
ATOM      4  N   UNL A   1      32.665  23.602  24.282  1.00  0.00    -0.355 N 
ATOM      5  C   UNL A   1      31.763  24.354  23.601  1.00  0.00     0.230 C 
ATOM      6  O   UNL A   1      30.596  24.290  23.980  1.00  0.00    -0.274 OA
ATOM      7  H   UNL A   1      32.316  22.801  24.734  1.00  0.00     0.163 HD
BRANCH   5   8
ATOM      8  C   UNL A   1      32.197  25.110  22.367  1.00  0.00     0.178 C 
BRANCH   8   9
ATOM      9  S   UNL A   1      32.870  26.730  22.616  1.00  0.00    -0.078 SA
BRANCH   9  10
ATOM     10  C   UNL A   1      31.677  27.908  23.029  1.00  0.00     0.169 A 
ATOM     11  N   UNL A   1      31.576  28.833  24.056  1.00  0.00    -0.315 N 
ATOM     12  C   UNL A   1      30.458  29.614  23.779  1.00  0.00     0.072 A 
ATOM     13  N   UNL A   1      30.587  27.919  22.282  1.00  0.00    -0.221 NA
ATOM     14  C   UNL A   1      29.840  28.977  22.708  1.00  0.00     0.108 A 
ATOM     15  C   UNL A   1      29.928  30.793  24.312  1.00  0.00     0.049 A 
ATOM     16  C   UNL A   1      28.641  29.487  22.199  1.00  0.00     0.141 A 
ATOM     17  C   UNL A   1      28.740  31.229  23.738  1.00  0.00     0.113 A 
ATOM     18  N   UNL A   1      28.093  30.612  22.725  1.00  0.00    -0.262 NA
BRANCH  11  19
ATOM     19  C   UNL A   1      32.575  29.266  25.018  1.00  0.00     0.102 C 
ATOM     20  C   UNL A   1      32.726  30.703  27.160  1.00  0.00     0.014 C 
ATOM     21  C   UNL A   1      32.353  29.376  26.521  1.00  0.00    -0.007 C 
ATOM     22  C   UNL A   1      31.203  28.701  27.235  1.00  0.00     0.014 C 
ATOM     23  C   UNL A   1      33.466  28.456  25.960  1.00  0.00    -0.007 C 
ATOM     24  C   UNL A   1      34.900  28.901  26.209  1.00  0.00     0.014 C 
ATOM     25  C   UNL A   1      33.298  26.950  26.061  1.00  0.00     0.014 C 
ENDBRANCH  11  19
ENDBRANCH   9  10
ENDBRANCH   8   9
ENDBRANCH   5   8
ENDBRANCH   3   4
ENDBRANCH   2   3
ENDBRANCH   1   2
BRANCH   1  26
ATOM     26  C   UNL A   1      37.146  22.171  24.766  1.00  0.00     0.002 C 
BRANCH  26  27
ATOM     27  C   UNL A   1      38.192  22.997  25.517  1.00  0.00     0.021 C 
BRANCH  27  28
ATOM     28  C   UNL A   1      39.075  22.176  26.457  1.00  0.00     0.116 C 
BRANCH  28  29
ATOM     29  N   UNL A   1      40.463  22.158  26.058  1.00  0.00    -0.352 N 
ATOM     30  C   UNL A   1      41.483  23.065  26.122  1.00  0.00     0.251 C 
ATOM     31  H   UNL A   1      40.733  21.303  25.648  1.00  0.00     0.163 HD
ATOM     32  O   UNL A   1      42.581  22.682  25.715  1.00  0.00    -0.269 OA
BRANCH  30  33
ATOM     33  C   UNL A   1      41.348  24.469  26.607  1.00  0.00     0.039 A 
ATOM     34  C   UNL A   1      40.950  25.563  25.840  1.00  0.00     0.014 A 
ATOM     35  C   UNL A   1      41.667  24.690  27.960  1.00  0.00     0.014 A 
ATOM     36  C   UNL A   1      40.939  26.844  26.380  1.00  0.00     0.010 A 
ATOM     37  C   UNL A   1      41.622  25.965  28.520  1.00  0.00     0.010 A 
ATOM     38  C   UNL A   1      41.281  27.050  27.719  1.00  0.00    -0.014 A 
BRANCH  38  39
ATOM     39  C   UNL A   1      41.118  28.405  28.238  1.00  0.00     0.031 A 
ATOM     40  C   UNL A   1      42.250  29.328  27.956  1.00  0.00     0.074 A 
ATOM     41  C   UNL A   1      40.017  28.882  28.849  1.00  0.00     0.049 A 
ATOM     42  N   UNL A   1      43.023  29.919  28.808  1.00  0.00    -0.248 NA
ATOM     43  C   UNL A   1      42.616  29.555  26.549  1.00  0.00     0.031 C 
ATOM     44  C   UNL A   1      38.702  28.247  28.945  1.00  0.00     0.029 A 
ATOM     45  N   UNL A   1      39.825  30.104  29.433  1.00  0.00    -0.354 N 
ATOM     46  C   UNL A   1      43.875  30.724  28.057  1.00  0.00     0.074 A 
ATOM     47  C   UNL A   1      43.658  30.377  26.675  1.00  0.00     0.031 C 
ATOM     48  C   UNL A   1      37.796  29.170  29.339  1.00  0.00     0.029 A 
ATOM     49  C   UNL A   1      38.494  30.401  29.674  1.00  0.00     0.049 A 
ATOM     50  H   UNL A   1      40.563  30.714  29.661  1.00  0.00     0.167 HD
ATOM     51  C   UNL A   1      44.550  31.766  28.613  1.00  0.00     0.031 A 
ATOM     52  C   UNL A   1      37.988  31.587  30.081  1.00  0.00     0.031 A 
ATOM     53  C   UNL A   1      44.561  31.703  30.048  1.00  0.00     0.049 A 
ATOM     54  C   UNL A   1      39.050  32.355  30.761  1.00  0.00     0.074 A 
ATOM     55  C   UNL A   1      45.194  30.949  31.010  1.00  0.00     0.029 A 
ATOM     56  N   UNL A   1      43.534  32.370  30.660  1.00  0.00    -0.354 N 
ATOM     57  N   UNL A   1      39.574  32.008  31.902  1.00  0.00    -0.248 NA
ATOM     58  C   UNL A   1      39.742  33.430  30.062  1.00  0.00     0.031 C 
ATOM     59  C   UNL A   1      44.346  30.987  32.154  1.00  0.00     0.029 A 
ATOM     60  C   UNL A   1      43.232  31.774  31.856  1.00  0.00     0.049 A 
ATOM     61  H   UNL A   1      43.080  33.164  30.295  1.00  0.00     0.167 HD
ATOM     62  C   UNL A   1      40.863  32.499  31.852  1.00  0.00     0.074 A 
ATOM     63  C   UNL A   1      40.842  33.518  30.815  1.00  0.00     0.031 C 
ATOM     64  C   UNL A   1      41.896  31.811  32.418  1.00  0.00     0.031 A 
BRANCH  51  65
ATOM     65  C   UNL A   1      44.836  33.064  27.894  1.00  0.00    -0.014 A 
ATOM     66  C   UNL A   1      46.040  33.316  27.210  1.00  0.00     0.009 A 
ATOM     67  C   UNL A   1      43.768  33.945  27.637  1.00  0.00     0.009 A 
ATOM     68  C   UNL A   1      46.173  34.379  26.311  1.00  0.00     0.001 A 
ATOM     69  C   UNL A   1      43.886  34.987  26.708  1.00  0.00     0.001 A 
ATOM     70  C   UNL A   1      45.088  35.201  26.042  1.00  0.00     0.000 A 
ENDBRANCH  51  65
BRANCH  52  71
ATOM     71  C   UNL A   1      36.687  32.197  29.747  1.00  0.00    -0.014 A 
ATOM     72  C   UNL A   1      36.398  32.553  28.417  1.00  0.00     0.009 A 
ATOM     73  C   UNL A   1      35.851  32.695  30.759  1.00  0.00     0.009 A 
ATOM     74  C   UNL A   1      35.344  33.419  28.115  1.00  0.00     0.001 A 
ATOM     75  C   UNL A   1      34.801  33.568  30.455  1.00  0.00     0.001 A 
ATOM     76  C   UNL A   1      34.559  33.944  29.136  1.00  0.00     0.000 A 
ENDBRANCH  52  71
BRANCH  64  77
ATOM     77  C   UNL A   1      41.577  30.833  33.518  1.00  0.00    -0.014 A 
ATOM     78  C   UNL A   1      41.533  31.315  34.837  1.00  0.00     0.009 A 
ATOM     79  C   UNL A   1      41.421  29.453  33.309  1.00  0.00     0.009 A 
ATOM     80  C   UNL A   1      41.346  30.446  35.913  1.00  0.00     0.001 A 
ATOM     81  C   UNL A   1      41.201  28.587  34.384  1.00  0.00     0.001 A 
ATOM     82  C   UNL A   1      41.173  29.083  35.686  1.00  0.00     0.000 A 
ENDBRANCH  64  77
ENDBRANCH  38  39
ENDBRANCH  30  33
ENDBRANCH  28  29
ENDBRANCH  27  28
ENDBRANCH  26  27
ENDBRANCH   1  26
TORSDOF 16
ENDMDL
MODEL 3
REMARK VINA RESULT:     -10.6      0.895      2.210
REMARK SMILES CC1(C)C(n2c(SCC(=O)NCCCCCCNC(=O)c3ccc(-c4c5nc(c(-c6ccccc6)c6ccc([nH]6)c(-c6ccccc6)c6nc(c(-c7ccccc7)c7ccc4[nH]7)C=C6)C=C5)cc3)nc3cnccc32)C1(C)C
REMARK SMILES IDX 14 1 13 2 12 3 11 4 9 5 10 6 8 8 7 9 6 10 5 11 75 12 69 13
REMARK SMILES IDX 70 14 74 15 71 16 73 17 72 18 4 19 1 20 2 21 3 22 76 23
REMARK SMILES IDX 77 24 78 25 15 26 16 27 17 28 18 29 19 30 20 32 21 33 22 34
REMARK SMILES IDX 68 35 23 36 67 37 24 38 25 39 26 40 61 41 27 42 66 43 60 44
REMARK SMILES IDX 62 45 28 46 65 47 59 48 58 49 29 51 51 52 36 53 50 54 37 55
REMARK SMILES IDX 40 56 49 57 63 58 38 59 39 60 48 62 64 63 41 64 30 65 31 66
REMARK SMILES IDX 35 67 32 68 34 69 33 70 52 71 53 72 57 73 54 74 56 75 55 76
REMARK SMILES IDX 42 77 43 78 47 79 44 80 46 81 45 82
REMARK H PARENT 11 7 18 31 62 50 40 61
REMARK Flexibility Score: inf
ROOT
ATOM      1  C   UNL A   1      40.945  21.665  27.554  1.00  0.00     0.002 C 
ENDROOT
BRANCH   1   2
ATOM      2  C   UNL A   1      40.277  22.376  26.366  1.00  0.00     0.021 C 
BRANCH   2   3
ATOM      3  C   UNL A   1      38.749  22.314  26.378  1.00  0.00     0.116 C 
BRANCH   3   4
ATOM      4  N   UNL A   1      38.263  22.306  25.021  1.00  0.00    -0.355 N 
ATOM      5  C   UNL A   1      37.061  22.756  24.578  1.00  0.00     0.230 C 
ATOM      6  O   UNL A   1      36.630  22.250  23.545  1.00  0.00    -0.274 OA
ATOM      7  H   UNL A   1      38.870  21.934  24.340  1.00  0.00     0.163 HD
BRANCH   5   8
ATOM      8  C   UNL A   1      36.390  23.912  25.282  1.00  0.00     0.178 C 
BRANCH   8   9
ATOM      9  S   UNL A   1      34.648  23.769  25.576  1.00  0.00    -0.078 SA
BRANCH   9  10
ATOM     10  C   UNL A   1      33.873  25.290  25.835  1.00  0.00     0.169 A 
ATOM     11  N   UNL A   1      32.555  25.653  26.060  1.00  0.00    -0.315 N 
ATOM     12  C   UNL A   1      32.562  27.015  26.350  1.00  0.00     0.072 A 
ATOM     13  N   UNL A   1      34.642  26.359  25.740  1.00  0.00    -0.221 NA
ATOM     14  C   UNL A   1      33.863  27.425  26.081  1.00  0.00     0.108 A 
ATOM     15  C   UNL A   1      31.610  27.922  26.825  1.00  0.00     0.049 A 
ATOM     16  C   UNL A   1      34.208  28.773  26.228  1.00  0.00     0.141 A 
ATOM     17  C   UNL A   1      32.044  29.236  26.948  1.00  0.00     0.113 A 
ATOM     18  N   UNL A   1      33.289  29.674  26.657  1.00  0.00    -0.262 NA
BRANCH  11  19
ATOM     19  C   UNL A   1      31.402  24.825  26.371  1.00  0.00     0.102 C 
ATOM     20  C   UNL A   1      28.855  25.082  26.726  1.00  0.00     0.014 C 
ATOM     21  C   UNL A   1      30.018  24.983  25.753  1.00  0.00    -0.007 C 
ATOM     22  C   UNL A   1      29.768  25.765  24.484  1.00  0.00     0.014 C 
ATOM     23  C   UNL A   1      30.789  23.648  25.614  1.00  0.00    -0.007 C 
ATOM     24  C   UNL A   1      30.233  22.461  26.389  1.00  0.00     0.014 C 
ATOM     25  C   UNL A   1      31.334  23.249  24.253  1.00  0.00     0.014 C 
ENDBRANCH  11  19
ENDBRANCH   9  10
ENDBRANCH   8   9
ENDBRANCH   5   8
ENDBRANCH   3   4
ENDBRANCH   2   3
ENDBRANCH   1   2
BRANCH   1  26
ATOM     26  C   UNL A   1      41.061  20.147  27.417  1.00  0.00     0.002 C 
BRANCH  26  27
ATOM     27  C   UNL A   1      42.433  19.651  26.955  1.00  0.00     0.021 C 
BRANCH  27  28
ATOM     28  C   UNL A   1      42.524  19.385  25.452  1.00  0.00     0.116 C 
BRANCH  28  29
ATOM     29  N   UNL A   1      43.831  19.668  24.905  1.00  0.00    -0.352 N 
ATOM     30  C   UNL A   1      44.677  20.738  24.971  1.00  0.00     0.251 C 
ATOM     31  H   UNL A   1      44.190  18.925  24.366  1.00  0.00     0.163 HD
ATOM     32  O   UNL A   1      45.763  20.612  24.402  1.00  0.00    -0.269 OA
BRANCH  30  33
ATOM     33  C   UNL A   1      44.364  22.035  25.638  1.00  0.00     0.039 A 
ATOM     34  C   UNL A   1      44.768  22.413  26.918  1.00  0.00     0.014 A 
ATOM     35  C   UNL A   1      43.581  22.939  24.897  1.00  0.00     0.014 A 
ATOM     36  C   UNL A   1      44.346  23.617  27.470  1.00  0.00     0.010 A 
ATOM     37  C   UNL A   1      43.185  24.166  25.428  1.00  0.00     0.010 A 
ATOM     38  C   UNL A   1      43.549  24.494  26.729  1.00  0.00    -0.014 A 
BRANCH  38  39
ATOM     39  C   UNL A   1      43.260  25.791  27.335  1.00  0.00     0.031 A 
ATOM     40  C   UNL A   1      44.237  26.867  27.017  1.00  0.00     0.074 A 
ATOM     41  C   UNL A   1      42.164  26.090  28.058  1.00  0.00     0.049 A 
ATOM     42  N   UNL A   1      44.998  27.516  27.837  1.00  0.00    -0.248 NA
ATOM     43  C   UNL A   1      44.447  27.205  25.600  1.00  0.00     0.031 C 
ATOM     44  C   UNL A   1      40.955  25.283  28.223  1.00  0.00     0.029 A 
ATOM     45  N   UNL A   1      41.869  27.248  28.724  1.00  0.00    -0.354 N 
ATOM     46  C   UNL A   1      45.673  28.459  27.066  1.00  0.00     0.074 A 
ATOM     47  C   UNL A   1      45.383  28.151  25.689  1.00  0.00     0.031 C 
ATOM     48  C   UNL A   1      39.976  26.059  28.739  1.00  0.00     0.029 A 
ATOM     49  C   UNL A   1      40.537  27.355  29.087  1.00  0.00     0.049 A 
ATOM     50  H   UNL A   1      42.540  27.939  28.926  1.00  0.00     0.167 HD
ATOM     51  C   UNL A   1      46.255  29.555  27.625  1.00  0.00     0.031 A 
ATOM     52  C   UNL A   1      39.921  28.444  29.600  1.00  0.00     0.031 A 
ATOM     53  C   UNL A   1      46.397  29.429  29.048  1.00  0.00     0.049 A 
ATOM     54  C   UNL A   1      40.931  29.313  30.235  1.00  0.00     0.074 A 
ATOM     55  C   UNL A   1      47.202  28.721  29.912  1.00  0.00     0.029 A 
ATOM     56  N   UNL A   1      45.351  29.926  29.777  1.00  0.00    -0.354 N 
ATOM     57  N   UNL A   1      41.591  28.987  31.309  1.00  0.00    -0.248 NA
ATOM     58  C   UNL A   1      41.416  30.501  29.545  1.00  0.00     0.031 C 
ATOM     59  C   UNL A   1      46.459  28.595  31.121  1.00  0.00     0.029 A 
ATOM     60  C   UNL A   1      45.232  29.240  30.958  1.00  0.00     0.049 A 
ATOM     61  H   UNL A   1      44.769  30.668  29.495  1.00  0.00     0.167 HD
ATOM     62  C   UNL A   1      42.798  29.645  31.184  1.00  0.00     0.074 A 
ATOM     63  C   UNL A   1      42.557  30.699  30.211  1.00  0.00     0.031 C 
ATOM     64  C   UNL A   1      43.955  29.075  31.626  1.00  0.00     0.031 A 
BRANCH  51  65
ATOM     65  C   UNL A   1      46.309  30.911  26.960  1.00  0.00    -0.014 A 
ATOM     66  C   UNL A   1      45.158  31.636  26.595  1.00  0.00     0.009 A 
ATOM     67  C   UNL A   1      47.525  31.620  26.964  1.00  0.00     0.009 A 
ATOM     68  C   UNL A   1      45.212  32.992  26.264  1.00  0.00     0.001 A 
ATOM     69  C   UNL A   1      47.576  32.989  26.671  1.00  0.00     0.001 A 
ATOM     70  C   UNL A   1      46.418  33.676  26.324  1.00  0.00     0.000 A 
ENDBRANCH  51  65
BRANCH  52  71
ATOM     71  C   UNL A   1      38.528  28.891  29.405  1.00  0.00    -0.014 A 
ATOM     72  C   UNL A   1      38.123  29.410  28.163  1.00  0.00     0.009 A 
ATOM     73  C   UNL A   1      37.680  29.082  30.507  1.00  0.00     0.009 A 
ATOM     74  C   UNL A   1      36.938  30.141  28.037  1.00  0.00     0.001 A 
ATOM     75  C   UNL A   1      36.497  29.820  30.381  1.00  0.00     0.001 A 
ATOM     76  C   UNL A   1      36.137  30.364  29.151  1.00  0.00     0.000 A 
ENDBRANCH  52  71
BRANCH  64  77
ATOM     77  C   UNL A   1      43.860  28.014  32.691  1.00  0.00    -0.014 A 
ATOM     78  C   UNL A   1      43.995  26.672  32.300  1.00  0.00     0.009 A 
ATOM     79  C   UNL A   1      43.544  28.287  34.032  1.00  0.00     0.009 A 
ATOM     80  C   UNL A   1      43.815  25.635  33.216  1.00  0.00     0.001 A 
ATOM     81  C   UNL A   1      43.395  27.250  34.958  1.00  0.00     0.001 A 
ATOM     82  C   UNL A   1      43.522  25.924  34.546  1.00  0.00     0.000 A 
ENDBRANCH  64  77
ENDBRANCH  38  39
ENDBRANCH  30  33
ENDBRANCH  28  29
ENDBRANCH  27  28
ENDBRANCH  26  27
ENDBRANCH   1  26
TORSDOF 16
ENDMDL
