MODEL 1
REMARK VINA RESULT:     -13.0      0.000      0.000
REMARK SMILES Cc1nccn1C1(C(=O)NCCCCCCNC(=O)c2ccc(-c3c4nc(c(-c5ccccc5)c5ccc([nH]5)c(-c5ccccc5)c5nc(c(-c6ccccc6)c6ccc3[nH]6)C=C5)C=C4)cc2)CCN(C(=O)[C@@H]2C[C@H]2c2ccccc2)CC1
REMARK SMILES IDX 13 1 12 2 11 3 10 4 8 5 9 6 7 8 68 9 83 10 69 11 82 12 70 13
REMARK SMILES IDX 71 14 72 15 6 16 1 17 2 18 3 19 4 20 5 21 73 22 74 23 75 24
REMARK SMILES IDX 76 25 77 26 81 27 78 28 80 29 79 30 14 31 15 32 16 33 17 34
REMARK SMILES IDX 18 35 19 37 20 38 21 39 67 40 22 41 66 42 23 43 24 44 25 45
REMARK SMILES IDX 60 46 26 47 65 48 59 49 61 50 27 51 64 52 58 53 57 54 28 56
REMARK SMILES IDX 50 57 35 58 49 59 36 60 39 61 48 62 62 63 37 64 38 65 47 67
REMARK SMILES IDX 63 68 40 69 29 70 30 71 34 72 31 73 33 74 32 75 51 76 52 77
REMARK SMILES IDX 56 78 53 79 55 80 54 81 41 82 42 83 46 84 43 85 45 86 44 87
REMARK H PARENT 10 7 17 36 61 55 39 66
REMARK Flexibility Score: inf
ROOT
ATOM      1  C   UNL A   1      33.703  27.604  23.950  1.00  0.00     0.002 C 
ENDROOT
BRANCH   1   2
ATOM      2  C   UNL A   1      34.052  26.142  24.272  1.00  0.00     0.021 C 
BRANCH   2   3
ATOM      3  C   UNL A   1      34.087  25.183  23.075  1.00  0.00     0.116 C 
BRANCH   3   4
ATOM      4  N   UNL A   1      34.802  23.964  23.398  1.00  0.00    -0.354 N 
ATOM      5  C   UNL A   1      34.537  22.868  24.168  1.00  0.00     0.246 C 
ATOM      6  O   UNL A   1      35.558  22.198  24.346  1.00  0.00    -0.272 OA
ATOM      7  H   UNL A   1      35.682  23.915  22.960  1.00  0.00     0.163 HD
BRANCH   5   8
ATOM      8  C   UNL A   1      33.105  22.524  24.783  1.00  0.00     0.127 C 
ATOM      9  C   UNL A   1      33.114  23.163  26.210  1.00  0.00     0.061 C 
ATOM     10  C   UNL A   1      32.060  23.122  23.806  1.00  0.00     0.061 C 
ATOM     11  C   UNL A   1      31.966  24.111  26.603  1.00  0.00     0.122 C 
ATOM     12  C   UNL A   1      30.820  23.574  24.534  1.00  0.00     0.122 C 
ATOM     13  N   UNL A   1      31.143  24.592  25.499  1.00  0.00    -0.342 N 
ATOM     14  C   UNL A   1      30.470  25.807  25.667  1.00  0.00     0.226 C 
ATOM     15  O   UNL A   1      30.473  26.377  26.755  1.00  0.00    -0.275 OA
BRANCH   8  16
ATOM     16  N   UNL A   1      32.830  21.025  24.876  1.00  0.00    -0.320 N 
ATOM     17  C   UNL A   1      32.135  20.278  22.449  1.00  0.00     0.087 C 
ATOM     18  C   UNL A   1      32.436  20.098  23.890  1.00  0.00     0.106 A 
ATOM     19  N   UNL A   1      32.367  18.874  24.381  1.00  0.00    -0.242 NA
ATOM     20  C   UNL A   1      32.730  18.952  25.676  1.00  0.00     0.131 A 
ATOM     21  C   UNL A   1      33.053  20.240  25.993  1.00  0.00     0.108 A 
ENDBRANCH   8  16
BRANCH  14  22
ATOM     22  C   UNL A   1      29.827  26.551  24.536  1.00  0.00     0.087 C 
ATOM     23  C   UNL A   1      30.309  26.385  23.114  1.00  0.00     0.023 C 
ATOM     24  C   UNL A   1      30.341  27.737  23.767  1.00  0.00     0.032 C 
BRANCH  24  25
ATOM     25  C   UNL A   1      29.483  28.903  23.390  1.00  0.00    -0.044 A 
ATOM     26  C   UNL A   1      29.893  30.197  23.748  1.00  0.00     0.004 A 
ATOM     27  C   UNL A   1      28.152  28.716  22.989  1.00  0.00     0.004 A 
ATOM     28  C   UNL A   1      28.981  31.248  23.803  1.00  0.00     0.000 A 
ATOM     29  C   UNL A   1      27.238  29.768  23.036  1.00  0.00     0.000 A 
ATOM     30  C   UNL A   1      27.648  31.026  23.469  1.00  0.00     0.000 A 
ENDBRANCH  24  25
ENDBRANCH  14  22
ENDBRANCH   5   8
ENDBRANCH   3   4
ENDBRANCH   2   3
ENDBRANCH   1   2
BRANCH   1  31
ATOM     31  C   UNL A   1      33.847  28.629  25.088  1.00  0.00     0.002 C 
BRANCH  31  32
ATOM     32  C   UNL A   1      33.419  28.197  26.498  1.00  0.00     0.021 C 
BRANCH  32  33
ATOM     33  C   UNL A   1      33.915  29.093  27.620  1.00  0.00     0.116 C 
BRANCH  33  34
ATOM     34  N   UNL A   1      33.949  30.520  27.272  1.00  0.00    -0.352 N 
ATOM     35  C   UNL A   1      34.868  31.494  27.646  1.00  0.00     0.251 C 
ATOM     36  H   UNL A   1      33.218  30.830  26.690  1.00  0.00     0.163 HD
ATOM     37  O   UNL A   1      34.585  32.682  27.587  1.00  0.00    -0.269 OA
BRANCH  35  38
ATOM     38  C   UNL A   1      36.204  31.070  28.107  1.00  0.00     0.039 A 
ATOM     39  C   UNL A   1      37.037  31.849  28.916  1.00  0.00     0.014 A 
ATOM     40  C   UNL A   1      36.623  29.818  27.690  1.00  0.00     0.014 A 
ATOM     41  C   UNL A   1      38.272  31.321  29.298  1.00  0.00     0.010 A 
ATOM     42  C   UNL A   1      37.627  29.185  28.347  1.00  0.00     0.010 A 
ATOM     43  C   UNL A   1      38.552  29.983  28.987  1.00  0.00    -0.014 A 
BRANCH  43  44
ATOM     44  C   UNL A   1      39.829  29.342  29.220  1.00  0.00     0.031 A 
ATOM     45  C   UNL A   1      40.124  28.984  30.619  1.00  0.00     0.074 A 
ATOM     46  C   UNL A   1      40.555  28.826  28.203  1.00  0.00     0.049 A 
ATOM     47  N   UNL A   1      41.025  29.504  31.378  1.00  0.00    -0.248 NA
ATOM     48  C   UNL A   1      39.257  28.007  31.288  1.00  0.00     0.031 C 
ATOM     49  C   UNL A   1      40.222  28.734  26.772  1.00  0.00     0.029 A 
ATOM     50  N   UNL A   1      41.718  28.135  28.279  1.00  0.00    -0.354 N 
ATOM     51  C   UNL A   1      40.951  28.824  32.587  1.00  0.00     0.074 A 
ATOM     52  C   UNL A   1      39.744  28.035  32.530  1.00  0.00     0.031 C 
ATOM     53  C   UNL A   1      41.046  27.845  26.172  1.00  0.00     0.029 A 
ATOM     54  C   UNL A   1      42.059  27.440  27.130  1.00  0.00     0.049 A 
ATOM     55  H   UNL A   1      42.278  28.127  29.089  1.00  0.00     0.167 HD
ATOM     56  C   UNL A   1      41.995  28.815  33.460  1.00  0.00     0.031 A 
ATOM     57  C   UNL A   1      43.085  26.567  26.998  1.00  0.00     0.031 A 
ATOM     58  C   UNL A   1      43.026  29.742  33.059  1.00  0.00     0.049 A 
ATOM     59  C   UNL A   1      44.037  26.845  28.104  1.00  0.00     0.074 A 
ATOM     60  C   UNL A   1      43.085  31.111  32.890  1.00  0.00     0.029 A 
ATOM     61  N   UNL A   1      44.090  29.226  32.354  1.00  0.00    -0.354 N 
ATOM     62  N   UNL A   1      44.717  27.954  28.197  1.00  0.00    -0.248 NA
ATOM     63  C   UNL A   1      43.881  26.108  29.350  1.00  0.00     0.031 C 
ATOM     64  C   UNL A   1      43.866  31.297  31.710  1.00  0.00     0.029 A 
ATOM     65  C   UNL A   1      44.294  30.042  31.269  1.00  0.00     0.049 A 
ATOM     66  H   UNL A   1      44.609  28.422  32.585  1.00  0.00     0.167 HD
ATOM     67  C   UNL A   1      44.691  28.277  29.548  1.00  0.00     0.074 A 
ATOM     68  C   UNL A   1      44.262  27.050  30.220  1.00  0.00     0.031 C 
ATOM     69  C   UNL A   1      44.733  29.577  29.969  1.00  0.00     0.031 A 
BRANCH  56  70
ATOM     70  C   UNL A   1      42.256  27.743  34.481  1.00  0.00    -0.014 A 
ATOM     71  C   UNL A   1      42.908  26.568  34.067  1.00  0.00     0.009 A 
ATOM     72  C   UNL A   1      41.682  27.731  35.765  1.00  0.00     0.009 A 
ATOM     73  C   UNL A   1      42.925  25.421  34.869  1.00  0.00     0.001 A 
ATOM     74  C   UNL A   1      41.736  26.601  36.587  1.00  0.00     0.001 A 
ATOM     75  C   UNL A   1      42.333  25.437  36.127  1.00  0.00     0.000 A 
ENDBRANCH  56  70
BRANCH  57  76
ATOM     76  C   UNL A   1      43.167  25.366  26.142  1.00  0.00    -0.014 A 
ATOM     77  C   UNL A   1      44.244  25.172  25.265  1.00  0.00     0.009 A 
ATOM     78  C   UNL A   1      42.308  24.274  26.373  1.00  0.00     0.009 A 
ATOM     79  C   UNL A   1      44.474  23.921  24.673  1.00  0.00     0.001 A 
ATOM     80  C   UNL A   1      42.535  23.027  25.782  1.00  0.00     0.001 A 
ATOM     81  C   UNL A   1      43.629  22.847  24.943  1.00  0.00     0.000 A 
ENDBRANCH  57  76
BRANCH  69  82
ATOM     82  C   UNL A   1      44.986  30.648  28.928  1.00  0.00    -0.014 A 
ATOM     83  C   UNL A   1      43.959  31.200  28.140  1.00  0.00     0.009 A 
ATOM     84  C   UNL A   1      46.255  31.238  28.861  1.00  0.00     0.009 A 
ATOM     85  C   UNL A   1      44.201  32.287  27.293  1.00  0.00     0.001 A 
ATOM     86  C   UNL A   1      46.493  32.338  28.033  1.00  0.00     0.001 A 
ATOM     87  C   UNL A   1      45.468  32.860  27.245  1.00  0.00     0.000 A 
ENDBRANCH  69  82
ENDBRANCH  43  44
ENDBRANCH  35  38
ENDBRANCH  33  34
ENDBRANCH  32  33
ENDBRANCH  31  32
ENDBRANCH   1  31
TORSDOF 16
ENDMDL
MODEL 2
REMARK VINA RESULT:     -12.7      1.928      5.278
REMARK SMILES Cc1nccn1C1(C(=O)NCCCCCCNC(=O)c2ccc(-c3c4nc(c(-c5ccccc5)c5ccc([nH]5)c(-c5ccccc5)c5nc(c(-c6ccccc6)c6ccc3[nH]6)C=C5)C=C4)cc2)CCN(C(=O)[C@@H]2C[C@H]2c2ccccc2)CC1
REMARK SMILES IDX 13 1 12 2 11 3 10 4 8 5 9 6 7 8 68 9 83 10 69 11 82 12 70 13
REMARK SMILES IDX 71 14 72 15 6 16 1 17 2 18 3 19 4 20 5 21 73 22 74 23 75 24
REMARK SMILES IDX 76 25 77 26 81 27 78 28 80 29 79 30 14 31 15 32 16 33 17 34
REMARK SMILES IDX 18 35 19 37 20 38 21 39 67 40 22 41 66 42 23 43 24 44 25 45
REMARK SMILES IDX 60 46 26 47 65 48 59 49 61 50 27 51 64 52 58 53 57 54 28 56
REMARK SMILES IDX 50 57 35 58 49 59 36 60 39 61 48 62 62 63 37 64 38 65 47 67
REMARK SMILES IDX 63 68 40 69 29 70 30 71 34 72 31 73 33 74 32 75 51 76 52 77
REMARK SMILES IDX 56 78 53 79 55 80 54 81 41 82 42 83 46 84 43 85 45 86 44 87
REMARK H PARENT 10 7 17 36 61 55 39 66
REMARK Flexibility Score: inf
ROOT
ATOM      1  C   UNL A   1      34.196  30.681  27.718  1.00  0.00     0.002 C 
ENDROOT
BRANCH   1   2
ATOM      2  C   UNL A   1      34.001  29.701  26.551  1.00  0.00     0.021 C 
BRANCH   2   3
ATOM      3  C   UNL A   1      32.567  29.565  26.023  1.00  0.00     0.116 C 
BRANCH   3   4
ATOM      4  N   UNL A   1      31.925  28.374  26.545  1.00  0.00    -0.354 N 
ATOM      5  C   UNL A   1      31.365  27.260  25.988  1.00  0.00     0.246 C 
ATOM      6  O   UNL A   1      30.709  26.632  26.823  1.00  0.00    -0.272 OA
ATOM      7  H   UNL A   1      31.884  28.367  27.528  1.00  0.00     0.163 HD
BRANCH   5   8
ATOM      8  C   UNL A   1      31.512  26.850  24.453  1.00  0.00     0.127 C 
ATOM      9  C   UNL A   1      33.046  26.914  24.161  1.00  0.00     0.061 C 
ATOM     10  C   UNL A   1      30.880  25.440  24.318  1.00  0.00     0.061 C 
ATOM     11  C   UNL A   1      33.733  25.685  23.539  1.00  0.00     0.122 C 
ATOM     12  C   UNL A   1      31.571  24.625  23.255  1.00  0.00     0.122 C 
ATOM     13  N   UNL A   1      32.963  24.448  23.578  1.00  0.00    -0.342 N 
ATOM     14  C   UNL A   1      33.665  23.238  23.544  1.00  0.00     0.226 C 
ATOM     15  O   UNL A   1      34.878  23.227  23.358  1.00  0.00    -0.275 OA
BRANCH   8  16
ATOM     16  N   UNL A   1      30.753  27.776  23.504  1.00  0.00    -0.320 N 
ATOM     17  C   UNL A   1      28.205  27.200  23.834  1.00  0.00     0.087 C 
ATOM     18  C   UNL A   1      29.372  27.917  23.264  1.00  0.00     0.106 A 
ATOM     19  N   UNL A   1      29.130  28.887  22.401  1.00  0.00    -0.242 NA
ATOM     20  C   UNL A   1      30.322  29.419  22.069  1.00  0.00     0.131 A 
ATOM     21  C   UNL A   1      31.321  28.789  22.753  1.00  0.00     0.108 A 
ENDBRANCH   8  16
BRANCH  14  22
ATOM     22  C   UNL A   1      33.035  21.915  23.857  1.00  0.00     0.087 C 
ATOM     23  C   UNL A   1      32.403  21.647  25.202  1.00  0.00     0.023 C 
ATOM     24  C   UNL A   1      33.550  20.802  24.728  1.00  0.00     0.032 C 
BRANCH  24  25
ATOM     25  C   UNL A   1      33.463  19.358  24.346  1.00  0.00    -0.044 A 
ATOM     26  C   UNL A   1      34.530  18.503  24.664  1.00  0.00     0.004 A 
ATOM     27  C   UNL A   1      32.515  18.917  23.412  1.00  0.00     0.004 A 
ATOM     28  C   UNL A   1      34.701  17.292  23.996  1.00  0.00     0.000 A 
ATOM     29  C   UNL A   1      32.679  17.702  22.747  1.00  0.00     0.000 A 
ATOM     30  C   UNL A   1      33.787  16.904  23.021  1.00  0.00     0.000 A 
ENDBRANCH  24  25
ENDBRANCH  14  22
ENDBRANCH   5   8
ENDBRANCH   3   4
ENDBRANCH   2   3
ENDBRANCH   1   2
BRANCH   1  31
ATOM     31  C   UNL A   1      35.381  31.657  27.627  1.00  0.00     0.002 C 
BRANCH  31  32
ATOM     32  C   UNL A   1      35.152  33.105  28.084  1.00  0.00     0.021 C 
BRANCH  32  33
ATOM     33  C   UNL A   1      36.139  33.613  29.121  1.00  0.00     0.116 C 
BRANCH  33  34
ATOM     34  N   UNL A   1      35.657  33.509  30.504  1.00  0.00    -0.352 N 
ATOM     35  C   UNL A   1      35.742  32.438  31.387  1.00  0.00     0.251 C 
ATOM     36  H   UNL A   1      35.212  34.313  30.858  1.00  0.00     0.163 HD
ATOM     37  O   UNL A   1      34.999  32.360  32.355  1.00  0.00    -0.269 OA
BRANCH  35  38
ATOM     38  C   UNL A   1      36.757  31.395  31.142  1.00  0.00     0.039 A 
ATOM     39  C   UNL A   1      36.462  30.110  30.677  1.00  0.00     0.014 A 
ATOM     40  C   UNL A   1      38.069  31.750  31.403  1.00  0.00     0.014 A 
ATOM     41  C   UNL A   1      37.520  29.223  30.467  1.00  0.00     0.010 A 
ATOM     42  C   UNL A   1      39.086  31.032  30.863  1.00  0.00     0.010 A 
ATOM     43  C   UNL A   1      38.830  29.706  30.582  1.00  0.00    -0.014 A 
BRANCH  43  44
ATOM     44  C   UNL A   1      40.016  28.876  30.505  1.00  0.00     0.031 A 
ATOM     45  C   UNL A   1      40.682  28.587  31.788  1.00  0.00     0.074 A 
ATOM     46  C   UNL A   1      40.307  28.165  29.395  1.00  0.00     0.049 A 
ATOM     47  N   UNL A   1      41.838  29.005  32.171  1.00  0.00    -0.248 NA
ATOM     48  C   UNL A   1      39.943  27.829  32.804  1.00  0.00     0.031 C 
ATOM     49  C   UNL A   1      39.533  28.017  28.151  1.00  0.00     0.029 A 
ATOM     50  N   UNL A   1      41.329  27.294  29.210  1.00  0.00    -0.354 N 
ATOM     51  C   UNL A   1      42.054  28.447  33.425  1.00  0.00     0.074 A 
ATOM     52  C   UNL A   1      40.794  27.873  33.831  1.00  0.00     0.031 C 
ATOM     53  C   UNL A   1      39.997  26.955  27.454  1.00  0.00     0.029 A 
ATOM     54  C   UNL A   1      41.193  26.461  28.110  1.00  0.00     0.049 A 
ATOM     55  H   UNL A   1      42.108  27.256  29.810  1.00  0.00     0.167 HD
ATOM     56  C   UNL A   1      43.309  28.330  33.942  1.00  0.00     0.031 A 
ATOM     57  C   UNL A   1      41.996  25.418  27.793  1.00  0.00     0.031 A 
ATOM     58  C   UNL A   1      44.279  29.033  33.137  1.00  0.00     0.049 A 
ATOM     59  C   UNL A   1      43.275  25.618  28.521  1.00  0.00     0.074 A 
ATOM     60  C   UNL A   1      44.469  30.354  32.782  1.00  0.00     0.029 A 
ATOM     61  N   UNL A   1      44.986  28.288  32.220  1.00  0.00    -0.354 N 
ATOM     62  N   UNL A   1      44.095  26.598  28.264  1.00  0.00    -0.248 NA
ATOM     63  C   UNL A   1      43.419  25.021  29.841  1.00  0.00     0.031 C 
ATOM     64  C   UNL A   1      44.858  30.309  31.410  1.00  0.00     0.029 A 
ATOM     65  C   UNL A   1      44.949  28.967  31.027  1.00  0.00     0.049 A 
ATOM     66  H   UNL A   1      45.435  27.429  32.388  1.00  0.00     0.167 HD
ATOM     67  C   UNL A   1      44.540  27.028  29.509  1.00  0.00     0.074 A 
ATOM     68  C   UNL A   1      44.179  25.951  30.430  1.00  0.00     0.031 C 
ATOM     69  C   UNL A   1      44.890  28.332  29.727  1.00  0.00     0.031 A 
BRANCH  56  70
ATOM     70  C   UNL A   1      43.726  27.315  34.968  1.00  0.00    -0.014 A 
ATOM     71  C   UNL A   1      43.590  25.951  34.655  1.00  0.00     0.009 A 
ATOM     72  C   UNL A   1      44.020  27.632  36.307  1.00  0.00     0.009 A 
ATOM     73  C   UNL A   1      43.676  24.963  35.643  1.00  0.00     0.001 A 
ATOM     74  C   UNL A   1      44.149  26.645  37.288  1.00  0.00     0.001 A 
ATOM     75  C   UNL A   1      43.949  25.312  36.961  1.00  0.00     0.000 A 
ENDBRANCH  56  70
BRANCH  57  76
ATOM     76  C   UNL A   1      41.639  24.156  27.114  1.00  0.00    -0.014 A 
ATOM     77  C   UNL A   1      42.502  23.567  26.177  1.00  0.00     0.009 A 
ATOM     78  C   UNL A   1      40.555  23.386  27.578  1.00  0.00     0.009 A 
ATOM     79  C   UNL A   1      42.307  22.246  25.752  1.00  0.00     0.001 A 
ATOM     80  C   UNL A   1      40.359  22.069  27.152  1.00  0.00     0.001 A 
ATOM     81  C   UNL A   1      41.246  21.493  26.249  1.00  0.00     0.000 A 
ENDBRANCH  57  76
BRANCH  69  82
ATOM     82  C   UNL A   1      44.948  29.257  28.529  1.00  0.00    -0.014 A 
ATOM     83  C   UNL A   1      43.815  29.925  28.029  1.00  0.00     0.009 A 
ATOM     84  C   UNL A   1      46.200  29.600  28.001  1.00  0.00     0.009 A 
ATOM     85  C   UNL A   1      43.928  30.883  27.015  1.00  0.00     0.001 A 
ATOM     86  C   UNL A   1      46.317  30.572  27.004  1.00  0.00     0.001 A 
ATOM     87  C   UNL A   1      45.182  31.210  26.508  1.00  0.00     0.000 A 
ENDBRANCH  69  82
ENDBRANCH  43  44
ENDBRANCH  35  38
ENDBRANCH  33  34
ENDBRANCH  32  33
ENDBRANCH  31  32
ENDBRANCH   1  31
TORSDOF 16
ENDMDL
MODEL 3
REMARK VINA RESULT:     -12.7      2.631      7.427
REMARK SMILES Cc1nccn1C1(C(=O)NCCCCCCNC(=O)c2ccc(-c3c4nc(c(-c5ccccc5)c5ccc([nH]5)c(-c5ccccc5)c5nc(c(-c6ccccc6)c6ccc3[nH]6)C=C5)C=C4)cc2)CCN(C(=O)[C@@H]2C[C@H]2c2ccccc2)CC1
REMARK SMILES IDX 13 1 12 2 11 3 10 4 8 5 9 6 7 8 68 9 83 10 69 11 82 12 70 13
REMARK SMILES IDX 71 14 72 15 6 16 1 17 2 18 3 19 4 20 5 21 73 22 74 23 75 24
REMARK SMILES IDX 76 25 77 26 81 27 78 28 80 29 79 30 14 31 15 32 16 33 17 34
REMARK SMILES IDX 18 35 19 37 20 38 21 39 67 40 22 41 66 42 23 43 24 44 25 45
REMARK SMILES IDX 60 46 26 47 65 48 59 49 61 50 27 51 64 52 58 53 57 54 28 56
REMARK SMILES IDX 50 57 35 58 49 59 36 60 39 61 48 62 62 63 37 64 38 65 47 67
REMARK SMILES IDX 63 68 40 69 29 70 30 71 34 72 31 73 33 74 32 75 51 76 52 77
REMARK SMILES IDX 56 78 53 79 55 80 54 81 41 82 42 83 46 84 43 85 45 86 44 87
REMARK H PARENT 10 7 17 36 61 55 39 66
REMARK Flexibility Score: inf
ROOT
ATOM      1  C   UNL A   1      34.350  23.278  26.317  1.00  0.00     0.002 C 
ENDROOT
BRANCH   1   2
ATOM      2  C   UNL A   1      33.308  24.389  26.521  1.00  0.00     0.021 C 
BRANCH   2   3
ATOM      3  C   UNL A   1      33.571  25.699  25.769  1.00  0.00     0.116 C 
BRANCH   3   4
ATOM      4  N   UNL A   1      32.587  26.708  26.110  1.00  0.00    -0.354 N 
ATOM      5  C   UNL A   1      31.529  27.279  25.461  1.00  0.00     0.246 C 
ATOM      6  O   UNL A   1      31.137  28.285  26.059  1.00  0.00    -0.272 OA
ATOM      7  H   UNL A   1      32.709  27.063  27.020  1.00  0.00     0.163 HD
BRANCH   5   8
ATOM      8  C   UNL A   1      30.913  26.737  24.092  1.00  0.00     0.127 C 
ATOM      9  C   UNL A   1      32.088  26.808  23.063  1.00  0.00     0.061 C 
ATOM     10  C   UNL A   1      30.390  25.307  24.390  1.00  0.00     0.061 C 
ATOM     11  C   UNL A   1      32.446  25.542  22.263  1.00  0.00     0.122 C 
ATOM     12  C   UNL A   1      30.505  24.416  23.180  1.00  0.00     0.122 C 
ATOM     13  N   UNL A   1      31.879  24.297  22.767  1.00  0.00    -0.342 N 
ATOM     14  C   UNL A   1      32.546  23.105  22.465  1.00  0.00     0.226 C 
ATOM     15  O   UNL A   1      33.500  23.102  21.693  1.00  0.00    -0.275 OA
BRANCH   8  16
ATOM     16  N   UNL A   1      29.724  27.558  23.597  1.00  0.00    -0.320 N 
ATOM     17  C   UNL A   1      30.762  29.588  22.280  1.00  0.00     0.087 C 
ATOM     18  C   UNL A   1      29.677  28.741  22.833  1.00  0.00     0.106 A 
ATOM     19  N   UNL A   1      28.432  29.092  22.566  1.00  0.00    -0.242 NA
ATOM     20  C   UNL A   1      27.636  28.155  23.118  1.00  0.00     0.131 A 
ATOM     21  C   UNL A   1      28.396  27.192  23.717  1.00  0.00     0.108 A 
ENDBRANCH   8  16
BRANCH  14  22
ATOM     22  C   UNL A   1      32.242  21.802  23.140  1.00  0.00     0.087 C 
ATOM     23  C   UNL A   1      31.837  21.749  24.595  1.00  0.00     0.023 C 
ATOM     24  C   UNL A   1      33.072  21.031  24.131  1.00  0.00     0.032 C 
BRANCH  24  25
ATOM     25  C   UNL A   1      33.243  19.546  24.075  1.00  0.00    -0.044 A 
ATOM     26  C   UNL A   1      34.388  18.969  24.645  1.00  0.00     0.004 A 
ATOM     27  C   UNL A   1      32.471  18.766  23.202  1.00  0.00     0.004 A 
ATOM     28  C   UNL A   1      34.806  17.692  24.277  1.00  0.00     0.000 A 
ATOM     29  C   UNL A   1      32.882  17.485  22.836  1.00  0.00     0.000 A 
ATOM     30  C   UNL A   1      34.064  16.961  23.354  1.00  0.00     0.000 A 
ENDBRANCH  24  25
ENDBRANCH  14  22
ENDBRANCH   5   8
ENDBRANCH   3   4
ENDBRANCH   2   3
ENDBRANCH   1   2
BRANCH   1  31
ATOM     31  C   UNL A   1      35.699  23.682  25.700  1.00  0.00     0.002 C 
BRANCH  31  32
ATOM     32  C   UNL A   1      35.890  23.462  24.192  1.00  0.00     0.021 C 
BRANCH  32  33
ATOM     33  C   UNL A   1      37.129  22.669  23.812  1.00  0.00     0.116 C 
BRANCH  33  34
ATOM     34  N   UNL A   1      37.165  21.313  24.376  1.00  0.00    -0.352 N 
ATOM     35  C   UNL A   1      38.153  20.706  25.145  1.00  0.00     0.251 C 
ATOM     36  H   UNL A   1      36.378  20.755  24.184  1.00  0.00     0.163 HD
ATOM     37  O   UNL A   1      38.219  19.489  25.238  1.00  0.00    -0.269 OA
BRANCH  35  38
ATOM     38  C   UNL A   1      39.121  21.561  25.860  1.00  0.00     0.039 A 
ATOM     39  C   UNL A   1      40.488  21.282  25.959  1.00  0.00     0.014 A 
ATOM     40  C   UNL A   1      38.604  22.697  26.458  1.00  0.00     0.014 A 
ATOM     41  C   UNL A   1      41.299  22.184  26.649  1.00  0.00     0.010 A 
ATOM     42  C   UNL A   1      39.428  23.721  26.795  1.00  0.00     0.010 A 
ATOM     43  C   UNL A   1      40.740  23.397  27.073  1.00  0.00    -0.014 A 
BRANCH  43  44
ATOM     44  C   UNL A   1      41.430  24.371  27.895  1.00  0.00     0.031 A 
ATOM     45  C   UNL A   1      40.741  25.661  28.077  1.00  0.00     0.074 A 
ATOM     46  C   UNL A   1      42.465  24.018  28.687  1.00  0.00     0.049 A 
ATOM     47  N   UNL A   1      41.109  26.807  27.620  1.00  0.00    -0.248 NA
ATOM     48  C   UNL A   1      39.442  25.670  28.762  1.00  0.00     0.031 C 
ATOM     49  C   UNL A   1      43.036  22.683  28.939  1.00  0.00     0.029 A 
ATOM     50  N   UNL A   1      43.148  24.798  29.560  1.00  0.00    -0.354 N 
ATOM     51  C   UNL A   1      40.172  27.725  28.077  1.00  0.00     0.074 A 
ATOM     52  C   UNL A   1      39.088  26.949  28.630  1.00  0.00     0.031 C 
ATOM     53  C   UNL A   1      43.809  22.724  30.047  1.00  0.00     0.029 A 
ATOM     54  C   UNL A   1      43.924  24.106  30.477  1.00  0.00     0.049 A 
ATOM     55  H   UNL A   1      43.097  25.781  29.544  1.00  0.00     0.167 HD
ATOM     56  C   UNL A   1      40.456  29.055  28.141  1.00  0.00     0.031 A 
ATOM     57  C   UNL A   1      44.580  24.640  31.534  1.00  0.00     0.031 A 
ATOM     58  C   UNL A   1      41.710  29.359  27.494  1.00  0.00     0.049 A 
ATOM     59  C   UNL A   1      44.724  26.094  31.266  1.00  0.00     0.074 A 
ATOM     60  C   UNL A   1      42.186  29.246  26.203  1.00  0.00     0.029 A 
ATOM     61  N   UNL A   1      42.821  29.459  28.301  1.00  0.00    -0.354 N 
ATOM     62  N   UNL A   1      45.458  26.571  30.300  1.00  0.00    -0.248 NA
ATOM     63  C   UNL A   1      43.688  26.991  31.757  1.00  0.00     0.031 C 
ATOM     64  C   UNL A   1      43.530  28.789  26.350  1.00  0.00     0.029 A 
ATOM     65  C   UNL A   1      43.817  28.717  27.716  1.00  0.00     0.049 A 
ATOM     66  H   UNL A   1      42.889  29.968  29.140  1.00  0.00     0.167 HD
ATOM     67  C   UNL A   1      44.716  27.620  29.771  1.00  0.00     0.074 A 
ATOM     68  C   UNL A   1      43.693  27.901  30.777  1.00  0.00     0.031 C 
ATOM     69  C   UNL A   1      44.813  27.964  28.451  1.00  0.00     0.031 A 
BRANCH  56  70
ATOM     70  C   UNL A   1      39.793  30.033  29.070  1.00  0.00    -0.014 A 
ATOM     71  C   UNL A   1      40.353  30.232  30.345  1.00  0.00     0.009 A 
ATOM     72  C   UNL A   1      38.519  30.585  28.844  1.00  0.00     0.009 A 
ATOM     73  C   UNL A   1      39.647  30.889  31.359  1.00  0.00     0.001 A 
ATOM     74  C   UNL A   1      37.828  31.279  29.842  1.00  0.00     0.001 A 
ATOM     75  C   UNL A   1      38.381  31.407  31.108  1.00  0.00     0.000 A 
ENDBRANCH  56  70
BRANCH  57  76
ATOM     76  C   UNL A   1      44.860  24.027  32.848  1.00  0.00    -0.014 A 
ATOM     77  C   UNL A   1      46.082  24.241  33.502  1.00  0.00     0.009 A 
ATOM     78  C   UNL A   1      43.819  23.432  33.586  1.00  0.00     0.009 A 
ATOM     79  C   UNL A   1      46.242  23.907  34.855  1.00  0.00     0.001 A 
ATOM     80  C   UNL A   1      43.978  23.097  34.934  1.00  0.00     0.001 A 
ATOM     81  C   UNL A   1      45.186  23.350  35.574  1.00  0.00     0.000 A 
ENDBRANCH  57  76
BRANCH  69  82
ATOM     82  C   UNL A   1      45.882  27.284  27.621  1.00  0.00    -0.014 A 
ATOM     83  C   UNL A   1      47.166  27.831  27.439  1.00  0.00     0.009 A 
ATOM     84  C   UNL A   1      45.650  25.982  27.158  1.00  0.00     0.009 A 
ATOM     85  C   UNL A   1      48.174  27.110  26.790  1.00  0.00     0.001 A 
ATOM     86  C   UNL A   1      46.662  25.252  26.529  1.00  0.00     0.001 A 
ATOM     87  C   UNL A   1      47.923  25.817  26.340  1.00  0.00     0.000 A 
ENDBRANCH  69  82
ENDBRANCH  43  44
ENDBRANCH  35  38
ENDBRANCH  33  34
ENDBRANCH  32  33
ENDBRANCH  31  32
ENDBRANCH   1  31
TORSDOF 16
ENDMDL
