MODEL 1
REMARK VINA RESULT:     -11.2      0.000      0.000
REMARK SMILES C[NH+]1CCN(C(=O)c2ccc3c(c2)N(CC(=O)NCCCCCCNC(=O)c2ccc(-c4c5nc(c(-c6ccccc6)c6ccc([nH]6)c(-c6ccccc6)c6nc(c(-c7ccccc7)c7ccc4[nH]7)C=C6)C=C5)cc2)C(=O)CO3)CC1
REMARK SMILES IDX 21 1 20 2 19 3 18 4 16 5 17 6 15 8 14 9 8 10 9 11 13 12
REMARK SMILES IDX 10 13 12 14 11 15 79 16 76 17 78 18 77 19 6 20 1 21 2 22
REMARK SMILES IDX 3 23 81 24 4 26 80 27 5 28 7 29 22 30 23 31 24 32 25 33
REMARK SMILES IDX 26 34 27 36 28 37 29 38 75 39 30 40 74 41 31 42 32 43 33 44
REMARK SMILES IDX 68 45 34 46 73 47 67 48 69 49 35 50 72 51 66 52 65 53 36 55
REMARK SMILES IDX 58 56 43 57 57 58 44 59 47 60 56 61 70 62 45 63 46 64 55 66
REMARK SMILES IDX 71 67 48 68 37 69 38 70 42 71 39 72 41 73 40 74 59 75 60 76
REMARK SMILES IDX 64 77 61 78 63 79 62 80 49 81 50 82 54 83 51 84 53 85 52 86
REMARK H PARENT 18 7 2 25 25 35 69 54 47 65
REMARK Flexibility Score: inf
ROOT
ATOM      1  C   UNL A   1      40.889  22.089  26.125  1.00  0.00     0.002 C 
ENDROOT
BRANCH   1   2
ATOM      2  C   UNL A   1      39.610  22.859  26.479  1.00  0.00     0.021 C 
BRANCH   2   3
ATOM      3  C   UNL A   1      38.317  22.124  26.126  1.00  0.00     0.116 C 
BRANCH   3   4
ATOM      4  N   UNL A   1      37.974  22.288  24.730  1.00  0.00    -0.355 N 
ATOM      5  C   UNL A   1      36.897  22.905  24.169  1.00  0.00     0.240 C 
ATOM      6  O   UNL A   1      36.872  22.994  22.938  1.00  0.00    -0.273 OA
ATOM      7  H   UNL A   1      38.613  21.896  24.092  1.00  0.00     0.163 HD
BRANCH   5   8
ATOM      8  C   UNL A   1      35.800  23.554  25.023  1.00  0.00     0.225 C 
BRANCH   8   9
ATOM      9  N   UNL A   1      34.476  22.937  24.926  1.00  0.00    -0.296 N 
ATOM     10  C   UNL A   1      32.440  25.473  23.059  1.00  0.00     0.042 A 
ATOM     11  C   UNL A   1      31.285  24.738  22.787  1.00  0.00     0.018 A 
ATOM     12  C   UNL A   1      33.484  24.913  23.808  1.00  0.00     0.044 A 
ATOM     13  C   UNL A   1      31.191  23.422  23.229  1.00  0.00     0.049 A 
ATOM     14  C   UNL A   1      33.406  23.583  24.243  1.00  0.00     0.087 A 
ATOM     15  C   UNL A   1      32.240  22.854  23.957  1.00  0.00     0.143 A 
ATOM     16  O   UNL A   1      32.071  21.539  24.295  1.00  0.00    -0.482 OA
ATOM     17  C   UNL A   1      34.267  21.698  25.517  1.00  0.00     0.265 C 
ATOM     18  C   UNL A   1      32.848  21.159  25.414  1.00  0.00     0.330 C 
ATOM     19  O   UNL A   1      35.135  21.081  26.137  1.00  0.00    -0.270 OA
BRANCH  10  20
ATOM     20  C   UNL A   1      32.506  26.873  22.592  1.00  0.00     0.254 C 
ATOM     21  C   UNL A   1      27.864  29.999  22.493  1.00  0.00     0.332 C 
ATOM     22  N   UNL A   1      29.142  29.499  22.999  1.00  0.00    -0.334 N 
ATOM     23  C   UNL A   1      30.211  29.703  21.996  1.00  0.00     0.283 C 
ATOM     24  C   UNL A   1      29.039  28.058  23.313  1.00  0.00     0.283 C 
ATOM     25  H   UNL A   1      29.373  30.017  23.847  1.00  0.00     0.347 HD
ATOM     26  C   UNL A   1      31.569  29.139  22.457  1.00  0.00     0.181 C 
ATOM     27  C   UNL A   1      30.372  27.495  23.840  1.00  0.00     0.181 C 
ATOM     28  N   UNL A   1      31.470  27.745  22.899  1.00  0.00    -0.327 N 
ATOM     29  O   UNL A   1      33.508  27.198  21.957  1.00  0.00    -0.269 OA
ENDBRANCH  10  20
ENDBRANCH   8   9
ENDBRANCH   5   8
ENDBRANCH   3   4
ENDBRANCH   2   3
ENDBRANCH   1   2
BRANCH   1  30
ATOM     30  C   UNL A   1      41.141  20.817  26.944  1.00  0.00     0.002 C 
BRANCH  30  31
ATOM     31  C   UNL A   1      41.498  19.572  26.127  1.00  0.00     0.021 C 
BRANCH  31  32
ATOM     32  C   UNL A   1      42.836  18.935  26.485  1.00  0.00     0.116 C 
BRANCH  32  33
ATOM     33  N   UNL A   1      43.631  18.628  25.306  1.00  0.00    -0.352 N 
ATOM     34  C   UNL A   1      44.361  19.470  24.506  1.00  0.00     0.251 C 
ATOM     35  H   UNL A   1      43.649  17.679  25.045  1.00  0.00     0.163 HD
ATOM     36  O   UNL A   1      44.826  19.060  23.443  1.00  0.00    -0.269 OA
BRANCH  34  37
ATOM     37  C   UNL A   1      44.575  20.877  24.906  1.00  0.00     0.039 A 
ATOM     38  C   UNL A   1      44.167  21.895  24.040  1.00  0.00     0.014 A 
ATOM     39  C   UNL A   1      45.199  21.195  26.115  1.00  0.00     0.014 A 
ATOM     40  C   UNL A   1      44.338  23.231  24.409  1.00  0.00     0.010 A 
ATOM     41  C   UNL A   1      45.309  22.525  26.511  1.00  0.00     0.010 A 
ATOM     42  C   UNL A   1      44.889  23.557  25.659  1.00  0.00    -0.014 A 
BRANCH  42  43
ATOM     43  C   UNL A   1      45.057  24.970  26.083  1.00  0.00     0.031 A 
ATOM     44  C   UNL A   1      46.406  25.629  25.989  1.00  0.00     0.074 A 
ATOM     45  C   UNL A   1      44.012  25.644  26.604  1.00  0.00     0.049 A 
ATOM     46  N   UNL A   1      46.769  26.826  26.375  1.00  0.00    -0.248 NA
ATOM     47  C   UNL A   1      47.496  24.829  25.408  1.00  0.00     0.031 C 
ATOM     48  C   UNL A   1      42.658  25.112  26.776  1.00  0.00     0.029 A 
ATOM     49  N   UNL A   1      43.930  26.924  27.090  1.00  0.00    -0.354 N 
ATOM     50  C   UNL A   1      48.127  26.915  26.099  1.00  0.00     0.074 A 
ATOM     51  C   UNL A   1      48.535  25.637  25.559  1.00  0.00     0.031 C 
ATOM     52  C   UNL A   1      41.876  26.066  27.307  1.00  0.00     0.029 A 
ATOM     53  C   UNL A   1      42.679  27.261  27.548  1.00  0.00     0.049 A 
ATOM     54  H   UNL A   1      44.695  27.543  27.111  1.00  0.00     0.167 HD
ATOM     55  C   UNL A   1      48.960  27.971  26.261  1.00  0.00     0.031 A 
ATOM     56  C   UNL A   1      42.231  28.402  28.105  1.00  0.00     0.031 A 
ATOM     57  C   UNL A   1      48.555  29.249  26.783  1.00  0.00     0.049 A 
ATOM     58  C   UNL A   1      43.179  29.555  28.286  1.00  0.00     0.074 A 
ATOM     59  C   UNL A   1      49.316  30.394  26.945  1.00  0.00     0.029 A 
ATOM     60  N   UNL A   1      47.277  29.551  27.223  1.00  0.00    -0.354 N 
ATOM     61  N   UNL A   1      44.449  29.639  27.972  1.00  0.00    -0.248 NA
ATOM     62  C   UNL A   1      42.625  30.776  28.891  1.00  0.00     0.031 C 
ATOM     63  C   UNL A   1      48.507  31.378  27.522  1.00  0.00     0.029 A 
ATOM     64  C   UNL A   1      47.230  30.860  27.671  1.00  0.00     0.049 A 
ATOM     65  H   UNL A   1      46.515  28.928  27.220  1.00  0.00     0.167 HD
ATOM     66  C   UNL A   1      44.837  30.929  28.309  1.00  0.00     0.074 A 
ATOM     67  C   UNL A   1      43.666  31.596  28.838  1.00  0.00     0.031 C 
ATOM     68  C   UNL A   1      46.054  31.511  28.186  1.00  0.00     0.031 A 
BRANCH  55  69
ATOM     69  C   UNL A   1      50.398  27.786  25.867  1.00  0.00    -0.014 A 
ATOM     70  C   UNL A   1      50.843  28.105  24.574  1.00  0.00     0.009 A 
ATOM     71  C   UNL A   1      51.329  27.322  26.810  1.00  0.00     0.009 A 
ATOM     72  C   UNL A   1      52.183  27.930  24.224  1.00  0.00     0.001 A 
ATOM     73  C   UNL A   1      52.674  27.176  26.466  1.00  0.00     0.001 A 
ATOM     74  C   UNL A   1      53.098  27.470  25.171  1.00  0.00     0.000 A 
ENDBRANCH  55  69
BRANCH  56  75
ATOM     75  C   UNL A   1      40.809  28.525  28.518  1.00  0.00    -0.014 A 
ATOM     76  C   UNL A   1      40.406  28.125  29.803  1.00  0.00     0.009 A 
ATOM     77  C   UNL A   1      39.844  29.020  27.627  1.00  0.00     0.009 A 
ATOM     78  C   UNL A   1      39.062  28.187  30.174  1.00  0.00     0.001 A 
ATOM     79  C   UNL A   1      38.505  29.108  28.012  1.00  0.00     0.001 A 
ATOM     80  C   UNL A   1      38.112  28.681  29.280  1.00  0.00     0.000 A 
ENDBRANCH  56  75
BRANCH  68  81
ATOM     81  C   UNL A   1      46.169  32.955  28.588  1.00  0.00    -0.014 A 
ATOM     82  C   UNL A   1      46.541  33.323  29.890  1.00  0.00     0.009 A 
ATOM     83  C   UNL A   1      45.941  33.958  27.633  1.00  0.00     0.009 A 
ATOM     84  C   UNL A   1      46.649  34.672  30.235  1.00  0.00     0.001 A 
ATOM     85  C   UNL A   1      46.077  35.304  27.975  1.00  0.00     0.001 A 
ATOM     86  C   UNL A   1      46.422  35.660  29.278  1.00  0.00     0.000 A 
ENDBRANCH  68  81
ENDBRANCH  42  43
ENDBRANCH  34  37
ENDBRANCH  32  33
ENDBRANCH  31  32
ENDBRANCH  30  31
ENDBRANCH   1  30
TORSDOF 15
ENDMDL
MODEL 2
REMARK VINA RESULT:     -11.1      5.549     10.669
REMARK SMILES C[NH+]1CCN(C(=O)c2ccc3c(c2)N(CC(=O)NCCCCCCNC(=O)c2ccc(-c4c5nc(c(-c6ccccc6)c6ccc([nH]6)c(-c6ccccc6)c6nc(c(-c7ccccc7)c7ccc4[nH]7)C=C6)C=C5)cc2)C(=O)CO3)CC1
REMARK SMILES IDX 21 1 20 2 19 3 18 4 16 5 17 6 15 8 14 9 8 10 9 11 13 12
REMARK SMILES IDX 10 13 12 14 11 15 79 16 76 17 78 18 77 19 6 20 1 21 2 22
REMARK SMILES IDX 3 23 81 24 4 26 80 27 5 28 7 29 22 30 23 31 24 32 25 33
REMARK SMILES IDX 26 34 27 36 28 37 29 38 75 39 30 40 74 41 31 42 32 43 33 44
REMARK SMILES IDX 68 45 34 46 73 47 67 48 69 49 35 50 72 51 66 52 65 53 36 55
REMARK SMILES IDX 58 56 43 57 57 58 44 59 47 60 56 61 70 62 45 63 46 64 55 66
REMARK SMILES IDX 71 67 48 68 37 69 38 70 42 71 39 72 41 73 40 74 59 75 60 76
REMARK SMILES IDX 64 77 61 78 63 79 62 80 49 81 50 82 54 83 51 84 53 85 52 86
REMARK H PARENT 18 7 2 25 25 35 69 54 47 65
REMARK Flexibility Score: inf
ROOT
ATOM      1  C   UNL A   1      32.696  29.894  26.740  1.00  0.00     0.002 C 
ENDROOT
BRANCH   1   2
ATOM      2  C   UNL A   1      32.629  28.363  26.650  1.00  0.00     0.021 C 
BRANCH   2   3
ATOM      3  C   UNL A   1      33.760  27.732  25.839  1.00  0.00     0.116 C 
BRANCH   3   4
ATOM      4  N   UNL A   1      34.046  28.489  24.641  1.00  0.00    -0.355 N 
ATOM      5  C   UNL A   1      33.834  28.160  23.337  1.00  0.00     0.240 C 
ATOM      6  O   UNL A   1      34.081  29.021  22.486  1.00  0.00    -0.273 OA
ATOM      7  H   UNL A   1      34.453  29.373  24.790  1.00  0.00     0.163 HD
BRANCH   5   8
ATOM      8  C   UNL A   1      33.221  26.813  22.931  1.00  0.00     0.225 C 
BRANCH   8   9
ATOM      9  N   UNL A   1      31.954  26.475  23.581  1.00  0.00    -0.296 N 
ATOM     10  C   UNL A   1      32.465  22.951  24.759  1.00  0.00     0.042 A 
ATOM     11  C   UNL A   1      31.341  22.776  25.569  1.00  0.00     0.018 A 
ATOM     12  C   UNL A   1      32.659  24.147  24.054  1.00  0.00     0.044 A 
ATOM     13  C   UNL A   1      30.429  23.818  25.709  1.00  0.00     0.049 A 
ATOM     14  C   UNL A   1      31.754  25.208  24.201  1.00  0.00     0.087 A 
ATOM     15  C   UNL A   1      30.632  25.018  25.024  1.00  0.00     0.143 A 
ATOM     16  O   UNL A   1      29.708  25.997  25.274  1.00  0.00    -0.482 OA
ATOM     17  C   UNL A   1      30.930  27.412  23.587  1.00  0.00     0.265 C 
ATOM     18  C   UNL A   1      29.631  26.954  24.237  1.00  0.00     0.330 C 
ATOM     19  O   UNL A   1      31.016  28.523  23.062  1.00  0.00    -0.270 OA
BRANCH  10  20
ATOM     20  C   UNL A   1      33.409  21.823  24.616  1.00  0.00     0.254 C 
ATOM     21  C   UNL A   1      38.798  22.512  25.961  1.00  0.00     0.332 C 
ATOM     22  N   UNL A   1      37.410  22.084  26.132  1.00  0.00    -0.334 N 
ATOM     23  C   UNL A   1      37.015  21.161  25.045  1.00  0.00     0.283 C 
ATOM     24  C   UNL A   1      36.508  23.257  26.125  1.00  0.00     0.283 C 
ATOM     25  H   UNL A   1      37.333  21.602  27.028  1.00  0.00     0.347 HD
ATOM     26  C   UNL A   1      35.540  20.725  25.146  1.00  0.00     0.181 C 
ATOM     27  C   UNL A   1      35.035  22.842  26.294  1.00  0.00     0.181 C 
ATOM     28  N   UNL A   1      34.631  21.868  25.272  1.00  0.00    -0.327 N 
ATOM     29  O   UNL A   1      33.040  20.878  23.921  1.00  0.00    -0.269 OA
ENDBRANCH  10  20
ENDBRANCH   8   9
ENDBRANCH   5   8
ENDBRANCH   3   4
ENDBRANCH   2   3
ENDBRANCH   1   2
BRANCH   1  30
ATOM     30  C   UNL A   1      31.515  30.643  26.110  1.00  0.00     0.002 C 
BRANCH  30  31
ATOM     31  C   UNL A   1      31.383  32.114  26.513  1.00  0.00     0.021 C 
BRANCH  31  32
ATOM     32  C   UNL A   1      32.586  32.684  27.256  1.00  0.00     0.116 C 
BRANCH  32  33
ATOM     33  N   UNL A   1      32.391  34.075  27.632  1.00  0.00    -0.352 N 
ATOM     34  C   UNL A   1      33.027  34.812  28.598  1.00  0.00     0.251 C 
ATOM     35  H   UNL A   1      31.703  34.558  27.120  1.00  0.00     0.163 HD
ATOM     36  O   UNL A   1      32.606  35.928  28.900  1.00  0.00    -0.269 OA
BRANCH  34  37
ATOM     37  C   UNL A   1      34.211  34.263  29.295  1.00  0.00     0.039 A 
ATOM     38  C   UNL A   1      34.025  33.556  30.486  1.00  0.00     0.014 A 
ATOM     39  C   UNL A   1      35.499  34.466  28.794  1.00  0.00     0.014 A 
ATOM     40  C   UNL A   1      35.127  33.009  31.147  1.00  0.00     0.010 A 
ATOM     41  C   UNL A   1      36.589  33.864  29.418  1.00  0.00     0.010 A 
ATOM     42  C   UNL A   1      36.416  33.138  30.605  1.00  0.00    -0.014 A 
BRANCH  42  43
ATOM     43  C   UNL A   1      37.598  32.542  31.277  1.00  0.00     0.031 A 
ATOM     44  C   UNL A   1      38.264  31.326  30.693  1.00  0.00     0.074 A 
ATOM     45  C   UNL A   1      38.041  33.059  32.441  1.00  0.00     0.049 A 
ATOM     46  N   UNL A   1      39.259  30.620  31.167  1.00  0.00    -0.248 NA
ATOM     47  C   UNL A   1      37.724  30.823  29.419  1.00  0.00     0.031 C 
ATOM     48  C   UNL A   1      37.468  34.218  33.128  1.00  0.00     0.029 A 
ATOM     49  N   UNL A   1      39.074  32.668  33.253  1.00  0.00    -0.354 N 
ATOM     50  C   UNL A   1      39.451  29.584  30.262  1.00  0.00     0.074 A 
ATOM     51  C   UNL A   1      38.441  29.724  29.236  1.00  0.00     0.031 C 
ATOM     52  C   UNL A   1      38.173  34.458  34.246  1.00  0.00     0.029 A 
ATOM     53  C   UNL A   1      39.221  33.449  34.374  1.00  0.00     0.049 A 
ATOM     54  H   UNL A   1      39.657  31.900  33.054  1.00  0.00     0.167 HD
ATOM     55  C   UNL A   1      40.396  28.614  30.271  1.00  0.00     0.031 A 
ATOM     56  C   UNL A   1      40.096  33.360  35.394  1.00  0.00     0.031 A 
ATOM     57  C   UNL A   1      41.412  28.480  31.280  1.00  0.00     0.049 A 
ATOM     58  C   UNL A   1      41.126  32.264  35.386  1.00  0.00     0.074 A 
ATOM     59  C   UNL A   1      42.439  27.556  31.353  1.00  0.00     0.029 A 
ATOM     60  N   UNL A   1      41.530  29.300  32.391  1.00  0.00    -0.354 N 
ATOM     61  N   UNL A   1      41.326  31.323  34.495  1.00  0.00    -0.248 NA
ATOM     62  C   UNL A   1      42.058  32.227  36.522  1.00  0.00     0.031 C 
ATOM     63  C   UNL A   1      43.156  27.790  32.530  1.00  0.00     0.029 A 
ATOM     64  C   UNL A   1      42.605  28.893  33.163  1.00  0.00     0.049 A 
ATOM     65  H   UNL A   1      40.939  30.058  32.601  1.00  0.00     0.167 HD
ATOM     66  C   UNL A   1      42.425  30.604  34.946  1.00  0.00     0.074 A 
ATOM     67  C   UNL A   1      42.857  31.225  36.180  1.00  0.00     0.031 C 
ATOM     68  C   UNL A   1      43.027  29.528  34.384  1.00  0.00     0.031 A 
BRANCH  55  69
ATOM     69  C   UNL A   1      40.373  27.615  29.147  1.00  0.00    -0.014 A 
ATOM     70  C   UNL A   1      39.577  26.461  29.219  1.00  0.00     0.009 A 
ATOM     71  C   UNL A   1      41.126  27.850  27.986  1.00  0.00     0.009 A 
ATOM     72  C   UNL A   1      39.564  25.545  28.165  1.00  0.00     0.001 A 
ATOM     73  C   UNL A   1      41.089  26.947  26.923  1.00  0.00     0.001 A 
ATOM     74  C   UNL A   1      40.316  25.790  27.017  1.00  0.00     0.000 A 
ENDBRANCH  55  69
BRANCH  56  75
ATOM     75  C   UNL A   1      40.054  34.345  36.505  1.00  0.00    -0.014 A 
ATOM     76  C   UNL A   1      40.813  35.525  36.437  1.00  0.00     0.009 A 
ATOM     77  C   UNL A   1      39.275  34.104  37.648  1.00  0.00     0.009 A 
ATOM     78  C   UNL A   1      40.819  36.425  37.504  1.00  0.00     0.001 A 
ATOM     79  C   UNL A   1      39.260  35.020  38.700  1.00  0.00     0.001 A 
ATOM     80  C   UNL A   1      40.040  36.174  38.634  1.00  0.00     0.000 A 
ENDBRANCH  56  75
BRANCH  68  81
ATOM     81  C   UNL A   1      44.245  28.983  35.074  1.00  0.00    -0.014 A 
ATOM     82  C   UNL A   1      45.529  29.468  34.781  1.00  0.00     0.009 A 
ATOM     83  C   UNL A   1      44.097  27.997  36.062  1.00  0.00     0.009 A 
ATOM     84  C   UNL A   1      46.644  28.950  35.443  1.00  0.00     0.001 A 
ATOM     85  C   UNL A   1      45.211  27.502  36.741  1.00  0.00     0.001 A 
ATOM     86  C   UNL A   1      46.485  27.973  36.424  1.00  0.00     0.000 A 
ENDBRANCH  68  81
ENDBRANCH  42  43
ENDBRANCH  34  37
ENDBRANCH  32  33
ENDBRANCH  31  32
ENDBRANCH  30  31
ENDBRANCH   1  30
TORSDOF 15
ENDMDL
MODEL 3
REMARK VINA RESULT:     -11.0      5.284     10.842
REMARK SMILES C[NH+]1CCN(C(=O)c2ccc3c(c2)N(CC(=O)NCCCCCCNC(=O)c2ccc(-c4c5nc(c(-c6ccccc6)c6ccc([nH]6)c(-c6ccccc6)c6nc(c(-c7ccccc7)c7ccc4[nH]7)C=C6)C=C5)cc2)C(=O)CO3)CC1
REMARK SMILES IDX 21 1 20 2 19 3 18 4 16 5 17 6 15 8 14 9 8 10 9 11 13 12
REMARK SMILES IDX 10 13 12 14 11 15 79 16 76 17 78 18 77 19 6 20 1 21 2 22
REMARK SMILES IDX 3 23 81 24 4 26 80 27 5 28 7 29 22 30 23 31 24 32 25 33
REMARK SMILES IDX 26 34 27 36 28 37 29 38 75 39 30 40 74 41 31 42 32 43 33 44
REMARK SMILES IDX 68 45 34 46 73 47 67 48 69 49 35 50 72 51 66 52 65 53 36 55
REMARK SMILES IDX 58 56 43 57 57 58 44 59 47 60 56 61 70 62 45 63 46 64 55 66
REMARK SMILES IDX 71 67 48 68 37 69 38 70 42 71 39 72 41 73 40 74 59 75 60 76
REMARK SMILES IDX 64 77 61 78 63 79 62 80 49 81 50 82 54 83 51 84 53 85 52 86
REMARK H PARENT 18 7 2 25 25 35 69 54 47 65
REMARK Flexibility Score: inf
ROOT
ATOM      1  C   UNL A   1      32.696  30.064  26.394  1.00  0.00     0.002 C 
ENDROOT
BRANCH   1   2
ATOM      2  C   UNL A   1      32.595  28.539  26.525  1.00  0.00     0.021 C 
BRANCH   2   3
ATOM      3  C   UNL A   1      33.654  27.769  25.736  1.00  0.00     0.116 C 
BRANCH   3   4
ATOM      4  N   UNL A   1      34.037  28.472  24.531  1.00  0.00    -0.355 N 
ATOM      5  C   UNL A   1      33.871  28.111  23.228  1.00  0.00     0.240 C 
ATOM      6  O   UNL A   1      34.205  28.930  22.366  1.00  0.00    -0.273 OA
ATOM      7  H   UNL A   1      34.483  29.338  24.673  1.00  0.00     0.163 HD
BRANCH   5   8
ATOM      8  C   UNL A   1      33.208  26.785  22.833  1.00  0.00     0.225 C 
BRANCH   8   9
ATOM      9  N   UNL A   1      31.954  26.477  23.523  1.00  0.00    -0.296 N 
ATOM     10  C   UNL A   1      32.435  22.956  24.723  1.00  0.00     0.042 A 
ATOM     11  C   UNL A   1      31.332  22.810  25.566  1.00  0.00     0.018 A 
ATOM     12  C   UNL A   1      32.630  24.141  24.000  1.00  0.00     0.044 A 
ATOM     13  C   UNL A   1      30.444  23.869  25.721  1.00  0.00     0.049 A 
ATOM     14  C   UNL A   1      31.750  25.220  24.161  1.00  0.00     0.087 A 
ATOM     15  C   UNL A   1      30.648  25.059  25.018  1.00  0.00     0.143 A 
ATOM     16  O   UNL A   1      29.749  26.057  25.284  1.00  0.00    -0.482 OA
ATOM     17  C   UNL A   1      30.948  27.432  23.548  1.00  0.00     0.265 C 
ATOM     18  C   UNL A   1      29.660  27.005  24.239  1.00  0.00     0.330 C 
ATOM     19  O   UNL A   1      31.039  28.537  23.009  1.00  0.00    -0.270 OA
BRANCH  10  20
ATOM     20  C   UNL A   1      33.354  21.809  24.564  1.00  0.00     0.254 C 
ATOM     21  C   UNL A   1      38.746  22.348  25.964  1.00  0.00     0.332 C 
ATOM     22  N   UNL A   1      37.347  21.949  26.116  1.00  0.00    -0.334 N 
ATOM     23  C   UNL A   1      36.941  21.056  25.008  1.00  0.00     0.283 C 
ATOM     24  C   UNL A   1      36.473  23.142  26.125  1.00  0.00     0.283 C 
ATOM     25  H   UNL A   1      37.253  21.451  27.001  1.00  0.00     0.347 HD
ATOM     26  C   UNL A   1      35.455  20.653  25.090  1.00  0.00     0.181 C 
ATOM     27  C   UNL A   1      34.990  22.758  26.274  1.00  0.00     0.181 C 
ATOM     28  N   UNL A   1      34.572  21.814  25.230  1.00  0.00    -0.327 N 
ATOM     29  O   UNL A   1      32.970  20.887  23.848  1.00  0.00    -0.269 OA
ENDBRANCH  10  20
ENDBRANCH   8   9
ENDBRANCH   5   8
ENDBRANCH   3   4
ENDBRANCH   2   3
ENDBRANCH   1   2
BRANCH   1  30
ATOM     30  C   UNL A   1      31.393  30.781  26.019  1.00  0.00     0.002 C 
BRANCH  30  31
ATOM     31  C   UNL A   1      31.266  32.219  26.531  1.00  0.00     0.021 C 
BRANCH  31  32
ATOM     32  C   UNL A   1      32.559  32.824  27.065  1.00  0.00     0.116 C 
BRANCH  32  33
ATOM     33  N   UNL A   1      32.355  34.152  27.623  1.00  0.00    -0.352 N 
ATOM     34  C   UNL A   1      33.000  34.765  28.667  1.00  0.00     0.251 C 
ATOM     35  H   UNL A   1      31.654  34.688  27.188  1.00  0.00     0.163 HD
ATOM     36  O   UNL A   1      32.571  35.827  29.118  1.00  0.00    -0.269 OA
BRANCH  34  37
ATOM     37  C   UNL A   1      34.200  34.144  29.269  1.00  0.00     0.039 A 
ATOM     38  C   UNL A   1      34.041  33.286  30.360  1.00  0.00     0.014 A 
ATOM     39  C   UNL A   1      35.477  34.427  28.780  1.00  0.00     0.014 A 
ATOM     40  C   UNL A   1      35.159  32.671  30.928  1.00  0.00     0.010 A 
ATOM     41  C   UNL A   1      36.584  33.763  29.303  1.00  0.00     0.010 A 
ATOM     42  C   UNL A   1      36.438  32.886  30.389  1.00  0.00    -0.014 A 
BRANCH  42  43
ATOM     43  C   UNL A   1      37.637  32.223  30.959  1.00  0.00     0.031 A 
ATOM     44  C   UNL A   1      38.276  32.767  32.208  1.00  0.00     0.074 A 
ATOM     45  C   UNL A   1      38.186  31.166  30.327  1.00  0.00     0.049 A 
ATOM     46  N   UNL A   1      39.365  32.373  32.818  1.00  0.00    -0.248 NA
ATOM     47  C   UNL A   1      37.616  33.921  32.841  1.00  0.00     0.031 C 
ATOM     48  C   UNL A   1      37.681  30.558  29.094  1.00  0.00     0.029 A 
ATOM     49  N   UNL A   1      39.295  30.421  30.636  1.00  0.00    -0.354 N 
ATOM     50  C   UNL A   1      39.529  33.238  33.892  1.00  0.00     0.074 A 
ATOM     51  C   UNL A   1      38.457  34.207  33.825  1.00  0.00     0.031 C 
ATOM     52  C   UNL A   1      38.465  29.519  28.765  1.00  0.00     0.029 A 
ATOM     53  C   UNL A   1      39.548  29.411  29.739  1.00  0.00     0.049 A 
ATOM     54  H   UNL A   1      39.859  30.593  31.425  1.00  0.00     0.167 HD
ATOM     55  C   UNL A   1      40.475  33.219  34.862  1.00  0.00     0.031 A 
ATOM     56  C   UNL A   1      40.542  28.503  29.703  1.00  0.00     0.031 A 
ATOM     57  C   UNL A   1      41.533  32.249  34.942  1.00  0.00     0.049 A 
ATOM     58  C   UNL A   1      41.587  28.513  30.783  1.00  0.00     0.074 A 
ATOM     59  C   UNL A   1      42.515  32.121  35.910  1.00  0.00     0.029 A 
ATOM     60  N   UNL A   1      41.745  31.236  34.020  1.00  0.00    -0.354 N 
ATOM     61  N   UNL A   1      41.698  29.307  31.820  1.00  0.00    -0.248 NA
ATOM     62  C   UNL A   1      42.640  27.490  30.691  1.00  0.00     0.031 C 
ATOM     63  C   UNL A   1      43.346  31.055  35.552  1.00  0.00     0.029 A 
ATOM     64  C   UNL A   1      42.850  30.488  34.388  1.00  0.00     0.049 A 
ATOM     65  H   UNL A   1      41.193  31.073  33.222  1.00  0.00     0.167 HD
ATOM     66  C   UNL A   1      42.810  28.860  32.521  1.00  0.00     0.074 A 
ATOM     67  C   UNL A   1      43.332  27.717  31.800  1.00  0.00     0.031 C 
ATOM     68  C   UNL A   1      43.349  29.349  33.664  1.00  0.00     0.031 A 
BRANCH  55  69
ATOM     69  C   UNL A   1      40.406  34.286  35.918  1.00  0.00    -0.014 A 
ATOM     70  C   UNL A   1      39.635  34.110  37.077  1.00  0.00     0.009 A 
ATOM     71  C   UNL A   1      41.150  35.468  35.770  1.00  0.00     0.009 A 
ATOM     72  C   UNL A   1      39.583  35.110  38.051  1.00  0.00     0.001 A 
ATOM     73  C   UNL A   1      41.119  36.453  36.758  1.00  0.00     0.001 A 
ATOM     74  C   UNL A   1      40.328  36.278  37.893  1.00  0.00     0.000 A 
ENDBRANCH  55  69
BRANCH  56  75
ATOM     75  C   UNL A   1      40.593  27.493  28.614  1.00  0.00    -0.014 A 
ATOM     76  C   UNL A   1      41.298  27.760  27.430  1.00  0.00     0.009 A 
ATOM     77  C   UNL A   1      39.921  26.267  28.743  1.00  0.00     0.009 A 
ATOM     78  C   UNL A   1      41.300  26.835  26.384  1.00  0.00     0.001 A 
ATOM     79  C   UNL A   1      39.951  25.332  27.706  1.00  0.00     0.001 A 
ATOM     80  C   UNL A   1      40.630  25.621  26.523  1.00  0.00     0.000 A 
ENDBRANCH  56  75
BRANCH  68  81
ATOM     81  C   UNL A   1      44.537  28.622  34.230  1.00  0.00    -0.014 A 
ATOM     82  C   UNL A   1      44.379  27.538  35.107  1.00  0.00     0.009 A 
ATOM     83  C   UNL A   1      45.831  29.007  33.845  1.00  0.00     0.009 A 
ATOM     84  C   UNL A   1      45.499  26.875  35.613  1.00  0.00     0.001 A 
ATOM     85  C   UNL A   1      46.946  28.323  34.331  1.00  0.00     0.001 A 
ATOM     86  C   UNL A   1      46.779  27.264  35.221  1.00  0.00     0.000 A 
ENDBRANCH  68  81
ENDBRANCH  42  43
ENDBRANCH  34  37
ENDBRANCH  32  33
ENDBRANCH  31  32
ENDBRANCH  30  31
ENDBRANCH   1  30
TORSDOF 15
ENDMDL
