MODEL 1
REMARK VINA RESULT:      -8.3      0.000      0.000
REMARK SMILES COc1ccc2cc([C@@H](O)[C@H](F)C(=O)NCCCCCCNC(=O)c3ccc(-c4c5nc(c(-c6ccccc6)c6ccc([nH]6)c(-c6ccccc6)c6nc(c(-c7ccccc7)c7ccc4[nH]7)C=C6)C=C5)cc3)ccc2c1
REMARK SMILES IDX 18 1 17 2 16 3 15 4 13 5 14 6 11 8 12 9 9 10 8 11 3 12 4 13
REMARK SMILES IDX 76 14 5 15 75 16 6 17 74 18 7 19 73 20 2 21 1 22 10 23 19 25
REMARK SMILES IDX 20 26 21 27 22 28 23 29 24 31 25 32 26 33 72 34 27 35 71 36
REMARK SMILES IDX 28 37 29 38 30 39 65 40 31 41 70 42 64 43 66 44 32 45 69 46
REMARK SMILES IDX 63 47 62 48 33 50 55 51 40 52 54 53 41 54 44 55 53 56 67 57
REMARK SMILES IDX 42 58 43 59 52 61 68 62 45 63 34 64 35 65 39 66 36 67 38 68
REMARK SMILES IDX 37 69 56 70 57 71 61 72 58 73 60 74 59 75 46 76 47 77 51 78
REMARK SMILES IDX 48 79 50 80 49 81
REMARK H PARENT 15 7 10 24 22 30 66 49 44 60
REMARK Flexibility Score: inf
ROOT
ATOM      1  C   UNL A   1      38.004  33.334  30.312  1.00  0.00     0.002 C 
ENDROOT
BRANCH   1   2
ATOM      2  C   UNL A   1      38.551  34.543  31.078  1.00  0.00     0.021 C 
BRANCH   2   3
ATOM      3  C   UNL A   1      38.530  34.385  32.592  1.00  0.00     0.116 C 
BRANCH   3   4
ATOM      4  N   UNL A   1      37.207  34.043  33.082  1.00  0.00    -0.353 N 
ATOM      5  C   UNL A   1      36.816  32.919  33.757  1.00  0.00     0.257 C 
ATOM      6  O   UNL A   1      35.635  32.822  34.094  1.00  0.00    -0.272 OA
ATOM      7  H   UNL A   1      36.500  34.705  32.906  1.00  0.00     0.163 HD
BRANCH   5   8
ATOM      8  C   UNL A   1      37.853  31.866  34.123  1.00  0.00     0.288 C 
ATOM      9  F   UNL A   1      37.591  31.322  35.353  1.00  0.00    -0.234 F 
BRANCH   8  10
ATOM     10  C   UNL A   1      37.865  30.763  33.042  1.00  0.00     0.188 C 
BRANCH  10  11
ATOM     11  C   UNL A   1      39.099  29.890  33.124  1.00  0.00    -0.015 A 
ATOM     12  C   UNL A   1      43.797  28.101  33.812  1.00  0.00     0.119 A 
ATOM     13  C   UNL A   1      43.795  29.397  34.323  1.00  0.00     0.047 A 
ATOM     14  C   UNL A   1      42.628  27.575  33.253  1.00  0.00     0.055 A 
ATOM     15  C   UNL A   1      42.624  30.157  34.293  1.00  0.00     0.012 A 
ATOM     16  C   UNL A   1      41.443  28.325  33.218  1.00  0.00    -0.015 A 
ATOM     17  C   UNL A   1      41.446  29.634  33.746  1.00  0.00    -0.018 A 
ATOM     18  C   UNL A   1      40.260  27.812  32.664  1.00  0.00     0.009 A 
ATOM     19  C   UNL A   1      40.274  30.397  33.702  1.00  0.00     0.015 A 
ATOM     20  C   UNL A   1      39.099  28.589  32.613  1.00  0.00     0.007 A 
BRANCH  12  21
ATOM     21  O   UNL A   1      44.886  27.273  33.768  1.00  0.00    -0.497 OA
ATOM     22  C   UNL A   1      44.667  25.996  33.179  1.00  0.00     0.278 C 
ENDBRANCH  12  21
ENDBRANCH  10  11
BRANCH  10  23
ATOM     23  O   UNL A   1      36.706  29.923  33.135  1.00  0.00    -0.385 OA
ATOM     24  H   UNL A   1      36.259  29.894  32.274  1.00  0.00     0.211 HD
ENDBRANCH  10  23
ENDBRANCH   8  10
ENDBRANCH   5   8
ENDBRANCH   3   4
ENDBRANCH   2   3
ENDBRANCH   1   2
BRANCH   1  25
ATOM     25  C   UNL A   1      37.106  33.672  29.117  1.00  0.00     0.002 C 
BRANCH  25  26
ATOM     26  C   UNL A   1      35.619  33.824  29.442  1.00  0.00     0.021 C 
BRANCH  26  27
ATOM     27  C   UNL A   1      34.961  32.576  30.020  1.00  0.00     0.116 C 
BRANCH  27  28
ATOM     28  N   UNL A   1      34.222  31.827  29.018  1.00  0.00    -0.352 N 
ATOM     29  C   UNL A   1      34.653  30.819  28.196  1.00  0.00     0.251 C 
ATOM     30  H   UNL A   1      33.276  32.080  28.914  1.00  0.00     0.163 HD
ATOM     31  O   UNL A   1      33.935  30.416  27.281  1.00  0.00    -0.269 OA
BRANCH  29  32
ATOM     32  C   UNL A   1      35.994  30.229  28.391  1.00  0.00     0.039 A 
ATOM     33  C   UNL A   1      36.944  30.366  27.376  1.00  0.00     0.014 A 
ATOM     34  C   UNL A   1      36.315  29.544  29.567  1.00  0.00     0.014 A 
ATOM     35  C   UNL A   1      38.234  29.867  27.565  1.00  0.00     0.010 A 
ATOM     36  C   UNL A   1      37.621  29.114  29.783  1.00  0.00     0.010 A 
ATOM     37  C   UNL A   1      38.594  29.268  28.784  1.00  0.00    -0.014 A 
BRANCH  37  38
ATOM     38  C   UNL A   1      39.982  28.800  29.028  1.00  0.00     0.031 A 
ATOM     39  C   UNL A   1      40.999  29.728  29.635  1.00  0.00     0.074 A 
ATOM     40  C   UNL A   1      40.341  27.555  28.659  1.00  0.00     0.049 A 
ATOM     41  N   UNL A   1      42.269  29.517  29.873  1.00  0.00    -0.248 NA
ATOM     42  C   UNL A   1      40.535  31.076  30.004  1.00  0.00     0.031 C 
ATOM     43  C   UNL A   1      39.459  26.567  28.033  1.00  0.00     0.029 A 
ATOM     44  N   UNL A   1      41.547  26.906  28.755  1.00  0.00    -0.354 N 
ATOM     45  C   UNL A   1      42.754  30.702  30.412  1.00  0.00     0.074 A 
ATOM     46  C   UNL A   1      41.659  31.646  30.415  1.00  0.00     0.031 C 
ATOM     47  C   UNL A   1      40.145  25.430  27.827  1.00  0.00     0.029 A 
ATOM     48  C   UNL A   1      41.525  25.623  28.264  1.00  0.00     0.049 A 
ATOM     49  H   UNL A   1      42.353  27.322  29.140  1.00  0.00     0.167 HD
ATOM     50  C   UNL A   1      43.993  30.975  30.884  1.00  0.00     0.031 A 
ATOM     51  C   UNL A   1      42.508  24.707  28.166  1.00  0.00     0.031 A 
ATOM     52  C   UNL A   1      45.084  30.037  30.888  1.00  0.00     0.049 A 
ATOM     53  C   UNL A   1      43.884  25.052  28.663  1.00  0.00     0.074 A 
ATOM     54  C   UNL A   1      46.368  30.211  31.377  1.00  0.00     0.029 A 
ATOM     55  N   UNL A   1      45.020  28.750  30.379  1.00  0.00    -0.354 N 
ATOM     56  N   UNL A   1      44.309  26.158  29.225  1.00  0.00    -0.248 NA
ATOM     57  C   UNL A   1      44.917  24.014  28.524  1.00  0.00     0.031 C 
ATOM     58  C   UNL A   1      47.095  29.046  31.118  1.00  0.00     0.029 A 
ATOM     59  C   UNL A   1      46.246  28.125  30.525  1.00  0.00     0.049 A 
ATOM     60  H   UNL A   1      44.221  28.341  29.974  1.00  0.00     0.167 HD
ATOM     61  C   UNL A   1      45.644  25.936  29.536  1.00  0.00     0.074 A 
ATOM     62  C   UNL A   1      45.954  24.585  29.119  1.00  0.00     0.031 C 
ATOM     63  C   UNL A   1      46.536  26.776  30.114  1.00  0.00     0.031 A 
BRANCH  50  64
ATOM     64  C   UNL A   1      44.239  32.348  31.446  1.00  0.00    -0.014 A 
ATOM     65  C   UNL A   1      44.053  32.614  32.812  1.00  0.00     0.009 A 
ATOM     66  C   UNL A   1      44.723  33.371  30.615  1.00  0.00     0.009 A 
ATOM     67  C   UNL A   1      44.321  33.883  33.329  1.00  0.00     0.001 A 
ATOM     68  C   UNL A   1      45.017  34.631  31.141  1.00  0.00     0.001 A 
ATOM     69  C   UNL A   1      44.809  34.887  32.495  1.00  0.00     0.000 A 
ENDBRANCH  50  64
BRANCH  51  70
ATOM     70  C   UNL A   1      42.237  23.369  27.573  1.00  0.00    -0.014 A 
ATOM     71  C   UNL A   1      41.693  22.338  28.354  1.00  0.00     0.009 A 
ATOM     72  C   UNL A   1      42.566  23.102  26.235  1.00  0.00     0.009 A 
ATOM     73  C   UNL A   1      41.527  21.057  27.821  1.00  0.00     0.001 A 
ATOM     74  C   UNL A   1      42.365  21.831  25.694  1.00  0.00     0.001 A 
ATOM     75  C   UNL A   1      41.861  20.806  26.492  1.00  0.00     0.000 A 
ENDBRANCH  51  70
BRANCH  63  76
ATOM     76  C   UNL A   1      47.916  26.242  30.377  1.00  0.00    -0.014 A 
ATOM     77  C   UNL A   1      48.281  25.744  31.637  1.00  0.00     0.009 A 
ATOM     78  C   UNL A   1      48.855  26.206  29.334  1.00  0.00     0.009 A 
ATOM     79  C   UNL A   1      49.570  25.254  31.857  1.00  0.00     0.001 A 
ATOM     80  C   UNL A   1      50.132  25.685  29.547  1.00  0.00     0.001 A 
ATOM     81  C   UNL A   1      50.492  25.221  30.811  1.00  0.00     0.000 A 
ENDBRANCH  63  76
ENDBRANCH  37  38
ENDBRANCH  29  32
ENDBRANCH  27  28
ENDBRANCH  26  27
ENDBRANCH  25  26
ENDBRANCH   1  25
TORSDOF 17
ENDMDL
MODEL 2
REMARK VINA RESULT:      -8.2      4.682     10.529
REMARK SMILES COc1ccc2cc([C@@H](O)[C@H](F)C(=O)NCCCCCCNC(=O)c3ccc(-c4c5nc(c(-c6ccccc6)c6ccc([nH]6)c(-c6ccccc6)c6nc(c(-c7ccccc7)c7ccc4[nH]7)C=C6)C=C5)cc3)ccc2c1
REMARK SMILES IDX 18 1 17 2 16 3 15 4 13 5 14 6 11 8 12 9 9 10 8 11 3 12 4 13
REMARK SMILES IDX 76 14 5 15 75 16 6 17 74 18 7 19 73 20 2 21 1 22 10 23 19 25
REMARK SMILES IDX 20 26 21 27 22 28 23 29 24 31 25 32 26 33 72 34 27 35 71 36
REMARK SMILES IDX 28 37 29 38 30 39 65 40 31 41 70 42 64 43 66 44 32 45 69 46
REMARK SMILES IDX 63 47 62 48 33 50 55 51 40 52 54 53 41 54 44 55 53 56 67 57
REMARK SMILES IDX 42 58 43 59 52 61 68 62 45 63 34 64 35 65 39 66 36 67 38 68
REMARK SMILES IDX 37 69 56 70 57 71 61 72 58 73 60 74 59 75 46 76 47 77 51 78
REMARK SMILES IDX 48 79 50 80 49 81
REMARK H PARENT 15 7 10 24 22 30 66 49 44 60
REMARK Flexibility Score: inf
ROOT
ATOM      1  C   UNL A   1      32.419  29.894  25.729  1.00  0.00     0.002 C 
ENDROOT
BRANCH   1   2
ATOM      2  C   UNL A   1      32.249  28.372  25.784  1.00  0.00     0.021 C 
BRANCH   2   3
ATOM      3  C   UNL A   1      33.546  27.592  25.615  1.00  0.00     0.116 C 
BRANCH   3   4
ATOM      4  N   UNL A   1      33.407  26.212  26.043  1.00  0.00    -0.353 N 
ATOM      5  C   UNL A   1      33.548  25.074  25.297  1.00  0.00     0.257 C 
ATOM      6  O   UNL A   1      33.395  23.987  25.856  1.00  0.00    -0.272 OA
ATOM      7  H   UNL A   1      33.183  26.078  26.992  1.00  0.00     0.163 HD
BRANCH   5   8
ATOM      8  C   UNL A   1      33.950  25.182  23.832  1.00  0.00     0.288 C 
ATOM      9  F   UNL A   1      35.078  24.448  23.575  1.00  0.00    -0.234 F 
BRANCH   8  10
ATOM     10  C   UNL A   1      32.782  24.699  22.945  1.00  0.00     0.188 C 
BRANCH  10  11
ATOM     11  C   UNL A   1      31.576  25.609  23.036  1.00  0.00    -0.015 A 
ATOM     12  C   UNL A   1      28.384  29.548  22.841  1.00  0.00     0.119 A 
ATOM     13  C   UNL A   1      29.545  29.954  22.185  1.00  0.00     0.047 A 
ATOM     14  C   UNL A   1      28.310  28.263  23.386  1.00  0.00     0.055 A 
ATOM     15  C   UNL A   1      30.619  29.071  22.058  1.00  0.00     0.012 A 
ATOM     16  C   UNL A   1      29.380  27.364  23.264  1.00  0.00    -0.015 A 
ATOM     17  C   UNL A   1      30.549  27.778  22.590  1.00  0.00    -0.018 A 
ATOM     18  C   UNL A   1      29.322  26.068  23.801  1.00  0.00     0.009 A 
ATOM     19  C   UNL A   1      31.628  26.895  22.476  1.00  0.00     0.015 A 
ATOM     20  C   UNL A   1      30.411  25.200  23.693  1.00  0.00     0.007 A 
BRANCH  12  21
ATOM     21  O   UNL A   1      27.280  30.331  23.044  1.00  0.00    -0.497 OA
ATOM     22  C   UNL A   1      27.520  31.585  23.671  1.00  0.00     0.278 C 
ENDBRANCH  12  21
ENDBRANCH  10  11
BRANCH  10  23
ATOM     23  O   UNL A   1      33.174  24.600  21.568  1.00  0.00    -0.385 OA
ATOM     24  H   UNL A   1      33.822  23.885  21.468  1.00  0.00     0.211 HD
ENDBRANCH  10  23
ENDBRANCH   8  10
ENDBRANCH   5   8
ENDBRANCH   3   4
ENDBRANCH   2   3
ENDBRANCH   1   2
BRANCH   1  25
ATOM     25  C   UNL A   1      31.127  30.687  25.504  1.00  0.00     0.002 C 
BRANCH  25  26
ATOM     26  C   UNL A   1      31.057  32.036  26.222  1.00  0.00     0.021 C 
BRANCH  26  27
ATOM     27  C   UNL A   1      32.352  32.464  26.904  1.00  0.00     0.116 C 
BRANCH  27  28
ATOM     28  N   UNL A   1      32.267  33.806  27.454  1.00  0.00    -0.352 N 
ATOM     29  C   UNL A   1      33.073  34.417  28.380  1.00  0.00     0.251 C 
ATOM     30  H   UNL A   1      31.525  34.357  27.114  1.00  0.00     0.163 HD
ATOM     31  O   UNL A   1      32.749  35.502  28.863  1.00  0.00    -0.269 OA
BRANCH  29  32
ATOM     32  C   UNL A   1      34.321  33.760  28.820  1.00  0.00     0.039 A 
ATOM     33  C   UNL A   1      35.513  34.067  28.159  1.00  0.00     0.014 A 
ATOM     34  C   UNL A   1      34.320  32.846  29.877  1.00  0.00     0.014 A 
ATOM     35  C   UNL A   1      36.712  33.502  28.596  1.00  0.00     0.010 A 
ATOM     36  C   UNL A   1      35.525  32.342  30.359  1.00  0.00     0.010 A 
ATOM     37  C   UNL A   1      36.733  32.662  29.722  1.00  0.00    -0.014 A 
BRANCH  37  38
ATOM     38  C   UNL A   1      38.010  32.113  30.245  1.00  0.00     0.031 A 
ATOM     39  C   UNL A   1      38.556  30.819  29.707  1.00  0.00     0.074 A 
ATOM     40  C   UNL A   1      38.654  32.755  31.240  1.00  0.00     0.049 A 
ATOM     41  N   UNL A   1      39.624  30.158  30.075  1.00  0.00    -0.248 NA
ATOM     42  C   UNL A   1      37.792  30.171  28.627  1.00  0.00     0.031 C 
ATOM     43  C   UNL A   1      38.215  34.002  31.872  1.00  0.00     0.029 A 
ATOM     44  N   UNL A   1      39.818  32.444  31.899  1.00  0.00    -0.354 N 
ATOM     45  C   UNL A   1      39.657  29.019  29.279  1.00  0.00     0.074 A 
ATOM     46  C   UNL A   1      38.475  29.049  28.447  1.00  0.00     0.031 C 
ATOM     47  C   UNL A   1      39.111  34.363  32.805  1.00  0.00     0.029 A 
ATOM     48  C   UNL A   1      40.163  33.353  32.870  1.00  0.00     0.049 A 
ATOM     49  H   UNL A   1      40.355  31.644  31.694  1.00  0.00     0.167 HD
ATOM     50  C   UNL A   1      40.597  28.047  29.228  1.00  0.00     0.031 A 
ATOM     51  C   UNL A   1      41.204  33.366  33.725  1.00  0.00     0.031 A 
ATOM     52  C   UNL A   1      41.778  28.016  30.050  1.00  0.00     0.049 A 
ATOM     53  C   UNL A   1      42.212  32.252  33.671  1.00  0.00     0.074 A 
ATOM     54  C   UNL A   1      42.807  27.089  30.046  1.00  0.00     0.029 A 
ATOM     55  N   UNL A   1      42.087  28.954  31.022  1.00  0.00    -0.354 N 
ATOM     56  N   UNL A   1      42.258  31.215  32.870  1.00  0.00    -0.248 NA
ATOM     57  C   UNL A   1      43.322  32.318  34.633  1.00  0.00     0.031 C 
ATOM     58  C   UNL A   1      43.713  27.439  31.050  1.00  0.00     0.029 A 
ATOM     59  C   UNL A   1      43.281  28.617  31.637  1.00  0.00     0.049 A 
ATOM     60  H   UNL A   1      41.540  29.742  31.242  1.00  0.00     0.167 HD
ATOM     61  C   UNL A   1      43.416  30.526  33.208  1.00  0.00     0.074 A 
ATOM     62  C   UNL A   1      44.053  31.274  34.272  1.00  0.00     0.031 C 
ATOM     63  C   UNL A   1      43.908  29.377  32.687  1.00  0.00     0.031 A 
BRANCH  50  64
ATOM     64  C   UNL A   1      40.394  26.931  28.241  1.00  0.00    -0.014 A 
ATOM     65  C   UNL A   1      40.923  27.009  26.942  1.00  0.00     0.009 A 
ATOM     66  C   UNL A   1      39.722  25.762  28.631  1.00  0.00     0.009 A 
ATOM     67  C   UNL A   1      40.760  25.950  26.047  1.00  0.00     0.001 A 
ATOM     68  C   UNL A   1      39.585  24.693  27.743  1.00  0.00     0.001 A 
ATOM     69  C   UNL A   1      40.098  24.791  26.450  1.00  0.00     0.000 A 
ENDBRANCH  50  64
BRANCH  51  70
ATOM     70  C   UNL A   1      41.356  34.469  34.713  1.00  0.00    -0.014 A 
ATOM     71  C   UNL A   1      42.119  35.605  34.403  1.00  0.00     0.009 A 
ATOM     72  C   UNL A   1      40.778  34.370  35.988  1.00  0.00     0.009 A 
ATOM     73  C   UNL A   1      42.338  36.596  35.364  1.00  0.00     0.001 A 
ATOM     74  C   UNL A   1      40.968  35.378  36.934  1.00  0.00     0.001 A 
ATOM     75  C   UNL A   1      41.761  36.482  36.626  1.00  0.00     0.000 A 
ENDBRANCH  51  70
BRANCH  63  76
ATOM     76  C   UNL A   1      45.224  28.884  33.222  1.00  0.00    -0.014 A 
ATOM     77  C   UNL A   1      45.285  27.940  34.258  1.00  0.00     0.009 A 
ATOM     78  C   UNL A   1      46.420  29.350  32.654  1.00  0.00     0.009 A 
ATOM     79  C   UNL A   1      46.520  27.500  34.738  1.00  0.00     0.001 A 
ATOM     80  C   UNL A   1      47.652  28.884  33.114  1.00  0.00     0.001 A 
ATOM     81  C   UNL A   1      47.701  27.968  34.163  1.00  0.00     0.000 A 
ENDBRANCH  63  76
ENDBRANCH  37  38
ENDBRANCH  29  32
ENDBRANCH  27  28
ENDBRANCH  26  27
ENDBRANCH  25  26
ENDBRANCH   1  25
TORSDOF 17
ENDMDL
MODEL 3
REMARK VINA RESULT:      -8.1      4.608      8.775
REMARK SMILES COc1ccc2cc([C@@H](O)[C@H](F)C(=O)NCCCCCCNC(=O)c3ccc(-c4c5nc(c(-c6ccccc6)c6ccc([nH]6)c(-c6ccccc6)c6nc(c(-c7ccccc7)c7ccc4[nH]7)C=C6)C=C5)cc3)ccc2c1
REMARK SMILES IDX 18 1 17 2 16 3 15 4 13 5 14 6 11 8 12 9 9 10 8 11 3 12 4 13
REMARK SMILES IDX 76 14 5 15 75 16 6 17 74 18 7 19 73 20 2 21 1 22 10 23 19 25
REMARK SMILES IDX 20 26 21 27 22 28 23 29 24 31 25 32 26 33 72 34 27 35 71 36
REMARK SMILES IDX 28 37 29 38 30 39 65 40 31 41 70 42 64 43 66 44 32 45 69 46
REMARK SMILES IDX 63 47 62 48 33 50 55 51 40 52 54 53 41 54 44 55 53 56 67 57
REMARK SMILES IDX 42 58 43 59 52 61 68 62 45 63 34 64 35 65 39 66 36 67 38 68
REMARK SMILES IDX 37 69 56 70 57 71 61 72 58 73 60 74 59 75 46 76 47 77 51 78
REMARK SMILES IDX 48 79 50 80 49 81
REMARK H PARENT 15 7 10 24 22 30 66 49 44 60
REMARK Flexibility Score: inf
ROOT
ATOM      1  C   UNL A   1      32.705  29.834  26.135  1.00  0.00     0.002 C 
ENDROOT
BRANCH   1   2
ATOM      2  C   UNL A   1      32.535  28.348  26.472  1.00  0.00     0.021 C 
BRANCH   2   3
ATOM      3  C   UNL A   1      33.601  27.445  25.867  1.00  0.00     0.116 C 
BRANCH   3   4
ATOM      4  N   UNL A   1      33.370  26.047  26.185  1.00  0.00    -0.353 N 
ATOM      5  C   UNL A   1      33.515  24.957  25.371  1.00  0.00     0.257 C 
ATOM      6  O   UNL A   1      33.273  23.844  25.839  1.00  0.00    -0.272 OA
ATOM      7  H   UNL A   1      33.071  25.860  27.104  1.00  0.00     0.163 HD
BRANCH   5   8
ATOM      8  C   UNL A   1      34.029  25.145  23.950  1.00  0.00     0.288 C 
ATOM      9  F   UNL A   1      35.166  24.412  23.735  1.00  0.00    -0.234 F 
BRANCH   8  10
ATOM     10  C   UNL A   1      32.927  24.730  22.949  1.00  0.00     0.188 C 
BRANCH  10  11
ATOM     11  C   UNL A   1      31.703  25.615  23.042  1.00  0.00    -0.015 A 
ATOM     12  C   UNL A   1      28.465  29.521  22.973  1.00  0.00     0.119 A 
ATOM     13  C   UNL A   1      29.655  29.991  22.421  1.00  0.00     0.047 A 
ATOM     14  C   UNL A   1      28.380  28.195  23.408  1.00  0.00     0.055 A 
ATOM     15  C   UNL A   1      30.749  29.134  22.288  1.00  0.00     0.012 A 
ATOM     16  C   UNL A   1      29.470  27.321  23.278  1.00  0.00    -0.015 A 
ATOM     17  C   UNL A   1      30.669  27.801  22.709  1.00  0.00    -0.018 A 
ATOM     18  C   UNL A   1      29.401  25.986  23.706  1.00  0.00     0.009 A 
ATOM     19  C   UNL A   1      31.767  26.942  22.590  1.00  0.00     0.015 A 
ATOM     20  C   UNL A   1      30.509  25.141  23.594  1.00  0.00     0.007 A 
BRANCH  12  21
ATOM     21  O   UNL A   1      27.338  30.271  23.172  1.00  0.00    -0.497 OA
ATOM     22  C   UNL A   1      27.558  31.621  23.568  1.00  0.00     0.278 C 
ENDBRANCH  12  21
ENDBRANCH  10  11
BRANCH  10  23
ATOM     23  O   UNL A   1      33.407  24.756  21.598  1.00  0.00    -0.385 OA
ATOM     24  H   UNL A   1      34.253  25.230  21.566  1.00  0.00     0.211 HD
ENDBRANCH  10  23
ENDBRANCH   8  10
ENDBRANCH   5   8
ENDBRANCH   3   4
ENDBRANCH   2   3
ENDBRANCH   1   2
BRANCH   1  25
ATOM     25  C   UNL A   1      31.409  30.578  25.798  1.00  0.00     0.002 C 
BRANCH  25  26
ATOM     26  C   UNL A   1      31.230  31.926  26.499  1.00  0.00     0.021 C 
BRANCH  26  27
ATOM     27  C   UNL A   1      32.494  32.483  27.143  1.00  0.00     0.116 C 
BRANCH  27  28
ATOM     28  N   UNL A   1      32.323  33.853  27.597  1.00  0.00    -0.352 N 
ATOM     29  C   UNL A   1      33.073  34.571  28.492  1.00  0.00     0.251 C 
ATOM     30  H   UNL A   1      31.561  34.336  27.204  1.00  0.00     0.163 HD
ATOM     31  O   UNL A   1      32.680  35.666  28.891  1.00  0.00    -0.269 OA
BRANCH  29  32
ATOM     32  C   UNL A   1      34.346  34.017  29.000  1.00  0.00     0.039 A 
ATOM     33  C   UNL A   1      34.331  33.269  30.180  1.00  0.00     0.014 A 
ATOM     34  C   UNL A   1      35.548  34.233  28.320  1.00  0.00     0.014 A 
ATOM     35  C   UNL A   1      35.512  32.688  30.645  1.00  0.00     0.010 A 
ATOM     36  C   UNL A   1      36.708  33.592  28.744  1.00  0.00     0.010 A 
ATOM     37  C   UNL A   1      36.704  32.816  29.913  1.00  0.00    -0.014 A 
BRANCH  37  38
ATOM     38  C   UNL A   1      37.951  32.142  30.354  1.00  0.00     0.031 A 
ATOM     39  C   UNL A   1      38.831  32.782  31.394  1.00  0.00     0.074 A 
ATOM     40  C   UNL A   1      38.318  30.976  29.786  1.00  0.00     0.049 A 
ATOM     41  N   UNL A   1      39.982  32.372  31.866  1.00  0.00    -0.248 NA
ATOM     42  C   UNL A   1      38.370  34.059  31.963  1.00  0.00     0.031 C 
ATOM     43  C   UNL A   1      37.570  30.266  28.745  1.00  0.00     0.029 A 
ATOM     44  N   UNL A   1      39.417  30.183  30.001  1.00  0.00    -0.354 N 
ATOM     45  C   UNL A   1      40.382  33.340  32.779  1.00  0.00     0.074 A 
ATOM     46  C   UNL A   1      39.382  34.384  32.756  1.00  0.00     0.031 C 
ATOM     47  C   UNL A   1      38.217  29.131  28.434  1.00  0.00     0.029 A 
ATOM     48  C   UNL A   1      39.446  29.054  29.217  1.00  0.00     0.049 A 
ATOM     49  H   UNL A   1      40.120  30.402  30.655  1.00  0.00     0.167 HD
ATOM     50  C   UNL A   1      41.471  33.350  33.583  1.00  0.00     0.031 A 
ATOM     51  C   UNL A   1      40.364  28.072  29.132  1.00  0.00     0.031 A 
ATOM     52  C   UNL A   1      42.466  32.310  33.612  1.00  0.00     0.049 A 
ATOM     53  C   UNL A   1      41.583  28.130  30.010  1.00  0.00     0.074 A 
ATOM     54  C   UNL A   1      43.588  32.215  34.418  1.00  0.00     0.029 A 
ATOM     55  N   UNL A   1      42.458  31.187  32.801  1.00  0.00    -0.354 N 
ATOM     56  N   UNL A   1      41.914  29.023  30.911  1.00  0.00    -0.248 NA
ATOM     57  C   UNL A   1      42.553  27.033  29.866  1.00  0.00     0.031 C 
ATOM     58  C   UNL A   1      44.286  31.059  34.059  1.00  0.00     0.029 A 
ATOM     59  C   UNL A   1      43.566  30.403  33.074  1.00  0.00     0.049 A 
ATOM     60  H   UNL A   1      41.768  30.977  32.132  1.00  0.00     0.167 HD
ATOM     61  C   UNL A   1      43.109  28.579  31.464  1.00  0.00     0.074 A 
ATOM     62  C   UNL A   1      43.434  27.327  30.812  1.00  0.00     0.031 C 
ATOM     63  C   UNL A   1      43.870  29.155  32.424  1.00  0.00     0.031 A 
BRANCH  50  64
ATOM     64  C   UNL A   1      41.646  34.523  34.507  1.00  0.00    -0.014 A 
ATOM     65  C   UNL A   1      42.342  35.671  34.094  1.00  0.00     0.009 A 
ATOM     66  C   UNL A   1      41.056  34.508  35.780  1.00  0.00     0.009 A 
ATOM     67  C   UNL A   1      42.466  36.768  34.948  1.00  0.00     0.001 A 
ATOM     68  C   UNL A   1      41.157  35.618  36.621  1.00  0.00     0.001 A 
ATOM     69  C   UNL A   1      41.867  36.744  36.207  1.00  0.00     0.000 A 
ENDBRANCH  50  64
BRANCH  51  70
ATOM     70  C   UNL A   1      40.176  26.943  28.181  1.00  0.00    -0.014 A 
ATOM     71  C   UNL A   1      39.512  25.773  28.582  1.00  0.00     0.009 A 
ATOM     72  C   UNL A   1      40.701  27.010  26.881  1.00  0.00     0.009 A 
ATOM     73  C   UNL A   1      39.419  24.679  27.719  1.00  0.00     0.001 A 
ATOM     74  C   UNL A   1      40.574  25.929  26.007  1.00  0.00     0.001 A 
ATOM     75  C   UNL A   1      39.947  24.759  26.432  1.00  0.00     0.000 A 
ENDBRANCH  51  70
BRANCH  63  76
ATOM     76  C   UNL A   1      45.101  28.413  32.866  1.00  0.00    -0.014 A 
ATOM     77  C   UNL A   1      45.057  27.477  33.910  1.00  0.00     0.009 A 
ATOM     78  C   UNL A   1      46.318  28.633  32.200  1.00  0.00     0.009 A 
ATOM     79  C   UNL A   1      46.215  26.802  34.302  1.00  0.00     0.001 A 
ATOM     80  C   UNL A   1      47.466  27.933  32.572  1.00  0.00     0.001 A 
ATOM     81  C   UNL A   1      47.416  27.028  33.630  1.00  0.00     0.000 A 
ENDBRANCH  63  76
ENDBRANCH  37  38
ENDBRANCH  29  32
ENDBRANCH  27  28
ENDBRANCH  26  27
ENDBRANCH  25  26
ENDBRANCH   1  25
TORSDOF 17
ENDMDL
