MODEL 1
REMARK VINA RESULT:     -11.3      0.000      0.000
REMARK SMILES C=CCc1cccc(-c2ccc([C@@H](C)C(=O)NCCCCCCNC(=O)c3ccc(-c4c5nc(c(-c6ccccc6)c6ccc([nH]6)c(-c6ccccc6)c6nc(c(-c7ccccc7)c7ccc4[nH]7)C=C6)C=C5)cc3)cc2)c1
REMARK SMILES IDX 19 1 18 2 17 3 15 4 16 5 13 7 14 8 12 9 9 10 10 11 76 12
REMARK SMILES IDX 11 13 75 14 8 15 4 16 5 17 77 18 6 19 7 20 3 21 2 22 1 23
REMARK SMILES IDX 20 24 21 25 22 26 23 27 24 28 25 29 26 31 27 32 28 33 74 34
REMARK SMILES IDX 29 35 73 36 30 37 31 38 32 39 67 40 33 41 72 42 66 43 68 44
REMARK SMILES IDX 34 45 71 46 65 47 64 48 35 50 57 51 42 52 56 53 43 54 46 55
REMARK SMILES IDX 55 56 69 57 44 58 45 59 54 61 70 62 47 63 36 64 37 65 41 66
REMARK SMILES IDX 38 67 40 68 39 69 58 70 59 71 63 72 60 73 62 74 61 75 48 76
REMARK SMILES IDX 49 77 53 78 50 79 52 80 51 81
REMARK H PARENT 17 6 24 30 68 49 46 60
REMARK Flexibility Score: inf
ROOT
ATOM      1  C   UNL A   1      34.822  25.232  25.386  1.00  0.00     0.021 C 
ENDROOT
BRANCH   1   2
ATOM      2  C   UNL A   1      34.501  23.739  25.284  1.00  0.00     0.116 C 
BRANCH   2   3
ATOM      3  N   UNL A   1      34.067  23.201  26.554  1.00  0.00    -0.356 N 
ATOM      4  C   UNL A   1      32.882  22.661  26.949  1.00  0.00     0.227 C 
ATOM      5  O   UNL A   1      32.782  22.381  28.150  1.00  0.00    -0.274 OA
ATOM      6  H   UNL A   1      34.752  23.231  27.260  1.00  0.00     0.163 HD
BRANCH   4   7
ATOM      7  C   UNL A   1      31.714  22.369  25.993  1.00  0.00     0.105 C 
ATOM      8  C   UNL A   1      32.011  21.264  24.979  1.00  0.00     0.023 C 
BRANCH   7   9
ATOM      9  C   UNL A   1      31.052  23.619  25.435  1.00  0.00    -0.036 A 
ATOM     10  C   UNL A   1      29.672  25.864  24.318  1.00  0.00    -0.018 A 
ATOM     11  C   UNL A   1      29.779  25.675  25.703  1.00  0.00     0.009 A 
ATOM     12  C   UNL A   1      30.300  24.912  23.501  1.00  0.00     0.009 A 
ATOM     13  C   UNL A   1      30.494  24.606  26.248  1.00  0.00     0.005 A 
ATOM     14  C   UNL A   1      30.958  23.799  24.047  1.00  0.00     0.005 A 
BRANCH  10  15
ATOM     15  C   UNL A   1      28.936  27.028  23.772  1.00  0.00    -0.018 A 
ATOM     16  C   UNL A   1      28.876  29.159  22.552  1.00  0.00    -0.044 A 
ATOM     17  C   UNL A   1      27.484  29.209  22.705  1.00  0.00     0.004 A 
ATOM     18  C   UNL A   1      29.585  28.061  23.072  1.00  0.00     0.012 A 
ATOM     19  C   UNL A   1      26.820  28.204  23.396  1.00  0.00     0.001 A 
ATOM     20  C   UNL A   1      27.541  27.138  23.934  1.00  0.00     0.009 A 
BRANCH  16  21
ATOM     21  C   UNL A   1      29.606  30.311  21.903  1.00  0.00     0.062 C 
BRANCH  21  22
ATOM     22  C   UNL A   1      28.977  31.630  22.265  1.00  0.00    -0.030 C 
ATOM     23  C   UNL A   1      28.278  32.401  21.424  1.00  0.00     0.004 C 
ENDBRANCH  21  22
ENDBRANCH  16  21
ENDBRANCH  10  15
ENDBRANCH   7   9
ENDBRANCH   4   7
ENDBRANCH   2   3
ENDBRANCH   1   2
BRANCH   1  24
ATOM     24  C   UNL A   1      33.662  26.069  25.933  1.00  0.00     0.002 C 
BRANCH  24  25
ATOM     25  C   UNL A   1      33.314  27.308  25.099  1.00  0.00     0.002 C 
BRANCH  25  26
ATOM     26  C   UNL A   1      33.816  28.635  25.674  1.00  0.00     0.021 C 
BRANCH  26  27
ATOM     27  C   UNL A   1      33.675  28.744  27.187  1.00  0.00     0.116 C 
BRANCH  27  28
ATOM     28  N   UNL A   1      33.653  30.132  27.623  1.00  0.00    -0.352 N 
ATOM     29  C   UNL A   1      34.588  30.822  28.354  1.00  0.00     0.251 C 
ATOM     30  H   UNL A   1      32.857  30.648  27.357  1.00  0.00     0.163 HD
ATOM     31  O   UNL A   1      34.320  31.907  28.855  1.00  0.00    -0.269 OA
BRANCH  29  32
ATOM     32  C   UNL A   1      35.929  30.232  28.533  1.00  0.00     0.039 A 
ATOM     33  C   UNL A   1      36.835  30.248  27.470  1.00  0.00     0.014 A 
ATOM     34  C   UNL A   1      36.285  29.678  29.764  1.00  0.00     0.014 A 
ATOM     35  C   UNL A   1      38.127  29.755  27.663  1.00  0.00     0.010 A 
ATOM     36  C   UNL A   1      37.591  29.264  29.978  1.00  0.00     0.010 A 
ATOM     37  C   UNL A   1      38.523  29.288  28.927  1.00  0.00    -0.014 A 
BRANCH  37  38
ATOM     38  C   UNL A   1      39.893  28.780  29.182  1.00  0.00     0.031 A 
ATOM     39  C   UNL A   1      40.926  29.706  29.765  1.00  0.00     0.074 A 
ATOM     40  C   UNL A   1      40.233  27.532  28.809  1.00  0.00     0.049 A 
ATOM     41  N   UNL A   1      42.209  29.516  29.928  1.00  0.00    -0.248 NA
ATOM     42  C   UNL A   1      40.454  31.035  30.193  1.00  0.00     0.031 C 
ATOM     43  C   UNL A   1      39.331  26.547  28.211  1.00  0.00     0.029 A 
ATOM     44  N   UNL A   1      41.443  26.886  28.860  1.00  0.00    -0.354 N 
ATOM     45  C   UNL A   1      42.699  30.706  30.451  1.00  0.00     0.074 A 
ATOM     46  C   UNL A   1      41.589  31.629  30.526  1.00  0.00     0.031 C 
ATOM     47  C   UNL A   1      40.015  25.419  27.962  1.00  0.00     0.029 A 
ATOM     48  C   UNL A   1      41.412  25.617  28.334  1.00  0.00     0.049 A 
ATOM     49  H   UNL A   1      42.256  27.294  29.239  1.00  0.00     0.167 HD
ATOM     50  C   UNL A   1      43.959  30.998  30.855  1.00  0.00     0.031 A 
ATOM     51  C   UNL A   1      42.403  24.724  28.153  1.00  0.00     0.031 A 
ATOM     52  C   UNL A   1      45.059  30.076  30.785  1.00  0.00     0.049 A 
ATOM     53  C   UNL A   1      43.801  25.082  28.577  1.00  0.00     0.074 A 
ATOM     54  C   UNL A   1      46.365  30.260  31.202  1.00  0.00     0.029 A 
ATOM     55  N   UNL A   1      44.979  28.793  30.265  1.00  0.00    -0.354 N 
ATOM     56  N   UNL A   1      44.242  26.194  29.115  1.00  0.00    -0.248 NA
ATOM     57  C   UNL A   1      44.839  24.059  28.380  1.00  0.00     0.031 C 
ATOM     58  C   UNL A   1      47.090  29.108  30.885  1.00  0.00     0.029 A 
ATOM     59  C   UNL A   1      46.219  28.181  30.335  1.00  0.00     0.049 A 
ATOM     60  H   UNL A   1      44.163  28.379  29.901  1.00  0.00     0.167 HD
ATOM     61  C   UNL A   1      45.594  25.988  29.358  1.00  0.00     0.074 A 
ATOM     62  C   UNL A   1      45.901  24.645  28.914  1.00  0.00     0.031 C 
ATOM     63  C   UNL A   1      46.500  26.835  29.905  1.00  0.00     0.031 A 
BRANCH  50  64
ATOM     64  C   UNL A   1      44.210  32.378  31.398  1.00  0.00    -0.014 A 
ATOM     65  C   UNL A   1      44.615  33.429  30.558  1.00  0.00     0.009 A 
ATOM     66  C   UNL A   1      44.013  32.639  32.762  1.00  0.00     0.009 A 
ATOM     67  C   UNL A   1      44.856  34.701  31.080  1.00  0.00     0.001 A 
ATOM     68  C   UNL A   1      44.221  33.921  33.276  1.00  0.00     0.001 A 
ATOM     69  C   UNL A   1      44.653  34.947  32.437  1.00  0.00     0.000 A 
ENDBRANCH  50  64
BRANCH  51  70
ATOM     70  C   UNL A   1      42.113  23.401  27.538  1.00  0.00    -0.014 A 
ATOM     71  C   UNL A   1      41.559  22.362  28.301  1.00  0.00     0.009 A 
ATOM     72  C   UNL A   1      42.403  23.163  26.184  1.00  0.00     0.009 A 
ATOM     73  C   UNL A   1      41.335  21.105  27.733  1.00  0.00     0.001 A 
ATOM     74  C   UNL A   1      42.146  21.917  25.610  1.00  0.00     0.001 A 
ATOM     75  C   UNL A   1      41.624  20.886  26.388  1.00  0.00     0.000 A 
ENDBRANCH  51  70
BRANCH  63  76
ATOM     76  C   UNL A   1      47.897  26.320  30.119  1.00  0.00    -0.014 A 
ATOM     77  C   UNL A   1      48.311  25.807  31.357  1.00  0.00     0.009 A 
ATOM     78  C   UNL A   1      48.786  26.282  29.034  1.00  0.00     0.009 A 
ATOM     79  C   UNL A   1      49.599  25.289  31.508  1.00  0.00     0.001 A 
ATOM     80  C   UNL A   1      50.061  25.735  29.179  1.00  0.00     0.001 A 
ATOM     81  C   UNL A   1      50.469  25.245  30.419  1.00  0.00     0.000 A 
ENDBRANCH  63  76
ENDBRANCH  37  38
ENDBRANCH  29  32
ENDBRANCH  27  28
ENDBRANCH  26  27
ENDBRANCH  25  26
ENDBRANCH  24  25
ENDBRANCH   1  24
TORSDOF 17
ENDMDL
MODEL 2
REMARK VINA RESULT:     -10.9      2.751      8.312
REMARK SMILES C=CCc1cccc(-c2ccc([C@@H](C)C(=O)NCCCCCCNC(=O)c3ccc(-c4c5nc(c(-c6ccccc6)c6ccc([nH]6)c(-c6ccccc6)c6nc(c(-c7ccccc7)c7ccc4[nH]7)C=C6)C=C5)cc3)cc2)c1
REMARK SMILES IDX 19 1 18 2 17 3 15 4 16 5 13 7 14 8 12 9 9 10 10 11 76 12
REMARK SMILES IDX 11 13 75 14 8 15 4 16 5 17 77 18 6 19 7 20 3 21 2 22 1 23
REMARK SMILES IDX 20 24 21 25 22 26 23 27 24 28 25 29 26 31 27 32 28 33 74 34
REMARK SMILES IDX 29 35 73 36 30 37 31 38 32 39 67 40 33 41 72 42 66 43 68 44
REMARK SMILES IDX 34 45 71 46 65 47 64 48 35 50 57 51 42 52 56 53 43 54 46 55
REMARK SMILES IDX 55 56 69 57 44 58 45 59 54 61 70 62 47 63 36 64 37 65 41 66
REMARK SMILES IDX 38 67 40 68 39 69 58 70 59 71 63 72 60 73 62 74 61 75 48 76
REMARK SMILES IDX 49 77 53 78 50 79 52 80 51 81
REMARK H PARENT 17 6 24 30 68 49 46 60
REMARK Flexibility Score: inf
ROOT
ATOM      1  C   UNL A   1      34.451  25.928  25.378  1.00  0.00     0.021 C 
ENDROOT
BRANCH   1   2
ATOM      2  C   UNL A   1      33.421  26.978  24.956  1.00  0.00     0.116 C 
BRANCH   2   3
ATOM      3  N   UNL A   1      33.809  27.640  23.731  1.00  0.00    -0.356 N 
ATOM      4  C   UNL A   1      33.335  27.539  22.460  1.00  0.00     0.227 C 
ATOM      5  O   UNL A   1      33.954  28.168  21.593  1.00  0.00    -0.274 OA
ATOM      6  H   UNL A   1      34.551  28.279  23.836  1.00  0.00     0.163 HD
BRANCH   4   7
ATOM      7  C   UNL A   1      32.090  26.725  22.074  1.00  0.00     0.105 C 
ATOM      8  C   UNL A   1      30.772  27.459  22.324  1.00  0.00     0.023 C 
BRANCH   7   9
ATOM      9  C   UNL A   1      32.137  25.276  22.534  1.00  0.00    -0.036 A 
ATOM     10  C   UNL A   1      32.373  22.594  23.504  1.00  0.00    -0.018 A 
ATOM     11  C   UNL A   1      31.286  23.412  23.845  1.00  0.00     0.009 A 
ATOM     12  C   UNL A   1      33.329  23.144  22.638  1.00  0.00     0.009 A 
ATOM     13  C   UNL A   1      31.146  24.703  23.332  1.00  0.00     0.005 A 
ATOM     14  C   UNL A   1      33.227  24.467  22.180  1.00  0.00     0.005 A 
BRANCH  10  15
ATOM     15  C   UNL A   1      32.472  21.215  24.037  1.00  0.00    -0.018 A 
ATOM     16  C   UNL A   1      32.659  18.788  23.711  1.00  0.00    -0.044 A 
ATOM     17  C   UNL A   1      32.711  18.603  25.099  1.00  0.00     0.004 A 
ATOM     18  C   UNL A   1      32.559  20.092  23.194  1.00  0.00     0.012 A 
ATOM     19  C   UNL A   1      32.623  19.695  25.953  1.00  0.00     0.001 A 
ATOM     20  C   UNL A   1      32.490  20.980  25.426  1.00  0.00     0.009 A 
BRANCH  16  21
ATOM     21  C   UNL A   1      32.638  17.590  22.791  1.00  0.00     0.062 C 
BRANCH  21  22
ATOM     22  C   UNL A   1      33.957  16.867  22.806  1.00  0.00    -0.030 C 
ATOM     23  C   UNL A   1      34.437  16.171  23.844  1.00  0.00     0.004 C 
ENDBRANCH  21  22
ENDBRANCH  16  21
ENDBRANCH  10  15
ENDBRANCH   7   9
ENDBRANCH   4   7
ENDBRANCH   2   3
ENDBRANCH   1   2
BRANCH   1  24
ATOM     24  C   UNL A   1      33.827  24.681  26.011  1.00  0.00     0.002 C 
BRANCH  24  25
ATOM     25  C   UNL A   1      34.837  23.633  26.496  1.00  0.00     0.002 C 
BRANCH  25  26
ATOM     26  C   UNL A   1      35.705  23.015  25.397  1.00  0.00     0.021 C 
BRANCH  26  27
ATOM     27  C   UNL A   1      37.084  23.649  25.269  1.00  0.00     0.116 C 
BRANCH  27  28
ATOM     28  N   UNL A   1      38.139  22.709  25.617  1.00  0.00    -0.352 N 
ATOM     29  C   UNL A   1      39.353  22.954  26.209  1.00  0.00     0.251 C 
ATOM     30  H   UNL A   1      37.957  21.766  25.398  1.00  0.00     0.163 HD
ATOM     31  O   UNL A   1      40.235  22.104  26.213  1.00  0.00    -0.269 OA
BRANCH  29  32
ATOM     32  C   UNL A   1      39.584  24.267  26.842  1.00  0.00     0.039 A 
ATOM     33  C   UNL A   1      39.132  24.493  28.144  1.00  0.00     0.014 A 
ATOM     34  C   UNL A   1      40.264  25.265  26.141  1.00  0.00     0.014 A 
ATOM     35  C   UNL A   1      39.415  25.710  28.767  1.00  0.00     0.010 A 
ATOM     36  C   UNL A   1      40.614  26.441  26.789  1.00  0.00     0.010 A 
ATOM     37  C   UNL A   1      40.184  26.681  28.104  1.00  0.00    -0.014 A 
BRANCH  37  38
ATOM     38  C   UNL A   1      40.530  27.975  28.738  1.00  0.00     0.031 A 
ATOM     39  C   UNL A   1      41.877  28.141  29.390  1.00  0.00     0.074 A 
ATOM     40  C   UNL A   1      39.614  28.959  28.812  1.00  0.00     0.049 A 
ATOM     41  N   UNL A   1      42.323  29.126  30.125  1.00  0.00    -0.248 NA
ATOM     42  C   UNL A   1      42.834  27.036  29.215  1.00  0.00     0.031 C 
ATOM     43  C   UNL A   1      38.266  28.912  28.243  1.00  0.00     0.029 A 
ATOM     44  N   UNL A   1      39.674  30.188  29.420  1.00  0.00    -0.354 N 
ATOM     45  C   UNL A   1      43.601  28.747  30.519  1.00  0.00     0.074 A 
ATOM     46  C   UNL A   1      43.835  27.422  29.990  1.00  0.00     0.031 C 
ATOM     47  C   UNL A   1      37.632  30.063  28.518  1.00  0.00     0.029 A 
ATOM     48  C   UNL A   1      38.508  30.908  29.324  1.00  0.00     0.049 A 
ATOM     49  H   UNL A   1      40.478  30.523  29.881  1.00  0.00     0.167 HD
ATOM     50  C   UNL A   1      44.508  29.449  31.239  1.00  0.00     0.031 A 
ATOM     51  C   UNL A   1      38.175  32.103  29.846  1.00  0.00     0.031 A 
ATOM     52  C   UNL A   1      44.274  30.769  31.758  1.00  0.00     0.049 A 
ATOM     53  C   UNL A   1      39.186  32.851  30.672  1.00  0.00     0.074 A 
ATOM     54  C   UNL A   1      45.139  31.582  32.468  1.00  0.00     0.029 A 
ATOM     55  N   UNL A   1      43.086  31.470  31.619  1.00  0.00    -0.354 N 
ATOM     56  N   UNL A   1      40.408  32.502  30.997  1.00  0.00    -0.248 NA
ATOM     57  C   UNL A   1      38.778  34.163  31.195  1.00  0.00     0.031 C 
ATOM     58  C   UNL A   1      44.457  32.754  32.806  1.00  0.00     0.029 A 
ATOM     59  C   UNL A   1      43.190  32.700  32.247  1.00  0.00     0.049 A 
ATOM     60  H   UNL A   1      42.287  31.143  31.146  1.00  0.00     0.167 HD
ATOM     61  C   UNL A   1      40.926  33.566  31.725  1.00  0.00     0.074 A 
ATOM     62  C   UNL A   1      39.890  34.574  31.789  1.00  0.00     0.031 C 
ATOM     63  C   UNL A   1      42.154  33.698  32.285  1.00  0.00     0.031 A 
BRANCH  50  64
ATOM     64  C   UNL A   1      45.833  28.793  31.514  1.00  0.00    -0.014 A 
ATOM     65  C   UNL A   1      46.919  28.951  30.638  1.00  0.00     0.009 A 
ATOM     66  C   UNL A   1      46.007  28.030  32.678  1.00  0.00     0.009 A 
ATOM     67  C   UNL A   1      48.139  28.325  30.901  1.00  0.00     0.001 A 
ATOM     68  C   UNL A   1      47.238  27.433  32.958  1.00  0.00     0.001 A 
ATOM     69  C   UNL A   1      48.299  27.571  32.063  1.00  0.00     0.000 A 
ENDBRANCH  50  64
BRANCH  51  70
ATOM     70  C   UNL A   1      36.821  32.672  29.609  1.00  0.00    -0.014 A 
ATOM     71  C   UNL A   1      35.788  32.473  30.537  1.00  0.00     0.009 A 
ATOM     72  C   UNL A   1      36.550  33.407  28.443  1.00  0.00     0.009 A 
ATOM     73  C   UNL A   1      34.505  32.966  30.287  1.00  0.00     0.001 A 
ATOM     74  C   UNL A   1      35.275  33.928  28.212  1.00  0.00     0.001 A 
ATOM     75  C   UNL A   1      34.251  33.696  29.128  1.00  0.00     0.000 A 
ENDBRANCH  51  70
BRANCH  63  76
ATOM     76  C   UNL A   1      42.475  35.002  32.961  1.00  0.00    -0.014 A 
ATOM     77  C   UNL A   1      42.103  35.254  34.290  1.00  0.00     0.009 A 
ATOM     78  C   UNL A   1      43.229  35.964  32.271  1.00  0.00     0.009 A 
ATOM     79  C   UNL A   1      42.462  36.455  34.906  1.00  0.00     0.001 A 
ATOM     80  C   UNL A   1      43.614  37.149  32.898  1.00  0.00     0.001 A 
ATOM     81  C   UNL A   1      43.223  37.397  34.213  1.00  0.00     0.000 A 
ENDBRANCH  63  76
ENDBRANCH  37  38
ENDBRANCH  29  32
ENDBRANCH  27  28
ENDBRANCH  26  27
ENDBRANCH  25  26
ENDBRANCH  24  25
ENDBRANCH   1  24
TORSDOF 17
ENDMDL
MODEL 3
REMARK VINA RESULT:     -10.5      1.285      1.760
REMARK SMILES C=CCc1cccc(-c2ccc([C@@H](C)C(=O)NCCCCCCNC(=O)c3ccc(-c4c5nc(c(-c6ccccc6)c6ccc([nH]6)c(-c6ccccc6)c6nc(c(-c7ccccc7)c7ccc4[nH]7)C=C6)C=C5)cc3)cc2)c1
REMARK SMILES IDX 19 1 18 2 17 3 15 4 16 5 13 7 14 8 12 9 9 10 10 11 76 12
REMARK SMILES IDX 11 13 75 14 8 15 4 16 5 17 77 18 6 19 7 20 3 21 2 22 1 23
REMARK SMILES IDX 20 24 21 25 22 26 23 27 24 28 25 29 26 31 27 32 28 33 74 34
REMARK SMILES IDX 29 35 73 36 30 37 31 38 32 39 67 40 33 41 72 42 66 43 68 44
REMARK SMILES IDX 34 45 71 46 65 47 64 48 35 50 57 51 42 52 56 53 43 54 46 55
REMARK SMILES IDX 55 56 69 57 44 58 45 59 54 61 70 62 47 63 36 64 37 65 41 66
REMARK SMILES IDX 38 67 40 68 39 69 58 70 59 71 63 72 60 73 62 74 61 75 48 76
REMARK SMILES IDX 49 77 53 78 50 79 52 80 51 81
REMARK H PARENT 17 6 24 30 68 49 46 60
REMARK Flexibility Score: inf
ROOT
ATOM      1  C   UNL A   1      34.129  25.442  25.705  1.00  0.00     0.021 C 
ENDROOT
BRANCH   1   2
ATOM      2  C   UNL A   1      35.123  24.287  25.569  1.00  0.00     0.116 C 
BRANCH   2   3
ATOM      3  N   UNL A   1      34.770  23.410  24.475  1.00  0.00    -0.356 N 
ATOM      4  C   UNL A   1      33.662  22.656  24.243  1.00  0.00     0.227 C 
ATOM      5  O   UNL A   1      33.700  21.918  23.251  1.00  0.00    -0.274 OA
ATOM      6  H   UNL A   1      35.456  23.347  23.772  1.00  0.00     0.163 HD
BRANCH   4   7
ATOM      7  C   UNL A   1      32.397  22.703  25.115  1.00  0.00     0.105 C 
ATOM      8  C   UNL A   1      31.770  21.331  25.364  1.00  0.00     0.023 C 
BRANCH   7   9
ATOM      9  C   UNL A   1      31.429  23.813  24.734  1.00  0.00    -0.036 A 
ATOM     10  C   UNL A   1      29.726  26.021  24.092  1.00  0.00    -0.018 A 
ATOM     11  C   UNL A   1      30.386  25.283  23.099  1.00  0.00     0.009 A 
ATOM     12  C   UNL A   1      29.917  25.608  25.418  1.00  0.00     0.009 A 
ATOM     13  C   UNL A   1      31.179  24.175  23.410  1.00  0.00     0.005 A 
ATOM     14  C   UNL A   1      30.770  24.539  25.736  1.00  0.00     0.005 A 
BRANCH  10  15
ATOM     15  C   UNL A   1      28.865  27.169  23.726  1.00  0.00    -0.018 A 
ATOM     16  C   UNL A   1      28.561  29.435  22.826  1.00  0.00    -0.044 A 
ATOM     17  C   UNL A   1      27.176  29.319  22.997  1.00  0.00     0.004 A 
ATOM     18  C   UNL A   1      29.390  28.353  23.175  1.00  0.00     0.012 A 
ATOM     19  C   UNL A   1      26.633  28.163  23.543  1.00  0.00     0.001 A 
ATOM     20  C   UNL A   1      27.470  27.111  23.915  1.00  0.00     0.009 A 
BRANCH  16  21
ATOM     21  C   UNL A   1      29.156  30.736  22.342  1.00  0.00     0.062 C 
BRANCH  21  22
ATOM     22  C   UNL A   1      28.449  31.919  22.948  1.00  0.00    -0.030 C 
ATOM     23  C   UNL A   1      28.948  33.159  23.010  1.00  0.00     0.004 C 
ENDBRANCH  21  22
ENDBRANCH  16  21
ENDBRANCH  10  15
ENDBRANCH   7   9
ENDBRANCH   4   7
ENDBRANCH   2   3
ENDBRANCH   1   2
BRANCH   1  24
ATOM     24  C   UNL A   1      34.040  26.322  24.455  1.00  0.00     0.002 C 
BRANCH  24  25
ATOM     25  C   UNL A   1      32.995  27.442  24.530  1.00  0.00     0.002 C 
BRANCH  25  26
ATOM     26  C   UNL A   1      33.549  28.818  24.909  1.00  0.00     0.021 C 
BRANCH  26  27
ATOM     27  C   UNL A   1      33.843  28.977  26.395  1.00  0.00     0.116 C 
BRANCH  27  28
ATOM     28  N   UNL A   1      33.819  30.375  26.798  1.00  0.00    -0.352 N 
ATOM     29  C   UNL A   1      34.644  31.035  27.675  1.00  0.00     0.251 C 
ATOM     30  H   UNL A   1      33.114  30.925  26.385  1.00  0.00     0.163 HD
ATOM     31  O   UNL A   1      34.352  32.144  28.102  1.00  0.00    -0.269 OA
BRANCH  29  32
ATOM     32  C   UNL A   1      35.898  30.381  28.102  1.00  0.00     0.039 A 
ATOM     33  C   UNL A   1      37.010  30.410  27.259  1.00  0.00     0.014 A 
ATOM     34  C   UNL A   1      35.963  29.755  29.348  1.00  0.00     0.014 A 
ATOM     35  C   UNL A   1      38.215  29.854  27.694  1.00  0.00     0.010 A 
ATOM     36  C   UNL A   1      37.181  29.277  29.811  1.00  0.00     0.010 A 
ATOM     37  C   UNL A   1      38.316  29.311  28.986  1.00  0.00    -0.014 A 
BRANCH  37  38
ATOM     38  C   UNL A   1      39.583  28.736  29.498  1.00  0.00     0.031 A 
ATOM     39  C   UNL A   1      40.430  29.542  30.446  1.00  0.00     0.074 A 
ATOM     40  C   UNL A   1      40.017  27.544  29.046  1.00  0.00     0.049 A 
ATOM     41  N   UNL A   1      41.633  29.295  30.893  1.00  0.00    -0.248 NA
ATOM     42  C   UNL A   1      39.855  30.809  30.929  1.00  0.00     0.031 C 
ATOM     43  C   UNL A   1      39.301  26.677  28.108  1.00  0.00     0.029 A 
ATOM     44  N   UNL A   1      41.181  26.864  29.303  1.00  0.00    -0.354 N 
ATOM     45  C   UNL A   1      41.967  30.386  31.687  1.00  0.00     0.074 A 
ATOM     46  C   UNL A   1      40.865  31.318  31.615  1.00  0.00     0.031 C 
ATOM     47  C   UNL A   1      40.035  25.577  27.878  1.00  0.00     0.029 A 
ATOM     48  C   UNL A   1      41.293  25.683  28.610  1.00  0.00     0.049 A 
ATOM     49  H   UNL A   1      41.870  27.191  29.926  1.00  0.00     0.167 HD
ATOM     50  C   UNL A   1      43.083  30.583  32.428  1.00  0.00     0.031 A 
ATOM     51  C   UNL A   1      42.306  24.797  28.554  1.00  0.00     0.031 A 
ATOM     52  C   UNL A   1      44.174  29.650  32.502  1.00  0.00     0.049 A 
ATOM     53  C   UNL A   1      43.551  25.053  29.360  1.00  0.00     0.074 A 
ATOM     54  C   UNL A   1      45.333  29.737  33.252  1.00  0.00     0.029 A 
ATOM     55  N   UNL A   1      44.237  28.456  31.801  1.00  0.00    -0.354 N 
ATOM     56  N   UNL A   1      43.833  26.065  30.144  1.00  0.00    -0.248 NA
ATOM     57  C   UNL A   1      44.613  24.040  29.282  1.00  0.00     0.031 C 
ATOM     58  C   UNL A   1      46.123  28.622  32.964  1.00  0.00     0.029 A 
ATOM     59  C   UNL A   1      45.425  27.806  32.088  1.00  0.00     0.049 A 
ATOM     60  H   UNL A   1      43.542  28.120  31.190  1.00  0.00     0.167 HD
ATOM     61  C   UNL A   1      45.084  25.791  30.683  1.00  0.00     0.074 A 
ATOM     62  C   UNL A   1      45.503  24.516  30.142  1.00  0.00     0.031 C 
ATOM     63  C   UNL A   1      45.817  26.527  31.553  1.00  0.00     0.031 A 
BRANCH  50  64
ATOM     64  C   UNL A   1      43.179  31.865  33.208  1.00  0.00    -0.014 A 
ATOM     65  C   UNL A   1      42.697  31.954  34.525  1.00  0.00     0.009 A 
ATOM     66  C   UNL A   1      43.784  32.992  32.631  1.00  0.00     0.009 A 
ATOM     67  C   UNL A   1      42.782  33.155  35.231  1.00  0.00     0.001 A 
ATOM     68  C   UNL A   1      43.900  34.182  33.353  1.00  0.00     0.001 A 
ATOM     69  C   UNL A   1      43.388  34.266  34.647  1.00  0.00     0.000 A 
ENDBRANCH  50  64
BRANCH  51  70
ATOM     70  C   UNL A   1      42.190  23.582  27.704  1.00  0.00    -0.014 A 
ATOM     71  C   UNL A   1      41.667  22.390  28.226  1.00  0.00     0.009 A 
ATOM     72  C   UNL A   1      42.617  23.604  26.366  1.00  0.00     0.009 A 
ATOM     73  C   UNL A   1      41.607  21.236  27.439  1.00  0.00     0.001 A 
ATOM     74  C   UNL A   1      42.524  22.460  25.571  1.00  0.00     0.001 A 
ATOM     75  C   UNL A   1      42.030  21.274  26.112  1.00  0.00     0.000 A 
ENDBRANCH  51  70
BRANCH  63  76
ATOM     76  C   UNL A   1      47.120  25.949  32.032  1.00  0.00    -0.014 A 
ATOM     77  C   UNL A   1      48.328  26.202  31.365  1.00  0.00     0.009 A 
ATOM     78  C   UNL A   1      47.141  25.196  33.216  1.00  0.00     0.009 A 
ATOM     79  C   UNL A   1      49.528  25.692  31.864  1.00  0.00     0.001 A 
ATOM     80  C   UNL A   1      48.345  24.714  33.730  1.00  0.00     0.001 A 
ATOM     81  C   UNL A   1      49.537  24.957  33.050  1.00  0.00     0.000 A 
ENDBRANCH  63  76
ENDBRANCH  37  38
ENDBRANCH  29  32
ENDBRANCH  27  28
ENDBRANCH  26  27
ENDBRANCH  25  26
ENDBRANCH  24  25
ENDBRANCH   1  24
TORSDOF 17
ENDMDL
