MODEL 1
REMARK VINA RESULT:      -9.0      0.000      0.000
REMARK SMILES COc1ccc(N2C(=O)/C(=C/c3c(C(=O)NCCCCCCNC(=O)c4ccc(-c5c6nc(c(-c7ccccc7)c7ccc([nH]7)c(-c7ccccc7)c7nc(c(-c8ccccc8)c8ccc5[nH]8)C=C7)C=C6)cc4)[nH]c4cc(OC)ccc34)SC2=S)cc1
REMARK SMILES IDX 19 1 18 2 17 3 16 4 14 5 15 6 13 8 12 9 82 10 74 11 75 12
REMARK SMILES IDX 81 13 76 15 80 16 77 17 11 18 7 19 8 20 84 21 9 22 10 23
REMARK SMILES IDX 83 24 85 25 6 26 3 27 4 28 87 29 5 30 86 31 2 32 1 33 78 34
REMARK SMILES IDX 79 35 20 36 21 37 22 38 23 39 24 40 25 42 26 43 27 44 73 45
REMARK SMILES IDX 28 46 72 47 29 48 30 49 31 50 66 51 32 52 71 53 65 54 67 55
REMARK SMILES IDX 33 56 70 57 64 58 63 59 34 61 56 62 41 63 55 64 42 65 45 66
REMARK SMILES IDX 54 67 68 68 43 69 44 70 53 72 69 73 46 74 35 75 36 76 40 77
REMARK SMILES IDX 37 78 39 79 38 80 57 81 58 82 62 83 59 84 61 85 60 86 47 87
REMARK SMILES IDX 48 88 52 89 49 90 51 91 50 92
REMARK H PARENT 16 7 74 14 23 41 67 60 45 71
REMARK Flexibility Score: inf
ROOT
ATOM      1  C   UNL A   1      43.132  35.406  26.359  1.00  0.00     0.002 C 
ENDROOT
BRANCH   1   2
ATOM      2  C   UNL A   1      41.835  36.101  26.786  1.00  0.00     0.021 C 
BRANCH   2   3
ATOM      3  C   UNL A   1      42.007  37.501  27.379  1.00  0.00     0.116 C 
BRANCH   3   4
ATOM      4  N   UNL A   1      41.531  38.568  26.513  1.00  0.00    -0.351 N 
ATOM      5  C   UNL A   1      41.567  39.923  26.746  1.00  0.00     0.268 C 
ATOM      6  O   UNL A   1      40.883  40.656  26.036  1.00  0.00    -0.268 OA
ATOM      7  H   UNL A   1      41.137  38.287  25.655  1.00  0.00     0.163 HD
BRANCH   5   8
ATOM      8  C   UNL A   1      42.325  40.417  27.868  1.00  0.00     0.112 A 
ATOM      9  C   UNL A   1      43.687  40.445  28.178  1.00  0.00     0.014 A 
ATOM     10  C   UNL A   1      43.738  40.547  29.615  1.00  0.00     0.008 A 
ATOM     11  N   UNL A   1      41.704  41.092  28.886  1.00  0.00    -0.350 N 
ATOM     12  C   UNL A   1      42.468  40.976  30.016  1.00  0.00     0.050 A 
ATOM     13  C   UNL A   1      44.678  40.315  30.647  1.00  0.00     0.015 A 
ATOM     14  H   UNL A   1      40.851  41.579  28.817  1.00  0.00     0.167 HD
ATOM     15  C   UNL A   1      42.094  41.198  31.341  1.00  0.00     0.073 A 
ATOM     16  C   UNL A   1      44.289  40.461  32.006  1.00  0.00     0.047 A 
ATOM     17  C   UNL A   1      43.011  40.903  32.346  1.00  0.00     0.120 A 
BRANCH   9  18
ATOM     18  C   UNL A   1      44.700  40.167  27.181  1.00  0.00     0.032 C 
ATOM     19  N   UNL A   1      46.147  42.403  24.819  1.00  0.00    -0.261 N 
ATOM     20  C   UNL A   1      46.074  41.079  25.286  1.00  0.00     0.270 C 
ATOM     21  C   UNL A   1      46.065  43.396  25.789  1.00  0.00     0.152 C 
ATOM     22  O   UNL A   1      46.266  40.042  24.664  1.00  0.00    -0.268 OA
ATOM     23  C   UNL A   1      45.552  41.100  26.695  1.00  0.00     0.081 C 
ATOM     24  S   UNL A   1      45.874  42.653  27.370  1.00  0.00    -0.054 SA
ATOM     25  S   UNL A   1      46.208  45.057  25.642  1.00  0.00    -0.051 S 
BRANCH  19  26
ATOM     26  C   UNL A   1      46.238  42.695  23.421  1.00  0.00     0.051 A 
ATOM     27  C   UNL A   1      46.463  43.306  20.668  1.00  0.00     0.119 A 
ATOM     28  C   UNL A   1      47.605  43.140  21.446  1.00  0.00     0.048 A 
ATOM     29  C   UNL A   1      45.209  43.160  21.261  1.00  0.00     0.048 A 
ATOM     30  C   UNL A   1      47.496  42.828  22.806  1.00  0.00     0.030 A 
ATOM     31  C   UNL A   1      45.096  42.885  22.636  1.00  0.00     0.030 A 
BRANCH  27  32
ATOM     32  O   UNL A   1      46.700  43.583  19.352  1.00  0.00    -0.497 OA
ATOM     33  C   UNL A   1      47.878  44.327  19.058  1.00  0.00     0.278 C 
ENDBRANCH  27  32
ENDBRANCH  19  26
ENDBRANCH   9  18
BRANCH  17  34
ATOM     34  O   UNL A   1      42.489  41.075  33.598  1.00  0.00    -0.497 OA
ATOM     35  C   UNL A   1      42.284  42.395  34.070  1.00  0.00     0.278 C 
ENDBRANCH  17  34
ENDBRANCH   5   8
ENDBRANCH   3   4
ENDBRANCH   2   3
ENDBRANCH   1   2
BRANCH   1  36
ATOM     36  C   UNL A   1      43.031  34.573  25.082  1.00  0.00     0.002 C 
BRANCH  36  37
ATOM     37  C   UNL A   1      44.276  33.833  24.622  1.00  0.00     0.021 C 
BRANCH  37  38
ATOM     38  C   UNL A   1      45.468  33.950  25.560  1.00  0.00     0.116 C 
BRANCH  38  39
ATOM     39  N   UNL A   1      46.575  34.788  25.101  1.00  0.00    -0.352 N 
ATOM     40  C   UNL A   1      47.353  35.633  25.862  1.00  0.00     0.251 C 
ATOM     41  H   UNL A   1      46.787  34.744  24.141  1.00  0.00     0.163 HD
ATOM     42  O   UNL A   1      48.311  36.241  25.395  1.00  0.00    -0.269 OA
BRANCH  40  43
ATOM     43  C   UNL A   1      46.945  35.874  27.252  1.00  0.00     0.039 A 
ATOM     44  C   UNL A   1      46.102  36.955  27.516  1.00  0.00     0.014 A 
ATOM     45  C   UNL A   1      47.238  34.926  28.232  1.00  0.00     0.014 A 
ATOM     46  C   UNL A   1      45.453  37.022  28.745  1.00  0.00     0.010 A 
ATOM     47  C   UNL A   1      46.498  34.928  29.400  1.00  0.00     0.010 A 
ATOM     48  C   UNL A   1      45.599  35.973  29.664  1.00  0.00    -0.014 A 
BRANCH  48  49
ATOM     49  C   UNL A   1      44.847  35.951  30.936  1.00  0.00     0.031 A 
ATOM     50  C   UNL A   1      43.506  35.279  30.965  1.00  0.00     0.074 A 
ATOM     51  C   UNL A   1      45.328  36.609  32.008  1.00  0.00     0.049 A 
ATOM     52  N   UNL A   1      42.616  35.253  31.920  1.00  0.00    -0.248 NA
ATOM     53  C   UNL A   1      43.087  34.589  29.731  1.00  0.00     0.031 C 
ATOM     54  C   UNL A   1      46.592  37.350  32.059  1.00  0.00     0.029 A 
ATOM     55  N   UNL A   1      44.804  36.765  33.264  1.00  0.00    -0.354 N 
ATOM     56  C   UNL A   1      41.518  34.592  31.383  1.00  0.00     0.074 A 
ATOM     57  C   UNL A   1      41.829  34.284  30.007  1.00  0.00     0.031 C 
ATOM     58  C   UNL A   1      46.762  37.848  33.295  1.00  0.00     0.029 A 
ATOM     59  C   UNL A   1      45.605  37.496  34.109  1.00  0.00     0.049 A 
ATOM     60  H   UNL A   1      43.936  36.391  33.536  1.00  0.00     0.167 HD
ATOM     61  C   UNL A   1      40.362  34.247  31.995  1.00  0.00     0.031 A 
ATOM     62  C   UNL A   1      45.419  37.834  35.398  1.00  0.00     0.031 A 
ATOM     63  C   UNL A   1      40.096  34.512  33.380  1.00  0.00     0.049 A 
ATOM     64  C   UNL A   1      44.161  37.368  36.080  1.00  0.00     0.074 A 
ATOM     65  C   UNL A   1      38.997  34.153  34.136  1.00  0.00     0.029 A 
ATOM     66  N   UNL A   1      40.965  35.192  34.224  1.00  0.00    -0.354 N 
ATOM     67  N   UNL A   1      43.155  36.691  35.579  1.00  0.00    -0.248 NA
ATOM     68  C   UNL A   1      44.020  37.697  37.504  1.00  0.00     0.031 C 
ATOM     69  C   UNL A   1      39.188  34.639  35.434  1.00  0.00     0.029 A 
ATOM     70  C   UNL A   1      40.425  35.266  35.493  1.00  0.00     0.049 A 
ATOM     71  H   UNL A   1      41.835  35.566  33.957  1.00  0.00     0.167 HD
ATOM     72  C   UNL A   1      42.268  36.497  36.628  1.00  0.00     0.074 A 
ATOM     73  C   UNL A   1      42.870  37.106  37.799  1.00  0.00     0.031 C 
ATOM     74  C   UNL A   1      41.062  35.879  36.630  1.00  0.00     0.031 A 
BRANCH  61  75
ATOM     75  C   UNL A   1      39.324  33.556  31.159  1.00  0.00    -0.014 A 
ATOM     76  C   UNL A   1      39.281  32.155  31.060  1.00  0.00     0.009 A 
ATOM     77  C   UNL A   1      38.387  34.314  30.441  1.00  0.00     0.009 A 
ATOM     78  C   UNL A   1      38.356  31.532  30.218  1.00  0.00     0.001 A 
ATOM     79  C   UNL A   1      37.443  33.687  29.626  1.00  0.00     0.001 A 
ATOM     80  C   UNL A   1      37.437  32.298  29.503  1.00  0.00     0.000 A 
ENDBRANCH  61  75
BRANCH  62  81
ATOM     81  C   UNL A   1      46.449  38.617  36.131  1.00  0.00    -0.014 A 
ATOM     82  C   UNL A   1      47.505  37.964  36.788  1.00  0.00     0.009 A 
ATOM     83  C   UNL A   1      46.389  40.018  36.180  1.00  0.00     0.009 A 
ATOM     84  C   UNL A   1      48.459  38.694  37.501  1.00  0.00     0.001 A 
ATOM     85  C   UNL A   1      47.359  40.748  36.873  1.00  0.00     0.001 A 
ATOM     86  C   UNL A   1      48.387  40.086  37.540  1.00  0.00     0.000 A 
ENDBRANCH  62  81
BRANCH  74  87
ATOM     87  C   UNL A   1      40.339  35.817  37.942  1.00  0.00    -0.014 A 
ATOM     88  C   UNL A   1      40.421  34.679  38.758  1.00  0.00     0.009 A 
ATOM     89  C   UNL A   1      39.606  36.929  38.385  1.00  0.00     0.009 A 
ATOM     90  C   UNL A   1      39.755  34.645  39.983  1.00  0.00     0.001 A 
ATOM     91  C   UNL A   1      38.964  36.901  39.621  1.00  0.00     0.001 A 
ATOM     92  C   UNL A   1      39.031  35.756  40.416  1.00  0.00     0.000 A 
ENDBRANCH  74  87
ENDBRANCH  48  49
ENDBRANCH  40  43
ENDBRANCH  38  39
ENDBRANCH  37  38
ENDBRANCH  36  37
ENDBRANCH   1  36
TORSDOF 17
ENDMDL
MODEL 2
REMARK VINA RESULT:      -9.0      7.589     13.785
REMARK SMILES COc1ccc(N2C(=O)/C(=C/c3c(C(=O)NCCCCCCNC(=O)c4ccc(-c5c6nc(c(-c7ccccc7)c7ccc([nH]7)c(-c7ccccc7)c7nc(c(-c8ccccc8)c8ccc5[nH]8)C=C7)C=C6)cc4)[nH]c4cc(OC)ccc34)SC2=S)cc1
REMARK SMILES IDX 19 1 18 2 17 3 16 4 14 5 15 6 13 8 12 9 82 10 74 11 75 12
REMARK SMILES IDX 81 13 76 15 80 16 77 17 11 18 7 19 8 20 84 21 9 22 10 23
REMARK SMILES IDX 83 24 85 25 6 26 3 27 4 28 87 29 5 30 86 31 2 32 1 33 78 34
REMARK SMILES IDX 79 35 20 36 21 37 22 38 23 39 24 40 25 42 26 43 27 44 73 45
REMARK SMILES IDX 28 46 72 47 29 48 30 49 31 50 66 51 32 52 71 53 65 54 67 55
REMARK SMILES IDX 33 56 70 57 64 58 63 59 34 61 56 62 41 63 55 64 42 65 45 66
REMARK SMILES IDX 54 67 68 68 43 69 44 70 53 72 69 73 46 74 35 75 36 76 40 77
REMARK SMILES IDX 37 78 39 79 38 80 57 81 58 82 62 83 59 84 61 85 60 86 47 87
REMARK SMILES IDX 48 88 52 89 49 90 51 91 50 92
REMARK H PARENT 16 7 74 14 23 41 67 60 45 71
REMARK Flexibility Score: inf
ROOT
ATOM      1  C   UNL A   1      38.883  27.626  28.432  1.00  0.00     0.002 C 
ENDROOT
BRANCH   1   2
ATOM      2  C   UNL A   1      39.261  28.927  29.149  1.00  0.00     0.021 C 
BRANCH   2   3
ATOM      3  C   UNL A   1      38.512  30.175  28.680  1.00  0.00     0.116 C 
BRANCH   3   4
ATOM      4  N   UNL A   1      37.212  29.894  28.090  1.00  0.00    -0.351 N 
ATOM      5  C   UNL A   1      35.976  30.294  28.541  1.00  0.00     0.268 C 
ATOM      6  O   UNL A   1      34.980  29.745  28.077  1.00  0.00    -0.268 OA
ATOM      7  H   UNL A   1      37.218  29.353  27.267  1.00  0.00     0.163 HD
BRANCH   5   8
ATOM      8  C   UNL A   1      35.904  31.267  29.602  1.00  0.00     0.112 A 
ATOM      9  C   UNL A   1      35.995  31.189  30.994  1.00  0.00     0.014 A 
ATOM     10  C   UNL A   1      35.307  32.360  31.477  1.00  0.00     0.008 A 
ATOM     11  N   UNL A   1      35.797  32.603  29.317  1.00  0.00    -0.350 N 
ATOM     12  C   UNL A   1      35.220  33.233  30.387  1.00  0.00     0.050 A 
ATOM     13  C   UNL A   1      34.718  32.803  32.685  1.00  0.00     0.015 A 
ATOM     14  H   UNL A   1      36.087  33.038  28.483  1.00  0.00     0.167 HD
ATOM     15  C   UNL A   1      34.617  34.489  30.431  1.00  0.00     0.073 A 
ATOM     16  C   UNL A   1      34.031  34.046  32.725  1.00  0.00     0.047 A 
ATOM     17  C   UNL A   1      33.988  34.881  31.609  1.00  0.00     0.120 A 
BRANCH   9  18
ATOM     18  C   UNL A   1      36.484  29.999  31.659  1.00  0.00     0.032 C 
ATOM     19  N   UNL A   1      39.698  29.426  33.079  1.00  0.00    -0.261 N 
ATOM     20  C   UNL A   1      38.439  28.881  32.773  1.00  0.00     0.270 C 
ATOM     21  C   UNL A   1      39.706  30.761  33.468  1.00  0.00     0.152 C 
ATOM     22  O   UNL A   1      38.150  27.712  32.552  1.00  0.00    -0.268 OA
ATOM     23  C   UNL A   1      37.464  30.009  32.594  1.00  0.00     0.081 C 
ATOM     24  S   UNL A   1      38.062  31.385  33.444  1.00  0.00    -0.054 SA
ATOM     25  S   UNL A   1      40.971  31.720  33.997  1.00  0.00    -0.051 S 
BRANCH  19  26
ATOM     26  C   UNL A   1      40.897  28.657  32.934  1.00  0.00     0.051 A 
ATOM     27  C   UNL A   1      43.282  27.155  32.701  1.00  0.00     0.119 A 
ATOM     28  C   UNL A   1      42.590  27.190  33.908  1.00  0.00     0.048 A 
ATOM     29  C   UNL A   1      42.781  27.862  31.608  1.00  0.00     0.048 A 
ATOM     30  C   UNL A   1      41.404  27.925  34.023  1.00  0.00     0.030 A 
ATOM     31  C   UNL A   1      41.611  28.633  31.732  1.00  0.00     0.030 A 
BRANCH  27  32
ATOM     32  O   UNL A   1      44.409  26.384  32.709  1.00  0.00    -0.497 OA
ATOM     33  C   UNL A   1      44.583  25.518  33.825  1.00  0.00     0.278 C 
ENDBRANCH  27  32
ENDBRANCH  19  26
ENDBRANCH   9  18
BRANCH  17  34
ATOM     34  O   UNL A   1      33.358  36.089  31.490  1.00  0.00    -0.497 OA
ATOM     35  C   UNL A   1      32.719  36.634  32.631  1.00  0.00     0.278 C 
ENDBRANCH  17  34
ENDBRANCH   5   8
ENDBRANCH   3   4
ENDBRANCH   2   3
ENDBRANCH   1   2
BRANCH   1  36
ATOM     36  C   UNL A   1      39.925  26.512  28.519  1.00  0.00     0.002 C 
BRANCH  36  37
ATOM     37  C   UNL A   1      39.523  25.131  28.031  1.00  0.00     0.021 C 
BRANCH  37  38
ATOM     38  C   UNL A   1      39.873  24.844  26.578  1.00  0.00     0.116 C 
BRANCH  38  39
ATOM     39  N   UNL A   1      40.723  23.680  26.333  1.00  0.00    -0.352 N 
ATOM     40  C   UNL A   1      42.100  23.632  26.357  1.00  0.00     0.251 C 
ATOM     41  H   UNL A   1      40.260  22.836  26.127  1.00  0.00     0.163 HD
ATOM     42  O   UNL A   1      42.722  22.585  26.210  1.00  0.00    -0.269 OA
BRANCH  40  43
ATOM     43  C   UNL A   1      42.827  24.903  26.465  1.00  0.00     0.039 A 
ATOM     44  C   UNL A   1      43.377  25.249  27.701  1.00  0.00     0.014 A 
ATOM     45  C   UNL A   1      43.119  25.631  25.312  1.00  0.00     0.014 A 
ATOM     46  C   UNL A   1      44.323  26.267  27.759  1.00  0.00     0.010 A 
ATOM     47  C   UNL A   1      44.148  26.554  25.352  1.00  0.00     0.010 A 
ATOM     48  C   UNL A   1      44.758  26.877  26.574  1.00  0.00    -0.014 A 
BRANCH  48  49
ATOM     49  C   UNL A   1      45.836  27.888  26.578  1.00  0.00     0.031 A 
ATOM     50  C   UNL A   1      45.466  29.332  26.747  1.00  0.00     0.074 A 
ATOM     51  C   UNL A   1      47.106  27.510  26.337  1.00  0.00     0.049 A 
ATOM     52  N   UNL A   1      46.219  30.394  26.648  1.00  0.00    -0.248 NA
ATOM     53  C   UNL A   1      44.044  29.622  27.007  1.00  0.00     0.031 C 
ATOM     54  C   UNL A   1      47.558  26.137  26.093  1.00  0.00     0.029 A 
ATOM     55  N   UNL A   1      48.254  28.253  26.251  1.00  0.00    -0.354 N 
ATOM     56  C   UNL A   1      45.354  31.473  26.783  1.00  0.00     0.074 A 
ATOM     57  C   UNL A   1      44.017  30.941  26.913  1.00  0.00     0.031 C 
ATOM     58  C   UNL A   1      48.890  26.133  25.925  1.00  0.00     0.029 A 
ATOM     59  C   UNL A   1      49.380  27.504  26.009  1.00  0.00     0.049 A 
ATOM     60  H   UNL A   1      48.271  29.232  26.352  1.00  0.00     0.167 HD
ATOM     61  C   UNL A   1      45.654  32.791  26.822  1.00  0.00     0.031 A 
ATOM     62  C   UNL A   1      50.662  27.890  25.877  1.00  0.00     0.031 A 
ATOM     63  C   UNL A   1      46.995  33.295  26.748  1.00  0.00     0.049 A 
ATOM     64  C   UNL A   1      50.980  29.354  26.007  1.00  0.00     0.074 A 
ATOM     65  C   UNL A   1      47.437  34.600  26.847  1.00  0.00     0.029 A 
ATOM     66  N   UNL A   1      48.118  32.497  26.576  1.00  0.00    -0.354 N 
ATOM     67  N   UNL A   1      50.161  30.362  26.194  1.00  0.00    -0.248 NA
ATOM     68  C   UNL A   1      52.397  29.734  25.925  1.00  0.00     0.031 C 
ATOM     69  C   UNL A   1      48.829  34.596  26.709  1.00  0.00     0.029 A 
ATOM     70  C   UNL A   1      49.255  33.283  26.563  1.00  0.00     0.049 A 
ATOM     71  H   UNL A   1      48.107  31.518  26.477  1.00  0.00     0.167 HD
ATOM     72  C   UNL A   1      50.961  31.493  26.269  1.00  0.00     0.074 A 
ATOM     73  C   UNL A   1      52.333  31.042  26.134  1.00  0.00     0.031 C 
ATOM     74  C   UNL A   1      50.601  32.790  26.428  1.00  0.00     0.031 A 
BRANCH  61  75
ATOM     75  C   UNL A   1      44.506  33.752  26.949  1.00  0.00    -0.014 A 
ATOM     76  C   UNL A   1      43.895  34.314  25.815  1.00  0.00     0.009 A 
ATOM     77  C   UNL A   1      44.041  34.119  28.220  1.00  0.00     0.009 A 
ATOM     78  C   UNL A   1      42.880  35.263  25.954  1.00  0.00     0.001 A 
ATOM     79  C   UNL A   1      43.003  35.044  28.355  1.00  0.00     0.001 A 
ATOM     80  C   UNL A   1      42.434  35.626  27.224  1.00  0.00     0.000 A 
ENDBRANCH  61  75
BRANCH  62  81
ATOM     81  C   UNL A   1      51.735  26.885  25.644  1.00  0.00    -0.014 A 
ATOM     82  C   UNL A   1      52.168  26.596  24.340  1.00  0.00     0.009 A 
ATOM     83  C   UNL A   1      52.334  26.210  26.719  1.00  0.00     0.009 A 
ATOM     84  C   UNL A   1      53.156  25.633  24.116  1.00  0.00     0.001 A 
ATOM     85  C   UNL A   1      53.339  25.265  26.493  1.00  0.00     0.001 A 
ATOM     86  C   UNL A   1      53.743  24.971  25.192  1.00  0.00     0.000 A 
ENDBRANCH  62  81
BRANCH  74  87
ATOM     87  C   UNL A   1      51.712  33.795  26.487  1.00  0.00    -0.014 A 
ATOM     88  C   UNL A   1      52.320  34.130  27.707  1.00  0.00     0.009 A 
ATOM     89  C   UNL A   1      52.186  34.377  25.301  1.00  0.00     0.009 A 
ATOM     90  C   UNL A   1      53.362  35.055  27.740  1.00  0.00     0.001 A 
ATOM     91  C   UNL A   1      53.246  35.281  25.336  1.00  0.00     0.001 A 
ATOM     92  C   UNL A   1      53.828  35.626  26.555  1.00  0.00     0.000 A 
ENDBRANCH  74  87
ENDBRANCH  48  49
ENDBRANCH  40  43
ENDBRANCH  38  39
ENDBRANCH  37  38
ENDBRANCH  36  37
ENDBRANCH   1  36
TORSDOF 17
ENDMDL
MODEL 3
REMARK VINA RESULT:      -8.9      6.843     13.914
REMARK SMILES COc1ccc(N2C(=O)/C(=C/c3c(C(=O)NCCCCCCNC(=O)c4ccc(-c5c6nc(c(-c7ccccc7)c7ccc([nH]7)c(-c7ccccc7)c7nc(c(-c8ccccc8)c8ccc5[nH]8)C=C7)C=C6)cc4)[nH]c4cc(OC)ccc34)SC2=S)cc1
REMARK SMILES IDX 19 1 18 2 17 3 16 4 14 5 15 6 13 8 12 9 82 10 74 11 75 12
REMARK SMILES IDX 81 13 76 15 80 16 77 17 11 18 7 19 8 20 84 21 9 22 10 23
REMARK SMILES IDX 83 24 85 25 6 26 3 27 4 28 87 29 5 30 86 31 2 32 1 33 78 34
REMARK SMILES IDX 79 35 20 36 21 37 22 38 23 39 24 40 25 42 26 43 27 44 73 45
REMARK SMILES IDX 28 46 72 47 29 48 30 49 31 50 66 51 32 52 71 53 65 54 67 55
REMARK SMILES IDX 33 56 70 57 64 58 63 59 34 61 56 62 41 63 55 64 42 65 45 66
REMARK SMILES IDX 54 67 68 68 43 69 44 70 53 72 69 73 46 74 35 75 36 76 40 77
REMARK SMILES IDX 37 78 39 79 38 80 57 81 58 82 62 83 59 84 61 85 60 86 47 87
REMARK SMILES IDX 48 88 52 89 49 90 51 91 50 92
REMARK H PARENT 16 7 74 14 23 41 67 60 45 71
REMARK Flexibility Score: inf
ROOT
ATOM      1  C   UNL A   1      40.393  27.457  27.797  1.00  0.00     0.002 C 
ENDROOT
BRANCH   1   2
ATOM      2  C   UNL A   1      40.147  28.855  28.375  1.00  0.00     0.021 C 
BRANCH   2   3
ATOM      3  C   UNL A   1      38.696  29.337  28.330  1.00  0.00     0.116 C 
BRANCH   3   4
ATOM      4  N   UNL A   1      37.955  29.086  29.556  1.00  0.00    -0.351 N 
ATOM      5  C   UNL A   1      36.653  29.427  29.840  1.00  0.00     0.268 C 
ATOM      6  O   UNL A   1      36.279  29.380  31.009  1.00  0.00    -0.268 OA
ATOM      7  H   UNL A   1      38.444  28.613  30.268  1.00  0.00     0.163 HD
BRANCH   5   8
ATOM      8  C   UNL A   1      35.813  29.916  28.775  1.00  0.00     0.112 A 
ATOM      9  C   UNL A   1      34.963  31.016  28.641  1.00  0.00     0.014 A 
ATOM     10  C   UNL A   1      34.033  30.642  27.605  1.00  0.00     0.008 A 
ATOM     11  N   UNL A   1      35.811  29.301  27.551  1.00  0.00    -0.350 N 
ATOM     12  C   UNL A   1      34.619  29.566  26.932  1.00  0.00     0.050 A 
ATOM     13  C   UNL A   1      32.756  31.049  27.150  1.00  0.00     0.015 A 
ATOM     14  H   UNL A   1      36.544  28.759  27.178  1.00  0.00     0.167 HD
ATOM     15  C   UNL A   1      34.037  28.901  25.853  1.00  0.00     0.073 A 
ATOM     16  C   UNL A   1      32.115  30.332  26.104  1.00  0.00     0.047 A 
ATOM     17  C   UNL A   1      32.754  29.272  25.460  1.00  0.00     0.120 A 
BRANCH   9  18
ATOM     18  C   UNL A   1      34.985  32.114  29.586  1.00  0.00     0.032 C 
ATOM     19  N   UNL A   1      37.719  33.298  31.534  1.00  0.00    -0.261 N 
ATOM     20  C   UNL A   1      36.350  33.420  31.243  1.00  0.00     0.270 C 
ATOM     21  C   UNL A   1      38.547  32.999  30.457  1.00  0.00     0.152 C 
ATOM     22  O   UNL A   1      35.450  33.814  31.973  1.00  0.00    -0.268 OA
ATOM     23  C   UNL A   1      36.098  32.825  29.886  1.00  0.00     0.081 C 
ATOM     24  S   UNL A   1      37.576  32.849  29.000  1.00  0.00    -0.054 SA
ATOM     25  S   UNL A   1      40.214  32.874  30.384  1.00  0.00    -0.051 S 
BRANCH  19  26
ATOM     26  C   UNL A   1      38.209  33.415  32.874  1.00  0.00     0.051 A 
ATOM     27  C   UNL A   1      39.217  33.682  35.503  1.00  0.00     0.119 A 
ATOM     28  C   UNL A   1      39.197  34.778  34.645  1.00  0.00     0.048 A 
ATOM     29  C   UNL A   1      38.728  32.456  35.054  1.00  0.00     0.048 A 
ATOM     30  C   UNL A   1      38.689  34.650  33.346  1.00  0.00     0.030 A 
ATOM     31  C   UNL A   1      38.253  32.316  33.737  1.00  0.00     0.030 A 
BRANCH  27  32
ATOM     32  O   UNL A   1      39.713  33.940  36.750  1.00  0.00    -0.497 OA
ATOM     33  C   UNL A   1      38.768  34.304  37.750  1.00  0.00     0.278 C 
ENDBRANCH  27  32
ENDBRANCH  19  26
ENDBRANCH   9  18
BRANCH  17  34
ATOM     34  O   UNL A   1      32.264  28.483  24.457  1.00  0.00    -0.497 OA
ATOM     35  C   UNL A   1      31.143  27.661  24.730  1.00  0.00     0.278 C 
ENDBRANCH  17  34
ENDBRANCH   5   8
ENDBRANCH   3   4
ENDBRANCH   2   3
ENDBRANCH   1   2
BRANCH   1  36
ATOM     36  C   UNL A   1      39.900  26.300  28.666  1.00  0.00     0.002 C 
BRANCH  36  37
ATOM     37  C   UNL A   1      39.307  25.092  27.962  1.00  0.00     0.021 C 
BRANCH  37  38
ATOM     38  C   UNL A   1      39.721  24.937  26.506  1.00  0.00     0.116 C 
BRANCH  38  39
ATOM     39  N   UNL A   1      40.551  23.776  26.188  1.00  0.00    -0.352 N 
ATOM     40  C   UNL A   1      41.927  23.708  26.192  1.00  0.00     0.251 C 
ATOM     41  H   UNL A   1      40.073  22.952  25.943  1.00  0.00     0.163 HD
ATOM     42  O   UNL A   1      42.532  22.662  25.980  1.00  0.00    -0.269 OA
BRANCH  40  43
ATOM     43  C   UNL A   1      42.675  24.961  26.359  1.00  0.00     0.039 A 
ATOM     44  C   UNL A   1      43.284  25.209  27.590  1.00  0.00     0.014 A 
ATOM     45  C   UNL A   1      42.922  25.770  25.251  1.00  0.00     0.014 A 
ATOM     46  C   UNL A   1      44.244  26.212  27.679  1.00  0.00     0.010 A 
ATOM     47  C   UNL A   1      43.962  26.678  25.310  1.00  0.00     0.010 A 
ATOM     48  C   UNL A   1      44.632  26.905  26.523  1.00  0.00    -0.014 A 
BRANCH  48  49
ATOM     49  C   UNL A   1      45.722  27.903  26.551  1.00  0.00     0.031 A 
ATOM     50  C   UNL A   1      45.367  29.348  26.738  1.00  0.00     0.074 A 
ATOM     51  C   UNL A   1      46.990  27.514  26.315  1.00  0.00     0.049 A 
ATOM     52  N   UNL A   1      46.132  30.403  26.661  1.00  0.00    -0.248 NA
ATOM     53  C   UNL A   1      43.946  29.651  26.991  1.00  0.00     0.031 C 
ATOM     54  C   UNL A   1      47.428  26.139  26.054  1.00  0.00     0.029 A 
ATOM     55  N   UNL A   1      48.146  28.245  26.249  1.00  0.00    -0.354 N 
ATOM     56  C   UNL A   1      45.278  31.490  26.805  1.00  0.00     0.074 A 
ATOM     57  C   UNL A   1      43.935  30.972  26.916  1.00  0.00     0.031 C 
ATOM     58  C   UNL A   1      48.761  26.123  25.897  1.00  0.00     0.029 A 
ATOM     59  C   UNL A   1      49.266  27.487  26.006  1.00  0.00     0.049 A 
ATOM     60  H   UNL A   1      48.173  29.223  26.366  1.00  0.00     0.167 HD
ATOM     61  C   UNL A   1      45.593  32.804  26.866  1.00  0.00     0.031 A 
ATOM     62  C   UNL A   1      50.553  27.860  25.891  1.00  0.00     0.031 A 
ATOM     63  C   UNL A   1      46.940  33.294  26.811  1.00  0.00     0.049 A 
ATOM     64  C   UNL A   1      50.887  29.319  26.045  1.00  0.00     0.074 A 
ATOM     65  C   UNL A   1      47.396  34.592  26.933  1.00  0.00     0.029 A 
ATOM     66  N   UNL A   1      48.056  32.486  26.636  1.00  0.00    -0.354 N 
ATOM     67  N   UNL A   1      50.077  30.333  26.240  1.00  0.00    -0.248 NA
ATOM     68  C   UNL A   1      52.308  29.683  25.980  1.00  0.00     0.031 C 
ATOM     69  C   UNL A   1      48.790  34.574  26.806  1.00  0.00     0.029 A 
ATOM     70  C   UNL A   1      49.201  33.258  26.644  1.00  0.00     0.049 A 
ATOM     71  H   UNL A   1      48.034  31.508  26.523  1.00  0.00     0.167 HD
ATOM     72  C   UNL A   1      50.889  31.453  26.338  1.00  0.00     0.074 A 
ATOM     73  C   UNL A   1      52.257  30.988  26.208  1.00  0.00     0.031 C 
ATOM     74  C   UNL A   1      50.543  32.752  26.514  1.00  0.00     0.031 A 
BRANCH  61  75
ATOM     75  C   UNL A   1      44.455  33.775  26.998  1.00  0.00    -0.014 A 
ATOM     76  C   UNL A   1      43.841  34.339  25.867  1.00  0.00     0.009 A 
ATOM     77  C   UNL A   1      44.003  34.153  28.271  1.00  0.00     0.009 A 
ATOM     78  C   UNL A   1      42.836  35.298  26.009  1.00  0.00     0.001 A 
ATOM     79  C   UNL A   1      42.975  35.088  28.410  1.00  0.00     0.001 A 
ATOM     80  C   UNL A   1      42.402  35.670  27.280  1.00  0.00     0.000 A 
ENDBRANCH  61  75
BRANCH  62  81
ATOM     81  C   UNL A   1      51.616  26.846  25.652  1.00  0.00    -0.014 A 
ATOM     82  C   UNL A   1      52.200  26.160  26.729  1.00  0.00     0.009 A 
ATOM     83  C   UNL A   1      52.054  26.556  24.351  1.00  0.00     0.009 A 
ATOM     84  C   UNL A   1      53.218  25.228  26.510  1.00  0.00     0.001 A 
ATOM     85  C   UNL A   1      53.054  25.604  24.133  1.00  0.00     0.001 A 
ATOM     86  C   UNL A   1      53.642  24.948  25.213  1.00  0.00     0.000 A 
ENDBRANCH  62  81
BRANCH  74  87
ATOM     87  C   UNL A   1      51.665  33.743  26.597  1.00  0.00    -0.014 A 
ATOM     88  C   UNL A   1      52.101  34.438  25.459  1.00  0.00     0.009 A 
ATOM     89  C   UNL A   1      52.258  34.017  27.839  1.00  0.00     0.009 A 
ATOM     90  C   UNL A   1      53.135  35.368  25.559  1.00  0.00     0.001 A 
ATOM     91  C   UNL A   1      53.273  34.967  27.939  1.00  0.00     0.001 A 
ATOM     92  C   UNL A   1      53.717  35.635  26.798  1.00  0.00     0.000 A 
ENDBRANCH  74  87
ENDBRANCH  48  49
ENDBRANCH  40  43
ENDBRANCH  38  39
ENDBRANCH  37  38
ENDBRANCH  36  37
ENDBRANCH   1  36
TORSDOF 17
ENDMDL
