MODEL 1
REMARK VINA RESULT:     -11.0      0.000      0.000
REMARK SMILES O=C(CC/C(=N\NC(=O)c1ccccc1Br)c1ccccc1)NCCCCCCNC(=O)c1ccc(-c2c3nc(c(-c4ccccc4)c4ccc([nH]4)c(-c4ccccc4)c4nc(c(-c5ccccc5)c5ccc2[nH]5)C=C4)C=C3)cc1
REMARK SMILES IDX 25 1 24 2 23 3 1 4 2 5 3 7 4 8 5 9 6 10 17 11 18 12 22 13
REMARK SMILES IDX 19 14 21 15 20 16 7 17 8 18 9 20 10 21 11 22 15 23 12 24
REMARK SMILES IDX 14 25 16 26 13 27 26 28 27 29 28 30 29 31 30 32 31 33 32 35
REMARK SMILES IDX 33 36 34 37 80 38 35 39 79 40 36 41 37 42 38 43 73 44 39 45
REMARK SMILES IDX 78 46 72 47 74 48 40 49 77 50 71 51 70 52 41 54 63 55 48 56
REMARK SMILES IDX 62 57 49 58 52 59 61 60 75 61 50 62 51 63 60 65 76 66 53 67
REMARK SMILES IDX 42 68 43 69 47 70 44 71 46 72 45 73 64 74 65 75 69 76 66 77
REMARK SMILES IDX 68 78 67 79 54 80 55 81 59 82 56 83 58 84 57 85
REMARK H PARENT 23 6 7 19 30 34 74 53 52 64
REMARK Flexibility Score: inf
ROOT
ATOM      1  C   UNL A   1      35.310  31.875  28.164  1.00  0.00     0.021 C 
ENDROOT
BRANCH   1   2
ATOM      2  C   UNL A   1      33.972  31.515  27.528  1.00  0.00     0.116 C 
BRANCH   2   3
ATOM      3  N   UNL A   1      33.688  30.119  27.728  1.00  0.00    -0.356 N 
ATOM      4  O   UNL A   1      31.582  30.085  26.827  1.00  0.00    -0.275 OA
ATOM      5  C   UNL A   1      32.599  29.503  27.188  1.00  0.00     0.220 C 
ATOM      6  H   UNL A   1      34.307  29.587  28.278  1.00  0.00     0.163 HD
BRANCH   5   7
ATOM      7  C   UNL A   1      32.840  28.028  27.022  1.00  0.00     0.106 C 
BRANCH   7   8
ATOM      8  C   UNL A   1      31.539  27.270  26.900  1.00  0.00     0.068 C 
BRANCH   8   9
ATOM      9  C   UNL A   1      31.098  26.582  25.607  1.00  0.00     0.069 C 
ATOM     10  N   UNL A   1      30.990  25.290  25.464  1.00  0.00    -0.177 NA
BRANCH   9  11
ATOM     11  C   UNL A   1      30.663  27.403  24.411  1.00  0.00    -0.002 A 
ATOM     12  C   UNL A   1      29.311  27.381  24.021  1.00  0.00     0.010 A 
ATOM     13  C   UNL A   1      31.523  28.283  23.751  1.00  0.00     0.010 A 
ATOM     14  C   UNL A   1      28.844  28.193  22.980  1.00  0.00     0.001 A 
ATOM     15  C   UNL A   1      31.063  29.080  22.692  1.00  0.00     0.001 A 
ATOM     16  C   UNL A   1      29.724  29.037  22.309  1.00  0.00     0.000 A 
ENDBRANCH   9  11
BRANCH  10  17
ATOM     17  N   UNL A   1      31.142  24.361  26.448  1.00  0.00    -0.243 N 
ATOM     18  C   UNL A   1      32.221  23.559  26.806  1.00  0.00     0.272 C 
ATOM     19  H   UNL A   1      30.343  24.234  27.010  1.00  0.00     0.194 HD
ATOM     20  O   UNL A   1      32.179  22.920  27.859  1.00  0.00    -0.267 OA
BRANCH  18  21
ATOM     21  C   UNL A   1      33.369  23.326  25.908  1.00  0.00     0.055 A 
ATOM     22  C   UNL A   1      34.349  24.343  25.918  1.00  0.00     0.015 A 
ATOM     23  C   UNL A   1      33.598  22.147  25.198  1.00  0.00     0.030 A 
ATOM     24  C   UNL A   1      35.601  24.119  25.347  1.00  0.00     0.001 A 
ATOM     25  C   UNL A   1      34.854  21.937  24.611  1.00  0.00     0.016 A 
ATOM     26  Br  UNL A   1      32.288  20.795  24.991  1.00  0.00    -0.050 Br
ATOM     27  C   UNL A   1      35.860  22.905  24.715  1.00  0.00     0.001 A 
ENDBRANCH  18  21
ENDBRANCH  10  17
ENDBRANCH   8   9
ENDBRANCH   7   8
ENDBRANCH   5   7
ENDBRANCH   2   3
ENDBRANCH   1   2
BRANCH   1  28
ATOM     28  C   UNL A   1      35.402  33.298  28.750  1.00  0.00     0.002 C 
BRANCH  28  29
ATOM     29  C   UNL A   1      34.539  34.360  28.071  1.00  0.00     0.002 C 
BRANCH  29  30
ATOM     30  C   UNL A   1      33.283  34.769  28.834  1.00  0.00     0.021 C 
BRANCH  30  31
ATOM     31  C   UNL A   1      33.455  36.017  29.686  1.00  0.00     0.116 C 
BRANCH  31  32
ATOM     32  N   UNL A   1      32.508  36.074  30.786  1.00  0.00    -0.352 N 
ATOM     33  C   UNL A   1      32.601  35.490  32.026  1.00  0.00     0.251 C 
ATOM     34  H   UNL A   1      31.692  36.600  30.622  1.00  0.00     0.163 HD
ATOM     35  O   UNL A   1      31.635  35.484  32.782  1.00  0.00    -0.269 OA
BRANCH  33  36
ATOM     36  C   UNL A   1      33.865  34.839  32.432  1.00  0.00     0.039 A 
ATOM     37  C   UNL A   1      33.837  33.497  32.818  1.00  0.00     0.014 A 
ATOM     38  C   UNL A   1      35.073  35.541  32.423  1.00  0.00     0.014 A 
ATOM     39  C   UNL A   1      35.028  32.850  33.147  1.00  0.00     0.010 A 
ATOM     40  C   UNL A   1      36.268  34.871  32.658  1.00  0.00     0.010 A 
ATOM     41  C   UNL A   1      36.257  33.523  33.037  1.00  0.00    -0.014 A 
BRANCH  41  42
ATOM     42  C   UNL A   1      37.533  32.819  33.316  1.00  0.00     0.031 A 
ATOM     43  C   UNL A   1      38.284  33.079  34.593  1.00  0.00     0.074 A 
ATOM     44  C   UNL A   1      38.031  31.972  32.396  1.00  0.00     0.049 A 
ATOM     45  N   UNL A   1      39.392  32.530  35.023  1.00  0.00    -0.248 NA
ATOM     46  C   UNL A   1      37.735  34.106  35.492  1.00  0.00     0.031 C 
ATOM     47  C   UNL A   1      37.424  31.682  31.094  1.00  0.00     0.029 A 
ATOM     48  N   UNL A   1      39.156  31.188  32.420  1.00  0.00    -0.354 N 
ATOM     49  C   UNL A   1      39.678  33.155  36.231  1.00  0.00     0.074 A 
ATOM     50  C   UNL A   1      38.664  34.165  36.435  1.00  0.00     0.031 C 
ATOM     51  C   UNL A   1      38.151  30.740  30.471  1.00  0.00     0.029 A 
ATOM     52  C   UNL A   1      39.293  30.392  31.308  1.00  0.00     0.049 A 
ATOM     53  H   UNL A   1      39.803  31.195  33.161  1.00  0.00     0.167 HD
ATOM     54  C   UNL A   1      40.684  32.899  37.102  1.00  0.00     0.031 A 
ATOM     55  C   UNL A   1      40.229  29.476  31.004  1.00  0.00     0.031 A 
ATOM     56  C   UNL A   1      41.688  31.890  36.895  1.00  0.00     0.049 A 
ATOM     57  C   UNL A   1      41.336  29.211  31.984  1.00  0.00     0.074 A 
ATOM     58  C   UNL A   1      42.709  31.500  37.744  1.00  0.00     0.029 A 
ATOM     59  N   UNL A   1      41.804  31.116  35.749  1.00  0.00    -0.354 N 
ATOM     60  N   UNL A   1      41.541  29.745  33.164  1.00  0.00    -0.248 NA
ATOM     61  C   UNL A   1      42.331  28.203  31.594  1.00  0.00     0.031 C 
ATOM     62  C   UNL A   1      43.480  30.537  37.085  1.00  0.00     0.029 A 
ATOM     63  C   UNL A   1      42.902  30.279  35.853  1.00  0.00     0.049 A 
ATOM     64  H   UNL A   1      41.196  31.159  34.975  1.00  0.00     0.167 HD
ATOM     65  C   UNL A   1      42.677  29.124  33.668  1.00  0.00     0.074 A 
ATOM     66  C   UNL A   1      43.097  28.155  32.674  1.00  0.00     0.031 C 
ATOM     67  C   UNL A   1      43.317  29.337  34.844  1.00  0.00     0.031 A 
BRANCH  54  68
ATOM     68  C   UNL A   1      40.751  33.742  38.348  1.00  0.00    -0.014 A 
ATOM     69  C   UNL A   1      40.093  33.361  39.529  1.00  0.00     0.009 A 
ATOM     70  C   UNL A   1      41.496  34.932  38.344  1.00  0.00     0.009 A 
ATOM     71  C   UNL A   1      40.139  34.177  40.663  1.00  0.00     0.001 A 
ATOM     72  C   UNL A   1      41.569  35.729  39.488  1.00  0.00     0.001 A 
ATOM     73  C   UNL A   1      40.880  35.358  40.642  1.00  0.00     0.000 A 
ENDBRANCH  54  68
BRANCH  55  74
ATOM     74  C   UNL A   1      40.137  28.713  29.730  1.00  0.00    -0.014 A 
ATOM     75  C   UNL A   1      40.677  29.239  28.547  1.00  0.00     0.009 A 
ATOM     76  C   UNL A   1      39.518  27.454  29.691  1.00  0.00     0.009 A 
ATOM     77  C   UNL A   1      40.579  28.533  27.346  1.00  0.00     0.001 A 
ATOM     78  C   UNL A   1      39.449  26.736  28.496  1.00  0.00     0.001 A 
ATOM     79  C   UNL A   1      39.970  27.279  27.323  1.00  0.00     0.000 A 
ENDBRANCH  55  74
BRANCH  67  80
ATOM     80  C   UNL A   1      44.529  28.489  35.119  1.00  0.00    -0.014 A 
ATOM     81  C   UNL A   1      45.810  28.891  34.706  1.00  0.00     0.009 A 
ATOM     82  C   UNL A   1      44.387  27.275  35.808  1.00  0.00     0.009 A 
ATOM     83  C   UNL A   1      46.916  28.069  34.934  1.00  0.00     0.001 A 
ATOM     84  C   UNL A   1      45.499  26.473  36.066  1.00  0.00     0.001 A 
ATOM     85  C   UNL A   1      46.760  26.863  35.616  1.00  0.00     0.000 A 
ENDBRANCH  67  80
ENDBRANCH  41  42
ENDBRANCH  33  36
ENDBRANCH  31  32
ENDBRANCH  30  31
ENDBRANCH  29  30
ENDBRANCH  28  29
ENDBRANCH   1  28
TORSDOF 18
ENDMDL
MODEL 2
REMARK VINA RESULT:     -11.0      0.449      5.762
REMARK SMILES O=C(CC/C(=N\NC(=O)c1ccccc1Br)c1ccccc1)NCCCCCCNC(=O)c1ccc(-c2c3nc(c(-c4ccccc4)c4ccc([nH]4)c(-c4ccccc4)c4nc(c(-c5ccccc5)c5ccc2[nH]5)C=C4)C=C3)cc1
REMARK SMILES IDX 25 1 24 2 23 3 1 4 2 5 3 7 4 8 5 9 6 10 17 11 18 12 22 13
REMARK SMILES IDX 19 14 21 15 20 16 7 17 8 18 9 20 10 21 11 22 15 23 12 24
REMARK SMILES IDX 14 25 16 26 13 27 26 28 27 29 28 30 29 31 30 32 31 33 32 35
REMARK SMILES IDX 33 36 34 37 80 38 35 39 79 40 36 41 37 42 38 43 73 44 39 45
REMARK SMILES IDX 78 46 72 47 74 48 40 49 77 50 71 51 70 52 41 54 63 55 48 56
REMARK SMILES IDX 62 57 49 58 52 59 61 60 75 61 50 62 51 63 60 65 76 66 53 67
REMARK SMILES IDX 42 68 43 69 47 70 44 71 46 72 45 73 64 74 65 75 69 76 66 77
REMARK SMILES IDX 68 78 67 79 54 80 55 81 59 82 56 83 58 84 57 85
REMARK H PARENT 23 6 7 19 30 34 74 53 52 64
REMARK Flexibility Score: inf
ROOT
ATOM      1  C   UNL A   1      35.425  31.830  28.203  1.00  0.00     0.021 C 
ENDROOT
BRANCH   1   2
ATOM      2  C   UNL A   1      34.084  31.494  27.561  1.00  0.00     0.116 C 
BRANCH   2   3
ATOM      3  N   UNL A   1      33.776  30.103  27.755  1.00  0.00    -0.356 N 
ATOM      4  O   UNL A   1      31.670  30.109  26.853  1.00  0.00    -0.275 OA
ATOM      5  C   UNL A   1      32.677  29.508  27.212  1.00  0.00     0.220 C 
ATOM      6  H   UNL A   1      34.386  29.557  28.302  1.00  0.00     0.163 HD
BRANCH   5   7
ATOM      7  C   UNL A   1      32.892  28.029  27.039  1.00  0.00     0.106 C 
BRANCH   7   8
ATOM      8  C   UNL A   1      31.578  27.290  26.945  1.00  0.00     0.068 C 
BRANCH   8   9
ATOM      9  C   UNL A   1      31.072  26.662  25.645  1.00  0.00     0.069 C 
ATOM     10  N   UNL A   1      30.889  25.383  25.471  1.00  0.00    -0.177 NA
BRANCH   9  11
ATOM     11  C   UNL A   1      30.657  27.538  24.480  1.00  0.00    -0.002 A 
ATOM     12  C   UNL A   1      31.642  28.262  23.783  1.00  0.00     0.010 A 
ATOM     13  C   UNL A   1      29.352  27.561  23.985  1.00  0.00     0.010 A 
ATOM     14  C   UNL A   1      31.321  29.012  22.646  1.00  0.00     0.001 A 
ATOM     15  C   UNL A   1      29.023  28.330  22.859  1.00  0.00     0.001 A 
ATOM     16  C   UNL A   1      30.007  29.052  22.188  1.00  0.00     0.000 A 
ENDBRANCH   9  11
BRANCH  10  17
ATOM     17  N   UNL A   1      31.010  24.421  26.428  1.00  0.00    -0.243 N 
ATOM     18  C   UNL A   1      32.078  23.610  26.795  1.00  0.00     0.272 C 
ATOM     19  H   UNL A   1      30.192  24.274  26.957  1.00  0.00     0.194 HD
ATOM     20  O   UNL A   1      32.003  22.935  27.824  1.00  0.00    -0.267 OA
BRANCH  18  21
ATOM     21  C   UNL A   1      33.258  23.410  25.930  1.00  0.00     0.055 A 
ATOM     22  C   UNL A   1      34.216  24.445  25.981  1.00  0.00     0.015 A 
ATOM     23  C   UNL A   1      33.531  22.244  25.213  1.00  0.00     0.030 A 
ATOM     24  C   UNL A   1      35.489  24.252  25.446  1.00  0.00     0.001 A 
ATOM     25  C   UNL A   1      34.808  22.065  24.662  1.00  0.00     0.016 A 
ATOM     26  Br  UNL A   1      32.254  20.870  24.951  1.00  0.00    -0.050 Br
ATOM     27  C   UNL A   1      35.791  23.052  24.808  1.00  0.00     0.001 A 
ENDBRANCH  18  21
ENDBRANCH  10  17
ENDBRANCH   8   9
ENDBRANCH   7   8
ENDBRANCH   5   7
ENDBRANCH   2   3
ENDBRANCH   1   2
BRANCH   1  28
ATOM     28  C   UNL A   1      35.562  33.269  28.736  1.00  0.00     0.002 C 
BRANCH  28  29
ATOM     29  C   UNL A   1      34.610  34.301  28.134  1.00  0.00     0.002 C 
BRANCH  29  30
ATOM     30  C   UNL A   1      33.406  34.661  28.998  1.00  0.00     0.021 C 
BRANCH  30  31
ATOM     31  C   UNL A   1      33.532  36.002  29.706  1.00  0.00     0.116 C 
BRANCH  31  32
ATOM     32  N   UNL A   1      32.552  36.163  30.768  1.00  0.00    -0.352 N 
ATOM     33  C   UNL A   1      32.582  35.656  32.043  1.00  0.00     0.251 C 
ATOM     34  H   UNL A   1      31.763  36.707  30.543  1.00  0.00     0.163 HD
ATOM     35  O   UNL A   1      31.593  35.733  32.764  1.00  0.00    -0.269 OA
BRANCH  33  36
ATOM     36  C   UNL A   1      33.806  34.985  32.533  1.00  0.00     0.039 A 
ATOM     37  C   UNL A   1      33.732  33.643  32.914  1.00  0.00     0.014 A 
ATOM     38  C   UNL A   1      35.023  35.669  32.607  1.00  0.00     0.014 A 
ATOM     39  C   UNL A   1      34.888  32.979  33.321  1.00  0.00     0.010 A 
ATOM     40  C   UNL A   1      36.189  34.981  32.920  1.00  0.00     0.010 A 
ATOM     41  C   UNL A   1      36.132  33.632  33.295  1.00  0.00    -0.014 A 
BRANCH  41  42
ATOM     42  C   UNL A   1      37.376  32.910  33.658  1.00  0.00     0.031 A 
ATOM     43  C   UNL A   1      37.989  31.921  32.705  1.00  0.00     0.074 A 
ATOM     44  C   UNL A   1      37.931  33.122  34.866  1.00  0.00     0.049 A 
ATOM     45  N   UNL A   1      39.091  31.226  32.835  1.00  0.00    -0.248 NA
ATOM     46  C   UNL A   1      37.257  31.656  31.456  1.00  0.00     0.031 C 
ATOM     47  C   UNL A   1      37.397  34.014  35.899  1.00  0.00     0.029 A 
ATOM     48  N   UNL A   1      39.075  32.613  35.425  1.00  0.00    -0.354 N 
ATOM     49  C   UNL A   1      39.174  30.435  31.695  1.00  0.00     0.074 A 
ATOM     50  C   UNL A   1      37.984  30.690  30.916  1.00  0.00     0.031 C 
ATOM     51  C   UNL A   1      38.244  34.035  36.941  1.00  0.00     0.029 A 
ATOM     52  C   UNL A   1      39.355  33.130  36.667  1.00  0.00     0.049 A 
ATOM     53  H   UNL A   1      39.641  31.942  34.980  1.00  0.00     0.167 HD
ATOM     54  C   UNL A   1      40.163  29.587  31.321  1.00  0.00     0.031 A 
ATOM     55  C   UNL A   1      40.396  32.908  37.489  1.00  0.00     0.031 A 
ATOM     56  C   UNL A   1      41.347  29.341  32.100  1.00  0.00     0.049 A 
ATOM     57  C   UNL A   1      41.478  31.962  37.053  1.00  0.00     0.074 A 
ATOM     58  C   UNL A   1      42.442  28.557  31.782  1.00  0.00     0.029 A 
ATOM     59  N   UNL A   1      41.586  29.869  33.361  1.00  0.00    -0.354 N 
ATOM     60  N   UNL A   1      41.589  31.291  35.931  1.00  0.00    -0.248 NA
ATOM     61  C   UNL A   1      42.587  31.755  37.994  1.00  0.00     0.031 C 
ATOM     62  C   UNL A   1      43.312  28.559  32.877  1.00  0.00     0.029 A 
ATOM     63  C   UNL A   1      42.792  29.397  33.850  1.00  0.00     0.049 A 
ATOM     64  H   UNL A   1      40.985  30.487  33.837  1.00  0.00     0.167 HD
ATOM     65  C   UNL A   1      42.790  30.599  36.021  1.00  0.00     0.074 A 
ATOM     66  C   UNL A   1      43.381  30.954  37.297  1.00  0.00     0.031 C 
ATOM     67  C   UNL A   1      43.353  29.745  35.131  1.00  0.00     0.031 A 
BRANCH  54  68
ATOM     68  C   UNL A   1      39.987  28.853  30.019  1.00  0.00    -0.014 A 
ATOM     69  C   UNL A   1      39.453  27.554  29.974  1.00  0.00     0.009 A 
ATOM     70  C   UNL A   1      40.351  29.474  28.814  1.00  0.00     0.009 A 
ATOM     71  C   UNL A   1      39.333  26.877  28.757  1.00  0.00     0.001 A 
ATOM     72  C   UNL A   1      40.198  28.809  27.596  1.00  0.00     0.001 A 
ATOM     73  C   UNL A   1      39.702  27.506  27.570  1.00  0.00     0.000 A 
ENDBRANCH  54  68
BRANCH  55  74
ATOM     74  C   UNL A   1      40.486  33.625  38.789  1.00  0.00    -0.014 A 
ATOM     75  C   UNL A   1      39.917  33.070  39.945  1.00  0.00     0.009 A 
ATOM     76  C   UNL A   1      41.143  34.860  38.883  1.00  0.00     0.009 A 
ATOM     77  C   UNL A   1      39.985  33.748  41.164  1.00  0.00     0.001 A 
ATOM     78  C   UNL A   1      41.237  35.521  40.109  1.00  0.00     0.001 A 
ATOM     79  C   UNL A   1      40.650  34.969  41.247  1.00  0.00     0.000 A 
ENDBRANCH  55  74
BRANCH  67  80
ATOM     80  C   UNL A   1      44.684  29.153  35.508  1.00  0.00    -0.014 A 
ATOM     81  C   UNL A   1      45.888  29.797  35.181  1.00  0.00     0.009 A 
ATOM     82  C   UNL A   1      44.732  27.937  36.207  1.00  0.00     0.009 A 
ATOM     83  C   UNL A   1      47.113  29.209  35.503  1.00  0.00     0.001 A 
ATOM     84  C   UNL A   1      45.957  27.370  36.560  1.00  0.00     0.001 A 
ATOM     85  C   UNL A   1      47.146  27.999  36.194  1.00  0.00     0.000 A 
ENDBRANCH  67  80
ENDBRANCH  41  42
ENDBRANCH  33  36
ENDBRANCH  31  32
ENDBRANCH  30  31
ENDBRANCH  29  30
ENDBRANCH  28  29
ENDBRANCH   1  28
TORSDOF 18
ENDMDL
MODEL 3
REMARK VINA RESULT:     -10.8      3.647      9.079
REMARK SMILES O=C(CC/C(=N\NC(=O)c1ccccc1Br)c1ccccc1)NCCCCCCNC(=O)c1ccc(-c2c3nc(c(-c4ccccc4)c4ccc([nH]4)c(-c4ccccc4)c4nc(c(-c5ccccc5)c5ccc2[nH]5)C=C4)C=C3)cc1
REMARK SMILES IDX 25 1 24 2 23 3 1 4 2 5 3 7 4 8 5 9 6 10 17 11 18 12 22 13
REMARK SMILES IDX 19 14 21 15 20 16 7 17 8 18 9 20 10 21 11 22 15 23 12 24
REMARK SMILES IDX 14 25 16 26 13 27 26 28 27 29 28 30 29 31 30 32 31 33 32 35
REMARK SMILES IDX 33 36 34 37 80 38 35 39 79 40 36 41 37 42 38 43 73 44 39 45
REMARK SMILES IDX 78 46 72 47 74 48 40 49 77 50 71 51 70 52 41 54 63 55 48 56
REMARK SMILES IDX 62 57 49 58 52 59 61 60 75 61 50 62 51 63 60 65 76 66 53 67
REMARK SMILES IDX 42 68 43 69 47 70 44 71 46 72 45 73 64 74 65 75 69 76 66 77
REMARK SMILES IDX 68 78 67 79 54 80 55 81 59 82 56 83 58 84 57 85
REMARK H PARENT 23 6 7 19 30 34 74 53 52 64
REMARK Flexibility Score: inf
ROOT
ATOM      1  C   UNL A   1      40.247  22.118  27.313  1.00  0.00     0.021 C 
ENDROOT
BRANCH   1   2
ATOM      2  C   UNL A   1      39.646  21.876  25.934  1.00  0.00     0.116 C 
BRANCH   2   3
ATOM      3  N   UNL A   1      38.290  21.414  26.058  1.00  0.00    -0.356 N 
ATOM      4  O   UNL A   1      37.338  22.774  24.480  1.00  0.00    -0.275 OA
ATOM      5  C   UNL A   1      37.305  21.774  25.188  1.00  0.00     0.220 C 
ATOM      6  H   UNL A   1      38.065  20.810  26.802  1.00  0.00     0.163 HD
BRANCH   5   7
ATOM      7  C   UNL A   1      36.210  20.743  25.154  1.00  0.00     0.106 C 
BRANCH   7   8
ATOM      8  C   UNL A   1      34.856  21.373  25.379  1.00  0.00     0.068 C 
BRANCH   8   9
ATOM      9  C   UNL A   1      33.556  20.566  25.378  1.00  0.00     0.069 C 
ATOM     10  N   UNL A   1      32.508  20.864  26.094  1.00  0.00    -0.177 NA
BRANCH   9  11
ATOM     11  C   UNL A   1      33.385  19.388  24.442  1.00  0.00    -0.002 A 
ATOM     12  C   UNL A   1      32.496  19.499  23.357  1.00  0.00     0.010 A 
ATOM     13  C   UNL A   1      34.168  18.235  24.534  1.00  0.00     0.010 A 
ATOM     14  C   UNL A   1      32.373  18.472  22.413  1.00  0.00     0.001 A 
ATOM     15  C   UNL A   1      34.029  17.195  23.604  1.00  0.00     0.001 A 
ATOM     16  C   UNL A   1      33.135  17.314  22.542  1.00  0.00     0.000 A 
ENDBRANCH   9  11
BRANCH  10  17
ATOM     17  N   UNL A   1      32.355  21.978  26.864  1.00  0.00    -0.243 N 
ATOM     18  C   UNL A   1      31.961  23.273  26.548  1.00  0.00     0.272 C 
ATOM     19  H   UNL A   1      32.559  21.840  27.817  1.00  0.00     0.194 HD
ATOM     20  O   UNL A   1      31.718  24.072  27.455  1.00  0.00    -0.267 OA
BRANCH  18  21
ATOM     21  C   UNL A   1      31.953  23.786  25.163  1.00  0.00     0.055 A 
ATOM     22  C   UNL A   1      30.794  23.475  24.420  1.00  0.00     0.015 A 
ATOM     23  C   UNL A   1      32.915  24.642  24.625  1.00  0.00     0.030 A 
ATOM     24  C   UNL A   1      30.533  24.130  23.217  1.00  0.00     0.001 A 
ATOM     25  C   UNL A   1      32.652  25.284  23.406  1.00  0.00     0.016 A 
ATOM     26  Br  UNL A   1      34.573  24.994  25.472  1.00  0.00    -0.050 Br
ATOM     27  C   UNL A   1      31.451  25.053  22.724  1.00  0.00     0.001 A 
ENDBRANCH  18  21
ENDBRANCH  10  17
ENDBRANCH   8   9
ENDBRANCH   7   8
ENDBRANCH   5   7
ENDBRANCH   2   3
ENDBRANCH   1   2
BRANCH   1  28
ATOM     28  C   UNL A   1      41.646  21.512  27.541  1.00  0.00     0.002 C 
BRANCH  28  29
ATOM     29  C   UNL A   1      42.214  20.684  26.390  1.00  0.00     0.002 C 
BRANCH  29  30
ATOM     30  C   UNL A   1      43.418  21.292  25.678  1.00  0.00     0.021 C 
BRANCH  30  31
ATOM     31  C   UNL A   1      43.178  22.698  25.149  1.00  0.00     0.116 C 
BRANCH  31  32
ATOM     32  N   UNL A   1      44.411  23.368  24.773  1.00  0.00    -0.352 N 
ATOM     33  C   UNL A   1      44.860  24.609  25.152  1.00  0.00     0.251 C 
ATOM     34  H   UNL A   1      45.003  22.867  24.166  1.00  0.00     0.163 HD
ATOM     35  O   UNL A   1      45.839  25.107  24.606  1.00  0.00    -0.269 OA
BRANCH  33  36
ATOM     36  C   UNL A   1      44.136  25.357  26.202  1.00  0.00     0.039 A 
ATOM     37  C   UNL A   1      43.474  24.642  27.202  1.00  0.00     0.014 A 
ATOM     38  C   UNL A   1      44.118  26.755  26.210  1.00  0.00     0.014 A 
ATOM     39  C   UNL A   1      42.837  25.331  28.234  1.00  0.00     0.010 A 
ATOM     40  C   UNL A   1      43.566  27.436  27.288  1.00  0.00     0.010 A 
ATOM     41  C   UNL A   1      42.906  26.733  28.303  1.00  0.00    -0.014 A 
BRANCH  41  42
ATOM     42  C   UNL A   1      42.292  27.467  29.437  1.00  0.00     0.031 A 
ATOM     43  C   UNL A   1      42.973  27.509  30.777  1.00  0.00     0.074 A 
ATOM     44  C   UNL A   1      41.099  28.065  29.263  1.00  0.00     0.049 A 
ATOM     45  N   UNL A   1      42.606  28.131  31.868  1.00  0.00    -0.248 NA
ATOM     46  C   UNL A   1      44.214  26.731  30.919  1.00  0.00     0.031 C 
ATOM     47  C   UNL A   1      40.312  28.046  28.027  1.00  0.00     0.029 A 
ATOM     48  N   UNL A   1      40.343  28.819  30.124  1.00  0.00    -0.354 N 
ATOM     49  C   UNL A   1      43.559  27.807  32.826  1.00  0.00     0.074 A 
ATOM     50  C   UNL A   1      44.485  26.887  32.206  1.00  0.00     0.031 C 
ATOM     51  C   UNL A   1      39.217  28.804  28.191  1.00  0.00     0.029 A 
ATOM     52  C   UNL A   1      39.202  29.327  29.552  1.00  0.00     0.049 A 
ATOM     53  H   UNL A   1      40.594  28.981  31.062  1.00  0.00     0.167 HD
ATOM     54  C   UNL A   1      43.666  28.251  34.102  1.00  0.00     0.031 A 
ATOM     55  C   UNL A   1      38.256  30.134  30.064  1.00  0.00     0.031 A 
ATOM     56  C   UNL A   1      42.743  29.169  34.712  1.00  0.00     0.049 A 
ATOM     57  C   UNL A   1      38.394  30.611  31.482  1.00  0.00     0.074 A 
ATOM     58  C   UNL A   1      42.796  29.738  35.973  1.00  0.00     0.029 A 
ATOM     59  N   UNL A   1      41.589  29.648  34.107  1.00  0.00    -0.354 N 
ATOM     60  N   UNL A   1      39.351  30.369  32.346  1.00  0.00    -0.248 NA
ATOM     61  C   UNL A   1      37.328  31.485  31.988  1.00  0.00     0.031 C 
ATOM     62  C   UNL A   1      41.641  30.508  36.153  1.00  0.00     0.029 A 
ATOM     63  C   UNL A   1      40.903  30.473  34.982  1.00  0.00     0.049 A 
ATOM     64  H   UNL A   1      41.301  29.430  33.191  1.00  0.00     0.167 HD
ATOM     65  C   UNL A   1      39.013  31.079  33.492  1.00  0.00     0.074 A 
ATOM     66  C   UNL A   1      37.778  31.779  33.199  1.00  0.00     0.031 C 
ATOM     67  C   UNL A   1      39.663  31.144  34.680  1.00  0.00     0.031 A 
BRANCH  54  68
ATOM     68  C   UNL A   1      44.814  27.727  34.923  1.00  0.00    -0.014 A 
ATOM     69  C   UNL A   1      46.053  28.388  34.959  1.00  0.00     0.009 A 
ATOM     70  C   UNL A   1      44.651  26.557  35.682  1.00  0.00     0.009 A 
ATOM     71  C   UNL A   1      47.117  27.864  35.699  1.00  0.00     0.001 A 
ATOM     72  C   UNL A   1      45.705  26.054  36.448  1.00  0.00     0.001 A 
ATOM     73  C   UNL A   1      46.940  26.700  36.445  1.00  0.00     0.000 A 
ENDBRANCH  54  68
BRANCH  55  74
ATOM     74  C   UNL A   1      37.115  30.574  29.218  1.00  0.00    -0.014 A 
ATOM     75  C   UNL A   1      36.091  29.675  28.885  1.00  0.00     0.009 A 
ATOM     76  C   UNL A   1      37.039  31.893  28.746  1.00  0.00     0.009 A 
ATOM     77  C   UNL A   1      35.026  30.080  28.077  1.00  0.00     0.001 A 
ATOM     78  C   UNL A   1      35.957  32.304  27.964  1.00  0.00     0.001 A 
ATOM     79  C   UNL A   1      34.957  31.396  27.623  1.00  0.00     0.000 A 
ENDBRANCH  55  74
BRANCH  67  80
ATOM     80  C   UNL A   1      39.052  32.018  35.740  1.00  0.00    -0.014 A 
ATOM     81  C   UNL A   1      39.331  33.393  35.803  1.00  0.00     0.009 A 
ATOM     82  C   UNL A   1      38.179  31.458  36.686  1.00  0.00     0.009 A 
ATOM     83  C   UNL A   1      38.786  34.178  36.822  1.00  0.00     0.001 A 
ATOM     84  C   UNL A   1      37.608  32.252  37.681  1.00  0.00     0.001 A 
ATOM     85  C   UNL A   1      37.923  33.608  37.757  1.00  0.00     0.000 A 
ENDBRANCH  67  80
ENDBRANCH  41  42
ENDBRANCH  33  36
ENDBRANCH  31  32
ENDBRANCH  30  31
ENDBRANCH  29  30
ENDBRANCH  28  29
ENDBRANCH   1  28
TORSDOF 18
ENDMDL
