MODEL 1
REMARK VINA RESULT:     -10.8      0.000      0.000
REMARK SMILES Cc1ccc([C@@H](C[NH+](C)C)N2C[C@@H](C(=O)NCCCCCCNC(=O)c3ccc(-c4c5nc(c(-c6ccccc6)c6ccc([nH]6)c(-c6ccccc6)c6nc(c(-c7ccccc7)c7ccc4[nH]7)C=C6)C=C5)cc3)CC2=O)cc1C
REMARK SMILES IDX 19 1 18 2 17 3 16 4 14 5 15 6 13 8 11 9 12 10 75 11 74 12
REMARK SMILES IDX 76 13 6 14 5 15 1 16 2 17 3 18 78 19 4 20 77 21 79 22 7 23
REMARK SMILES IDX 8 24 9 25 10 26 20 28 21 29 22 30 23 31 24 32 25 34 26 35
REMARK SMILES IDX 27 36 73 37 28 38 72 39 29 40 30 41 31 42 66 43 32 44 71 45
REMARK SMILES IDX 65 46 67 47 33 48 70 49 64 50 63 51 34 53 56 54 41 55 55 56
REMARK SMILES IDX 42 57 45 58 54 59 68 60 43 61 44 62 53 64 69 65 46 66 35 67
REMARK SMILES IDX 36 68 40 69 37 70 39 71 38 72 57 73 58 74 62 75 59 76 61 77
REMARK SMILES IDX 60 78 47 79 48 80 52 81 49 82 51 83 50 84
REMARK H PARENT 16 7 8 27 23 33 67 52 45 63
REMARK Flexibility Score: inf
ROOT
ATOM      1  C   UNL A   1      35.247  33.297  29.189  1.00  0.00     0.002 C 
ENDROOT
BRANCH   1   2
ATOM      2  C   UNL A   1      36.051  32.330  28.311  1.00  0.00     0.021 C 
BRANCH   2   3
ATOM      3  C   UNL A   1      35.271  31.100  27.860  1.00  0.00     0.116 C 
BRANCH   3   4
ATOM      4  N   UNL A   1      33.870  31.412  27.649  1.00  0.00    -0.356 N 
ATOM      5  C   UNL A   1      32.852  30.656  27.165  1.00  0.00     0.225 C 
ATOM      6  O   UNL A   1      31.744  31.191  27.066  1.00  0.00    -0.275 OA
ATOM      7  H   UNL A   1      33.614  32.329  27.899  1.00  0.00     0.163 HD
BRANCH   5   8
ATOM      8  C   UNL A   1      33.029  29.205  26.776  1.00  0.00     0.107 C 
ATOM      9  N   UNL A   1      31.895  27.752  25.305  1.00  0.00    -0.329 N 
ATOM     10  C   UNL A   1      32.685  28.958  25.316  1.00  0.00     0.134 C 
ATOM     11  C   UNL A   1      31.728  27.214  26.574  1.00  0.00     0.224 C 
ATOM     12  C   UNL A   1      32.211  28.214  27.591  1.00  0.00     0.115 C 
ATOM     13  O   UNL A   1      31.250  26.130  26.855  1.00  0.00    -0.275 OA
BRANCH   9  14
ATOM     14  C   UNL A   1      31.473  27.057  24.076  1.00  0.00     0.170 C 
BRANCH  14  15
ATOM     15  C   UNL A   1      30.509  27.896  23.243  1.00  0.00    -0.020 A 
ATOM     16  C   UNL A   1      27.870  30.781  21.393  1.00  0.00     0.044 C 
ATOM     17  C   UNL A   1      28.747  29.716  21.991  1.00  0.00    -0.048 A 
ATOM     18  C   UNL A   1      30.128  29.763  21.744  1.00  0.00     0.004 A 
ATOM     19  C   UNL A   1      28.234  28.710  22.829  1.00  0.00    -0.048 A 
ATOM     20  C   UNL A   1      31.001  28.871  22.371  1.00  0.00     0.006 A 
ATOM     21  C   UNL A   1      29.120  27.786  23.409  1.00  0.00     0.009 A 
ATOM     22  C   UNL A   1      26.793  28.644  23.253  1.00  0.00     0.044 C 
ENDBRANCH  14  15
BRANCH  14  23
ATOM     23  C   UNL A   1      32.634  26.457  23.180  1.00  0.00     0.292 C 
BRANCH  23  24
ATOM     24  N   UNL A   1      32.283  25.333  22.271  1.00  0.00    -0.338 N 
ATOM     25  C   UNL A   1      32.517  25.687  20.867  1.00  0.00     0.332 C 
ATOM     26  C   UNL A   1      33.055  24.114  22.562  1.00  0.00     0.332 C 
ATOM     27  H   UNL A   1      31.293  25.148  22.431  1.00  0.00     0.347 HD
ENDBRANCH  23  24
ENDBRANCH  14  23
ENDBRANCH   9  14
ENDBRANCH   5   8
ENDBRANCH   3   4
ENDBRANCH   2   3
ENDBRANCH   1   2
BRANCH   1  28
ATOM     28  C   UNL A   1      35.283  34.761  28.742  1.00  0.00     0.002 C 
BRANCH  28  29
ATOM     29  C   UNL A   1      33.944  35.495  28.828  1.00  0.00     0.021 C 
BRANCH  29  30
ATOM     30  C   UNL A   1      32.930  34.848  29.764  1.00  0.00     0.116 C 
BRANCH  30  31
ATOM     31  N   UNL A   1      32.490  35.758  30.810  1.00  0.00    -0.352 N 
ATOM     32  C   UNL A   1      32.912  35.845  32.113  1.00  0.00     0.251 C 
ATOM     33  H   UNL A   1      31.793  36.402  30.546  1.00  0.00     0.163 HD
ATOM     34  O   UNL A   1      32.309  36.543  32.919  1.00  0.00    -0.269 OA
BRANCH  32  35
ATOM     35  C   UNL A   1      34.093  35.069  32.543  1.00  0.00     0.039 A 
ATOM     36  C   UNL A   1      33.910  33.785  33.064  1.00  0.00     0.014 A 
ATOM     37  C   UNL A   1      35.377  35.606  32.423  1.00  0.00     0.014 A 
ATOM     38  C   UNL A   1      35.023  33.019  33.412  1.00  0.00     0.010 A 
ATOM     39  C   UNL A   1      36.485  34.812  32.694  1.00  0.00     0.010 A 
ATOM     40  C   UNL A   1      36.320  33.514  33.201  1.00  0.00    -0.014 A 
BRANCH  40  41
ATOM     41  C   UNL A   1      37.522  32.707  33.524  1.00  0.00     0.031 A 
ATOM     42  C   UNL A   1      38.285  32.976  34.792  1.00  0.00     0.074 A 
ATOM     43  C   UNL A   1      37.972  31.789  32.648  1.00  0.00     0.049 A 
ATOM     44  N   UNL A   1      39.408  32.450  35.209  1.00  0.00    -0.248 NA
ATOM     45  C   UNL A   1      37.723  33.991  35.699  1.00  0.00     0.031 C 
ATOM     46  C   UNL A   1      37.339  31.451  31.371  1.00  0.00     0.029 A 
ATOM     47  N   UNL A   1      39.077  30.976  32.696  1.00  0.00    -0.354 N 
ATOM     48  C   UNL A   1      39.698  33.085  36.410  1.00  0.00     0.074 A 
ATOM     49  C   UNL A   1      38.662  34.071  36.628  1.00  0.00     0.031 C 
ATOM     50  C   UNL A   1      38.053  30.487  30.769  1.00  0.00     0.029 A 
ATOM     51  C   UNL A   1      39.217  30.171  31.592  1.00  0.00     0.049 A 
ATOM     52  H   UNL A   1      39.709  30.970  33.450  1.00  0.00     0.167 HD
ATOM     53  C   UNL A   1      40.723  32.859  37.265  1.00  0.00     0.031 A 
ATOM     54  C   UNL A   1      40.181  29.287  31.271  1.00  0.00     0.031 A 
ATOM     55  C   UNL A   1      41.748  31.873  37.049  1.00  0.00     0.049 A 
ATOM     56  C   UNL A   1      41.327  29.073  32.223  1.00  0.00     0.074 A 
ATOM     57  C   UNL A   1      42.802  31.531  37.879  1.00  0.00     0.029 A 
ATOM     58  N   UNL A   1      41.852  31.077  35.919  1.00  0.00    -0.354 N 
ATOM     59  N   UNL A   1      41.555  29.639  33.383  1.00  0.00    -0.248 NA
ATOM     60  C   UNL A   1      42.341  28.087  31.824  1.00  0.00     0.031 C 
ATOM     61  C   UNL A   1      43.577  30.569  37.225  1.00  0.00     0.029 A 
ATOM     62  C   UNL A   1      42.967  30.262  36.018  1.00  0.00     0.049 A 
ATOM     63  H   UNL A   1      41.226  31.088  35.161  1.00  0.00     0.167 HD
ATOM     64  C   UNL A   1      42.718  29.054  33.868  1.00  0.00     0.074 A 
ATOM     65  C   UNL A   1      43.141  28.082  32.881  1.00  0.00     0.031 C 
ATOM     66  C   UNL A   1      43.374  29.297  35.030  1.00  0.00     0.031 A 
BRANCH  53  67
ATOM     67  C   UNL A   1      40.790  33.707  38.506  1.00  0.00    -0.014 A 
ATOM     68  C   UNL A   1      41.481  34.931  38.520  1.00  0.00     0.009 A 
ATOM     69  C   UNL A   1      40.133  33.288  39.674  1.00  0.00     0.009 A 
ATOM     70  C   UNL A   1      41.551  35.691  39.690  1.00  0.00     0.001 A 
ATOM     71  C   UNL A   1      40.175  34.067  40.830  1.00  0.00     0.001 A 
ATOM     72  C   UNL A   1      40.894  35.261  40.842  1.00  0.00     0.000 A 
ENDBRANCH  53  67
BRANCH  54  73
ATOM     73  C   UNL A   1      40.102  28.530  29.995  1.00  0.00    -0.014 A 
ATOM     74  C   UNL A   1      40.641  29.067  28.814  1.00  0.00     0.009 A 
ATOM     75  C   UNL A   1      39.486  27.270  29.945  1.00  0.00     0.009 A 
ATOM     76  C   UNL A   1      40.539  28.370  27.608  1.00  0.00     0.001 A 
ATOM     77  C   UNL A   1      39.414  26.561  28.744  1.00  0.00     0.001 A 
ATOM     78  C   UNL A   1      39.930  27.116  27.575  1.00  0.00     0.000 A 
ENDBRANCH  54  73
BRANCH  66  79
ATOM     79  C   UNL A   1      44.591  28.464  35.325  1.00  0.00    -0.014 A 
ATOM     80  C   UNL A   1      44.494  27.222  35.968  1.00  0.00     0.009 A 
ATOM     81  C   UNL A   1      45.852  28.914  34.901  1.00  0.00     0.009 A 
ATOM     82  C   UNL A   1      45.641  26.461  36.210  1.00  0.00     0.001 A 
ATOM     83  C   UNL A   1      46.992  28.138  35.115  1.00  0.00     0.001 A 
ATOM     84  C   UNL A   1      46.887  26.917  35.777  1.00  0.00     0.000 A 
ENDBRANCH  66  79
ENDBRANCH  40  41
ENDBRANCH  32  35
ENDBRANCH  30  31
ENDBRANCH  29  30
ENDBRANCH  28  29
ENDBRANCH   1  28
TORSDOF 17
ENDMDL
MODEL 2
REMARK VINA RESULT:     -10.2      1.406      3.224
REMARK SMILES Cc1ccc([C@@H](C[NH+](C)C)N2C[C@@H](C(=O)NCCCCCCNC(=O)c3ccc(-c4c5nc(c(-c6ccccc6)c6ccc([nH]6)c(-c6ccccc6)c6nc(c(-c7ccccc7)c7ccc4[nH]7)C=C6)C=C5)cc3)CC2=O)cc1C
REMARK SMILES IDX 19 1 18 2 17 3 16 4 14 5 15 6 13 8 11 9 12 10 75 11 74 12
REMARK SMILES IDX 76 13 6 14 5 15 1 16 2 17 3 18 78 19 4 20 77 21 79 22 7 23
REMARK SMILES IDX 8 24 9 25 10 26 20 28 21 29 22 30 23 31 24 32 25 34 26 35
REMARK SMILES IDX 27 36 73 37 28 38 72 39 29 40 30 41 31 42 66 43 32 44 71 45
REMARK SMILES IDX 65 46 67 47 33 48 70 49 64 50 63 51 34 53 56 54 41 55 55 56
REMARK SMILES IDX 42 57 45 58 54 59 68 60 43 61 44 62 53 64 69 65 46 66 35 67
REMARK SMILES IDX 36 68 40 69 37 70 39 71 38 72 57 73 58 74 62 75 59 76 61 77
REMARK SMILES IDX 60 78 47 79 48 80 52 81 49 82 51 83 50 84
REMARK H PARENT 16 7 8 27 23 33 67 52 45 63
REMARK Flexibility Score: inf
ROOT
ATOM      1  C   UNL A   1      35.183  32.979  28.057  1.00  0.00     0.002 C 
ENDROOT
BRANCH   1   2
ATOM      2  C   UNL A   1      34.612  31.702  28.684  1.00  0.00     0.021 C 
BRANCH   2   3
ATOM      3  C   UNL A   1      34.571  30.505  27.739  1.00  0.00     0.116 C 
BRANCH   3   4
ATOM      4  N   UNL A   1      33.378  30.524  26.915  1.00  0.00    -0.356 N 
ATOM      5  C   UNL A   1      32.760  29.537  26.218  1.00  0.00     0.225 C 
ATOM      6  O   UNL A   1      31.756  29.842  25.569  1.00  0.00    -0.275 OA
ATOM      7  H   UNL A   1      32.940  31.403  26.850  1.00  0.00     0.163 HD
BRANCH   5   8
ATOM      8  C   UNL A   1      33.245  28.104  26.234  1.00  0.00     0.107 C 
ATOM      9  N   UNL A   1      33.014  26.278  24.759  1.00  0.00    -0.329 N 
ATOM     10  C   UNL A   1      33.585  27.600  24.840  1.00  0.00     0.134 C 
ATOM     11  C   UNL A   1      32.383  25.898  25.936  1.00  0.00     0.224 C 
ATOM     12  C   UNL A   1      32.274  27.100  26.836  1.00  0.00     0.115 C 
ATOM     13  O   UNL A   1      31.954  24.794  26.215  1.00  0.00    -0.275 OA
BRANCH   9  14
ATOM     14  C   UNL A   1      33.234  25.356  23.632  1.00  0.00     0.170 C 
BRANCH  14  15
ATOM     15  C   UNL A   1      34.188  24.221  23.993  1.00  0.00    -0.020 A 
ATOM     16  C   UNL A   1      36.486  20.936  25.617  1.00  0.00     0.044 C 
ATOM     17  C   UNL A   1      35.756  22.099  25.004  1.00  0.00    -0.048 A 
ATOM     18  C   UNL A   1      34.606  21.846  24.239  1.00  0.00     0.004 A 
ATOM     19  C   UNL A   1      36.159  23.429  25.218  1.00  0.00    -0.048 A 
ATOM     20  C   UNL A   1      33.825  22.894  23.748  1.00  0.00     0.006 A 
ATOM     21  C   UNL A   1      35.391  24.472  24.671  1.00  0.00     0.009 A 
ATOM     22  C   UNL A   1      37.299  23.812  26.119  1.00  0.00     0.044 C 
ENDBRANCH  14  15
BRANCH  14  23
ATOM     23  C   UNL A   1      31.932  24.804  22.917  1.00  0.00     0.292 C 
BRANCH  23  24
ATOM     24  N   UNL A   1      31.475  25.509  21.689  1.00  0.00    -0.338 N 
ATOM     25  C   UNL A   1      31.045  26.879  21.989  1.00  0.00     0.332 C 
ATOM     26  C   UNL A   1      32.524  25.582  20.660  1.00  0.00     0.332 C 
ATOM     27  H   UNL A   1      30.693  24.961  21.332  1.00  0.00     0.347 HD
ENDBRANCH  23  24
ENDBRANCH  14  23
ENDBRANCH   9  14
ENDBRANCH   5   8
ENDBRANCH   3   4
ENDBRANCH   2   3
ENDBRANCH   1   2
BRANCH   1  28
ATOM     28  C   UNL A   1      35.030  34.243  28.907  1.00  0.00     0.002 C 
BRANCH  28  29
ATOM     29  C   UNL A   1      33.594  34.743  29.070  1.00  0.00     0.021 C 
BRANCH  29  30
ATOM     30  C   UNL A   1      33.478  36.215  29.444  1.00  0.00     0.116 C 
BRANCH  30  31
ATOM     31  N   UNL A   1      32.538  36.432  30.533  1.00  0.00    -0.352 N 
ATOM     32  C   UNL A   1      32.542  35.895  31.795  1.00  0.00     0.251 C 
ATOM     33  H   UNL A   1      31.798  37.051  30.337  1.00  0.00     0.163 HD
ATOM     34  O   UNL A   1      31.575  36.034  32.535  1.00  0.00    -0.269 OA
BRANCH  32  35
ATOM     35  C   UNL A   1      33.718  35.125  32.251  1.00  0.00     0.039 A 
ATOM     36  C   UNL A   1      33.554  33.786  32.615  1.00  0.00     0.014 A 
ATOM     37  C   UNL A   1      34.979  35.724  32.307  1.00  0.00     0.014 A 
ATOM     38  C   UNL A   1      34.669  33.032  32.983  1.00  0.00     0.010 A 
ATOM     39  C   UNL A   1      36.097  34.951  32.595  1.00  0.00     0.010 A 
ATOM     40  C   UNL A   1      35.953  33.600  32.946  1.00  0.00    -0.014 A 
BRANCH  40  41
ATOM     41  C   UNL A   1      37.162  32.812  33.293  1.00  0.00     0.031 A 
ATOM     42  C   UNL A   1      37.891  33.088  34.579  1.00  0.00     0.074 A 
ATOM     43  C   UNL A   1      37.646  31.904  32.424  1.00  0.00     0.049 A 
ATOM     44  N   UNL A   1      39.013  32.580  35.019  1.00  0.00    -0.248 NA
ATOM     45  C   UNL A   1      37.292  34.091  35.477  1.00  0.00     0.031 C 
ATOM     46  C   UNL A   1      37.048  31.561  31.132  1.00  0.00     0.029 A 
ATOM     47  N   UNL A   1      38.763  31.110  32.495  1.00  0.00    -0.354 N 
ATOM     48  C   UNL A   1      39.265  33.215  36.229  1.00  0.00     0.074 A 
ATOM     49  C   UNL A   1      38.208  34.183  36.427  1.00  0.00     0.031 C 
ATOM     50  C   UNL A   1      37.792  30.611  30.544  1.00  0.00     0.029 A 
ATOM     51  C   UNL A   1      38.942  30.312  31.392  1.00  0.00     0.049 A 
ATOM     52  H   UNL A   1      39.379  31.112  33.263  1.00  0.00     0.167 HD
ATOM     53  C   UNL A   1      40.274  33.003  37.107  1.00  0.00     0.031 A 
ATOM     54  C   UNL A   1      39.928  29.446  31.090  1.00  0.00     0.031 A 
ATOM     55  C   UNL A   1      41.321  32.036  36.910  1.00  0.00     0.049 A 
ATOM     56  C   UNL A   1      41.055  29.246  32.066  1.00  0.00     0.074 A 
ATOM     57  C   UNL A   1      42.361  31.707  37.762  1.00  0.00     0.029 A 
ATOM     58  N   UNL A   1      41.463  31.245  35.780  1.00  0.00    -0.354 N 
ATOM     59  N   UNL A   1      41.248  29.812  33.233  1.00  0.00    -0.248 NA
ATOM     60  C   UNL A   1      42.095  28.280  31.687  1.00  0.00     0.031 C 
ATOM     61  C   UNL A   1      43.167  30.762  37.122  1.00  0.00     0.029 A 
ATOM     62  C   UNL A   1      42.589  30.449  35.902  1.00  0.00     0.049 A 
ATOM     63  H   UNL A   1      40.854  31.249  35.008  1.00  0.00     0.167 HD
ATOM     64  C   UNL A   1      42.410  29.244  33.742  1.00  0.00     0.074 A 
ATOM     65  C   UNL A   1      42.870  28.284  32.762  1.00  0.00     0.031 C 
ATOM     66  C   UNL A   1      43.034  29.494  34.919  1.00  0.00     0.031 A 
BRANCH  53  67
ATOM     67  C   UNL A   1      40.299  33.847  38.352  1.00  0.00    -0.014 A 
ATOM     68  C   UNL A   1      40.982  35.075  38.390  1.00  0.00     0.009 A 
ATOM     69  C   UNL A   1      39.609  33.421  39.497  1.00  0.00     0.009 A 
ATOM     70  C   UNL A   1      41.013  35.832  39.564  1.00  0.00     0.001 A 
ATOM     71  C   UNL A   1      39.612  34.196  40.657  1.00  0.00     0.001 A 
ATOM     72  C   UNL A   1      40.324  35.394  40.694  1.00  0.00     0.000 A 
ENDBRANCH  53  67
BRANCH  54  73
ATOM     73  C   UNL A   1      39.891  28.692  29.809  1.00  0.00    -0.014 A 
ATOM     74  C   UNL A   1      40.436  29.247  28.640  1.00  0.00     0.009 A 
ATOM     75  C   UNL A   1      39.307  27.416  29.744  1.00  0.00     0.009 A 
ATOM     76  C   UNL A   1      40.372  28.553  27.430  1.00  0.00     0.001 A 
ATOM     77  C   UNL A   1      39.274  26.711  28.540  1.00  0.00     0.001 A 
ATOM     78  C   UNL A   1      39.796  27.284  27.382  1.00  0.00     0.000 A 
ENDBRANCH  54  73
BRANCH  66  79
ATOM     79  C   UNL A   1      44.259  28.681  35.239  1.00  0.00    -0.014 A 
ATOM     80  C   UNL A   1      44.169  27.441  35.889  1.00  0.00     0.009 A 
ATOM     81  C   UNL A   1      45.520  29.146  34.832  1.00  0.00     0.009 A 
ATOM     82  C   UNL A   1      45.323  26.699  36.154  1.00  0.00     0.001 A 
ATOM     83  C   UNL A   1      46.667  28.388  35.069  1.00  0.00     0.001 A 
ATOM     84  C   UNL A   1      46.568  27.170  35.737  1.00  0.00     0.000 A 
ENDBRANCH  66  79
ENDBRANCH  40  41
ENDBRANCH  32  35
ENDBRANCH  30  31
ENDBRANCH  29  30
ENDBRANCH  28  29
ENDBRANCH   1  28
TORSDOF 17
ENDMDL
MODEL 3
REMARK VINA RESULT:     -10.1      1.178      2.707
REMARK SMILES Cc1ccc([C@@H](C[NH+](C)C)N2C[C@@H](C(=O)NCCCCCCNC(=O)c3ccc(-c4c5nc(c(-c6ccccc6)c6ccc([nH]6)c(-c6ccccc6)c6nc(c(-c7ccccc7)c7ccc4[nH]7)C=C6)C=C5)cc3)CC2=O)cc1C
REMARK SMILES IDX 19 1 18 2 17 3 16 4 14 5 15 6 13 8 11 9 12 10 75 11 74 12
REMARK SMILES IDX 76 13 6 14 5 15 1 16 2 17 3 18 78 19 4 20 77 21 79 22 7 23
REMARK SMILES IDX 8 24 9 25 10 26 20 28 21 29 22 30 23 31 24 32 25 34 26 35
REMARK SMILES IDX 27 36 73 37 28 38 72 39 29 40 30 41 31 42 66 43 32 44 71 45
REMARK SMILES IDX 65 46 67 47 33 48 70 49 64 50 63 51 34 53 56 54 41 55 55 56
REMARK SMILES IDX 42 57 45 58 54 59 68 60 43 61 44 62 53 64 69 65 46 66 35 67
REMARK SMILES IDX 36 68 40 69 37 70 39 71 38 72 57 73 58 74 62 75 59 76 61 77
REMARK SMILES IDX 60 78 47 79 48 80 52 81 49 82 51 83 50 84
REMARK H PARENT 16 7 8 27 23 33 67 52 45 63
REMARK Flexibility Score: inf
ROOT
ATOM      1  C   UNL A   1      35.593  33.574  28.782  1.00  0.00     0.002 C 
ENDROOT
BRANCH   1   2
ATOM      2  C   UNL A   1      34.981  32.179  28.950  1.00  0.00     0.021 C 
BRANCH   2   3
ATOM      3  C   UNL A   1      34.276  31.651  27.705  1.00  0.00     0.116 C 
BRANCH   3   4
ATOM      4  N   UNL A   1      33.595  30.399  27.975  1.00  0.00    -0.356 N 
ATOM      5  C   UNL A   1      32.860  29.592  27.169  1.00  0.00     0.225 C 
ATOM      6  O   UNL A   1      32.364  28.581  27.675  1.00  0.00    -0.275 OA
ATOM      7  H   UNL A   1      33.682  30.079  28.902  1.00  0.00     0.163 HD
BRANCH   5   8
ATOM      8  C   UNL A   1      32.655  29.881  25.698  1.00  0.00     0.107 C 
ATOM      9  N   UNL A   1      31.870  28.611  23.872  1.00  0.00    -0.329 N 
ATOM     10  C   UNL A   1      31.442  29.156  25.137  1.00  0.00     0.134 C 
ATOM     11  C   UNL A   1      33.189  28.928  23.576  1.00  0.00     0.224 C 
ATOM     12  C   UNL A   1      33.830  29.524  24.801  1.00  0.00     0.115 C 
ATOM     13  O   UNL A   1      33.768  28.744  22.521  1.00  0.00    -0.275 OA
BRANCH   9  14
ATOM     14  C   UNL A   1      30.966  27.956  22.911  1.00  0.00     0.170 C 
BRANCH  14  15
ATOM     15  C   UNL A   1      31.010  26.436  23.021  1.00  0.00    -0.020 A 
ATOM     16  C   UNL A   1      31.603  22.238  23.880  1.00  0.00     0.044 C 
ATOM     17  C   UNL A   1      31.370  23.674  23.502  1.00  0.00    -0.048 A 
ATOM     18  C   UNL A   1      30.412  24.413  24.215  1.00  0.00     0.004 A 
ATOM     19  C   UNL A   1      32.117  24.312  22.496  1.00  0.00    -0.048 A 
ATOM     20  C   UNL A   1      30.241  25.779  23.986  1.00  0.00     0.006 A 
ATOM     21  C   UNL A   1      31.894  25.676  22.240  1.00  0.00     0.009 A 
ATOM     22  C   UNL A   1      33.247  23.647  21.760  1.00  0.00     0.044 C 
ENDBRANCH  14  15
BRANCH  14  23
ATOM     23  C   UNL A   1      29.472  28.486  22.886  1.00  0.00     0.292 C 
BRANCH  23  24
ATOM     24  N   UNL A   1      29.246  29.867  22.380  1.00  0.00    -0.338 N 
ATOM     25  C   UNL A   1      28.057  29.933  21.523  1.00  0.00     0.332 C 
ATOM     26  C   UNL A   1      29.073  30.843  23.468  1.00  0.00     0.332 C 
ATOM     27  H   UNL A   1      30.082  30.105  21.846  1.00  0.00     0.347 HD
ENDBRANCH  23  24
ENDBRANCH  14  23
ENDBRANCH   9  14
ENDBRANCH   5   8
ENDBRANCH   3   4
ENDBRANCH   2   3
ENDBRANCH   1   2
BRANCH   1  28
ATOM     28  C   UNL A   1      34.709  34.587  28.048  1.00  0.00     0.002 C 
BRANCH  28  29
ATOM     29  C   UNL A   1      33.952  35.559  28.954  1.00  0.00     0.021 C 
BRANCH  29  30
ATOM     30  C   UNL A   1      32.922  34.901  29.864  1.00  0.00     0.116 C 
BRANCH  30  31
ATOM     31  N   UNL A   1      32.494  35.785  30.937  1.00  0.00    -0.352 N 
ATOM     32  C   UNL A   1      32.936  35.845  32.234  1.00  0.00     0.251 C 
ATOM     33  H   UNL A   1      31.789  36.430  30.698  1.00  0.00     0.163 HD
ATOM     34  O   UNL A   1      32.342  36.522  33.065  1.00  0.00    -0.269 OA
BRANCH  32  35
ATOM     35  C   UNL A   1      34.129  35.067  32.629  1.00  0.00     0.039 A 
ATOM     36  C   UNL A   1      33.956  33.817  33.229  1.00  0.00     0.014 A 
ATOM     37  C   UNL A   1      35.412  35.570  32.397  1.00  0.00     0.014 A 
ATOM     38  C   UNL A   1      35.075  33.045  33.544  1.00  0.00     0.010 A 
ATOM     39  C   UNL A   1      36.520  34.767  32.638  1.00  0.00     0.010 A 
ATOM     40  C   UNL A   1      36.364  33.501  33.224  1.00  0.00    -0.014 A 
BRANCH  40  41
ATOM     41  C   UNL A   1      37.571  32.686  33.511  1.00  0.00     0.031 A 
ATOM     42  C   UNL A   1      38.348  32.921  34.777  1.00  0.00     0.074 A 
ATOM     43  C   UNL A   1      38.010  31.791  32.606  1.00  0.00     0.049 A 
ATOM     44  N   UNL A   1      39.476  32.385  35.166  1.00  0.00    -0.248 NA
ATOM     45  C   UNL A   1      37.798  33.912  35.716  1.00  0.00     0.031 C 
ATOM     46  C   UNL A   1      37.362  31.487  31.328  1.00  0.00     0.029 A 
ATOM     47  N   UNL A   1      39.115  30.977  32.620  1.00  0.00    -0.354 N 
ATOM     48  C   UNL A   1      39.780  32.988  36.380  1.00  0.00     0.074 A 
ATOM     49  C   UNL A   1      38.748  33.968  36.636  1.00  0.00     0.031 C 
ATOM     50  C   UNL A   1      38.068  30.539  30.693  1.00  0.00     0.029 A 
ATOM     51  C   UNL A   1      39.242  30.201  31.493  1.00  0.00     0.049 A 
ATOM     52  H   UNL A   1      39.756  30.952  33.366  1.00  0.00     0.167 HD
ATOM     53  C   UNL A   1      40.815  32.740  37.217  1.00  0.00     0.031 A 
ATOM     54  C   UNL A   1      40.202  29.327  31.138  1.00  0.00     0.031 A 
ATOM     55  C   UNL A   1      41.838  31.760  36.963  1.00  0.00     0.049 A 
ATOM     56  C   UNL A   1      41.359  29.087  32.070  1.00  0.00     0.074 A 
ATOM     57  C   UNL A   1      42.901  31.396  37.771  1.00  0.00     0.029 A 
ATOM     58  N   UNL A   1      41.928  30.993  35.811  1.00  0.00    -0.354 N 
ATOM     59  N   UNL A   1      41.601  29.623  33.242  1.00  0.00    -0.248 NA
ATOM     60  C   UNL A   1      42.368  28.113  31.633  1.00  0.00     0.031 C 
ATOM     61  C   UNL A   1      43.669  30.452  37.082  1.00  0.00     0.029 A 
ATOM     62  C   UNL A   1      43.044  30.176  35.876  1.00  0.00     0.049 A 
ATOM     63  H   UNL A   1      41.293  31.025  35.061  1.00  0.00     0.167 HD
ATOM     64  C   UNL A   1      42.770  29.025  33.697  1.00  0.00     0.074 A 
ATOM     65  C   UNL A   1      43.180  28.080  32.680  1.00  0.00     0.031 C 
ATOM     66  C   UNL A   1      43.439  29.238  34.857  1.00  0.00     0.031 A 
BRANCH  53  67
ATOM     67  C   UNL A   1      40.897  33.555  38.479  1.00  0.00    -0.014 A 
ATOM     68  C   UNL A   1      40.285  33.126  39.669  1.00  0.00     0.009 A 
ATOM     69  C   UNL A   1      41.616  34.760  38.485  1.00  0.00     0.009 A 
ATOM     70  C   UNL A   1      40.352  33.909  40.823  1.00  0.00     0.001 A 
ATOM     71  C   UNL A   1      41.711  35.524  39.648  1.00  0.00     0.001 A 
ATOM     72  C   UNL A   1      41.069  35.105  40.813  1.00  0.00     0.000 A 
ENDBRANCH  53  67
BRANCH  54  73
ATOM     73  C   UNL A   1      40.108  28.603  29.843  1.00  0.00    -0.014 A 
ATOM     74  C   UNL A   1      39.482  27.348  29.772  1.00  0.00     0.009 A 
ATOM     75  C   UNL A   1      40.646  29.158  28.670  1.00  0.00     0.009 A 
ATOM     76  C   UNL A   1      39.422  26.653  28.562  1.00  0.00     0.001 A 
ATOM     77  C   UNL A   1      40.556  28.476  27.456  1.00  0.00     0.001 A 
ATOM     78  C   UNL A   1      39.954  27.220  27.404  1.00  0.00     0.000 A 
ENDBRANCH  54  73
BRANCH  66  79
ATOM     79  C   UNL A   1      44.660  28.398  35.116  1.00  0.00    -0.014 A 
ATOM     80  C   UNL A   1      44.571  27.145  35.740  1.00  0.00     0.009 A 
ATOM     81  C   UNL A   1      45.913  28.852  34.676  1.00  0.00     0.009 A 
ATOM     82  C   UNL A   1      45.721  26.378  35.949  1.00  0.00     0.001 A 
ATOM     83  C   UNL A   1      47.055  28.070  34.856  1.00  0.00     0.001 A 
ATOM     84  C   UNL A   1      46.959  26.838  35.500  1.00  0.00     0.000 A 
ENDBRANCH  66  79
ENDBRANCH  40  41
ENDBRANCH  32  35
ENDBRANCH  30  31
ENDBRANCH  29  30
ENDBRANCH  28  29
ENDBRANCH   1  28
TORSDOF 17
ENDMDL
