MODEL 1
REMARK VINA RESULT:     -12.5      0.000      0.000
REMARK SMILES Cc1cccc(-c2ncc([C@@H]3[NH2+][C@H](C(=O)NCCCCCCNC(=O)c4ccc(-c5c6nc(c(-c7ccccc7)c7ccc([nH]7)c(-c7ccccc7)c7nc(c(-c8ccccc8)c8ccc5[nH]8)C=C7)C=C6)cc4)C(C)(C)S3)s2)c1
REMARK SMILES IDX 19 1 18 2 17 3 16 4 14 5 15 6 13 8 11 9 12 10 77 11 74 14
REMARK SMILES IDX 75 15 76 16 10 17 7 18 8 19 78 20 9 21 6 22 1 23 2 24 3 25
REMARK SMILES IDX 79 26 4 27 5 28 20 29 21 30 22 31 23 32 24 33 25 35 26 36
REMARK SMILES IDX 27 37 73 38 28 39 72 40 29 41 30 42 31 43 66 44 32 45 71 46
REMARK SMILES IDX 65 47 67 48 33 49 70 50 64 51 63 52 34 54 56 55 41 56 55 57
REMARK SMILES IDX 42 58 45 59 54 60 68 61 43 62 44 63 53 65 69 66 46 67 35 68
REMARK SMILES IDX 36 69 40 70 37 71 39 72 38 73 57 74 58 75 62 76 59 77 61 78
REMARK SMILES IDX 60 79 47 80 48 81 52 82 49 83 51 84 50 85
REMARK H PARENT 16 7 12 12 12 13 23 34 67 53 45 64
REMARK Flexibility Score: inf
ROOT
ATOM      1  C   UNL A   1      32.419  28.507  25.828  1.00  0.00     0.002 C 
ENDROOT
BRANCH   1   2
ATOM      2  C   UNL A   1      33.654  27.769  25.291  1.00  0.00     0.021 C 
BRANCH   2   3
ATOM      3  C   UNL A   1      33.836  26.325  25.771  1.00  0.00     0.116 C 
BRANCH   3   4
ATOM      4  N   UNL A   1      32.585  25.731  26.159  1.00  0.00    -0.351 N 
ATOM      5  C   UNL A   1      32.093  24.477  26.152  1.00  0.00     0.279 C 
ATOM      6  O   UNL A   1      31.133  24.355  26.933  1.00  0.00    -0.268 OA
ATOM      7  H   UNL A   1      31.942  26.390  26.507  1.00  0.00     0.163 HD
BRANCH   5   8
ATOM      8  C   UNL A   1      32.658  23.208  25.400  1.00  0.00     0.289 C 
ATOM      9  C   UNL A   1      32.207  23.761  23.080  1.00  0.00     0.286 C 
ATOM     10  N   UNL A   1      31.719  22.990  24.233  1.00  0.00    -0.319 N 
ATOM     11  S   UNL A   1      34.014  23.694  23.121  1.00  0.00    -0.080 SA
ATOM     12  H   UNL A   1      31.691  21.998  23.996  1.00  0.00     0.348 HD
ATOM     13  H   UNL A   1      30.779  23.298  24.483  1.00  0.00     0.348 HD
ATOM     14  C   UNL A   1      34.074  22.965  24.792  1.00  0.00     0.077 C 
ATOM     15  C   UNL A   1      34.318  21.446  24.596  1.00  0.00     0.030 C 
ATOM     16  C   UNL A   1      35.310  23.515  25.481  1.00  0.00     0.030 C 
BRANCH   9  17
ATOM     17  C   UNL A   1      31.715  25.176  22.998  1.00  0.00     0.093 A 
ATOM     18  C   UNL A   1      30.366  27.222  23.057  1.00  0.00     0.123 A 
ATOM     19  N   UNL A   1      31.510  27.449  22.442  1.00  0.00    -0.244 NA
ATOM     20  S   UNL A   1      30.176  25.609  23.639  1.00  0.00    -0.112 S 
ATOM     21  C   UNL A   1      32.271  26.301  22.415  1.00  0.00     0.134 A 
BRANCH  18  22
ATOM     22  C   UNL A   1      29.295  28.228  23.171  1.00  0.00     0.011 A 
ATOM     23  C   UNL A   1      29.102  32.035  23.519  1.00  0.00     0.044 C 
ATOM     24  C   UNL A   1      28.694  30.597  23.392  1.00  0.00    -0.050 A 
ATOM     25  C   UNL A   1      27.341  30.250  23.360  1.00  0.00     0.003 A 
ATOM     26  C   UNL A   1      29.657  29.583  23.303  1.00  0.00     0.014 A 
ATOM     27  C   UNL A   1      26.960  28.914  23.243  1.00  0.00     0.001 A 
ATOM     28  C   UNL A   1      27.929  27.909  23.151  1.00  0.00     0.011 A 
ENDBRANCH  18  22
ENDBRANCH   9  17
ENDBRANCH   5   8
ENDBRANCH   3   4
ENDBRANCH   2   3
ENDBRANCH   1   2
BRANCH   1  29
ATOM     29  C   UNL A   1      32.387  30.033  25.656  1.00  0.00     0.002 C 
BRANCH  29  30
ATOM     30  C   UNL A   1      32.693  30.865  26.903  1.00  0.00     0.021 C 
BRANCH  30  31
ATOM     31  C   UNL A   1      33.842  30.328  27.747  1.00  0.00     0.116 C 
BRANCH  31  32
ATOM     32  N   UNL A   1      34.439  31.327  28.628  1.00  0.00    -0.352 N 
ATOM     33  C   UNL A   1      35.682  31.307  29.240  1.00  0.00     0.251 C 
ATOM     34  H   UNL A   1      33.886  32.120  28.812  1.00  0.00     0.163 HD
ATOM     35  O   UNL A   1      36.060  32.239  29.928  1.00  0.00    -0.269 OA
BRANCH  33  36
ATOM     36  C   UNL A   1      36.597  30.184  28.931  1.00  0.00     0.039 A 
ATOM     37  C   UNL A   1      36.932  29.314  29.973  1.00  0.00     0.014 A 
ATOM     38  C   UNL A   1      37.288  30.147  27.723  1.00  0.00     0.014 A 
ATOM     39  C   UNL A   1      38.119  28.593  29.895  1.00  0.00     0.010 A 
ATOM     40  C   UNL A   1      38.509  29.501  27.679  1.00  0.00     0.010 A 
ATOM     41  C   UNL A   1      38.955  28.788  28.795  1.00  0.00    -0.014 A 
BRANCH  41  42
ATOM     42  C   UNL A   1      40.346  28.356  28.783  1.00  0.00     0.031 A 
ATOM     43  C   UNL A   1      40.700  27.012  28.300  1.00  0.00     0.074 A 
ATOM     44  C   UNL A   1      41.328  29.168  29.233  1.00  0.00     0.049 A 
ATOM     45  N   UNL A   1      41.690  26.317  28.753  1.00  0.00    -0.248 NA
ATOM     46  C   UNL A   1      39.916  26.324  27.283  1.00  0.00     0.031 C 
ATOM     47  C   UNL A   1      42.769  28.945  29.144  1.00  0.00     0.029 A 
ATOM     48  N   UNL A   1      41.211  30.252  30.102  1.00  0.00    -0.354 N 
ATOM     49  C   UNL A   1      41.880  25.280  27.871  1.00  0.00     0.074 A 
ATOM     50  C   UNL A   1      40.689  25.260  27.050  1.00  0.00     0.031 C 
ATOM     51  C   UNL A   1      43.363  29.604  30.150  1.00  0.00     0.029 A 
ATOM     52  C   UNL A   1      42.311  30.174  30.975  1.00  0.00     0.049 A 
ATOM     53  H   UNL A   1      40.501  30.933  30.105  1.00  0.00     0.167 HD
ATOM     54  C   UNL A   1      43.091  24.656  27.809  1.00  0.00     0.031 A 
ATOM     55  C   UNL A   1      42.180  30.033  32.326  1.00  0.00     0.031 A 
ATOM     56  C   UNL A   1      44.033  25.144  28.819  1.00  0.00     0.049 A 
ATOM     57  C   UNL A   1      42.837  28.779  32.877  1.00  0.00     0.074 A 
ATOM     58  C   UNL A   1      45.167  25.941  28.784  1.00  0.00     0.029 A 
ATOM     59  N   UNL A   1      43.699  25.026  30.159  1.00  0.00    -0.354 N 
ATOM     60  N   UNL A   1      43.490  27.906  32.160  1.00  0.00    -0.248 NA
ATOM     61  C   UNL A   1      42.686  28.344  34.266  1.00  0.00     0.031 C 
ATOM     62  C   UNL A   1      45.514  26.290  30.121  1.00  0.00     0.029 A 
ATOM     63  C   UNL A   1      44.593  25.703  30.967  1.00  0.00     0.049 A 
ATOM     64  H   UNL A   1      42.922  24.522  30.494  1.00  0.00     0.167 HD
ATOM     65  C   UNL A   1      43.783  26.806  32.926  1.00  0.00     0.074 A 
ATOM     66  C   UNL A   1      43.261  27.130  34.240  1.00  0.00     0.031 C 
ATOM     67  C   UNL A   1      44.380  25.693  32.406  1.00  0.00     0.031 A 
BRANCH  54  68
ATOM     68  C   UNL A   1      43.492  23.803  26.628  1.00  0.00    -0.014 A 
ATOM     69  C   UNL A   1      43.333  22.407  26.684  1.00  0.00     0.009 A 
ATOM     70  C   UNL A   1      44.087  24.305  25.458  1.00  0.00     0.009 A 
ATOM     71  C   UNL A   1      43.847  21.560  25.695  1.00  0.00     0.001 A 
ATOM     72  C   UNL A   1      44.647  23.464  24.487  1.00  0.00     0.001 A 
ATOM     73  C   UNL A   1      44.540  22.087  24.613  1.00  0.00     0.000 A 
ENDBRANCH  54  68
BRANCH  55  74
ATOM     74  C   UNL A   1      40.931  30.640  32.865  1.00  0.00    -0.014 A 
ATOM     75  C   UNL A   1      39.773  29.838  32.907  1.00  0.00     0.009 A 
ATOM     76  C   UNL A   1      40.983  31.789  33.667  1.00  0.00     0.009 A 
ATOM     77  C   UNL A   1      38.756  30.101  33.829  1.00  0.00     0.001 A 
ATOM     78  C   UNL A   1      39.951  32.059  34.572  1.00  0.00     0.001 A 
ATOM     79  C   UNL A   1      38.862  31.193  34.684  1.00  0.00     0.000 A 
ENDBRANCH  55  74
BRANCH  67  80
ATOM     80  C   UNL A   1      44.769  24.462  33.191  1.00  0.00    -0.014 A 
ATOM     81  C   UNL A   1      43.879  23.428  33.512  1.00  0.00     0.009 A 
ATOM     82  C   UNL A   1      46.067  24.366  33.743  1.00  0.00     0.009 A 
ATOM     83  C   UNL A   1      44.289  22.319  34.268  1.00  0.00     0.001 A 
ATOM     84  C   UNL A   1      46.474  23.276  34.517  1.00  0.00     0.001 A 
ATOM     85  C   UNL A   1      45.586  22.241  34.765  1.00  0.00     0.000 A 
ENDBRANCH  67  80
ENDBRANCH  41  42
ENDBRANCH  33  36
ENDBRANCH  31  32
ENDBRANCH  30  31
ENDBRANCH  29  30
ENDBRANCH   1  29
TORSDOF 15
ENDMDL
MODEL 2
REMARK VINA RESULT:     -12.4      3.191      8.648
REMARK SMILES Cc1cccc(-c2ncc([C@@H]3[NH2+][C@H](C(=O)NCCCCCCNC(=O)c4ccc(-c5c6nc(c(-c7ccccc7)c7ccc([nH]7)c(-c7ccccc7)c7nc(c(-c8ccccc8)c8ccc5[nH]8)C=C7)C=C6)cc4)C(C)(C)S3)s2)c1
REMARK SMILES IDX 19 1 18 2 17 3 16 4 14 5 15 6 13 8 11 9 12 10 77 11 74 14
REMARK SMILES IDX 75 15 76 16 10 17 7 18 8 19 78 20 9 21 6 22 1 23 2 24 3 25
REMARK SMILES IDX 79 26 4 27 5 28 20 29 21 30 22 31 23 32 24 33 25 35 26 36
REMARK SMILES IDX 27 37 73 38 28 39 72 40 29 41 30 42 31 43 66 44 32 45 71 46
REMARK SMILES IDX 65 47 67 48 33 49 70 50 64 51 63 52 34 54 56 55 41 56 55 57
REMARK SMILES IDX 42 58 45 59 54 60 68 61 43 62 44 63 53 65 69 66 46 67 35 68
REMARK SMILES IDX 36 69 40 70 37 71 39 72 38 73 57 74 58 75 62 76 59 77 61 78
REMARK SMILES IDX 60 79 47 80 48 81 52 82 49 83 51 84 50 85
REMARK H PARENT 16 7 12 12 12 13 23 34 67 53 45 64
REMARK Flexibility Score: inf
ROOT
ATOM      1  C   UNL A   1      36.876  23.390  25.202  1.00  0.00     0.002 C 
ENDROOT
BRANCH   1   2
ATOM      2  C   UNL A   1      35.610  23.685  26.017  1.00  0.00     0.021 C 
BRANCH   2   3
ATOM      3  C   UNL A   1      34.739  24.841  25.515  1.00  0.00     0.116 C 
BRANCH   3   4
ATOM      4  N   UNL A   1      34.451  24.719  24.110  1.00  0.00    -0.351 N 
ATOM      5  C   UNL A   1      33.623  25.354  23.258  1.00  0.00     0.279 C 
ATOM      6  O   UNL A   1      33.978  25.203  22.076  1.00  0.00    -0.268 OA
ATOM      7  H   UNL A   1      34.976  24.010  23.674  1.00  0.00     0.163 HD
BRANCH   5   8
ATOM      8  C   UNL A   1      32.411  26.308  23.598  1.00  0.00     0.289 C 
ATOM      9  C   UNL A   1      30.800  24.753  24.535  1.00  0.00     0.286 C 
ATOM     10  N   UNL A   1      31.172  25.487  23.315  1.00  0.00    -0.319 N 
ATOM     11  S   UNL A   1      31.159  25.835  25.938  1.00  0.00    -0.080 SA
ATOM     12  H   UNL A   1      30.407  26.104  23.040  1.00  0.00     0.348 HD
ATOM     13  H   UNL A   1      31.358  24.829  22.558  1.00  0.00     0.348 HD
ATOM     14  C   UNL A   1      32.076  27.048  24.930  1.00  0.00     0.077 C 
ATOM     15  C   UNL A   1      31.095  28.219  24.659  1.00  0.00     0.030 C 
ATOM     16  C   UNL A   1      33.188  27.609  25.798  1.00  0.00     0.030 C 
BRANCH   9  17
ATOM     17  C   UNL A   1      31.450  23.410  24.700  1.00  0.00     0.093 A 
ATOM     18  C   UNL A   1      32.329  21.147  24.365  1.00  0.00     0.123 A 
ATOM     19  N   UNL A   1      32.359  21.462  25.645  1.00  0.00    -0.244 NA
ATOM     20  S   UNL A   1      31.720  22.392  23.338  1.00  0.00    -0.112 S 
ATOM     21  C   UNL A   1      31.872  22.737  25.832  1.00  0.00     0.134 A 
BRANCH  18  22
ATOM     22  C   UNL A   1      32.699  19.816  23.850  1.00  0.00     0.011 A 
ATOM     23  C   UNL A   1      35.129  17.038  24.863  1.00  0.00     0.044 C 
ATOM     24  C   UNL A   1      34.079  17.804  24.115  1.00  0.00    -0.050 A 
ATOM     25  C   UNL A   1      33.471  17.247  22.988  1.00  0.00     0.003 A 
ATOM     26  C   UNL A   1      33.692  19.085  24.532  1.00  0.00     0.014 A 
ATOM     27  C   UNL A   1      32.496  17.959  22.290  1.00  0.00     0.001 A 
ATOM     28  C   UNL A   1      32.113  19.235  22.717  1.00  0.00     0.011 A 
ENDBRANCH  18  22
ENDBRANCH   9  17
ENDBRANCH   5   8
ENDBRANCH   3   4
ENDBRANCH   2   3
ENDBRANCH   1   2
BRANCH   1  29
ATOM     29  C   UNL A   1      38.159  23.083  25.988  1.00  0.00     0.002 C 
BRANCH  29  30
ATOM     30  C   UNL A   1      38.787  21.707  25.757  1.00  0.00     0.021 C 
BRANCH  30  31
ATOM     31  C   UNL A   1      40.002  21.419  26.629  1.00  0.00     0.116 C 
BRANCH  31  32
ATOM     32  N   UNL A   1      41.014  20.597  25.973  1.00  0.00    -0.352 N 
ATOM     33  C   UNL A   1      42.391  20.745  25.990  1.00  0.00     0.251 C 
ATOM     34  H   UNL A   1      40.672  19.838  25.446  1.00  0.00     0.163 HD
ATOM     35  O   UNL A   1      43.117  19.952  25.414  1.00  0.00    -0.269 OA
BRANCH  33  36
ATOM     36  C   UNL A   1      42.971  21.813  26.835  1.00  0.00     0.039 A 
ATOM     37  C   UNL A   1      42.750  21.741  28.214  1.00  0.00     0.014 A 
ATOM     38  C   UNL A   1      43.495  22.966  26.258  1.00  0.00     0.014 A 
ATOM     39  C   UNL A   1      42.810  22.908  28.969  1.00  0.00     0.010 A 
ATOM     40  C   UNL A   1      43.471  24.141  26.985  1.00  0.00     0.010 A 
ATOM     41  C   UNL A   1      43.055  24.119  28.319  1.00  0.00    -0.014 A 
BRANCH  41  42
ATOM     42  C   UNL A   1      42.801  25.409  28.947  1.00  0.00     0.031 A 
ATOM     43  C   UNL A   1      41.668  26.237  28.505  1.00  0.00     0.074 A 
ATOM     44  C   UNL A   1      43.611  25.876  29.923  1.00  0.00     0.049 A 
ATOM     45  N   UNL A   1      41.667  27.528  28.515  1.00  0.00    -0.248 NA
ATOM     46  C   UNL A   1      40.447  25.653  27.967  1.00  0.00     0.031 C 
ATOM     47  C   UNL A   1      43.403  27.063  30.749  1.00  0.00     0.029 A 
ATOM     48  N   UNL A   1      44.927  25.507  30.192  1.00  0.00    -0.354 N 
ATOM     49  C   UNL A   1      40.364  27.924  28.328  1.00  0.00     0.074 A 
ATOM     50  C   UNL A   1      39.671  26.737  27.876  1.00  0.00     0.031 C 
ATOM     51  C   UNL A   1      44.602  27.514  31.149  1.00  0.00     0.029 A 
ATOM     52  C   UNL A   1      45.612  26.695  30.501  1.00  0.00     0.049 A 
ATOM     53  H   UNL A   1      45.302  24.597  30.171  1.00  0.00     0.167 HD
ATOM     54  C   UNL A   1      39.966  29.163  28.735  1.00  0.00     0.031 A 
ATOM     55  C   UNL A   1      46.675  27.151  29.776  1.00  0.00     0.031 A 
ATOM     56  C   UNL A   1      41.073  29.973  29.250  1.00  0.00     0.049 A 
ATOM     57  C   UNL A   1      46.458  28.527  29.169  1.00  0.00     0.074 A 
ATOM     58  C   UNL A   1      41.464  30.392  30.512  1.00  0.00     0.029 A 
ATOM     59  N   UNL A   1      42.140  30.257  28.413  1.00  0.00    -0.354 N 
ATOM     60  N   UNL A   1      45.380  29.244  29.321  1.00  0.00    -0.248 NA
ATOM     61  C   UNL A   1      47.396  29.139  28.227  1.00  0.00     0.031 C 
ATOM     62  C   UNL A   1      42.775  30.940  30.419  1.00  0.00     0.029 A 
ATOM     63  C   UNL A   1      43.178  30.857  29.100  1.00  0.00     0.049 A 
ATOM     64  H   UNL A   1      42.157  30.057  27.448  1.00  0.00     0.167 HD
ATOM     65  C   UNL A   1      45.430  30.334  28.491  1.00  0.00     0.074 A 
ATOM     66  C   UNL A   1      46.715  30.227  27.827  1.00  0.00     0.031 C 
ATOM     67  C   UNL A   1      44.387  31.209  28.371  1.00  0.00     0.031 A 
BRANCH  54  68
ATOM     68  C   UNL A   1      38.508  29.513  28.925  1.00  0.00    -0.014 A 
ATOM     69  C   UNL A   1      37.917  29.390  30.195  1.00  0.00     0.009 A 
ATOM     70  C   UNL A   1      37.652  29.913  27.886  1.00  0.00     0.009 A 
ATOM     71  C   UNL A   1      36.537  29.532  30.389  1.00  0.00     0.001 A 
ATOM     72  C   UNL A   1      36.264  30.011  28.061  1.00  0.00     0.001 A 
ATOM     73  C   UNL A   1      35.704  29.805  29.313  1.00  0.00     0.000 A 
ENDBRANCH  54  68
BRANCH  55  74
ATOM     74  C   UNL A   1      47.466  26.061  29.140  1.00  0.00    -0.014 A 
ATOM     75  C   UNL A   1      47.068  25.616  27.862  1.00  0.00     0.009 A 
ATOM     76  C   UNL A   1      48.767  25.772  29.576  1.00  0.00     0.009 A 
ATOM     77  C   UNL A   1      47.989  25.025  26.994  1.00  0.00     0.001 A 
ATOM     78  C   UNL A   1      49.677  25.158  28.710  1.00  0.00     0.001 A 
ATOM     79  C   UNL A   1      49.302  24.827  27.407  1.00  0.00     0.000 A 
ENDBRANCH  55  74
BRANCH  67  80
ATOM     80  C   UNL A   1      44.382  32.452  27.511  1.00  0.00    -0.014 A 
ATOM     81  C   UNL A   1      44.440  32.431  26.111  1.00  0.00     0.009 A 
ATOM     82  C   UNL A   1      44.435  33.726  28.123  1.00  0.00     0.009 A 
ATOM     83  C   UNL A   1      44.460  33.618  25.362  1.00  0.00     0.001 A 
ATOM     84  C   UNL A   1      44.480  34.911  27.382  1.00  0.00     0.001 A 
ATOM     85  C   UNL A   1      44.475  34.856  25.997  1.00  0.00     0.000 A 
ENDBRANCH  67  80
ENDBRANCH  41  42
ENDBRANCH  33  36
ENDBRANCH  31  32
ENDBRANCH  30  31
ENDBRANCH  29  30
ENDBRANCH   1  29
TORSDOF 15
ENDMDL
MODEL 3
REMARK VINA RESULT:     -12.3      3.437      9.033
REMARK SMILES Cc1cccc(-c2ncc([C@@H]3[NH2+][C@H](C(=O)NCCCCCCNC(=O)c4ccc(-c5c6nc(c(-c7ccccc7)c7ccc([nH]7)c(-c7ccccc7)c7nc(c(-c8ccccc8)c8ccc5[nH]8)C=C7)C=C6)cc4)C(C)(C)S3)s2)c1
REMARK SMILES IDX 19 1 18 2 17 3 16 4 14 5 15 6 13 8 11 9 12 10 77 11 74 14
REMARK SMILES IDX 75 15 76 16 10 17 7 18 8 19 78 20 9 21 6 22 1 23 2 24 3 25
REMARK SMILES IDX 79 26 4 27 5 28 20 29 21 30 22 31 23 32 24 33 25 35 26 36
REMARK SMILES IDX 27 37 73 38 28 39 72 40 29 41 30 42 31 43 66 44 32 45 71 46
REMARK SMILES IDX 65 47 67 48 33 49 70 50 64 51 63 52 34 54 56 55 41 56 55 57
REMARK SMILES IDX 42 58 45 59 54 60 68 61 43 62 44 63 53 65 69 66 46 67 35 68
REMARK SMILES IDX 36 69 40 70 37 71 39 72 38 73 57 74 58 75 62 76 59 77 61 78
REMARK SMILES IDX 60 79 47 80 48 81 52 82 49 83 51 84 50 85
REMARK H PARENT 16 7 12 12 12 13 23 34 67 53 45 64
REMARK Flexibility Score: inf
ROOT
ATOM      1  C   UNL A   1      35.784  22.313  25.105  1.00  0.00     0.002 C 
ENDROOT
BRANCH   1   2
ATOM      2  C   UNL A   1      35.365  23.423  26.079  1.00  0.00     0.021 C 
BRANCH   2   3
ATOM      3  C   UNL A   1      34.959  24.757  25.445  1.00  0.00     0.116 C 
BRANCH   3   4
ATOM      4  N   UNL A   1      34.551  24.594  24.075  1.00  0.00    -0.351 N 
ATOM      5  C   UNL A   1      33.666  25.216  23.273  1.00  0.00     0.279 C 
ATOM      6  O   UNL A   1      33.916  25.018  22.071  1.00  0.00    -0.268 OA
ATOM      7  H   UNL A   1      35.026  23.860  23.622  1.00  0.00     0.163 HD
BRANCH   5   8
ATOM      8  C   UNL A   1      32.503  26.205  23.679  1.00  0.00     0.289 C 
ATOM      9  C   UNL A   1      30.902  24.698  24.706  1.00  0.00     0.286 C 
ATOM     10  N   UNL A   1      31.226  25.422  23.467  1.00  0.00    -0.319 N 
ATOM     11  S   UNL A   1      31.370  25.769  26.086  1.00  0.00    -0.080 SA
ATOM     12  H   UNL A   1      30.466  26.061  23.234  1.00  0.00     0.348 HD
ATOM     13  H   UNL A   1      31.350  24.758  22.701  1.00  0.00     0.348 HD
ATOM     14  C   UNL A   1      32.265  26.955  25.026  1.00  0.00     0.077 C 
ATOM     15  C   UNL A   1      31.306  28.154  24.809  1.00  0.00     0.030 C 
ATOM     16  C   UNL A   1      33.440  27.482  25.830  1.00  0.00     0.030 C 
BRANCH   9  17
ATOM     17  C   UNL A   1      31.520  23.337  24.836  1.00  0.00     0.093 A 
ATOM     18  C   UNL A   1      32.357  21.068  24.439  1.00  0.00     0.123 A 
ATOM     19  N   UNL A   1      32.368  21.337  25.730  1.00  0.00    -0.244 NA
ATOM     20  S   UNL A   1      31.797  22.361  23.445  1.00  0.00    -0.112 S 
ATOM     21  C   UNL A   1      31.904  22.615  25.952  1.00  0.00     0.134 A 
BRANCH  18  22
ATOM     22  C   UNL A   1      32.711  19.748  23.884  1.00  0.00     0.011 A 
ATOM     23  C   UNL A   1      35.068  16.889  24.840  1.00  0.00     0.044 C 
ATOM     24  C   UNL A   1      34.046  17.702  24.102  1.00  0.00    -0.050 A 
ATOM     25  C   UNL A   1      33.447  17.195  22.946  1.00  0.00     0.003 A 
ATOM     26  C   UNL A   1      33.677  18.975  24.556  1.00  0.00     0.014 A 
ATOM     27  C   UNL A   1      32.498  17.951  22.258  1.00  0.00     0.001 A 
ATOM     28  C   UNL A   1      32.133  19.219  22.722  1.00  0.00     0.011 A 
ENDBRANCH  18  22
ENDBRANCH   9  17
ENDBRANCH   5   8
ENDBRANCH   3   4
ENDBRANCH   2   3
ENDBRANCH   1   2
BRANCH   1  29
ATOM     29  C   UNL A   1      37.212  22.377  24.545  1.00  0.00     0.002 C 
BRANCH  29  30
ATOM     30  C   UNL A   1      38.283  21.606  25.320  1.00  0.00     0.021 C 
BRANCH  30  31
ATOM     31  C   UNL A   1      38.978  22.420  26.404  1.00  0.00     0.116 C 
BRANCH  31  32
ATOM     32  N   UNL A   1      40.398  22.643  26.149  1.00  0.00    -0.352 N 
ATOM     33  C   UNL A   1      41.125  23.816  26.275  1.00  0.00     0.251 C 
ATOM     34  H   UNL A   1      40.907  21.856  25.847  1.00  0.00     0.163 HD
ATOM     35  O   UNL A   1      42.324  23.841  26.057  1.00  0.00    -0.269 OA
BRANCH  33  36
ATOM     36  C   UNL A   1      40.436  25.013  26.811  1.00  0.00     0.039 A 
ATOM     37  C   UNL A   1      40.724  26.246  26.218  1.00  0.00     0.014 A 
ATOM     38  C   UNL A   1      39.732  24.946  28.010  1.00  0.00     0.014 A 
ATOM     39  C   UNL A   1      40.532  27.410  26.955  1.00  0.00     0.010 A 
ATOM     40  C   UNL A   1      39.622  26.090  28.777  1.00  0.00     0.010 A 
ATOM     41  C   UNL A   1      40.092  27.306  28.277  1.00  0.00    -0.014 A 
BRANCH  41  42
ATOM     42  C   UNL A   1      40.188  28.410  29.222  1.00  0.00     0.031 A 
ATOM     43  C   UNL A   1      39.124  29.425  29.286  1.00  0.00     0.074 A 
ATOM     44  C   UNL A   1      41.260  28.535  30.036  1.00  0.00     0.049 A 
ATOM     45  N   UNL A   1      39.323  30.665  29.586  1.00  0.00    -0.248 NA
ATOM     46  C   UNL A   1      37.739  29.114  28.964  1.00  0.00     0.031 C 
ATOM     47  C   UNL A   1      41.430  29.485  31.132  1.00  0.00     0.029 A 
ATOM     48  N   UNL A   1      42.531  27.989  29.866  1.00  0.00    -0.354 N 
ATOM     49  C   UNL A   1      38.089  31.214  29.835  1.00  0.00     0.074 A 
ATOM     50  C   UNL A   1      37.137  30.252  29.322  1.00  0.00     0.031 C 
ATOM     51  C   UNL A   1      42.743  29.705  31.301  1.00  0.00     0.029 A 
ATOM     52  C   UNL A   1      43.441  28.990  30.247  1.00  0.00     0.049 A 
ATOM     53  H   UNL A   1      42.748  27.084  29.545  1.00  0.00     0.167 HD
ATOM     54  C   UNL A   1      37.988  32.339  30.599  1.00  0.00     0.031 A 
ATOM     55  C   UNL A   1      44.369  29.515  29.394  1.00  0.00     0.031 A 
ATOM     56  C   UNL A   1      39.293  32.885  30.980  1.00  0.00     0.049 A 
ATOM     57  C   UNL A   1      44.233  31.015  29.190  1.00  0.00     0.074 A 
ATOM     58  C   UNL A   1      40.020  32.929  32.159  1.00  0.00     0.029 A 
ATOM     59  N   UNL A   1      40.173  33.274  29.982  1.00  0.00    -0.354 N 
ATOM     60  N   UNL A   1      43.340  31.766  29.772  1.00  0.00    -0.248 NA
ATOM     61  C   UNL A   1      45.014  31.758  28.201  1.00  0.00     0.031 C 
ATOM     62  C   UNL A   1      41.344  33.358  31.857  1.00  0.00     0.029 A 
ATOM     63  C   UNL A   1      41.419  33.579  30.496  1.00  0.00     0.049 A 
ATOM     64  H   UNL A   1      39.940  33.326  29.027  1.00  0.00     0.167 HD
ATOM     65  C   UNL A   1      43.366  33.023  29.225  1.00  0.00     0.074 A 
ATOM     66  C   UNL A   1      44.435  32.970  28.246  1.00  0.00     0.031 C 
ATOM     67  C   UNL A   1      42.470  33.992  29.578  1.00  0.00     0.031 A 
BRANCH  54  68
ATOM     68  C   UNL A   1      36.683  32.763  31.233  1.00  0.00    -0.014 A 
ATOM     69  C   UNL A   1      35.746  33.498  30.484  1.00  0.00     0.009 A 
ATOM     70  C   UNL A   1      36.343  32.522  32.574  1.00  0.00     0.009 A 
ATOM     71  C   UNL A   1      34.606  34.063  31.070  1.00  0.00     0.001 A 
ATOM     72  C   UNL A   1      35.230  33.123  33.180  1.00  0.00     0.001 A 
ATOM     73  C   UNL A   1      34.368  33.908  32.429  1.00  0.00     0.000 A 
ENDBRANCH  54  68
BRANCH  55  74
ATOM     74  C   UNL A   1      44.818  28.556  28.348  1.00  0.00    -0.014 A 
ATOM     75  C   UNL A   1      45.512  27.402  28.766  1.00  0.00     0.009 A 
ATOM     76  C   UNL A   1      44.238  28.565  27.071  1.00  0.00     0.009 A 
ATOM     77  C   UNL A   1      45.505  26.243  27.986  1.00  0.00     0.001 A 
ATOM     78  C   UNL A   1      44.254  27.408  26.285  1.00  0.00     0.001 A 
ATOM     79  C   UNL A   1      44.847  26.237  26.760  1.00  0.00     0.000 A 
ENDBRANCH  55  74
BRANCH  67  80
ATOM     80  C   UNL A   1      42.460  35.408  29.051  1.00  0.00    -0.014 A 
ATOM     81  C   UNL A   1      41.780  35.804  27.891  1.00  0.00     0.009 A 
ATOM     82  C   UNL A   1      43.261  36.393  29.675  1.00  0.00     0.009 A 
ATOM     83  C   UNL A   1      41.827  37.129  27.432  1.00  0.00     0.001 A 
ATOM     84  C   UNL A   1      43.331  37.708  29.208  1.00  0.00     0.001 A 
ATOM     85  C   UNL A   1      42.597  38.081  28.092  1.00  0.00     0.000 A 
ENDBRANCH  67  80
ENDBRANCH  41  42
ENDBRANCH  33  36
ENDBRANCH  31  32
ENDBRANCH  30  31
ENDBRANCH  29  30
ENDBRANCH   1  29
TORSDOF 15
ENDMDL
