MODEL 1
REMARK VINA RESULT:     -11.5      0.000      0.000
REMARK SMILES COc1cc(Cl)c2c(c1)C=C(C(=O)NCCCCCCNC(=O)c1ccc(-c3c4nc(c(-c5ccccc5)c5ccc([nH]5)c(-c5ccccc5)c5nc(c(-c6ccccc6)c6ccc3[nH]6)C=C5)C=C4)cc1)[C@@H](C(F)(F)F)O2
REMARK SMILES IDX 18 1 17 2 16 3 15 4 14 5 12 6 13 7 11 9 3 10 4 11 9 12 5 13
REMARK SMILES IDX 8 14 6 15 7 16 10 17 77 18 72 19 2 20 1 21 73 22 74 23 75 24
REMARK SMILES IDX 76 25 19 26 20 27 21 28 22 29 23 31 24 32 25 33 71 34 26 35
REMARK SMILES IDX 70 36 27 37 28 38 29 39 64 40 30 41 69 42 63 43 65 44 31 45
REMARK SMILES IDX 68 46 62 47 61 48 32 50 54 51 39 52 53 53 40 54 43 55 52 56
REMARK SMILES IDX 66 57 41 58 42 59 51 61 67 62 44 63 33 64 34 65 38 66 35 67
REMARK SMILES IDX 37 68 36 69 55 70 56 71 60 72 57 73 59 74 58 75 45 76 46 77
REMARK SMILES IDX 50 78 47 79 49 80 48 81
REMARK H PARENT 14 8 21 30 65 49 43 60
REMARK Flexibility Score: inf
ROOT
ATOM      1  C   UNL A   1      35.799  20.919  25.409  1.00  0.00     0.002 C 
ENDROOT
BRANCH   1   2
ATOM      2  C   UNL A   1      34.505  20.688  24.615  1.00  0.00     0.002 C 
BRANCH   2   3
ATOM      3  C   UNL A   1      33.224  20.636  25.452  1.00  0.00     0.021 C 
BRANCH   3   4
ATOM      4  C   UNL A   1      32.145  21.614  24.995  1.00  0.00     0.116 C 
BRANCH   4   5
ATOM      5  N   UNL A   1      31.281  22.015  26.089  1.00  0.00    -0.352 N 
ATOM      6  C   UNL A   1      30.838  23.173  26.630  1.00  0.00     0.251 C 
ATOM      7  O   UNL A   1      30.062  23.039  27.583  1.00  0.00    -0.270 OA
ATOM      8  H   UNL A   1      30.921  21.233  26.567  1.00  0.00     0.163 HD
BRANCH   6   9
ATOM      9  C   UNL A   1      31.208  24.545  26.170  1.00  0.00     0.067 C 
ATOM     10  C   UNL A   1      30.165  28.263  23.251  1.00  0.00     0.121 A 
ATOM     11  C   UNL A   1      31.194  29.014  23.814  1.00  0.00     0.070 A 
ATOM     12  C   UNL A   1      29.876  26.991  23.750  1.00  0.00     0.058 A 
ATOM     13  C   UNL A   1      31.955  28.473  24.851  1.00  0.00     0.087 A 
ATOM     14  C   UNL A   1      30.646  26.440  24.779  1.00  0.00     0.022 A 
ATOM     15  Cl  UNL A   1      33.223  29.432  25.529  1.00  0.00    -0.080 Cl
ATOM     16  C   UNL A   1      31.694  27.182  25.322  1.00  0.00     0.146 A 
ATOM     17  C   UNL A   1      30.346  25.117  25.310  1.00  0.00     0.025 C 
ATOM     18  O   UNL A   1      32.454  26.704  26.353  1.00  0.00    -0.474 OA
ATOM     19  C   UNL A   1      32.463  25.269  26.568  1.00  0.00     0.314 C 
BRANCH  10  20
ATOM     20  O   UNL A   1      29.350  28.704  22.244  1.00  0.00    -0.497 OA
ATOM     21  C   UNL A   1      29.690  29.984  21.718  1.00  0.00     0.278 C 
ENDBRANCH  10  20
BRANCH  19  22
ATOM     22  C   UNL A   1      33.727  24.672  25.924  1.00  0.00     0.429 C 
ATOM     23  F   UNL A   1      34.186  23.626  26.655  1.00  0.00    -0.167 F 
ATOM     24  F   UNL A   1      33.502  24.195  24.678  1.00  0.00    -0.167 F 
ATOM     25  F   UNL A   1      34.732  25.573  25.826  1.00  0.00    -0.167 F 
ENDBRANCH  19  22
ENDBRANCH   6   9
ENDBRANCH   4   5
ENDBRANCH   3   4
ENDBRANCH   2   3
ENDBRANCH   1   2
BRANCH   1  26
ATOM     26  C   UNL A   1      37.028  20.158  24.902  1.00  0.00     0.021 C 
BRANCH  26  27
ATOM     27  C   UNL A   1      38.363  20.747  25.346  1.00  0.00     0.116 C 
BRANCH  27  28
ATOM     28  N   UNL A   1      39.362  19.715  25.555  1.00  0.00    -0.352 N 
ATOM     29  C   UNL A   1      40.655  19.848  25.990  1.00  0.00     0.251 C 
ATOM     30  H   UNL A   1      39.072  18.794  25.359  1.00  0.00     0.163 HD
ATOM     31  O   UNL A   1      41.443  18.912  25.916  1.00  0.00    -0.269 OA
BRANCH  29  32
ATOM     32  C   UNL A   1      41.096  21.140  26.548  1.00  0.00     0.039 A 
ATOM     33  C   UNL A   1      40.960  21.369  27.918  1.00  0.00     0.014 A 
ATOM     34  C   UNL A   1      41.629  22.124  25.708  1.00  0.00     0.014 A 
ATOM     35  C   UNL A   1      41.396  22.579  28.458  1.00  0.00     0.010 A 
ATOM     36  C   UNL A   1      42.102  23.313  26.254  1.00  0.00     0.010 A 
ATOM     37  C   UNL A   1      41.980  23.553  27.631  1.00  0.00    -0.014 A 
BRANCH  37  38
ATOM     38  C   UNL A   1      42.422  24.852  28.184  1.00  0.00     0.031 A 
ATOM     39  C   UNL A   1      41.424  25.959  28.369  1.00  0.00     0.074 A 
ATOM     40  C   UNL A   1      43.719  25.046  28.490  1.00  0.00     0.049 A 
ATOM     41  N   UNL A   1      41.621  27.180  28.792  1.00  0.00    -0.248 NA
ATOM     42  C   UNL A   1      40.023  25.658  28.025  1.00  0.00     0.031 C 
ATOM     43  C   UNL A   1      44.783  24.052  28.341  1.00  0.00     0.029 A 
ATOM     44  N   UNL A   1      44.361  26.151  28.989  1.00  0.00    -0.354 N 
ATOM     45  C   UNL A   1      40.375  27.790  28.765  1.00  0.00     0.074 A 
ATOM     46  C   UNL A   1      39.434  26.824  28.246  1.00  0.00     0.031 C 
ATOM     47  C   UNL A   1      45.943  24.588  28.756  1.00  0.00     0.029 A 
ATOM     48  C   UNL A   1      45.709  25.969  29.173  1.00  0.00     0.049 A 
ATOM     49  H   UNL A   1      43.899  26.996  29.195  1.00  0.00     0.167 HD
ATOM     50  C   UNL A   1      40.042  29.039  29.159  1.00  0.00     0.031 A 
ATOM     51  C   UNL A   1      46.652  26.818  29.624  1.00  0.00     0.031 A 
ATOM     52  C   UNL A   1      40.970  29.997  29.692  1.00  0.00     0.049 A 
ATOM     53  C   UNL A   1      46.259  28.210  30.031  1.00  0.00     0.074 A 
ATOM     54  C   UNL A   1      40.715  31.279  30.145  1.00  0.00     0.029 A 
ATOM     55  N   UNL A   1      42.328  29.772  29.852  1.00  0.00    -0.354 N 
ATOM     56  N   UNL A   1      45.071  28.764  30.022  1.00  0.00    -0.248 NA
ATOM     57  C   UNL A   1      47.331  29.092  30.516  1.00  0.00     0.031 C 
ATOM     58  C   UNL A   1      41.925  31.844  30.552  1.00  0.00     0.029 A 
ATOM     59  C   UNL A   1      42.925  30.898  30.389  1.00  0.00     0.049 A 
ATOM     60  H   UNL A   1      42.795  28.938  29.620  1.00  0.00     0.167 HD
ATOM     61  C   UNL A   1      45.248  30.050  30.515  1.00  0.00     0.074 A 
ATOM     62  C   UNL A   1      46.656  30.194  30.822  1.00  0.00     0.031 C 
ATOM     63  C   UNL A   1      44.324  31.022  30.694  1.00  0.00     0.031 A 
BRANCH  50  64
ATOM     64  C   UNL A   1      38.603  29.449  29.058  1.00  0.00    -0.014 A 
ATOM     65  C   UNL A   1      38.094  29.962  27.856  1.00  0.00     0.009 A 
ATOM     66  C   UNL A   1      37.731  29.223  30.132  1.00  0.00     0.009 A 
ATOM     67  C   UNL A   1      36.733  30.243  27.732  1.00  0.00     0.001 A 
ATOM     68  C   UNL A   1      36.366  29.488  29.999  1.00  0.00     0.001 A 
ATOM     69  C   UNL A   1      35.870  29.998  28.800  1.00  0.00     0.000 A 
ENDBRANCH  50  64
BRANCH  51  70
ATOM     70  C   UNL A   1      48.062  26.364  29.728  1.00  0.00    -0.014 A 
ATOM     71  C   UNL A   1      48.529  25.767  30.909  1.00  0.00     0.009 A 
ATOM     72  C   UNL A   1      48.939  26.504  28.642  1.00  0.00     0.009 A 
ATOM     73  C   UNL A   1      49.852  25.330  31.003  1.00  0.00     0.001 A 
ATOM     74  C   UNL A   1      50.255  26.048  28.732  1.00  0.00     0.001 A 
ATOM     75  C   UNL A   1      50.712  25.466  29.913  1.00  0.00     0.000 A 
ENDBRANCH  51  70
BRANCH  63  76
ATOM     76  C   UNL A   1      44.782  32.331  31.264  1.00  0.00    -0.014 A 
ATOM     77  C   UNL A   1      44.852  32.522  32.652  1.00  0.00     0.009 A 
ATOM     78  C   UNL A   1      45.268  33.331  30.407  1.00  0.00     0.009 A 
ATOM     79  C   UNL A   1      45.401  33.695  33.171  1.00  0.00     0.001 A 
ATOM     80  C   UNL A   1      45.834  34.494  30.931  1.00  0.00     0.001 A 
ATOM     81  C   UNL A   1      45.900  34.673  32.312  1.00  0.00     0.000 A 
ENDBRANCH  63  76
ENDBRANCH  37  38
ENDBRANCH  29  32
ENDBRANCH  27  28
ENDBRANCH  26  27
ENDBRANCH   1  26
TORSDOF 15
ENDMDL
MODEL 2
REMARK VINA RESULT:     -11.4      3.788      8.339
REMARK SMILES COc1cc(Cl)c2c(c1)C=C(C(=O)NCCCCCCNC(=O)c1ccc(-c3c4nc(c(-c5ccccc5)c5ccc([nH]5)c(-c5ccccc5)c5nc(c(-c6ccccc6)c6ccc3[nH]6)C=C5)C=C4)cc1)[C@@H](C(F)(F)F)O2
REMARK SMILES IDX 18 1 17 2 16 3 15 4 14 5 12 6 13 7 11 9 3 10 4 11 9 12 5 13
REMARK SMILES IDX 8 14 6 15 7 16 10 17 77 18 72 19 2 20 1 21 73 22 74 23 75 24
REMARK SMILES IDX 76 25 19 26 20 27 21 28 22 29 23 31 24 32 25 33 71 34 26 35
REMARK SMILES IDX 70 36 27 37 28 38 29 39 64 40 30 41 69 42 63 43 65 44 31 45
REMARK SMILES IDX 68 46 62 47 61 48 32 50 54 51 39 52 53 53 40 54 43 55 52 56
REMARK SMILES IDX 66 57 41 58 42 59 51 61 67 62 44 63 33 64 34 65 38 66 35 67
REMARK SMILES IDX 37 68 36 69 55 70 56 71 60 72 57 73 59 74 58 75 45 76 46 77
REMARK SMILES IDX 50 78 47 79 49 80 48 81
REMARK H PARENT 14 8 21 30 65 49 43 60
REMARK Flexibility Score: inf
ROOT
ATOM      1  C   UNL A   1      31.700  30.073  25.581  1.00  0.00     0.002 C 
ENDROOT
BRANCH   1   2
ATOM      2  C   UNL A   1      33.025  29.376  25.920  1.00  0.00     0.002 C 
BRANCH   2   3
ATOM      3  C   UNL A   1      33.685  28.624  24.760  1.00  0.00     0.021 C 
BRANCH   3   4
ATOM      4  C   UNL A   1      33.925  27.143  25.038  1.00  0.00     0.116 C 
BRANCH   4   5
ATOM      5  N   UNL A   1      33.641  26.323  23.876  1.00  0.00    -0.352 N 
ATOM      6  C   UNL A   1      32.588  26.088  23.061  1.00  0.00     0.251 C 
ATOM      7  O   UNL A   1      32.808  25.293  22.140  1.00  0.00    -0.270 OA
ATOM      8  H   UNL A   1      34.427  25.794  23.610  1.00  0.00     0.163 HD
BRANCH   6   9
ATOM      9  C   UNL A   1      31.232  26.701  23.194  1.00  0.00     0.067 C 
ATOM     10  C   UNL A   1      28.459  30.606  22.485  1.00  0.00     0.121 A 
ATOM     11  C   UNL A   1      27.337  29.909  22.931  1.00  0.00     0.070 A 
ATOM     12  C   UNL A   1      29.689  29.952  22.379  1.00  0.00     0.058 A 
ATOM     13  C   UNL A   1      27.461  28.571  23.306  1.00  0.00     0.087 A 
ATOM     14  C   UNL A   1      29.819  28.615  22.766  1.00  0.00     0.022 A 
ATOM     15  Cl  UNL A   1      26.050  27.735  23.853  1.00  0.00    -0.080 Cl
ATOM     16  C   UNL A   1      28.702  27.928  23.240  1.00  0.00     0.146 A 
ATOM     17  C   UNL A   1      31.096  27.924  22.650  1.00  0.00     0.025 C 
ATOM     18  O   UNL A   1      28.767  26.611  23.597  1.00  0.00    -0.474 OA
ATOM     19  C   UNL A   1      30.075  26.067  23.912  1.00  0.00     0.314 C 
BRANCH  10  20
ATOM     20  O   UNL A   1      28.445  31.912  22.080  1.00  0.00    -0.497 OA
ATOM     21  C   UNL A   1      28.036  32.114  20.730  1.00  0.00     0.278 C 
ENDBRANCH  10  20
BRANCH  19  22
ATOM     22  C   UNL A   1      30.257  26.049  25.440  1.00  0.00     0.429 C 
ATOM     23  F   UNL A   1      31.228  25.171  25.795  1.00  0.00    -0.167 F 
ATOM     24  F   UNL A   1      30.634  27.251  25.935  1.00  0.00    -0.167 F 
ATOM     25  F   UNL A   1      29.127  25.691  26.092  1.00  0.00    -0.167 F 
ENDBRANCH  19  22
ENDBRANCH   6   9
ENDBRANCH   4   5
ENDBRANCH   3   4
ENDBRANCH   2   3
ENDBRANCH   1   2
BRANCH   1  26
ATOM     26  C   UNL A   1      31.469  31.420  26.271  1.00  0.00     0.021 C 
BRANCH  26  27
ATOM     27  C   UNL A   1      32.706  32.005  26.945  1.00  0.00     0.116 C 
BRANCH  27  28
ATOM     28  N   UNL A   1      32.479  33.368  27.392  1.00  0.00    -0.352 N 
ATOM     29  C   UNL A   1      33.166  34.086  28.336  1.00  0.00     0.251 C 
ATOM     30  H   UNL A   1      31.732  33.840  26.959  1.00  0.00     0.163 HD
ATOM     31  O   UNL A   1      32.729  35.151  28.758  1.00  0.00    -0.269 OA
BRANCH  29  32
ATOM     32  C   UNL A   1      34.446  33.560  28.849  1.00  0.00     0.039 A 
ATOM     33  C   UNL A   1      35.627  33.872  28.174  1.00  0.00     0.014 A 
ATOM     34  C   UNL A   1      34.466  32.748  29.988  1.00  0.00     0.014 A 
ATOM     35  C   UNL A   1      36.843  33.398  28.665  1.00  0.00     0.010 A 
ATOM     36  C   UNL A   1      35.684  32.313  30.501  1.00  0.00     0.010 A 
ATOM     37  C   UNL A   1      36.880  32.625  29.838  1.00  0.00    -0.014 A 
BRANCH  37  38
ATOM     38  C   UNL A   1      38.159  32.093  30.356  1.00  0.00     0.031 A 
ATOM     39  C   UNL A   1      38.696  30.798  29.819  1.00  0.00     0.074 A 
ATOM     40  C   UNL A   1      38.819  32.755  31.326  1.00  0.00     0.049 A 
ATOM     41  N   UNL A   1      39.770  30.143  30.176  1.00  0.00    -0.248 NA
ATOM     42  C   UNL A   1      37.920  30.146  28.749  1.00  0.00     0.031 C 
ATOM     43  C   UNL A   1      38.390  34.014  31.936  1.00  0.00     0.029 A 
ATOM     44  N   UNL A   1      39.993  32.454  31.969  1.00  0.00    -0.354 N 
ATOM     45  C   UNL A   1      39.799  29.009  29.377  1.00  0.00     0.074 A 
ATOM     46  C   UNL A   1      38.617  29.038  28.546  1.00  0.00     0.031 C 
ATOM     47  C   UNL A   1      39.298  34.386  32.854  1.00  0.00     0.029 A 
ATOM     48  C   UNL A   1      40.355  33.380  32.915  1.00  0.00     0.049 A 
ATOM     49  H   UNL A   1      40.526  31.649  31.771  1.00  0.00     0.167 HD
ATOM     50  C   UNL A   1      40.740  28.041  29.326  1.00  0.00     0.031 A 
ATOM     51  C   UNL A   1      41.418  33.415  33.742  1.00  0.00     0.031 A 
ATOM     52  C   UNL A   1      41.925  28.017  30.137  1.00  0.00     0.049 A 
ATOM     53  C   UNL A   1      42.436  32.311  33.683  1.00  0.00     0.074 A 
ATOM     54  C   UNL A   1      42.950  27.087  30.131  1.00  0.00     0.029 A 
ATOM     55  N   UNL A   1      42.247  28.970  31.088  1.00  0.00    -0.354 N 
ATOM     56  N   UNL A   1      42.460  31.257  32.904  1.00  0.00    -0.248 NA
ATOM     57  C   UNL A   1      43.575  32.402  34.609  1.00  0.00     0.031 C 
ATOM     58  C   UNL A   1      43.880  27.461  31.103  1.00  0.00     0.029 A 
ATOM     59  C   UNL A   1      43.452  28.645  31.684  1.00  0.00     0.049 A 
ATOM     60  H   UNL A   1      41.701  29.760  31.306  1.00  0.00     0.167 HD
ATOM     61  C   UNL A   1      43.622  30.570  33.232  1.00  0.00     0.074 A 
ATOM     62  C   UNL A   1      44.281  31.329  34.275  1.00  0.00     0.031 C 
ATOM     63  C   UNL A   1      44.096  29.413  32.714  1.00  0.00     0.031 A 
BRANCH  50  64
ATOM     64  C   UNL A   1      40.551  26.927  28.340  1.00  0.00    -0.014 A 
ATOM     65  C   UNL A   1      39.768  25.811  28.672  1.00  0.00     0.009 A 
ATOM     66  C   UNL A   1      41.067  27.041  27.042  1.00  0.00     0.009 A 
ATOM     67  C   UNL A   1      39.507  24.827  27.718  1.00  0.00     0.001 A 
ATOM     68  C   UNL A   1      40.788  26.064  26.084  1.00  0.00     0.001 A 
ATOM     69  C   UNL A   1      40.009  24.959  26.424  1.00  0.00     0.000 A 
ENDBRANCH  50  64
BRANCH  51  70
ATOM     70  C   UNL A   1      41.578  34.548  34.688  1.00  0.00    -0.014 A 
ATOM     71  C   UNL A   1      41.061  34.463  35.989  1.00  0.00     0.009 A 
ATOM     72  C   UNL A   1      42.266  35.708  34.302  1.00  0.00     0.009 A 
ATOM     73  C   UNL A   1      41.221  35.525  36.882  1.00  0.00     0.001 A 
ATOM     74  C   UNL A   1      42.442  36.759  35.203  1.00  0.00     0.001 A 
ATOM     75  C   UNL A   1      41.915  36.670  36.490  1.00  0.00     0.000 A 
ENDBRANCH  51  70
BRANCH  63  76
ATOM     76  C   UNL A   1      45.398  28.888  33.240  1.00  0.00    -0.014 A 
ATOM     77  C   UNL A   1      46.614  29.289  32.668  1.00  0.00     0.009 A 
ATOM     78  C   UNL A   1      45.411  28.091  34.395  1.00  0.00     0.009 A 
ATOM     79  C   UNL A   1      47.823  28.898  33.246  1.00  0.00     0.001 A 
ATOM     80  C   UNL A   1      46.621  27.718  34.981  1.00  0.00     0.001 A 
ATOM     81  C   UNL A   1      47.825  28.123  34.406  1.00  0.00     0.000 A 
ENDBRANCH  63  76
ENDBRANCH  37  38
ENDBRANCH  29  32
ENDBRANCH  27  28
ENDBRANCH  26  27
ENDBRANCH   1  26
TORSDOF 15
ENDMDL
MODEL 3
REMARK VINA RESULT:     -11.2      2.246      7.558
REMARK SMILES COc1cc(Cl)c2c(c1)C=C(C(=O)NCCCCCCNC(=O)c1ccc(-c3c4nc(c(-c5ccccc5)c5ccc([nH]5)c(-c5ccccc5)c5nc(c(-c6ccccc6)c6ccc3[nH]6)C=C5)C=C4)cc1)[C@@H](C(F)(F)F)O2
REMARK SMILES IDX 18 1 17 2 16 3 15 4 14 5 12 6 13 7 11 9 3 10 4 11 9 12 5 13
REMARK SMILES IDX 8 14 6 15 7 16 10 17 77 18 72 19 2 20 1 21 73 22 74 23 75 24
REMARK SMILES IDX 76 25 19 26 20 27 21 28 22 29 23 31 24 32 25 33 71 34 26 35
REMARK SMILES IDX 70 36 27 37 28 38 29 39 64 40 30 41 69 42 63 43 65 44 31 45
REMARK SMILES IDX 68 46 62 47 61 48 32 50 54 51 39 52 53 53 40 54 43 55 52 56
REMARK SMILES IDX 66 57 41 58 42 59 51 61 67 62 44 63 33 64 34 65 38 66 35 67
REMARK SMILES IDX 37 68 36 69 55 70 56 71 60 72 57 73 59 74 58 75 45 76 46 77
REMARK SMILES IDX 50 78 47 79 49 80 48 81
REMARK H PARENT 14 8 21 30 65 49 43 60
REMARK Flexibility Score: inf
ROOT
ATOM      1  C   UNL A   1      31.672  28.906  25.978  1.00  0.00     0.002 C 
ENDROOT
BRANCH   1   2
ATOM      2  C   UNL A   1      30.949  28.216  24.812  1.00  0.00     0.002 C 
BRANCH   2   3
ATOM      3  C   UNL A   1      31.398  28.652  23.413  1.00  0.00     0.021 C 
BRANCH   3   4
ATOM      4  C   UNL A   1      32.865  28.361  23.115  1.00  0.00     0.116 C 
BRANCH   4   5
ATOM      5  N   UNL A   1      33.017  27.353  22.083  1.00  0.00    -0.352 N 
ATOM      6  C   UNL A   1      33.182  26.011  22.023  1.00  0.00     0.251 C 
ATOM      7  O   UNL A   1      33.246  25.545  20.881  1.00  0.00    -0.270 OA
ATOM      8  H   UNL A   1      32.995  27.753  21.185  1.00  0.00     0.163 HD
BRANCH   6   9
ATOM      9  C   UNL A   1      33.286  25.095  23.199  1.00  0.00     0.067 C 
ATOM     10  C   UNL A   1      35.796  21.590  25.401  1.00  0.00     0.121 A 
ATOM     11  C   UNL A   1      34.927  21.630  26.489  1.00  0.00     0.070 A 
ATOM     12  C   UNL A   1      35.636  22.492  24.346  1.00  0.00     0.058 A 
ATOM     13  C   UNL A   1      33.878  22.550  26.500  1.00  0.00     0.087 A 
ATOM     14  C   UNL A   1      34.578  23.405  24.348  1.00  0.00     0.022 A 
ATOM     15  Cl  UNL A   1      32.820  22.576  27.867  1.00  0.00    -0.080 Cl
ATOM     16  C   UNL A   1      33.691  23.425  25.425  1.00  0.00     0.146 A 
ATOM     17  C   UNL A   1      34.408  24.355  23.256  1.00  0.00     0.025 C 
ATOM     18  O   UNL A   1      32.662  24.321  25.492  1.00  0.00    -0.474 OA
ATOM     19  C   UNL A   1      32.226  24.933  24.251  1.00  0.00     0.314 C 
BRANCH  10  20
ATOM     20  O   UNL A   1      36.864  20.740  25.296  1.00  0.00    -0.497 OA
ATOM     21  C   UNL A   1      38.133  21.384  25.232  1.00  0.00     0.278 C 
ENDBRANCH  10  20
BRANCH  19  22
ATOM     22  C   UNL A   1      30.980  24.190  23.735  1.00  0.00     0.429 C 
ATOM     23  F   UNL A   1      30.468  23.389  24.703  1.00  0.00    -0.167 F 
ATOM     24  F   UNL A   1      29.984  25.031  23.373  1.00  0.00    -0.167 F 
ATOM     25  F   UNL A   1      31.249  23.412  22.662  1.00  0.00    -0.167 F 
ENDBRANCH  19  22
ENDBRANCH   6   9
ENDBRANCH   4   5
ENDBRANCH   3   4
ENDBRANCH   2   3
ENDBRANCH   1   2
BRANCH   1  26
ATOM     26  C   UNL A   1      32.568  27.999  26.827  1.00  0.00     0.021 C 
BRANCH  26  27
ATOM     27  C   UNL A   1      33.918  28.607  27.192  1.00  0.00     0.116 C 
BRANCH  27  28
ATOM     28  N   UNL A   1      33.786  29.990  27.617  1.00  0.00    -0.352 N 
ATOM     29  C   UNL A   1      34.673  30.758  28.325  1.00  0.00     0.251 C 
ATOM     30  H   UNL A   1      32.947  30.436  27.361  1.00  0.00     0.163 HD
ATOM     31  O   UNL A   1      34.336  31.839  28.793  1.00  0.00    -0.269 OA
BRANCH  29  32
ATOM     32  C   UNL A   1      36.049  30.264  28.528  1.00  0.00     0.039 A 
ATOM     33  C   UNL A   1      36.402  29.732  29.769  1.00  0.00     0.014 A 
ATOM     34  C   UNL A   1      36.985  30.344  27.492  1.00  0.00     0.014 A 
ATOM     35  C   UNL A   1      37.694  29.241  29.962  1.00  0.00     0.010 A 
ATOM     36  C   UNL A   1      38.259  29.815  27.672  1.00  0.00     0.010 A 
ATOM     37  C   UNL A   1      38.625  29.270  28.912  1.00  0.00    -0.014 A 
BRANCH  37  38
ATOM     38  C   UNL A   1      40.007  28.778  29.109  1.00  0.00     0.031 A 
ATOM     39  C   UNL A   1      41.037  29.683  29.720  1.00  0.00     0.074 A 
ATOM     40  C   UNL A   1      40.341  27.534  28.713  1.00  0.00     0.049 A 
ATOM     41  N   UNL A   1      42.307  29.457  29.932  1.00  0.00    -0.248 NA
ATOM     42  C   UNL A   1      40.584  31.022  30.140  1.00  0.00     0.031 C 
ATOM     43  C   UNL A   1      39.432  26.569  28.096  1.00  0.00     0.029 A 
ATOM     44  N   UNL A   1      41.542  26.874  28.773  1.00  0.00    -0.354 N 
ATOM     45  C   UNL A   1      42.802  30.619  30.507  1.00  0.00     0.074 A 
ATOM     46  C   UNL A   1      41.712  31.565  30.575  1.00  0.00     0.031 C 
ATOM     47  C   UNL A   1      40.105  25.432  27.848  1.00  0.00     0.029 A 
ATOM     48  C   UNL A   1      41.495  25.600  28.263  1.00  0.00     0.049 A 
ATOM     49  H   UNL A   1      42.361  27.275  29.145  1.00  0.00     0.167 HD
ATOM     50  C   UNL A   1      44.052  30.866  30.959  1.00  0.00     0.031 A 
ATOM     51  C   UNL A   1      42.463  24.671  28.142  1.00  0.00     0.031 A 
ATOM     52  C   UNL A   1      45.134  29.924  30.910  1.00  0.00     0.049 A 
ATOM     53  C   UNL A   1      43.850  24.983  28.628  1.00  0.00     0.074 A 
ATOM     54  C   UNL A   1      46.429  30.081  31.372  1.00  0.00     0.029 A 
ATOM     55  N   UNL A   1      45.044  28.649  30.377  1.00  0.00    -0.354 N 
ATOM     56  N   UNL A   1      44.296  26.078  29.192  1.00  0.00    -0.248 NA
ATOM     57  C   UNL A   1      44.865  23.931  28.470  1.00  0.00     0.031 C 
ATOM     58  C   UNL A   1      47.134  28.909  31.091  1.00  0.00     0.029 A 
ATOM     59  C   UNL A   1      46.265  28.010  30.490  1.00  0.00     0.049 A 
ATOM     60  H   UNL A   1      44.233  28.257  29.980  1.00  0.00     0.167 HD
ATOM     61  C   UNL A   1      45.636  25.843  29.471  1.00  0.00     0.074 A 
ATOM     62  C   UNL A   1      45.931  24.498  29.023  1.00  0.00     0.031 C 
ATOM     63  C   UNL A   1      46.539  26.671  30.046  1.00  0.00     0.031 A 
BRANCH  50  64
ATOM     64  C   UNL A   1      44.325  32.206  31.575  1.00  0.00    -0.014 A 
ATOM     65  C   UNL A   1      44.175  32.395  32.957  1.00  0.00     0.009 A 
ATOM     66  C   UNL A   1      44.834  33.251  30.791  1.00  0.00     0.009 A 
ATOM     67  C   UNL A   1      44.530  33.611  33.543  1.00  0.00     0.001 A 
ATOM     68  C   UNL A   1      45.205  34.459  31.383  1.00  0.00     0.001 A 
ATOM     69  C   UNL A   1      45.052  34.638  32.758  1.00  0.00     0.000 A 
ENDBRANCH  50  64
BRANCH  51  70
ATOM     70  C   UNL A   1      42.144  23.350  27.545  1.00  0.00    -0.014 A 
ATOM     71  C   UNL A   1      42.480  23.076  26.211  1.00  0.00     0.009 A 
ATOM     72  C   UNL A   1      41.524  22.352  28.311  1.00  0.00     0.009 A 
ATOM     73  C   UNL A   1      42.190  21.828  25.652  1.00  0.00     0.001 A 
ATOM     74  C   UNL A   1      41.254  21.099  27.756  1.00  0.00     0.001 A 
ATOM     75  C   UNL A   1      41.582  20.841  26.426  1.00  0.00     0.000 A 
ENDBRANCH  51  70
BRANCH  63  76
ATOM     76  C   UNL A   1      47.934  26.159  30.250  1.00  0.00    -0.014 A 
ATOM     77  C   UNL A   1      48.900  26.295  29.243  1.00  0.00     0.009 A 
ATOM     78  C   UNL A   1      48.313  25.657  31.504  1.00  0.00     0.009 A 
ATOM     79  C   UNL A   1      50.226  25.935  29.490  1.00  0.00     0.001 A 
ATOM     80  C   UNL A   1      49.643  25.316  31.754  1.00  0.00     0.001 A 
ATOM     81  C   UNL A   1      50.597  25.456  30.746  1.00  0.00     0.000 A 
ENDBRANCH  63  76
ENDBRANCH  37  38
ENDBRANCH  29  32
ENDBRANCH  27  28
ENDBRANCH  26  27
ENDBRANCH   1  26
TORSDOF 15
ENDMDL
