MODEL 1
REMARK VINA RESULT:     -11.1      0.000      0.000
REMARK SMILES CC1(C)[C@H](C(=O)NCCCCCCNC(=O)c2ccc(-c3c4nc(c(-c5ccccc5)c5ccc([nH]5)c(-c5ccccc5)c5nc(c(-c6ccccc6)c6ccc3[nH]6)C=C5)C=C4)cc2)[C@@H]1C(=O)Nc1ccc(Cl)c(Br)c1
REMARK SMILES IDX 10 1 9 2 8 3 7 4 5 5 6 6 4 8 1 9 2 10 3 11 65 12 66 13 67 14
REMARK SMILES IDX 68 15 69 17 70 18 76 19 71 20 74 21 72 22 75 23 73 24 11 25
REMARK SMILES IDX 12 26 13 27 14 28 15 29 16 31 17 32 18 33 64 34 19 35 63 36
REMARK SMILES IDX 20 37 21 38 22 39 57 40 23 41 62 42 56 43 58 44 24 45 61 46
REMARK SMILES IDX 55 47 54 48 25 50 47 51 32 52 46 53 33 54 36 55 45 56 59 57
REMARK SMILES IDX 34 58 35 59 44 61 60 62 37 63 26 64 27 65 31 66 28 67 30 68
REMARK SMILES IDX 29 69 48 70 49 71 53 72 50 73 52 74 51 75 38 76 39 77 43 78
REMARK SMILES IDX 40 79 42 80 41 81
REMARK H PARENT 7 7 68 16 14 30 58 49 36 60
REMARK Flexibility Score: inf
ROOT
ATOM      1  C   UNL A   1      36.585  21.923  24.927  1.00  0.00     0.002 C 
ENDROOT
BRANCH   1   2
ATOM      2  C   UNL A   1      36.058  22.505  23.611  1.00  0.00     0.021 C 
BRANCH   2   3
ATOM      3  C   UNL A   1      35.888  24.017  23.659  1.00  0.00     0.116 C 
BRANCH   3   4
ATOM      4  N   UNL A   1      35.159  24.410  24.839  1.00  0.00    -0.356 N 
ATOM      5  C   UNL A   1      33.889  24.221  25.288  1.00  0.00     0.224 C 
ATOM      6  O   UNL A   1      33.620  24.775  26.356  1.00  0.00    -0.275 OA
ATOM      7  H   UNL A   1      35.707  24.937  25.465  1.00  0.00     0.163 HD
BRANCH   5   8
ATOM      8  C   UNL A   1      32.815  23.397  24.679  1.00  0.00     0.098 C 
ATOM      9  C   UNL A   1      32.299  21.049  23.828  1.00  0.00     0.013 C 
ATOM     10  C   UNL A   1      32.405  21.978  25.022  1.00  0.00    -0.011 C 
ATOM     11  C   UNL A   1      32.964  21.268  26.228  1.00  0.00     0.013 C 
ATOM     12  C   UNL A   1      31.399  23.154  25.113  1.00  0.00     0.098 C 
BRANCH  12  13
ATOM     13  C   UNL A   1      30.766  23.654  26.354  1.00  0.00     0.228 C 
ATOM     14  O   UNL A   1      30.584  22.882  27.293  1.00  0.00    -0.274 OA
ATOM     15  N   UNL A   1      30.377  24.972  26.488  1.00  0.00    -0.326 N 
ATOM     16  H   UNL A   1      29.956  25.198  27.347  1.00  0.00     0.169 HD
BRANCH  15  17
ATOM     17  C   UNL A   1      30.492  26.039  25.583  1.00  0.00     0.042 A 
ATOM     18  C   UNL A   1      29.670  26.008  24.451  1.00  0.00     0.028 A 
ATOM     19  C   UNL A   1      31.316  27.141  25.800  1.00  0.00     0.043 A 
ATOM     20  C   UNL A   1      29.550  27.140  23.642  1.00  0.00     0.024 A 
ATOM     21  C   UNL A   1      31.222  28.267  24.972  1.00  0.00     0.038 A 
ATOM     22  C   UNL A   1      30.308  28.281  23.914  1.00  0.00     0.055 A 
ATOM     23  Br  UNL A   1      32.347  29.741  25.378  1.00  0.00    -0.049 Br
ATOM     24  Cl  UNL A   1      30.054  29.665  22.914  1.00  0.00    -0.083 Cl
ENDBRANCH  15  17
ENDBRANCH  12  13
ENDBRANCH   5   8
ENDBRANCH   3   4
ENDBRANCH   2   3
ENDBRANCH   1   2
BRANCH   1  25
ATOM     25  C   UNL A   1      36.502  20.395  25.033  1.00  0.00     0.002 C 
BRANCH  25  26
ATOM     26  C   UNL A   1      37.836  19.664  24.866  1.00  0.00     0.021 C 
BRANCH  26  27
ATOM     27  C   UNL A   1      38.945  20.173  25.780  1.00  0.00     0.116 C 
BRANCH  27  28
ATOM     28  N   UNL A   1      40.083  19.270  25.804  1.00  0.00    -0.352 N 
ATOM     29  C   UNL A   1      41.399  19.548  26.058  1.00  0.00     0.251 C 
ATOM     30  H   UNL A   1      39.879  18.327  25.609  1.00  0.00     0.163 HD
ATOM     31  O   UNL A   1      42.266  18.706  25.831  1.00  0.00    -0.269 OA
BRANCH  29  32
ATOM     32  C   UNL A   1      41.774  20.871  26.591  1.00  0.00     0.039 A 
ATOM     33  C   UNL A   1      42.154  21.875  25.699  1.00  0.00     0.014 A 
ATOM     34  C   UNL A   1      41.753  21.117  27.968  1.00  0.00     0.014 A 
ATOM     35  C   UNL A   1      42.472  23.142  26.185  1.00  0.00     0.010 A 
ATOM     36  C   UNL A   1      41.990  22.403  28.443  1.00  0.00     0.010 A 
ATOM     37  C   UNL A   1      42.366  23.423  27.558  1.00  0.00    -0.014 A 
BRANCH  37  38
ATOM     38  C   UNL A   1      42.659  24.778  28.083  1.00  0.00     0.031 A 
ATOM     39  C   UNL A   1      44.063  25.149  28.480  1.00  0.00     0.074 A 
ATOM     40  C   UNL A   1      41.655  25.661  28.243  1.00  0.00     0.049 A 
ATOM     41  N   UNL A   1      44.509  26.273  28.979  1.00  0.00    -0.248 NA
ATOM     42  C   UNL A   1      45.096  24.113  28.317  1.00  0.00     0.031 C 
ATOM     43  C   UNL A   1      40.245  25.408  27.934  1.00  0.00     0.029 A 
ATOM     44  N   UNL A   1      41.666  26.953  28.707  1.00  0.00    -0.354 N 
ATOM     45  C   UNL A   1      45.866  26.074  29.201  1.00  0.00     0.074 A 
ATOM     46  C   UNL A   1      46.160  24.707  28.836  1.00  0.00     0.031 C 
ATOM     47  C   UNL A   1      39.535  26.520  28.183  1.00  0.00     0.029 A 
ATOM     48  C   UNL A   1      40.427  27.546  28.711  1.00  0.00     0.049 A 
ATOM     49  H   UNL A   1      42.484  27.409  29.008  1.00  0.00     0.167 HD
ATOM     50  C   UNL A   1      46.790  26.958  29.648  1.00  0.00     0.031 A 
ATOM     51  C   UNL A   1      40.052  28.780  29.100  1.00  0.00     0.031 A 
ATOM     52  C   UNL A   1      46.497  28.320  30.005  1.00  0.00     0.049 A 
ATOM     53  C   UNL A   1      41.095  29.734  29.611  1.00  0.00     0.074 A 
ATOM     54  C   UNL A   1      47.371  29.310  30.420  1.00  0.00     0.029 A 
ATOM     55  N   UNL A   1      45.230  28.883  29.996  1.00  0.00    -0.354 N 
ATOM     56  N   UNL A   1      42.387  29.554  29.746  1.00  0.00    -0.248 NA
ATOM     57  C   UNL A   1      40.628  31.069  30.009  1.00  0.00     0.031 C 
ATOM     58  C   UNL A   1      46.625  30.453  30.719  1.00  0.00     0.029 A 
ATOM     59  C   UNL A   1      45.295  30.199  30.423  1.00  0.00     0.049 A 
ATOM     60  H   UNL A   1      44.406  28.416  29.725  1.00  0.00     0.167 HD
ATOM     61  C   UNL A   1      42.890  30.761  30.212  1.00  0.00     0.074 A 
ATOM     62  C   UNL A   1      41.767  31.670  30.318  1.00  0.00     0.031 C 
ATOM     63  C   UNL A   1      44.169  31.090  30.523  1.00  0.00     0.031 A 
BRANCH  50  64
ATOM     64  C   UNL A   1      48.207  26.471  29.784  1.00  0.00    -0.014 A 
ATOM     65  C   UNL A   1      49.136  26.623  28.742  1.00  0.00     0.009 A 
ATOM     66  C   UNL A   1      48.631  25.888  30.989  1.00  0.00     0.009 A 
ATOM     67  C   UNL A   1      50.448  26.167  28.889  1.00  0.00     0.001 A 
ATOM     68  C   UNL A   1      49.953  25.463  31.145  1.00  0.00     0.001 A 
ATOM     69  C   UNL A   1      50.856  25.593  30.092  1.00  0.00     0.000 A 
ENDBRANCH  50  64
BRANCH  51  70
ATOM     70  C   UNL A   1      38.625  29.189  29.011  1.00  0.00    -0.014 A 
ATOM     71  C   UNL A   1      38.102  29.706  27.816  1.00  0.00     0.009 A 
ATOM     72  C   UNL A   1      37.781  29.082  30.129  1.00  0.00     0.009 A 
ATOM     73  C   UNL A   1      36.776  30.139  27.751  1.00  0.00     0.001 A 
ATOM     74  C   UNL A   1      36.446  29.483  30.051  1.00  0.00     0.001 A 
ATOM     75  C   UNL A   1      35.948  30.024  28.867  1.00  0.00     0.000 A 
ENDBRANCH  51  70
BRANCH  63  76
ATOM     76  C   UNL A   1      44.426  32.504  30.964  1.00  0.00    -0.014 A 
ATOM     77  C   UNL A   1      44.373  32.875  32.316  1.00  0.00     0.009 A 
ATOM     78  C   UNL A   1      44.759  33.476  30.006  1.00  0.00     0.009 A 
ATOM     79  C   UNL A   1      44.604  34.199  32.695  1.00  0.00     0.001 A 
ATOM     80  C   UNL A   1      45.025  34.790  30.391  1.00  0.00     0.001 A 
ATOM     81  C   UNL A   1      44.935  35.153  31.734  1.00  0.00     0.000 A 
ENDBRANCH  63  76
ENDBRANCH  37  38
ENDBRANCH  29  32
ENDBRANCH  27  28
ENDBRANCH  26  27
ENDBRANCH  25  26
ENDBRANCH   1  25
TORSDOF 15
ENDMDL
MODEL 2
REMARK VINA RESULT:     -10.8      1.602      2.299
REMARK SMILES CC1(C)[C@H](C(=O)NCCCCCCNC(=O)c2ccc(-c3c4nc(c(-c5ccccc5)c5ccc([nH]5)c(-c5ccccc5)c5nc(c(-c6ccccc6)c6ccc3[nH]6)C=C5)C=C4)cc2)[C@@H]1C(=O)Nc1ccc(Cl)c(Br)c1
REMARK SMILES IDX 10 1 9 2 8 3 7 4 5 5 6 6 4 8 1 9 2 10 3 11 65 12 66 13 67 14
REMARK SMILES IDX 68 15 69 17 70 18 76 19 71 20 74 21 72 22 75 23 73 24 11 25
REMARK SMILES IDX 12 26 13 27 14 28 15 29 16 31 17 32 18 33 64 34 19 35 63 36
REMARK SMILES IDX 20 37 21 38 22 39 57 40 23 41 62 42 56 43 58 44 24 45 61 46
REMARK SMILES IDX 55 47 54 48 25 50 47 51 32 52 46 53 33 54 36 55 45 56 59 57
REMARK SMILES IDX 34 58 35 59 44 61 60 62 37 63 26 64 27 65 31 66 28 67 30 68
REMARK SMILES IDX 29 69 48 70 49 71 53 72 50 73 52 74 51 75 38 76 39 77 43 78
REMARK SMILES IDX 40 79 42 80 41 81
REMARK H PARENT 7 7 68 16 14 30 58 49 36 60
REMARK Flexibility Score: inf
ROOT
ATOM      1  C   UNL A   1      34.935  19.961  24.940  1.00  0.00     0.002 C 
ENDROOT
BRANCH   1   2
ATOM      2  C   UNL A   1      33.881  20.587  25.858  1.00  0.00     0.021 C 
BRANCH   2   3
ATOM      3  C   UNL A   1      32.487  20.584  25.247  1.00  0.00     0.116 C 
BRANCH   3   4
ATOM      4  N   UNL A   1      32.553  20.838  23.829  1.00  0.00    -0.356 N 
ATOM      5  C   UNL A   1      32.122  21.838  23.014  1.00  0.00     0.224 C 
ATOM      6  O   UNL A   1      32.330  21.663  21.811  1.00  0.00    -0.275 OA
ATOM      7  H   UNL A   1      33.016  20.121  23.338  1.00  0.00     0.163 HD
BRANCH   5   8
ATOM      8  C   UNL A   1      31.487  23.123  23.397  1.00  0.00     0.098 C 
ATOM      9  C   UNL A   1      30.913  24.578  25.411  1.00  0.00     0.013 C 
ATOM     10  C   UNL A   1      31.965  24.148  24.408  1.00  0.00    -0.011 C 
ATOM     11  C   UNL A   1      33.328  24.049  25.044  1.00  0.00     0.013 C 
ATOM     12  C   UNL A   1      31.740  24.523  22.920  1.00  0.00     0.098 C 
BRANCH  12  13
ATOM     13  C   UNL A   1      32.793  24.948  21.970  1.00  0.00     0.228 C 
ATOM     14  O   UNL A   1      33.179  24.164  21.106  1.00  0.00    -0.274 OA
ATOM     15  N   UNL A   1      33.351  26.209  22.025  1.00  0.00    -0.326 N 
ATOM     16  H   UNL A   1      34.050  26.387  21.356  1.00  0.00     0.169 HD
BRANCH  15  17
ATOM     17  C   UNL A   1      33.073  27.277  22.892  1.00  0.00     0.042 A 
ATOM     18  C   UNL A   1      31.971  28.082  22.583  1.00  0.00     0.028 A 
ATOM     19  C   UNL A   1      33.787  27.517  24.065  1.00  0.00     0.043 A 
ATOM     20  C   UNL A   1      31.489  29.000  23.519  1.00  0.00     0.024 A 
ATOM     21  C   UNL A   1      33.326  28.460  24.992  1.00  0.00     0.038 A 
ATOM     22  C   UNL A   1      32.152  29.175  24.736  1.00  0.00     0.055 A 
ATOM     23  Br  UNL A   1      34.336  28.680  26.584  1.00  0.00    -0.049 Br
ATOM     24  Cl  UNL A   1      31.458  30.275  25.871  1.00  0.00    -0.083 Cl
ENDBRANCH  15  17
ENDBRANCH  12  13
ENDBRANCH   5   8
ENDBRANCH   3   4
ENDBRANCH   2   3
ENDBRANCH   1   2
BRANCH   1  25
ATOM     25  C   UNL A   1      36.296  20.668  24.947  1.00  0.00     0.002 C 
BRANCH  25  26
ATOM     26  C   UNL A   1      37.508  19.733  24.956  1.00  0.00     0.021 C 
BRANCH  26  27
ATOM     27  C   UNL A   1      38.747  20.324  25.616  1.00  0.00     0.116 C 
BRANCH  27  28
ATOM     28  N   UNL A   1      39.803  19.337  25.767  1.00  0.00    -0.352 N 
ATOM     29  C   UNL A   1      41.121  19.526  26.083  1.00  0.00     0.251 C 
ATOM     30  H   UNL A   1      39.532  18.402  25.620  1.00  0.00     0.163 HD
ATOM     31  O   UNL A   1      41.926  18.604  25.963  1.00  0.00    -0.269 OA
BRANCH  29  32
ATOM     32  C   UNL A   1      41.575  20.848  26.553  1.00  0.00     0.039 A 
ATOM     33  C   UNL A   1      41.976  21.797  25.611  1.00  0.00     0.014 A 
ATOM     34  C   UNL A   1      41.607  21.147  27.919  1.00  0.00     0.014 A 
ATOM     35  C   UNL A   1      42.370  23.065  26.039  1.00  0.00     0.010 A 
ATOM     36  C   UNL A   1      41.920  22.436  28.336  1.00  0.00     0.010 A 
ATOM     37  C   UNL A   1      42.318  23.403  27.402  1.00  0.00    -0.014 A 
BRANCH  37  38
ATOM     38  C   UNL A   1      42.693  24.760  27.865  1.00  0.00     0.031 A 
ATOM     39  C   UNL A   1      44.142  25.129  28.036  1.00  0.00     0.074 A 
ATOM     40  C   UNL A   1      41.727  25.648  28.172  1.00  0.00     0.049 A 
ATOM     41  N   UNL A   1      44.662  26.256  28.452  1.00  0.00    -0.248 NA
ATOM     42  C   UNL A   1      45.135  24.089  27.722  1.00  0.00     0.031 C 
ATOM     43  C   UNL A   1      40.286  25.397  28.087  1.00  0.00     0.029 A 
ATOM     44  N   UNL A   1      41.812  26.942  28.619  1.00  0.00    -0.354 N 
ATOM     45  C   UNL A   1      46.037  26.054  28.462  1.00  0.00     0.074 A 
ATOM     46  C   UNL A   1      46.268  24.683  28.066  1.00  0.00     0.031 C 
ATOM     47  C   UNL A   1      39.626  26.512  28.435  1.00  0.00     0.029 A 
ATOM     48  C   UNL A   1      40.591  27.540  28.811  1.00  0.00     0.049 A 
ATOM     49  H   UNL A   1      42.668  27.399  28.786  1.00  0.00     0.167 HD
ATOM     50  C   UNL A   1      47.020  26.938  28.753  1.00  0.00     0.031 A 
ATOM     51  C   UNL A   1      40.283  28.777  29.244  1.00  0.00     0.031 A 
ATOM     52  C   UNL A   1      46.789  28.303  29.142  1.00  0.00     0.049 A 
ATOM     53  C   UNL A   1      41.395  29.732  29.580  1.00  0.00     0.074 A 
ATOM     54  C   UNL A   1      47.719  29.293  29.408  1.00  0.00     0.029 A 
ATOM     55  N   UNL A   1      45.537  28.870  29.325  1.00  0.00    -0.354 N 
ATOM     56  N   UNL A   1      42.691  29.548  29.514  1.00  0.00    -0.248 NA
ATOM     57  C   UNL A   1      40.997  31.071  30.035  1.00  0.00     0.031 C 
ATOM     58  C   UNL A   1      47.031  30.441  29.811  1.00  0.00     0.029 A 
ATOM     59  C   UNL A   1      45.671  30.189  29.727  1.00  0.00     0.049 A 
ATOM     60  H   UNL A   1      44.681  28.404  29.189  1.00  0.00     0.167 HD
ATOM     61  C   UNL A   1      43.264  30.758  29.888  1.00  0.00     0.074 A 
ATOM     62  C   UNL A   1      42.172  31.670  30.159  1.00  0.00     0.031 C 
ATOM     63  C   UNL A   1      44.576  31.084  29.994  1.00  0.00     0.031 A 
BRANCH  50  64
ATOM     64  C   UNL A   1      48.441  26.448  28.672  1.00  0.00    -0.014 A 
ATOM     65  C   UNL A   1      49.106  25.944  29.801  1.00  0.00     0.009 A 
ATOM     66  C   UNL A   1      49.111  26.454  27.438  1.00  0.00     0.009 A 
ATOM     67  C   UNL A   1      50.425  25.491  29.705  1.00  0.00     0.001 A 
ATOM     68  C   UNL A   1      50.418  25.970  27.338  1.00  0.00     0.001 A 
ATOM     69  C   UNL A   1      51.076  25.500  28.472  1.00  0.00     0.000 A 
ENDBRANCH  50  64
BRANCH  51  70
ATOM     70  C   UNL A   1      38.860  29.191  29.375  1.00  0.00    -0.014 A 
ATOM     71  C   UNL A   1      38.203  29.837  28.316  1.00  0.00     0.009 A 
ATOM     72  C   UNL A   1      38.156  28.957  30.567  1.00  0.00     0.009 A 
ATOM     73  C   UNL A   1      36.883  30.271  28.461  1.00  0.00     0.001 A 
ATOM     74  C   UNL A   1      36.826  29.361  30.697  1.00  0.00     0.001 A 
ATOM     75  C   UNL A   1      36.195  30.030  29.649  1.00  0.00     0.000 A 
ENDBRANCH  51  70
BRANCH  63  76
ATOM     76  C   UNL A   1      44.901  32.501  30.379  1.00  0.00    -0.014 A 
ATOM     77  C   UNL A   1      45.010  33.518  29.418  1.00  0.00     0.009 A 
ATOM     78  C   UNL A   1      45.071  32.826  31.735  1.00  0.00     0.009 A 
ATOM     79  C   UNL A   1      45.324  34.823  29.804  1.00  0.00     0.001 A 
ATOM     80  C   UNL A   1      45.349  34.137  32.120  1.00  0.00     0.001 A 
ATOM     81  C   UNL A   1      45.488  35.132  31.153  1.00  0.00     0.000 A 
ENDBRANCH  63  76
ENDBRANCH  37  38
ENDBRANCH  29  32
ENDBRANCH  27  28
ENDBRANCH  26  27
ENDBRANCH  25  26
ENDBRANCH   1  25
TORSDOF 15
ENDMDL
MODEL 3
REMARK VINA RESULT:     -10.8      6.266     12.325
REMARK SMILES CC1(C)[C@H](C(=O)NCCCCCCNC(=O)c2ccc(-c3c4nc(c(-c5ccccc5)c5ccc([nH]5)c(-c5ccccc5)c5nc(c(-c6ccccc6)c6ccc3[nH]6)C=C5)C=C4)cc2)[C@@H]1C(=O)Nc1ccc(Cl)c(Br)c1
REMARK SMILES IDX 10 1 9 2 8 3 7 4 5 5 6 6 4 8 1 9 2 10 3 11 65 12 66 13 67 14
REMARK SMILES IDX 68 15 69 17 70 18 76 19 71 20 74 21 72 22 75 23 73 24 11 25
REMARK SMILES IDX 12 26 13 27 14 28 15 29 16 31 17 32 18 33 64 34 19 35 63 36
REMARK SMILES IDX 20 37 21 38 22 39 57 40 23 41 62 42 56 43 58 44 24 45 61 46
REMARK SMILES IDX 55 47 54 48 25 50 47 51 32 52 46 53 33 54 36 55 45 56 59 57
REMARK SMILES IDX 34 58 35 59 44 61 60 62 37 63 26 64 27 65 31 66 28 67 30 68
REMARK SMILES IDX 29 69 48 70 49 71 53 72 50 73 52 74 51 75 38 76 39 77 43 78
REMARK SMILES IDX 40 79 42 80 41 81
REMARK H PARENT 7 7 68 16 14 30 58 49 36 60
REMARK Flexibility Score: inf
ROOT
ATOM      1  C   UNL A   1      34.835  35.656  32.721  1.00  0.00     0.002 C 
ENDROOT
BRANCH   1   2
ATOM      2  C   UNL A   1      34.397  34.402  33.484  1.00  0.00     0.021 C 
BRANCH   2   3
ATOM      3  C   UNL A   1      35.428  33.940  34.504  1.00  0.00     0.116 C 
BRANCH   3   4
ATOM      4  N   UNL A   1      36.142  32.786  34.018  1.00  0.00    -0.356 N 
ATOM      5  C   UNL A   1      37.413  32.321  34.149  1.00  0.00     0.224 C 
ATOM      6  O   UNL A   1      37.665  31.291  33.520  1.00  0.00    -0.275 OA
ATOM      7  H   UNL A   1      35.580  32.200  33.461  1.00  0.00     0.163 HD
BRANCH   5   8
ATOM      8  C   UNL A   1      38.506  32.868  34.991  1.00  0.00     0.098 C 
ATOM      9  C   UNL A   1      38.964  34.420  36.961  1.00  0.00     0.013 C 
ATOM     10  C   UNL A   1      38.543  33.040  36.497  1.00  0.00    -0.011 C 
ATOM     11  C   UNL A   1      37.467  32.463  37.380  1.00  0.00     0.013 C 
ATOM     12  C   UNL A   1      39.595  32.175  35.756  1.00  0.00     0.098 C 
BRANCH  12  13
ATOM     13  C   UNL A   1      39.768  30.712  35.904  1.00  0.00     0.228 C 
ATOM     14  O   UNL A   1      38.803  29.970  35.744  1.00  0.00    -0.274 OA
ATOM     15  N   UNL A   1      40.994  30.157  36.213  1.00  0.00    -0.326 N 
ATOM     16  H   UNL A   1      40.999  29.177  36.299  1.00  0.00     0.169 HD
BRANCH  15  17
ATOM     17  C   UNL A   1      42.235  30.778  36.422  1.00  0.00     0.042 A 
ATOM     18  C   UNL A   1      42.222  32.138  36.748  1.00  0.00     0.028 A 
ATOM     19  C   UNL A   1      43.448  30.092  36.397  1.00  0.00     0.043 A 
ATOM     20  C   UNL A   1      43.385  32.760  37.208  1.00  0.00     0.024 A 
ATOM     21  C   UNL A   1      44.623  30.721  36.827  1.00  0.00     0.038 A 
ATOM     22  C   UNL A   1      44.584  32.046  37.272  1.00  0.00     0.055 A 
ATOM     23  Br  UNL A   1      46.217  29.691  36.807  1.00  0.00    -0.049 Br
ATOM     24  Cl  UNL A   1      45.963  32.860  37.917  1.00  0.00    -0.083 Cl
ENDBRANCH  15  17
ENDBRANCH  12  13
ENDBRANCH   5   8
ENDBRANCH   3   4
ENDBRANCH   2   3
ENDBRANCH   1   2
BRANCH   1  25
ATOM     25  C   UNL A   1      33.820  36.806  32.736  1.00  0.00     0.002 C 
BRANCH  25  26
ATOM     26  C   UNL A   1      32.902  36.871  31.513  1.00  0.00     0.021 C 
BRANCH  26  27
ATOM     27  C   UNL A   1      33.590  36.528  30.198  1.00  0.00     0.116 C 
BRANCH  27  28
ATOM     28  N   UNL A   1      32.762  35.676  29.360  1.00  0.00    -0.352 N 
ATOM     29  C   UNL A   1      33.092  34.512  28.723  1.00  0.00     0.251 C 
ATOM     30  H   UNL A   1      31.834  35.981  29.233  1.00  0.00     0.163 HD
ATOM     31  O   UNL A   1      32.335  34.027  27.883  1.00  0.00    -0.269 OA
BRANCH  29  32
ATOM     32  C   UNL A   1      34.370  33.846  29.037  1.00  0.00     0.039 A 
ATOM     33  C   UNL A   1      35.465  34.058  28.197  1.00  0.00     0.014 A 
ATOM     34  C   UNL A   1      34.485  33.014  30.155  1.00  0.00     0.014 A 
ATOM     35  C   UNL A   1      36.691  33.468  28.504  1.00  0.00     0.010 A 
ATOM     36  C   UNL A   1      35.727  32.494  30.504  1.00  0.00     0.010 A 
ATOM     37  C   UNL A   1      36.838  32.704  29.675  1.00  0.00    -0.014 A 
BRANCH  37  38
ATOM     38  C   UNL A   1      38.146  32.108  30.035  1.00  0.00     0.031 A 
ATOM     39  C   UNL A   1      39.103  32.859  30.921  1.00  0.00     0.074 A 
ATOM     40  C   UNL A   1      38.492  30.908  29.529  1.00  0.00     0.049 A 
ATOM     41  N   UNL A   1      40.298  32.512  31.325  1.00  0.00    -0.248 NA
ATOM     42  C   UNL A   1      38.670  34.184  31.395  1.00  0.00     0.031 C 
ATOM     43  C   UNL A   1      37.669  30.099  28.627  1.00  0.00     0.029 A 
ATOM     44  N   UNL A   1      39.628  30.158  29.703  1.00  0.00    -0.354 N 
ATOM     45  C   UNL A   1      40.762  33.578  32.086  1.00  0.00     0.074 A 
ATOM     46  C   UNL A   1      39.747  34.606  32.042  1.00  0.00     0.031 C 
ATOM     47  C   UNL A   1      38.312  28.953  28.356  1.00  0.00     0.029 A 
ATOM     48  C   UNL A   1      39.608  28.964  29.025  1.00  0.00     0.049 A 
ATOM     49  H   UNL A   1      40.385  30.450  30.260  1.00  0.00     0.167 HD
ATOM     50  C   UNL A   1      41.921  33.683  32.778  1.00  0.00     0.031 A 
ATOM     51  C   UNL A   1      40.533  27.988  28.950  1.00  0.00     0.031 A 
ATOM     52  C   UNL A   1      42.929  32.658  32.825  1.00  0.00     0.049 A 
ATOM     53  C   UNL A   1      41.819  28.140  29.713  1.00  0.00     0.074 A 
ATOM     54  C   UNL A   1      44.115  32.647  33.539  1.00  0.00     0.029 A 
ATOM     55  N   UNL A   1      42.872  31.463  32.125  1.00  0.00    -0.354 N 
ATOM     56  N   UNL A   1      42.212  29.123  30.487  1.00  0.00    -0.248 NA
ATOM     57  C   UNL A   1      42.784  27.038  29.601  1.00  0.00     0.031 C 
ATOM     58  C   UNL A   1      44.803  31.472  33.223  1.00  0.00     0.029 A 
ATOM     59  C   UNL A   1      44.014  30.718  32.368  1.00  0.00     0.049 A 
ATOM     60  H   UNL A   1      42.129  31.185  31.541  1.00  0.00     0.167 HD
ATOM     61  C   UNL A   1      43.453  28.742  30.981  1.00  0.00     0.074 A 
ATOM     62  C   UNL A   1      43.737  27.432  30.433  1.00  0.00     0.031 C 
ATOM     63  C   UNL A   1      44.283  29.417  31.815  1.00  0.00     0.031 A 
BRANCH  50  64
ATOM     64  C   UNL A   1      42.165  34.961  33.534  1.00  0.00    -0.014 A 
ATOM     65  C   UNL A   1      41.642  35.159  34.823  1.00  0.00     0.009 A 
ATOM     66  C   UNL A   1      42.963  35.966  32.966  1.00  0.00     0.009 A 
ATOM     67  C   UNL A   1      41.881  36.352  35.510  1.00  0.00     0.001 A 
ATOM     68  C   UNL A   1      43.228  37.145  33.669  1.00  0.00     0.001 A 
ATOM     69  C   UNL A   1      42.679  37.340  34.935  1.00  0.00     0.000 A 
ENDBRANCH  50  64
BRANCH  51  70
ATOM     70  C   UNL A   1      40.273  26.774  28.131  1.00  0.00    -0.014 A 
ATOM     71  C   UNL A   1      40.791  26.665  26.831  1.00  0.00     0.009 A 
ATOM     72  C   UNL A   1      39.491  25.724  28.639  1.00  0.00     0.009 A 
ATOM     73  C   UNL A   1      40.502  25.547  26.045  1.00  0.00     0.001 A 
ATOM     74  C   UNL A   1      39.233  24.592  27.863  1.00  0.00     0.001 A 
ATOM     75  C   UNL A   1      39.727  24.510  26.562  1.00  0.00     0.000 A 
ENDBRANCH  51  70
BRANCH  63  76
ATOM     76  C   UNL A   1      45.556  28.727  32.221  1.00  0.00    -0.014 A 
ATOM     77  C   UNL A   1      46.725  28.826  31.451  1.00  0.00     0.009 A 
ATOM     78  C   UNL A   1      45.591  27.989  33.416  1.00  0.00     0.009 A 
ATOM     79  C   UNL A   1      47.889  28.166  31.847  1.00  0.00     0.001 A 
ATOM     80  C   UNL A   1      46.765  27.360  33.827  1.00  0.00     0.001 A 
ATOM     81  C   UNL A   1      47.911  27.439  33.036  1.00  0.00     0.000 A 
ENDBRANCH  63  76
ENDBRANCH  37  38
ENDBRANCH  29  32
ENDBRANCH  27  28
ENDBRANCH  26  27
ENDBRANCH  25  26
ENDBRANCH   1  25
TORSDOF 15
ENDMDL
