MODEL 1
REMARK VINA RESULT:     -12.1      0.000      0.000
REMARK SMILES CCc1cc(N2CCC[C@H](C(=O)NCCCCCCNC(=O)c3ccc(-c4c5nc(c(-c6ccccc6)c6ccc([nH]6)c(-c6ccccc6)c6nc(c(-c7ccccc7)c7ccc4[nH]7)C=C6)C=C5)cc3)C2)nc(-c2ccc(Cl)cc2)n1
REMARK SMILES IDX 16 1 15 2 14 3 13 4 11 5 12 6 10 8 6 9 7 10 71 11 8 12 9 13
REMARK SMILES IDX 5 14 3 15 4 16 81 17 73 18 72 19 2 20 1 21 74 22 75 23 80 24
REMARK SMILES IDX 76 25 79 26 77 27 78 28 17 29 18 30 19 31 20 32 21 33 22 35
REMARK SMILES IDX 23 36 24 37 70 38 25 39 69 40 26 41 27 42 28 43 63 44 29 45
REMARK SMILES IDX 68 46 62 47 64 48 30 49 67 50 61 51 60 52 31 54 53 55 38 56
REMARK SMILES IDX 52 57 39 58 42 59 51 60 65 61 40 62 41 63 50 65 66 66 43 67
REMARK SMILES IDX 32 68 33 69 37 70 34 71 36 72 35 73 54 74 55 75 59 76 56 77
REMARK SMILES IDX 58 78 57 79 44 80 45 81 49 82 46 83 48 84 47 85
REMARK H PARENT 13 7 20 34 64 53 42 64
REMARK Flexibility Score: inf
ROOT
ATOM      1  C   UNL A   1      36.418  21.843  25.550  1.00  0.00     0.002 C 
ENDROOT
BRANCH   1   2
ATOM      2  C   UNL A   1      35.225  22.751  25.240  1.00  0.00     0.021 C 
BRANCH   2   3
ATOM      3  C   UNL A   1      34.370  22.268  24.072  1.00  0.00     0.116 C 
BRANCH   3   4
ATOM      4  N   UNL A   1      34.330  23.168  22.946  1.00  0.00    -0.356 N 
ATOM      5  C   UNL A   1      33.350  24.042  22.595  1.00  0.00     0.224 C 
ATOM      6  O   UNL A   1      33.702  25.031  21.938  1.00  0.00    -0.275 OA
ATOM      7  H   UNL A   1      35.115  23.148  22.354  1.00  0.00     0.163 HD
BRANCH   5   8
ATOM      8  C   UNL A   1      31.869  23.871  22.950  1.00  0.00     0.098 C 
ATOM      9  N   UNL A   1      31.196  25.651  24.480  1.00  0.00    -0.356 N 
ATOM     10  C   UNL A   1      30.659  24.799  25.528  1.00  0.00     0.118 C 
ATOM     11  C   UNL A   1      31.122  25.187  23.107  1.00  0.00     0.131 C 
ATOM     12  C   UNL A   1      31.221  23.368  25.435  1.00  0.00     0.022 C 
ATOM     13  C   UNL A   1      31.527  22.837  24.028  1.00  0.00     0.017 C 
BRANCH   9  14
ATOM     14  C   UNL A   1      31.367  27.006  24.680  1.00  0.00     0.132 A 
ATOM     15  C   UNL A   1      31.995  28.850  26.018  1.00  0.00     0.046 A 
ATOM     16  C   UNL A   1      32.018  27.484  25.800  1.00  0.00     0.070 A 
ATOM     17  N   UNL A   1      31.374  29.701  25.184  1.00  0.00    -0.233 NA
ATOM     18  C   UNL A   1      30.749  29.152  24.134  1.00  0.00     0.161 A 
ATOM     19  N   UNL A   1      30.738  27.840  23.834  1.00  0.00    -0.211 NA
BRANCH  15  20
ATOM     20  C   UNL A   1      32.620  29.451  27.247  1.00  0.00     0.053 C 
ATOM     21  C   UNL A   1      32.616  30.969  27.207  1.00  0.00     0.011 C 
ENDBRANCH  15  20
BRANCH  18  22
ATOM     22  C   UNL A   1      29.919  30.048  23.325  1.00  0.00     0.019 A 
ATOM     23  C   UNL A   1      29.319  31.188  23.885  1.00  0.00     0.013 A 
ATOM     24  C   UNL A   1      29.704  29.788  21.958  1.00  0.00     0.013 A 
ATOM     25  C   UNL A   1      28.575  32.070  23.093  1.00  0.00     0.021 A 
ATOM     26  C   UNL A   1      28.958  30.667  21.164  1.00  0.00     0.021 A 
ATOM     27  C   UNL A   1      28.408  31.811  21.734  1.00  0.00     0.041 A 
ATOM     28  Cl  UNL A   1      27.538  32.922  20.751  1.00  0.00    -0.084 Cl
ENDBRANCH  18  22
ENDBRANCH   9  14
ENDBRANCH   5   8
ENDBRANCH   3   4
ENDBRANCH   2   3
ENDBRANCH   1   2
BRANCH   1  29
ATOM     29  C   UNL A   1      36.341  20.442  24.938  1.00  0.00     0.002 C 
BRANCH  29  30
ATOM     30  C   UNL A   1      37.645  19.654  24.869  1.00  0.00     0.021 C 
BRANCH  30  31
ATOM     31  C   UNL A   1      38.780  20.267  25.671  1.00  0.00     0.116 C 
BRANCH  31  32
ATOM     32  N   UNL A   1      39.913  19.361  25.788  1.00  0.00    -0.352 N 
ATOM     33  C   UNL A   1      41.228  19.621  26.075  1.00  0.00     0.251 C 
ATOM     34  H   UNL A   1      39.703  18.411  25.638  1.00  0.00     0.163 HD
ATOM     35  O   UNL A   1      42.081  18.757  25.910  1.00  0.00    -0.269 OA
BRANCH  33  36
ATOM     36  C   UNL A   1      41.613  20.949  26.585  1.00  0.00     0.039 A 
ATOM     37  C   UNL A   1      42.093  21.907  25.688  1.00  0.00     0.014 A 
ATOM     38  C   UNL A   1      41.524  21.239  27.949  1.00  0.00     0.014 A 
ATOM     39  C   UNL A   1      42.436  23.174  26.156  1.00  0.00     0.010 A 
ATOM     40  C   UNL A   1      41.777  22.525  28.398  1.00  0.00     0.010 A 
ATOM     41  C   UNL A   1      42.254  23.500  27.510  1.00  0.00    -0.014 A 
BRANCH  41  42
ATOM     42  C   UNL A   1      42.571  24.850  28.026  1.00  0.00     0.031 A 
ATOM     43  C   UNL A   1      43.972  25.174  28.465  1.00  0.00     0.074 A 
ATOM     44  C   UNL A   1      41.583  25.751  28.176  1.00  0.00     0.049 A 
ATOM     45  N   UNL A   1      44.433  26.272  29.008  1.00  0.00    -0.248 NA
ATOM     46  C   UNL A   1      44.980  24.114  28.302  1.00  0.00     0.031 C 
ATOM     47  C   UNL A   1      40.174  25.528  27.839  1.00  0.00     0.029 A 
ATOM     48  N   UNL A   1      41.611  27.033  28.663  1.00  0.00    -0.354 N 
ATOM     49  C   UNL A   1      45.773  26.023  29.274  1.00  0.00     0.074 A 
ATOM     50  C   UNL A   1      46.038  24.656  28.885  1.00  0.00     0.031 C 
ATOM     51  C   UNL A   1      39.479  26.644  28.108  1.00  0.00     0.029 A 
ATOM     52  C   UNL A   1      40.380  27.642  28.673  1.00  0.00     0.049 A 
ATOM     53  H   UNL A   1      42.434  27.473  28.975  1.00  0.00     0.167 HD
ATOM     54  C   UNL A   1      46.706  26.864  29.780  1.00  0.00     0.031 A 
ATOM     55  C   UNL A   1      40.018  28.865  29.101  1.00  0.00     0.031 A 
ATOM     56  C   UNL A   1      46.437  28.226  30.153  1.00  0.00     0.049 A 
ATOM     57  C   UNL A   1      41.070  29.785  29.651  1.00  0.00     0.074 A 
ATOM     58  C   UNL A   1      47.322  29.188  30.604  1.00  0.00     0.029 A 
ATOM     59  N   UNL A   1      45.183  28.818  30.123  1.00  0.00    -0.354 N 
ATOM     60  N   UNL A   1      42.353  29.568  29.816  1.00  0.00    -0.248 NA
ATOM     61  C   UNL A   1      40.628  31.125  30.058  1.00  0.00     0.031 C 
ATOM     62  C   UNL A   1      46.594  30.344  30.905  1.00  0.00     0.029 A 
ATOM     63  C   UNL A   1      45.265  30.122  30.579  1.00  0.00     0.049 A 
ATOM     64  H   UNL A   1      44.356  28.376  29.822  1.00  0.00     0.167 HD
ATOM     65  C   UNL A   1      42.875  30.748  30.324  1.00  0.00     0.074 A 
ATOM     66  C   UNL A   1      41.774  31.684  30.422  1.00  0.00     0.031 C 
ATOM     67  C   UNL A   1      44.153  31.034  30.678  1.00  0.00     0.031 A 
BRANCH  54  68
ATOM     68  C   UNL A   1      48.095  26.321  29.973  1.00  0.00    -0.014 A 
ATOM     69  C   UNL A   1      49.046  26.354  28.939  1.00  0.00     0.009 A 
ATOM     70  C   UNL A   1      48.464  25.777  31.213  1.00  0.00     0.009 A 
ATOM     71  C   UNL A   1      50.318  25.810  29.128  1.00  0.00     0.001 A 
ATOM     72  C   UNL A   1      49.748  25.265  31.410  1.00  0.00     0.001 A 
ATOM     73  C   UNL A   1      50.669  25.269  30.365  1.00  0.00     0.000 A 
ENDBRANCH  54  68
BRANCH  55  74
ATOM     74  C   UNL A   1      38.595  29.285  29.013  1.00  0.00    -0.014 A 
ATOM     75  C   UNL A   1      38.070  29.782  27.811  1.00  0.00     0.009 A 
ATOM     76  C   UNL A   1      37.749  29.171  30.128  1.00  0.00     0.009 A 
ATOM     77  C   UNL A   1      36.732  30.175  27.734  1.00  0.00     0.001 A 
ATOM     78  C   UNL A   1      36.405  29.537  30.039  1.00  0.00     0.001 A 
ATOM     79  C   UNL A   1      35.900  30.047  28.845  1.00  0.00     0.000 A 
ENDBRANCH  55  74
BRANCH  67  80
ATOM     80  C   UNL A   1      44.431  32.423  31.180  1.00  0.00    -0.014 A 
ATOM     81  C   UNL A   1      44.821  33.451  30.307  1.00  0.00     0.009 A 
ATOM     82  C   UNL A   1      44.257  32.716  32.542  1.00  0.00     0.009 A 
ATOM     83  C   UNL A   1      45.062  34.736  30.795  1.00  0.00     0.001 A 
ATOM     84  C   UNL A   1      44.468  34.009  33.021  1.00  0.00     0.001 A 
ATOM     85  C   UNL A   1      44.880  35.015  32.149  1.00  0.00     0.000 A 
ENDBRANCH  67  80
ENDBRANCH  41  42
ENDBRANCH  33  36
ENDBRANCH  31  32
ENDBRANCH  30  31
ENDBRANCH  29  30
ENDBRANCH   1  29
TORSDOF 16
ENDMDL
MODEL 2
REMARK VINA RESULT:     -12.0      6.324     12.557
REMARK SMILES CCc1cc(N2CCC[C@H](C(=O)NCCCCCCNC(=O)c3ccc(-c4c5nc(c(-c6ccccc6)c6ccc([nH]6)c(-c6ccccc6)c6nc(c(-c7ccccc7)c7ccc4[nH]7)C=C6)C=C5)cc3)C2)nc(-c2ccc(Cl)cc2)n1
REMARK SMILES IDX 16 1 15 2 14 3 13 4 11 5 12 6 10 8 6 9 7 10 71 11 8 12 9 13
REMARK SMILES IDX 5 14 3 15 4 16 81 17 73 18 72 19 2 20 1 21 74 22 75 23 80 24
REMARK SMILES IDX 76 25 79 26 77 27 78 28 17 29 18 30 19 31 20 32 21 33 22 35
REMARK SMILES IDX 23 36 24 37 70 38 25 39 69 40 26 41 27 42 28 43 63 44 29 45
REMARK SMILES IDX 68 46 62 47 64 48 30 49 67 50 61 51 60 52 31 54 53 55 38 56
REMARK SMILES IDX 52 57 39 58 42 59 51 60 65 61 40 62 41 63 50 65 66 66 43 67
REMARK SMILES IDX 32 68 33 69 37 70 34 71 36 72 35 73 54 74 55 75 59 76 56 77
REMARK SMILES IDX 58 78 57 79 44 80 45 81 49 82 46 83 48 84 47 85
REMARK H PARENT 13 7 20 34 64 53 42 64
REMARK Flexibility Score: inf
ROOT
ATOM      1  C   UNL A   1      34.781  34.118  34.003  1.00  0.00     0.002 C 
ENDROOT
BRANCH   1   2
ATOM      2  C   UNL A   1      36.162  33.474  34.149  1.00  0.00     0.021 C 
BRANCH   2   3
ATOM      3  C   UNL A   1      36.929  33.934  35.386  1.00  0.00     0.116 C 
BRANCH   3   4
ATOM      4  N   UNL A   1      37.255  32.880  36.315  1.00  0.00    -0.356 N 
ATOM      5  C   UNL A   1      38.418  32.674  36.988  1.00  0.00     0.224 C 
ATOM      6  O   UNL A   1      38.334  32.060  38.059  1.00  0.00    -0.275 OA
ATOM      7  H   UNL A   1      36.542  32.224  36.484  1.00  0.00     0.163 HD
BRANCH   5   8
ATOM      8  C   UNL A   1      39.794  33.141  36.501  1.00  0.00     0.098 C 
ATOM      9  N   UNL A   1      40.999  31.244  35.550  1.00  0.00    -0.356 N 
ATOM     10  C   UNL A   1      42.200  31.363  36.360  1.00  0.00     0.118 C 
ATOM     11  C   UNL A   1      40.259  32.450  35.229  1.00  0.00     0.131 C 
ATOM     12  C   UNL A   1      41.933  32.164  37.648  1.00  0.00     0.022 C 
ATOM     13  C   UNL A   1      40.893  33.289  37.559  1.00  0.00     0.017 C 
BRANCH   9  14
ATOM     14  C   UNL A   1      40.788  30.141  34.746  1.00  0.00     0.132 A 
ATOM     15  C   UNL A   1      39.446  28.852  33.290  1.00  0.00     0.046 A 
ATOM     16  C   UNL A   1      39.678  30.056  33.930  1.00  0.00     0.070 A 
ATOM     17  N   UNL A   1      40.258  27.791  33.437  1.00  0.00    -0.233 NA
ATOM     18  C   UNL A   1      41.300  27.952  34.263  1.00  0.00     0.161 A 
ATOM     19  N   UNL A   1      41.613  29.092  34.907  1.00  0.00    -0.211 NA
BRANCH  15  20
ATOM     20  C   UNL A   1      38.225  28.648  32.436  1.00  0.00     0.053 C 
ATOM     21  C   UNL A   1      38.208  27.279  31.779  1.00  0.00     0.011 C 
ENDBRANCH  15  20
BRANCH  18  22
ATOM     22  C   UNL A   1      42.083  26.753  34.572  1.00  0.00     0.019 A 
ATOM     23  C   UNL A   1      43.402  26.607  34.113  1.00  0.00     0.013 A 
ATOM     24  C   UNL A   1      41.529  25.714  35.344  1.00  0.00     0.013 A 
ATOM     25  C   UNL A   1      44.163  25.484  34.460  1.00  0.00     0.021 A 
ATOM     26  C   UNL A   1      42.286  24.589  35.691  1.00  0.00     0.021 A 
ATOM     27  C   UNL A   1      43.605  24.487  35.258  1.00  0.00     0.041 A 
ATOM     28  Cl  UNL A   1      44.556  23.133  35.727  1.00  0.00    -0.084 Cl
ENDBRANCH  18  22
ENDBRANCH   9  14
ENDBRANCH   5   8
ENDBRANCH   3   4
ENDBRANCH   2   3
ENDBRANCH   1   2
BRANCH   1  29
ATOM     29  C   UNL A   1      34.702  35.256  32.984  1.00  0.00     0.002 C 
BRANCH  29  30
ATOM     30  C   UNL A   1      33.344  35.494  32.329  1.00  0.00     0.021 C 
BRANCH  30  31
ATOM     31  C   UNL A   1      33.426  36.157  30.964  1.00  0.00     0.116 C 
BRANCH  31  32
ATOM     32  N   UNL A   1      32.809  35.342  29.928  1.00  0.00    -0.352 N 
ATOM     33  C   UNL A   1      33.345  34.354  29.144  1.00  0.00     0.251 C 
ATOM     34  H   UNL A   1      31.856  35.529  29.764  1.00  0.00     0.163 HD
ATOM     35  O   UNL A   1      32.730  33.933  28.171  1.00  0.00    -0.269 OA
BRANCH  33  36
ATOM     36  C   UNL A   1      34.668  33.797  29.477  1.00  0.00     0.039 A 
ATOM     37  C   UNL A   1      34.755  32.781  30.433  1.00  0.00     0.014 A 
ATOM     38  C   UNL A   1      35.821  34.293  28.866  1.00  0.00     0.014 A 
ATOM     39  C   UNL A   1      35.999  32.230  30.737  1.00  0.00     0.010 A 
ATOM     40  C   UNL A   1      37.043  33.682  29.100  1.00  0.00     0.010 A 
ATOM     41  C   UNL A   1      37.147  32.657  30.051  1.00  0.00    -0.014 A 
BRANCH  41  42
ATOM     42  C   UNL A   1      38.474  32.061  30.325  1.00  0.00     0.031 A 
ATOM     43  C   UNL A   1      39.485  32.823  31.134  1.00  0.00     0.074 A 
ATOM     44  C   UNL A   1      38.792  30.874  29.776  1.00  0.00     0.049 A 
ATOM     45  N   UNL A   1      40.721  32.504  31.421  1.00  0.00    -0.248 NA
ATOM     46  C   UNL A   1      39.064  34.131  31.661  1.00  0.00     0.031 C 
ATOM     47  C   UNL A   1      37.911  30.071  28.924  1.00  0.00     0.029 A 
ATOM     48  N   UNL A   1      39.950  30.143  29.841  1.00  0.00    -0.354 N 
ATOM     49  C   UNL A   1      41.229  33.580  32.138  1.00  0.00     0.074 A 
ATOM     50  C   UNL A   1      40.189  34.583  32.194  1.00  0.00     0.031 C 
ATOM     51  C   UNL A   1      38.553  28.948  28.567  1.00  0.00     0.029 A 
ATOM     52  C   UNL A   1      39.900  28.972  29.127  1.00  0.00     0.049 A 
ATOM     53  H   UNL A   1      40.741  30.431  30.352  1.00  0.00     0.167 HD
ATOM     54  C   UNL A   1      42.447  33.714  32.714  1.00  0.00     0.031 A 
ATOM     55  C   UNL A   1      40.839  28.028  28.936  1.00  0.00     0.031 A 
ATOM     56  C   UNL A   1      43.471  32.707  32.664  1.00  0.00     0.049 A 
ATOM     57  C   UNL A   1      42.180  28.192  29.592  1.00  0.00     0.074 A 
ATOM     58  C   UNL A   1      44.712  32.706  33.275  1.00  0.00     0.029 A 
ATOM     59  N   UNL A   1      43.374  31.519  31.953  1.00  0.00    -0.354 N 
ATOM     60  N   UNL A   1      42.619  29.176  30.340  1.00  0.00    -0.248 NA
ATOM     61  C   UNL A   1      43.152  27.109  29.390  1.00  0.00     0.031 C 
ATOM     62  C   UNL A   1      45.389  31.546  32.886  1.00  0.00     0.029 A 
ATOM     63  C   UNL A   1      44.545  30.794  32.084  1.00  0.00     0.049 A 
ATOM     64  H   UNL A   1      42.588  31.234  31.433  1.00  0.00     0.167 HD
ATOM     65  C   UNL A   1      43.906  28.821  30.718  1.00  0.00     0.074 A 
ATOM     66  C   UNL A   1      44.170  27.523  30.130  1.00  0.00     0.031 C 
ATOM     67  C   UNL A   1      44.791  29.507  31.483  1.00  0.00     0.031 A 
BRANCH  54  68
ATOM     68  C   UNL A   1      42.735  35.005  33.430  1.00  0.00    -0.014 A 
ATOM     69  C   UNL A   1      43.252  36.121  32.750  1.00  0.00     0.009 A 
ATOM     70  C   UNL A   1      42.475  35.113  34.804  1.00  0.00     0.009 A 
ATOM     71  C   UNL A   1      43.549  37.298  33.442  1.00  0.00     0.001 A 
ATOM     72  C   UNL A   1      42.739  36.302  35.487  1.00  0.00     0.001 A 
ATOM     73  C   UNL A   1      43.288  37.388  34.809  1.00  0.00     0.000 A 
ENDBRANCH  54  68
BRANCH  55  74
ATOM     74  C   UNL A   1      40.532  26.842  28.094  1.00  0.00    -0.014 A 
ATOM     75  C   UNL A   1      39.815  25.758  28.621  1.00  0.00     0.009 A 
ATOM     76  C   UNL A   1      40.938  26.799  26.751  1.00  0.00     0.009 A 
ATOM     77  C   UNL A   1      39.529  24.646  27.826  1.00  0.00     0.001 A 
ATOM     78  C   UNL A   1      40.625  25.699  25.951  1.00  0.00     0.001 A 
ATOM     79  C   UNL A   1      39.928  24.620  26.491  1.00  0.00     0.000 A 
ENDBRANCH  55  74
BRANCH  67  80
ATOM     80  C   UNL A   1      46.119  28.854  31.748  1.00  0.00    -0.014 A 
ATOM     81  C   UNL A   1      46.373  28.180  32.953  1.00  0.00     0.009 A 
ATOM     82  C   UNL A   1      47.113  28.877  30.757  1.00  0.00     0.009 A 
ATOM     83  C   UNL A   1      47.610  27.571  33.171  1.00  0.00     0.001 A 
ATOM     84  C   UNL A   1      48.336  28.240  30.966  1.00  0.00     0.001 A 
ATOM     85  C   UNL A   1      48.587  27.596  32.176  1.00  0.00     0.000 A 
ENDBRANCH  67  80
ENDBRANCH  41  42
ENDBRANCH  33  36
ENDBRANCH  31  32
ENDBRANCH  30  31
ENDBRANCH  29  30
ENDBRANCH   1  29
TORSDOF 16
ENDMDL
MODEL 3
REMARK VINA RESULT:     -12.0      4.446      9.621
REMARK SMILES CCc1cc(N2CCC[C@H](C(=O)NCCCCCCNC(=O)c3ccc(-c4c5nc(c(-c6ccccc6)c6ccc([nH]6)c(-c6ccccc6)c6nc(c(-c7ccccc7)c7ccc4[nH]7)C=C6)C=C5)cc3)C2)nc(-c2ccc(Cl)cc2)n1
REMARK SMILES IDX 16 1 15 2 14 3 13 4 11 5 12 6 10 8 6 9 7 10 71 11 8 12 9 13
REMARK SMILES IDX 5 14 3 15 4 16 81 17 73 18 72 19 2 20 1 21 74 22 75 23 80 24
REMARK SMILES IDX 76 25 79 26 77 27 78 28 17 29 18 30 19 31 20 32 21 33 22 35
REMARK SMILES IDX 23 36 24 37 70 38 25 39 69 40 26 41 27 42 28 43 63 44 29 45
REMARK SMILES IDX 68 46 62 47 64 48 30 49 67 50 61 51 60 52 31 54 53 55 38 56
REMARK SMILES IDX 52 57 39 58 42 59 51 60 65 61 40 62 41 63 50 65 66 66 43 67
REMARK SMILES IDX 32 68 33 69 37 70 34 71 36 72 35 73 54 74 55 75 59 76 56 77
REMARK SMILES IDX 58 78 57 79 44 80 45 81 49 82 46 83 48 84 47 85
REMARK H PARENT 13 7 20 34 64 53 42 64
REMARK Flexibility Score: inf
ROOT
ATOM      1  C   UNL A   1      31.666  29.389  26.647  1.00  0.00     0.002 C 
ENDROOT
BRANCH   1   2
ATOM      2  C   UNL A   1      33.043  29.018  27.202  1.00  0.00     0.021 C 
BRANCH   2   3
ATOM      3  C   UNL A   1      33.677  27.808  26.520  1.00  0.00     0.116 C 
BRANCH   3   4
ATOM      4  N   UNL A   1      34.192  28.067  25.198  1.00  0.00    -0.356 N 
ATOM      5  C   UNL A   1      33.544  27.994  24.006  1.00  0.00     0.224 C 
ATOM      6  O   UNL A   1      33.981  28.708  23.095  1.00  0.00    -0.275 OA
ATOM      7  H   UNL A   1      35.139  28.333  25.153  1.00  0.00     0.163 HD
BRANCH   5   8
ATOM      8  C   UNL A   1      32.336  27.092  23.733  1.00  0.00     0.098 C 
ATOM      9  N   UNL A   1      33.067  24.764  23.669  1.00  0.00    -0.356 N 
ATOM     10  C   UNL A   1      32.521  24.434  22.363  1.00  0.00     0.118 C 
ATOM     11  C   UNL A   1      32.386  25.763  24.471  1.00  0.00     0.131 C 
ATOM     12  C   UNL A   1      32.281  25.699  21.518  1.00  0.00     0.022 C 
ATOM     13  C   UNL A   1      31.874  26.970  22.277  1.00  0.00     0.017 C 
BRANCH   9  14
ATOM     14  C   UNL A   1      33.911  23.892  24.329  1.00  0.00     0.132 A 
ATOM     15  C   UNL A   1      36.005  23.336  25.273  1.00  0.00     0.046 A 
ATOM     16  C   UNL A   1      35.149  24.305  24.780  1.00  0.00     0.070 A 
ATOM     17  N   UNL A   1      35.667  22.036  25.324  1.00  0.00    -0.233 NA
ATOM     18  C   UNL A   1      34.456  21.719  24.847  1.00  0.00     0.161 A 
ATOM     19  N   UNL A   1      33.553  22.597  24.371  1.00  0.00    -0.211 NA
BRANCH  15  20
ATOM     20  C   UNL A   1      37.397  23.685  25.724  1.00  0.00     0.053 C 
ATOM     21  C   UNL A   1      38.276  22.455  25.870  1.00  0.00     0.011 C 
ENDBRANCH  15  20
BRANCH  18  22
ATOM     22  C   UNL A   1      34.152  20.291  24.729  1.00  0.00     0.019 A 
ATOM     23  C   UNL A   1      35.176  19.331  24.670  1.00  0.00     0.013 A 
ATOM     24  C   UNL A   1      32.818  19.844  24.676  1.00  0.00     0.013 A 
ATOM     25  C   UNL A   1      34.877  17.965  24.616  1.00  0.00     0.021 A 
ATOM     26  C   UNL A   1      32.516  18.478  24.619  1.00  0.00     0.021 A 
ATOM     27  C   UNL A   1      33.549  17.545  24.603  1.00  0.00     0.041 A 
ATOM     28  Cl  UNL A   1      33.182  15.865  24.589  1.00  0.00    -0.084 Cl
ENDBRANCH  18  22
ENDBRANCH   9  14
ENDBRANCH   5   8
ENDBRANCH   3   4
ENDBRANCH   2   3
ENDBRANCH   1   2
BRANCH   1  29
ATOM     29  C   UNL A   1      31.614  30.707  25.871  1.00  0.00     0.002 C 
BRANCH  29  30
ATOM     30  C   UNL A   1      31.413  31.977  26.693  1.00  0.00     0.021 C 
BRANCH  30  31
ATOM     31  C   UNL A   1      32.708  32.654  27.108  1.00  0.00     0.116 C 
BRANCH  31  32
ATOM     32  N   UNL A   1      32.487  34.028  27.539  1.00  0.00    -0.352 N 
ATOM     33  C   UNL A   1      33.044  34.729  28.576  1.00  0.00     0.251 C 
ATOM     34  H   UNL A   1      31.836  34.533  27.000  1.00  0.00     0.163 HD
ATOM     35  O   UNL A   1      32.570  35.805  28.921  1.00  0.00    -0.269 OA
BRANCH  33  36
ATOM     36  C   UNL A   1      34.219  34.182  29.278  1.00  0.00     0.039 A 
ATOM     37  C   UNL A   1      34.023  33.392  30.414  1.00  0.00     0.014 A 
ATOM     38  C   UNL A   1      35.510  34.470  28.830  1.00  0.00     0.014 A 
ATOM     39  C   UNL A   1      35.127  32.849  31.070  1.00  0.00     0.010 A 
ATOM     40  C   UNL A   1      36.600  33.855  29.427  1.00  0.00     0.010 A 
ATOM     41  C   UNL A   1      36.421  33.054  30.564  1.00  0.00    -0.014 A 
BRANCH  41  42
ATOM     42  C   UNL A   1      37.606  32.456  31.217  1.00  0.00     0.031 A 
ATOM     43  C   UNL A   1      38.297  31.281  30.583  1.00  0.00     0.074 A 
ATOM     44  C   UNL A   1      38.005  32.918  32.416  1.00  0.00     0.049 A 
ATOM     45  N   UNL A   1      39.303  30.575  31.033  1.00  0.00    -0.248 NA
ATOM     46  C   UNL A   1      37.767  30.817  29.290  1.00  0.00     0.031 C 
ATOM     47  C   UNL A   1      37.375  34.015  33.155  1.00  0.00     0.029 A 
ATOM     48  N   UNL A   1      39.030  32.512  33.232  1.00  0.00    -0.354 N 
ATOM     49  C   UNL A   1      39.507  29.573  30.092  1.00  0.00     0.074 A 
ATOM     50  C   UNL A   1      38.488  29.727  29.078  1.00  0.00     0.031 C 
ATOM     51  C   UNL A   1      38.042  34.209  34.303  1.00  0.00     0.029 A 
ATOM     52  C   UNL A   1      39.116  33.227  34.401  1.00  0.00     0.049 A 
ATOM     53  H   UNL A   1      39.645  31.779  33.001  1.00  0.00     0.167 HD
ATOM     54  C   UNL A   1      40.468  28.620  30.066  1.00  0.00     0.031 A 
ATOM     55  C   UNL A   1      39.960  33.098  35.440  1.00  0.00     0.031 A 
ATOM     56  C   UNL A   1      41.486  28.482  31.072  1.00  0.00     0.049 A 
ATOM     57  C   UNL A   1      41.025  32.040  35.386  1.00  0.00     0.074 A 
ATOM     58  C   UNL A   1      42.552  27.602  31.106  1.00  0.00     0.029 A 
ATOM     59  N   UNL A   1      41.558  29.243  32.229  1.00  0.00    -0.354 N 
ATOM     60  N   UNL A   1      41.262  31.154  34.449  1.00  0.00    -0.248 NA
ATOM     61  C   UNL A   1      41.950  31.975  36.526  1.00  0.00     0.031 C 
ATOM     62  C   UNL A   1      43.234  27.790  32.312  1.00  0.00     0.029 A 
ATOM     63  C   UNL A   1      42.631  28.831  32.999  1.00  0.00     0.049 A 
ATOM     64  H   UNL A   1      40.937  29.970  32.467  1.00  0.00     0.167 HD
ATOM     65  C   UNL A   1      42.374  30.441  34.873  1.00  0.00     0.074 A 
ATOM     66  C   UNL A   1      42.776  31.011  36.143  1.00  0.00     0.031 C 
ATOM     67  C   UNL A   1      43.008  29.407  34.266  1.00  0.00     0.031 A 
BRANCH  54  68
ATOM     68  C   UNL A   1      40.447  27.648  28.919  1.00  0.00    -0.014 A 
ATOM     69  C   UNL A   1      41.194  27.874  27.750  1.00  0.00     0.009 A 
ATOM     70  C   UNL A   1      39.676  26.479  29.011  1.00  0.00     0.009 A 
ATOM     71  C   UNL A   1      41.129  26.977  26.682  1.00  0.00     0.001 A 
ATOM     72  C   UNL A   1      39.640  25.566  27.955  1.00  0.00     0.001 A 
ATOM     73  C   UNL A   1      40.355  25.822  26.787  1.00  0.00     0.000 A 
ENDBRANCH  54  68
BRANCH  55  74
ATOM     74  C   UNL A   1      39.832  34.004  36.611  1.00  0.00    -0.014 A 
ATOM     75  C   UNL A   1      40.472  35.253  36.621  1.00  0.00     0.009 A 
ATOM     76  C   UNL A   1      39.051  33.633  37.717  1.00  0.00     0.009 A 
ATOM     77  C   UNL A   1      40.348  36.101  37.724  1.00  0.00     0.001 A 
ATOM     78  C   UNL A   1      38.906  34.496  38.804  1.00  0.00     0.001 A 
ATOM     79  C   UNL A   1      39.561  35.725  38.811  1.00  0.00     0.000 A 
ENDBRANCH  55  74
BRANCH  67  80
ATOM     80  C   UNL A   1      44.218  28.843  34.958  1.00  0.00    -0.014 A 
ATOM     81  C   UNL A   1      44.111  27.772  35.859  1.00  0.00     0.009 A 
ATOM     82  C   UNL A   1      45.488  29.365  34.667  1.00  0.00     0.009 A 
ATOM     83  C   UNL A   1      45.251  27.258  36.479  1.00  0.00     0.001 A 
ATOM     84  C   UNL A   1      46.628  28.828  35.264  1.00  0.00     0.001 A 
ATOM     85  C   UNL A   1      46.508  27.782  36.177  1.00  0.00     0.000 A 
ENDBRANCH  67  80
ENDBRANCH  41  42
ENDBRANCH  33  36
ENDBRANCH  31  32
ENDBRANCH  30  31
ENDBRANCH  29  30
ENDBRANCH   1  29
TORSDOF 16
ENDMDL
