MODEL 1
REMARK VINA RESULT:     -10.2      0.000      0.000
REMARK SMILES CC1(C)Cc2c(-c3ccccc3)c(-c3ccc(Cl)cc3)c(CC(=O)NCCCCCCNC(=O)c3ccc(-c4c5nc(c(-c6ccccc6)c6ccc([nH]6)c(-c6ccccc6)c6nc(c(-c7ccccc7)c7ccc4[nH]7)C=C6)C=C5)cc3)n2C1
REMARK SMILES IDX 28 1 27 2 26 3 25 4 23 5 24 6 22 8 21 9 1 10 2 11 3 12 4 13
REMARK SMILES IDX 84 14 5 15 83 16 6 17 13 18 7 19 8 20 12 21 9 22 11 23 10 24
REMARK SMILES IDX 14 25 15 26 20 27 16 28 19 29 17 30 18 31 29 32 30 33 31 34
REMARK SMILES IDX 32 35 33 36 34 38 35 39 36 40 82 41 37 42 81 43 38 44 39 45
REMARK SMILES IDX 40 46 75 47 41 48 80 49 74 50 76 51 42 52 79 53 73 54 72 55
REMARK SMILES IDX 43 57 65 58 50 59 64 60 51 61 54 62 63 63 77 64 52 65 53 66
REMARK SMILES IDX 62 68 78 69 55 70 44 71 45 72 49 73 46 74 48 75 47 76 66 77
REMARK SMILES IDX 67 78 71 79 68 80 70 81 69 82 56 83 57 84 61 85 58 86 60 87
REMARK SMILES IDX 59 88
REMARK H PARENT 25 7 32 37 76 56 54 67
REMARK Flexibility Score: inf
ROOT
ATOM      1  C   UNL A   1      43.686  30.113  33.941  1.00  0.00     0.002 C 
ENDROOT
BRANCH   1   2
ATOM      2  C   UNL A   1      42.823  31.357  34.168  1.00  0.00     0.021 C 
BRANCH   2   3
ATOM      3  C   UNL A   1      42.319  32.015  32.887  1.00  0.00     0.116 C 
BRANCH   3   4
ATOM      4  N   UNL A   1      41.816  33.349  33.103  1.00  0.00    -0.356 N 
ATOM      5  C   UNL A   1      40.587  33.738  33.557  1.00  0.00     0.225 C 
ATOM      6  O   UNL A   1      40.407  34.942  33.756  1.00  0.00    -0.275 OA
ATOM      7  H   UNL A   1      42.444  34.080  32.897  1.00  0.00     0.163 HD
BRANCH   5   8
ATOM      8  C   UNL A   1      39.512  32.709  33.880  1.00  0.00     0.154 C 
BRANCH   8   9
ATOM      9  C   UNL A   1      38.471  32.563  32.808  1.00  0.00     0.036 A 
ATOM     10  C   UNL A   1      34.787  35.922  33.101  1.00  0.00     0.013 C 
ATOM     11  C   UNL A   1      35.320  34.489  33.066  1.00  0.00    -0.012 C 
ATOM     12  C   UNL A   1      34.406  33.600  33.933  1.00  0.00     0.013 C 
ATOM     13  C   UNL A   1      35.377  33.920  31.611  1.00  0.00     0.063 C 
ATOM     14  C   UNL A   1      36.796  34.426  33.556  1.00  0.00     0.129 C 
ATOM     15  C   UNL A   1      36.584  33.062  31.660  1.00  0.00     0.027 A 
ATOM     16  N   UNL A   1      37.360  33.354  32.745  1.00  0.00    -0.346 N 
ATOM     17  C   UNL A   1      37.190  32.048  30.971  1.00  0.00     0.011 A 
ATOM     18  C   UNL A   1      38.401  31.734  31.685  1.00  0.00     0.011 A 
BRANCH  17  19
ATOM     19  C   UNL A   1      36.707  31.456  29.744  1.00  0.00    -0.016 A 
ATOM     20  C   UNL A   1      36.505  30.076  29.660  1.00  0.00     0.009 A 
ATOM     21  C   UNL A   1      36.289  32.289  28.698  1.00  0.00     0.009 A 
ATOM     22  C   UNL A   1      35.844  29.540  28.556  1.00  0.00     0.001 A 
ATOM     23  C   UNL A   1      35.647  31.748  27.586  1.00  0.00     0.001 A 
ATOM     24  C   UNL A   1      35.408  30.377  27.526  1.00  0.00     0.000 A 
ENDBRANCH  17  19
BRANCH  18  25
ATOM     25  C   UNL A   1      39.403  30.758  31.275  1.00  0.00    -0.016 A 
ATOM     26  C   UNL A   1      39.526  29.557  31.989  1.00  0.00     0.010 A 
ATOM     27  C   UNL A   1      40.341  31.059  30.283  1.00  0.00     0.010 A 
ATOM     28  C   UNL A   1      40.570  28.670  31.711  1.00  0.00     0.021 A 
ATOM     29  C   UNL A   1      41.372  30.162  29.987  1.00  0.00     0.021 A 
ATOM     30  C   UNL A   1      41.486  28.976  30.707  1.00  0.00     0.041 A 
ATOM     31  Cl  UNL A   1      42.782  27.895  30.375  1.00  0.00    -0.084 Cl
ENDBRANCH  18  25
ENDBRANCH   8   9
ENDBRANCH   5   8
ENDBRANCH   3   4
ENDBRANCH   2   3
ENDBRANCH   1   2
BRANCH   1  32
ATOM     32  C   UNL A   1      43.001  28.765  34.215  1.00  0.00     0.002 C 
BRANCH  32  33
ATOM     33  C   UNL A   1      43.027  28.251  35.664  1.00  0.00     0.021 C 
BRANCH  33  34
ATOM     34  C   UNL A   1      43.242  26.753  35.776  1.00  0.00     0.116 C 
BRANCH  34  35
ATOM     35  N   UNL A   1      44.565  26.398  36.307  1.00  0.00    -0.352 N 
ATOM     36  C   UNL A   1      45.525  25.582  35.735  1.00  0.00     0.251 C 
ATOM     37  H   UNL A   1      44.797  26.791  37.180  1.00  0.00     0.163 HD
ATOM     38  O   UNL A   1      46.428  25.085  36.405  1.00  0.00    -0.269 OA
BRANCH  36  39
ATOM     39  C   UNL A   1      45.450  25.336  34.288  1.00  0.00     0.039 A 
ATOM     40  C   UNL A   1      45.033  24.125  33.726  1.00  0.00     0.014 A 
ATOM     41  C   UNL A   1      45.761  26.420  33.481  1.00  0.00     0.014 A 
ATOM     42  C   UNL A   1      44.888  24.057  32.341  1.00  0.00     0.010 A 
ATOM     43  C   UNL A   1      45.320  26.439  32.196  1.00  0.00     0.010 A 
ATOM     44  C   UNL A   1      45.034  25.232  31.587  1.00  0.00    -0.014 A 
BRANCH  44  45
ATOM     45  C   UNL A   1      44.880  25.285  30.143  1.00  0.00     0.031 A 
ATOM     46  C   UNL A   1      45.921  26.067  29.443  1.00  0.00     0.074 A 
ATOM     47  C   UNL A   1      44.018  24.470  29.489  1.00  0.00     0.049 A 
ATOM     48  N   UNL A   1      45.785  27.203  28.850  1.00  0.00    -0.248 NA
ATOM     49  C   UNL A   1      47.314  25.597  29.533  1.00  0.00     0.031 C 
ATOM     50  C   UNL A   1      43.169  23.395  30.039  1.00  0.00     0.029 A 
ATOM     51  N   UNL A   1      43.799  24.356  28.154  1.00  0.00    -0.354 N 
ATOM     52  C   UNL A   1      47.029  27.495  28.302  1.00  0.00     0.074 A 
ATOM     53  C   UNL A   1      47.964  26.585  28.915  1.00  0.00     0.031 C 
ATOM     54  C   UNL A   1      42.718  22.607  29.037  1.00  0.00     0.029 A 
ATOM     55  C   UNL A   1      43.065  23.236  27.781  1.00  0.00     0.049 A 
ATOM     56  H   UNL A   1      44.134  25.013  27.502  1.00  0.00     0.167 HD
ATOM     57  C   UNL A   1      47.140  28.261  27.182  1.00  0.00     0.031 A 
ATOM     58  C   UNL A   1      42.752  22.858  26.519  1.00  0.00     0.031 A 
ATOM     59  C   UNL A   1      45.899  28.933  26.882  1.00  0.00     0.049 A 
ATOM     60  C   UNL A   1      42.921  24.040  25.655  1.00  0.00     0.074 A 
ATOM     61  C   UNL A   1      45.121  29.898  27.484  1.00  0.00     0.029 A 
ATOM     62  N   UNL A   1      45.089  28.290  25.977  1.00  0.00    -0.354 N 
ATOM     63  N   UNL A   1      42.164  25.093  25.741  1.00  0.00    -0.248 NA
ATOM     64  C   UNL A   1      44.192  24.232  24.976  1.00  0.00     0.031 C 
ATOM     65  C   UNL A   1      43.771  29.517  27.208  1.00  0.00     0.029 A 
ATOM     66  C   UNL A   1      43.791  28.376  26.405  1.00  0.00     0.049 A 
ATOM     67  H   UNL A   1      45.392  27.841  25.155  1.00  0.00     0.167 HD
ATOM     68  C   UNL A   1      43.028  26.156  25.543  1.00  0.00     0.074 A 
ATOM     69  C   UNL A   1      44.219  25.567  24.934  1.00  0.00     0.031 C 
ATOM     70  C   UNL A   1      42.800  27.353  26.157  1.00  0.00     0.031 A 
BRANCH  57  71
ATOM     71  C   UNL A   1      48.184  28.030  26.114  1.00  0.00    -0.014 A 
ATOM     72  C   UNL A   1      47.955  27.022  25.160  1.00  0.00     0.009 A 
ATOM     73  C   UNL A   1      49.492  28.549  26.178  1.00  0.00     0.009 A 
ATOM     74  C   UNL A   1      48.994  26.514  24.371  1.00  0.00     0.001 A 
ATOM     75  C   UNL A   1      50.522  28.072  25.364  1.00  0.00     0.001 A 
ATOM     76  C   UNL A   1      50.279  27.033  24.479  1.00  0.00     0.000 A 
ENDBRANCH  57  71
BRANCH  58  77
ATOM     77  C   UNL A   1      42.756  21.502  25.946  1.00  0.00    -0.014 A 
ATOM     78  C   UNL A   1      43.942  20.913  25.479  1.00  0.00     0.009 A 
ATOM     79  C   UNL A   1      41.662  20.668  26.224  1.00  0.00     0.009 A 
ATOM     80  C   UNL A   1      44.037  19.522  25.328  1.00  0.00     0.001 A 
ATOM     81  C   UNL A   1      41.782  19.283  26.125  1.00  0.00     0.001 A 
ATOM     82  C   UNL A   1      42.963  18.705  25.671  1.00  0.00     0.000 A 
ENDBRANCH  58  77
BRANCH  70  83
ATOM     83  C   UNL A   1      41.457  27.522  26.830  1.00  0.00    -0.014 A 
ATOM     84  C   UNL A   1      40.956  26.623  27.790  1.00  0.00     0.009 A 
ATOM     85  C   UNL A   1      40.719  28.680  26.557  1.00  0.00     0.009 A 
ATOM     86  C   UNL A   1      39.739  26.865  28.437  1.00  0.00     0.001 A 
ATOM     87  C   UNL A   1      39.513  28.931  27.215  1.00  0.00     0.001 A 
ATOM     88  C   UNL A   1      39.020  28.023  28.152  1.00  0.00     0.000 A 
ENDBRANCH  70  83
ENDBRANCH  44  45
ENDBRANCH  36  39
ENDBRANCH  34  35
ENDBRANCH  33  34
ENDBRANCH  32  33
ENDBRANCH   1  32
TORSDOF 16
ENDMDL
MODEL 2
REMARK VINA RESULT:     -10.0      2.784      6.162
REMARK SMILES CC1(C)Cc2c(-c3ccccc3)c(-c3ccc(Cl)cc3)c(CC(=O)NCCCCCCNC(=O)c3ccc(-c4c5nc(c(-c6ccccc6)c6ccc([nH]6)c(-c6ccccc6)c6nc(c(-c7ccccc7)c7ccc4[nH]7)C=C6)C=C5)cc3)n2C1
REMARK SMILES IDX 28 1 27 2 26 3 25 4 23 5 24 6 22 8 21 9 1 10 2 11 3 12 4 13
REMARK SMILES IDX 84 14 5 15 83 16 6 17 13 18 7 19 8 20 12 21 9 22 11 23 10 24
REMARK SMILES IDX 14 25 15 26 20 27 16 28 19 29 17 30 18 31 29 32 30 33 31 34
REMARK SMILES IDX 32 35 33 36 34 38 35 39 36 40 82 41 37 42 81 43 38 44 39 45
REMARK SMILES IDX 40 46 75 47 41 48 80 49 74 50 76 51 42 52 79 53 73 54 72 55
REMARK SMILES IDX 43 57 65 58 50 59 64 60 51 61 54 62 63 63 77 64 52 65 53 66
REMARK SMILES IDX 62 68 78 69 55 70 44 71 45 72 49 73 46 74 48 75 47 76 66 77
REMARK SMILES IDX 67 78 71 79 68 80 70 81 69 82 56 83 57 84 61 85 58 86 60 87
REMARK SMILES IDX 59 88
REMARK H PARENT 25 7 32 37 76 56 54 67
REMARK Flexibility Score: inf
ROOT
ATOM      1  C   UNL A   1      42.034  34.919  35.206  1.00  0.00     0.002 C 
ENDROOT
BRANCH   1   2
ATOM      2  C   UNL A   1      40.841  35.050  36.156  1.00  0.00     0.021 C 
BRANCH   2   3
ATOM      3  C   UNL A   1      39.799  33.944  36.013  1.00  0.00     0.116 C 
BRANCH   3   4
ATOM      4  N   UNL A   1      38.507  34.441  35.608  1.00  0.00    -0.356 N 
ATOM      5  C   UNL A   1      38.013  34.612  34.346  1.00  0.00     0.225 C 
ATOM      6  O   UNL A   1      36.836  34.965  34.237  1.00  0.00    -0.275 OA
ATOM      7  H   UNL A   1      37.898  34.691  36.341  1.00  0.00     0.163 HD
BRANCH   5   8
ATOM      8  C   UNL A   1      38.865  34.295  33.124  1.00  0.00     0.154 C 
BRANCH   8   9
ATOM      9  C   UNL A   1      38.441  33.053  32.394  1.00  0.00     0.036 A 
ATOM     10  C   UNL A   1      35.385  33.919  28.540  1.00  0.00     0.013 C 
ATOM     11  C   UNL A   1      35.735  33.263  29.877  1.00  0.00    -0.012 C 
ATOM     12  C   UNL A   1      34.442  33.098  30.700  1.00  0.00     0.013 C 
ATOM     13  C   UNL A   1      36.416  31.868  29.685  1.00  0.00     0.063 C 
ATOM     14  C   UNL A   1      36.794  34.099  30.653  1.00  0.00     0.129 C 
ATOM     15  C   UNL A   1      37.371  31.832  30.817  1.00  0.00     0.027 A 
ATOM     16  N   UNL A   1      37.570  33.075  31.344  1.00  0.00    -0.346 N 
ATOM     17  C   UNL A   1      38.132  30.946  31.530  1.00  0.00     0.011 A 
ATOM     18  C   UNL A   1      38.829  31.717  32.527  1.00  0.00     0.011 A 
BRANCH  17  19
ATOM     19  C   UNL A   1      38.229  29.526  31.281  1.00  0.00    -0.016 A 
ATOM     20  C   UNL A   1      38.427  29.052  29.982  1.00  0.00     0.009 A 
ATOM     21  C   UNL A   1      38.287  28.641  32.365  1.00  0.00     0.009 A 
ATOM     22  C   UNL A   1      38.730  27.707  29.776  1.00  0.00     0.001 A 
ATOM     23  C   UNL A   1      38.570  27.294  32.155  1.00  0.00     0.001 A 
ATOM     24  C   UNL A   1      38.810  26.832  30.862  1.00  0.00     0.000 A 
ENDBRANCH  17  19
BRANCH  18  25
ATOM     25  C   UNL A   1      39.810  31.198  33.472  1.00  0.00    -0.016 A 
ATOM     26  C   UNL A   1      39.370  30.623  34.674  1.00  0.00     0.010 A 
ATOM     27  C   UNL A   1      41.179  31.400  33.276  1.00  0.00     0.010 A 
ATOM     28  C   UNL A   1      40.287  30.251  35.660  1.00  0.00     0.021 A 
ATOM     29  C   UNL A   1      42.100  31.006  34.252  1.00  0.00     0.021 A 
ATOM     30  C   UNL A   1      41.650  30.440  35.442  1.00  0.00     0.041 A 
ATOM     31  Cl  UNL A   1      42.780  29.999  36.661  1.00  0.00    -0.084 Cl
ENDBRANCH  18  25
ENDBRANCH   8   9
ENDBRANCH   5   8
ENDBRANCH   3   4
ENDBRANCH   2   3
ENDBRANCH   1   2
BRANCH   1  32
ATOM     32  C   UNL A   1      42.187  36.043  34.168  1.00  0.00     0.002 C 
BRANCH  32  33
ATOM     33  C   UNL A   1      43.069  35.746  32.944  1.00  0.00     0.021 C 
BRANCH  33  34
ATOM     34  C   UNL A   1      42.561  34.602  32.088  1.00  0.00     0.116 C 
BRANCH  34  35
ATOM     35  N   UNL A   1      42.339  34.983  30.687  1.00  0.00    -0.352 N 
ATOM     36  C   UNL A   1      42.463  34.195  29.556  1.00  0.00     0.251 C 
ATOM     37  H   UNL A   1      42.068  35.917  30.534  1.00  0.00     0.163 HD
ATOM     38  O   UNL A   1      42.592  34.691  28.439  1.00  0.00    -0.269 OA
BRANCH  36  39
ATOM     39  C   UNL A   1      42.418  32.736  29.723  1.00  0.00     0.039 A 
ATOM     40  C   UNL A   1      41.233  31.999  29.809  1.00  0.00     0.014 A 
ATOM     41  C   UNL A   1      43.649  32.097  29.726  1.00  0.00     0.014 A 
ATOM     42  C   UNL A   1      41.322  30.608  29.843  1.00  0.00     0.010 A 
ATOM     43  C   UNL A   1      43.708  30.769  29.443  1.00  0.00     0.010 A 
ATOM     44  C   UNL A   1      42.575  30.006  29.655  1.00  0.00    -0.014 A 
BRANCH  44  45
ATOM     45  C   UNL A   1      42.783  28.568  29.645  1.00  0.00     0.031 A 
ATOM     46  C   UNL A   1      43.335  28.019  30.902  1.00  0.00     0.074 A 
ATOM     47  C   UNL A   1      42.265  27.782  28.672  1.00  0.00     0.049 A 
ATOM     48  N   UNL A   1      44.515  27.536  31.097  1.00  0.00    -0.248 NA
ATOM     49  C   UNL A   1      42.528  28.150  32.126  1.00  0.00     0.031 C 
ATOM     50  C   UNL A   1      41.394  28.164  27.543  1.00  0.00     0.029 A 
ATOM     51  N   UNL A   1      42.319  26.431  28.549  1.00  0.00    -0.354 N 
ATOM     52  C   UNL A   1      44.531  27.101  32.418  1.00  0.00     0.074 A 
ATOM     53  C   UNL A   1      43.370  27.679  33.047  1.00  0.00     0.031 C 
ATOM     54  C   UNL A   1      40.828  27.062  27.004  1.00  0.00     0.029 A 
ATOM     55  C   UNL A   1      41.451  25.899  27.601  1.00  0.00     0.049 A 
ATOM     56  H   UNL A   1      42.923  25.871  29.089  1.00  0.00     0.167 HD
ATOM     57  C   UNL A   1      45.334  26.074  32.808  1.00  0.00     0.031 A 
ATOM     58  C   UNL A   1      41.268  24.589  27.317  1.00  0.00     0.031 A 
ATOM     59  C   UNL A   1      46.316  25.763  31.798  1.00  0.00     0.049 A 
ATOM     60  C   UNL A   1      42.437  23.861  27.842  1.00  0.00     0.074 A 
ATOM     61  C   UNL A   1      47.392  26.409  31.227  1.00  0.00     0.029 A 
ATOM     62  N   UNL A   1      45.972  24.748  30.938  1.00  0.00    -0.354 N 
ATOM     63  N   UNL A   1      43.635  24.004  27.358  1.00  0.00    -0.248 NA
ATOM     64  C   UNL A   1      42.361  23.288  29.175  1.00  0.00     0.031 C 
ATOM     65  C   UNL A   1      47.383  26.010  29.855  1.00  0.00     0.029 A 
ATOM     66  C   UNL A   1      46.344  25.098  29.667  1.00  0.00     0.049 A 
ATOM     67  H   UNL A   1      45.530  23.906  31.194  1.00  0.00     0.167 HD
ATOM     68  C   UNL A   1      44.461  23.969  28.468  1.00  0.00     0.074 A 
ATOM     69  C   UNL A   1      43.646  23.383  29.529  1.00  0.00     0.031 C 
ATOM     70  C   UNL A   1      45.623  24.686  28.483  1.00  0.00     0.031 A 
BRANCH  57  71
ATOM     71  C   UNL A   1      44.939  25.057  33.854  1.00  0.00    -0.014 A 
ATOM     72  C   UNL A   1      45.876  24.717  34.846  1.00  0.00     0.009 A 
ATOM     73  C   UNL A   1      43.815  24.216  33.736  1.00  0.00     0.009 A 
ATOM     74  C   UNL A   1      45.731  23.561  35.622  1.00  0.00     0.001 A 
ATOM     75  C   UNL A   1      43.647  23.083  34.537  1.00  0.00     0.001 A 
ATOM     76  C   UNL A   1      44.621  22.740  35.462  1.00  0.00     0.000 A 
ENDBRANCH  57  71
BRANCH  58  77
ATOM     77  C   UNL A   1      40.005  23.884  27.042  1.00  0.00    -0.014 A 
ATOM     78  C   UNL A   1      38.828  24.589  26.747  1.00  0.00     0.009 A 
ATOM     79  C   UNL A   1      40.073  22.525  26.697  1.00  0.00     0.009 A 
ATOM     80  C   UNL A   1      37.761  23.956  26.094  1.00  0.00     0.001 A 
ATOM     81  C   UNL A   1      39.031  21.917  25.998  1.00  0.00     0.001 A 
ATOM     82  C   UNL A   1      37.872  22.625  25.700  1.00  0.00     0.000 A 
ENDBRANCH  58  77
BRANCH  70  83
ATOM     83  C   UNL A   1      46.066  25.284  27.168  1.00  0.00    -0.014 A 
ATOM     84  C   UNL A   1      45.565  26.499  26.665  1.00  0.00     0.009 A 
ATOM     85  C   UNL A   1      47.095  24.648  26.463  1.00  0.00     0.009 A 
ATOM     86  C   UNL A   1      46.063  27.046  25.477  1.00  0.00     0.001 A 
ATOM     87  C   UNL A   1      47.605  25.202  25.287  1.00  0.00     0.001 A 
ATOM     88  C   UNL A   1      47.087  26.399  24.791  1.00  0.00     0.000 A 
ENDBRANCH  70  83
ENDBRANCH  44  45
ENDBRANCH  36  39
ENDBRANCH  34  35
ENDBRANCH  33  34
ENDBRANCH  32  33
ENDBRANCH   1  32
TORSDOF 16
ENDMDL
MODEL 3
REMARK VINA RESULT:     -10.0      3.015     10.346
REMARK SMILES CC1(C)Cc2c(-c3ccccc3)c(-c3ccc(Cl)cc3)c(CC(=O)NCCCCCCNC(=O)c3ccc(-c4c5nc(c(-c6ccccc6)c6ccc([nH]6)c(-c6ccccc6)c6nc(c(-c7ccccc7)c7ccc4[nH]7)C=C6)C=C5)cc3)n2C1
REMARK SMILES IDX 28 1 27 2 26 3 25 4 23 5 24 6 22 8 21 9 1 10 2 11 3 12 4 13
REMARK SMILES IDX 84 14 5 15 83 16 6 17 13 18 7 19 8 20 12 21 9 22 11 23 10 24
REMARK SMILES IDX 14 25 15 26 20 27 16 28 19 29 17 30 18 31 29 32 30 33 31 34
REMARK SMILES IDX 32 35 33 36 34 38 35 39 36 40 82 41 37 42 81 43 38 44 39 45
REMARK SMILES IDX 40 46 75 47 41 48 80 49 74 50 76 51 42 52 79 53 73 54 72 55
REMARK SMILES IDX 43 57 65 58 50 59 64 60 51 61 54 62 63 63 77 64 52 65 53 66
REMARK SMILES IDX 62 68 78 69 55 70 44 71 45 72 49 73 46 74 48 75 47 76 66 77
REMARK SMILES IDX 67 78 71 79 68 80 70 81 69 82 56 83 57 84 61 85 58 86 60 87
REMARK SMILES IDX 59 88
REMARK H PARENT 25 7 32 37 76 56 54 67
REMARK Flexibility Score: inf
ROOT
ATOM      1  C   UNL A   1      44.575  25.446  25.204  1.00  0.00     0.002 C 
ENDROOT
BRANCH   1   2
ATOM      2  C   UNL A   1      45.864  24.644  25.010  1.00  0.00     0.021 C 
BRANCH   2   3
ATOM      3  C   UNL A   1      46.671  24.432  26.289  1.00  0.00     0.116 C 
BRANCH   3   4
ATOM      4  N   UNL A   1      45.989  23.602  27.250  1.00  0.00    -0.356 N 
ATOM      5  C   UNL A   1      45.432  23.957  28.446  1.00  0.00     0.225 C 
ATOM      6  O   UNL A   1      44.811  23.090  29.066  1.00  0.00    -0.275 OA
ATOM      7  H   UNL A   1      45.913  22.649  27.012  1.00  0.00     0.163 HD
BRANCH   5   8
ATOM      8  C   UNL A   1      45.510  25.392  28.948  1.00  0.00     0.154 C 
BRANCH   8   9
ATOM      9  C   UNL A   1      46.539  25.605  30.021  1.00  0.00     0.036 A 
ATOM     10  C   UNL A   1      44.910  24.548  34.622  1.00  0.00     0.013 C 
ATOM     11  C   UNL A   1      45.507  25.488  33.574  1.00  0.00    -0.012 C 
ATOM     12  C   UNL A   1      45.042  26.927  33.877  1.00  0.00     0.013 C 
ATOM     13  C   UNL A   1      47.071  25.434  33.561  1.00  0.00     0.063 C 
ATOM     14  C   UNL A   1      45.101  25.057  32.135  1.00  0.00     0.129 C 
ATOM     15  C   UNL A   1      47.375  25.630  32.124  1.00  0.00     0.027 A 
ATOM     16  N   UNL A   1      46.274  25.418  31.346  1.00  0.00    -0.346 N 
ATOM     17  C   UNL A   1      48.414  25.966  31.300  1.00  0.00     0.011 A 
ATOM     18  C   UNL A   1      47.895  25.937  29.956  1.00  0.00     0.011 A 
BRANCH  17  19
ATOM     19  C   UNL A   1      49.768  26.247  31.720  1.00  0.00    -0.016 A 
ATOM     20  C   UNL A   1      50.105  27.515  32.202  1.00  0.00     0.009 A 
ATOM     21  C   UNL A   1      50.695  25.201  31.796  1.00  0.00     0.009 A 
ATOM     22  C   UNL A   1      51.347  27.719  32.800  1.00  0.00     0.001 A 
ATOM     23  C   UNL A   1      51.944  25.412  32.376  1.00  0.00     0.001 A 
ATOM     24  C   UNL A   1      52.261  26.666  32.894  1.00  0.00     0.000 A 
ENDBRANCH  17  19
BRANCH  18  25
ATOM     25  C   UNL A   1      48.667  26.162  28.740  1.00  0.00    -0.016 A 
ATOM     26  C   UNL A   1      48.416  27.306  27.969  1.00  0.00     0.010 A 
ATOM     27  C   UNL A   1      49.541  25.188  28.249  1.00  0.00     0.010 A 
ATOM     28  C   UNL A   1      49.035  27.474  26.727  1.00  0.00     0.021 A 
ATOM     29  C   UNL A   1      50.180  25.366  27.018  1.00  0.00     0.021 A 
ATOM     30  C   UNL A   1      49.919  26.504  26.260  1.00  0.00     0.041 A 
ATOM     31  Cl  UNL A   1      50.669  26.700  24.724  1.00  0.00    -0.084 Cl
ENDBRANCH  18  25
ENDBRANCH   8   9
ENDBRANCH   5   8
ENDBRANCH   3   4
ENDBRANCH   2   3
ENDBRANCH   1   2
BRANCH   1  32
ATOM     32  C   UNL A   1      43.267  24.652  25.060  1.00  0.00     0.002 C 
BRANCH  32  33
ATOM     33  C   UNL A   1      43.386  23.184  24.617  1.00  0.00     0.021 C 
BRANCH  33  34
ATOM     34  C   UNL A   1      42.950  22.190  25.676  1.00  0.00     0.116 C 
BRANCH  34  35
ATOM     35  N   UNL A   1      41.523  21.852  25.597  1.00  0.00    -0.352 N 
ATOM     36  C   UNL A   1      40.489  22.317  26.390  1.00  0.00     0.251 C 
ATOM     37  H   UNL A   1      41.270  21.215  24.890  1.00  0.00     0.163 HD
ATOM     38  O   UNL A   1      39.416  21.720  26.463  1.00  0.00    -0.269 OA
BRANCH  36  39
ATOM     39  C   UNL A   1      40.698  23.565  27.138  1.00  0.00     0.039 A 
ATOM     40  C   UNL A   1      41.582  23.686  28.214  1.00  0.00     0.014 A 
ATOM     41  C   UNL A   1      40.002  24.667  26.667  1.00  0.00     0.014 A 
ATOM     42  C   UNL A   1      41.783  24.953  28.762  1.00  0.00     0.010 A 
ATOM     43  C   UNL A   1      40.435  25.914  26.990  1.00  0.00     0.010 A 
ATOM     44  C   UNL A   1      41.200  26.062  28.132  1.00  0.00    -0.014 A 
BRANCH  44  45
ATOM     45  C   UNL A   1      41.362  27.429  28.598  1.00  0.00     0.031 A 
ATOM     46  C   UNL A   1      42.528  28.137  28.028  1.00  0.00     0.074 A 
ATOM     47  C   UNL A   1      40.383  28.070  29.278  1.00  0.00     0.049 A 
ATOM     48  N   UNL A   1      43.610  28.487  28.636  1.00  0.00    -0.248 NA
ATOM     49  C   UNL A   1      42.557  28.359  26.572  1.00  0.00     0.031 C 
ATOM     50  C   UNL A   1      39.026  27.592  29.610  1.00  0.00     0.029 A 
ATOM     51  N   UNL A   1      40.354  29.351  29.728  1.00  0.00    -0.354 N 
ATOM     52  C   UNL A   1      44.371  29.168  27.692  1.00  0.00     0.074 A 
ATOM     53  C   UNL A   1      43.772  28.886  26.412  1.00  0.00     0.031 C 
ATOM     54  C   UNL A   1      38.252  28.632  29.992  1.00  0.00     0.029 A 
ATOM     55  C   UNL A   1      39.101  29.795  30.135  1.00  0.00     0.049 A 
ATOM     56  H   UNL A   1      41.157  29.920  29.762  1.00  0.00     0.167 HD
ATOM     57  C   UNL A   1      45.252  30.135  28.068  1.00  0.00     0.031 A 
ATOM     58  C   UNL A   1      38.787  31.037  30.573  1.00  0.00     0.031 A 
ATOM     59  C   UNL A   1      45.487  30.106  29.490  1.00  0.00     0.049 A 
ATOM     60  C   UNL A   1      40.046  31.691  30.971  1.00  0.00     0.074 A 
ATOM     61  C   UNL A   1      46.052  29.223  30.386  1.00  0.00     0.029 A 
ATOM     62  N   UNL A   1      44.715  30.969  30.230  1.00  0.00    -0.354 N 
ATOM     63  N   UNL A   1      40.759  31.297  31.984  1.00  0.00    -0.248 NA
ATOM     64  C   UNL A   1      40.738  32.521  29.999  1.00  0.00     0.031 C 
ATOM     65  C   UNL A   1      45.266  29.341  31.574  1.00  0.00     0.029 A 
ATOM     66  C   UNL A   1      44.301  30.328  31.368  1.00  0.00     0.049 A 
ATOM     67  H   UNL A   1      44.494  31.896  29.983  1.00  0.00     0.167 HD
ATOM     68  C   UNL A   1      42.069  31.439  31.560  1.00  0.00     0.074 A 
ATOM     69  C   UNL A   1      41.997  32.327  30.402  1.00  0.00     0.031 C 
ATOM     70  C   UNL A   1      43.036  30.591  32.017  1.00  0.00     0.031 A 
BRANCH  57  71
ATOM     71  C   UNL A   1      45.517  31.382  27.256  1.00  0.00    -0.014 A 
ATOM     72  C   UNL A   1      46.850  31.795  27.077  1.00  0.00     0.009 A 
ATOM     73  C   UNL A   1      44.519  32.316  26.915  1.00  0.00     0.009 A 
ATOM     74  C   UNL A   1      47.162  33.092  26.652  1.00  0.00     0.001 A 
ATOM     75  C   UNL A   1      44.827  33.598  26.452  1.00  0.00     0.001 A 
ATOM     76  C   UNL A   1      46.151  33.996  26.348  1.00  0.00     0.000 A 
ENDBRANCH  57  71
BRANCH  58  77
ATOM     77  C   UNL A   1      37.589  31.836  30.266  1.00  0.00    -0.014 A 
ATOM     78  C   UNL A   1      37.075  32.760  31.188  1.00  0.00     0.009 A 
ATOM     79  C   UNL A   1      37.205  31.951  28.921  1.00  0.00     0.009 A 
ATOM     80  C   UNL A   1      36.224  33.792  30.767  1.00  0.00     0.001 A 
ATOM     81  C   UNL A   1      36.404  33.012  28.500  1.00  0.00     0.001 A 
ATOM     82  C   UNL A   1      35.906  33.930  29.419  1.00  0.00     0.000 A 
ENDBRANCH  58  77
BRANCH  70  83
ATOM     83  C   UNL A   1      42.656  29.692  33.170  1.00  0.00    -0.014 A 
ATOM     84  C   UNL A   1      42.952  29.991  34.513  1.00  0.00     0.009 A 
ATOM     85  C   UNL A   1      41.886  28.554  32.899  1.00  0.00     0.009 A 
ATOM     86  C   UNL A   1      42.513  29.161  35.550  1.00  0.00     0.001 A 
ATOM     87  C   UNL A   1      41.433  27.734  33.934  1.00  0.00     0.001 A 
ATOM     88  C   UNL A   1      41.749  28.034  35.259  1.00  0.00     0.000 A 
ENDBRANCH  70  83
ENDBRANCH  44  45
ENDBRANCH  36  39
ENDBRANCH  34  35
ENDBRANCH  33  34
ENDBRANCH  32  33
ENDBRANCH   1  32
TORSDOF 16
ENDMDL
