MODEL 1
REMARK VINA RESULT:     -11.1      0.000      0.000
REMARK SMILES CC1(C)CSC[C@H]([NH2+][C@H](C(=O)NCCCCCCNC(=O)c2ccc(-c3c4nc(c(-c5ccccc5)c5ccc([nH]5)c(-c5ccccc5)c5nc(c(-c6ccccc6)c6ccc3[nH]6)C=C5)C=C4)cc2)c2ccccc2)C1
REMARK SMILES IDX 15 1 14 2 13 3 12 4 10 5 11 6 9 8 8 9 7 12 1 13 2 14 3 15
REMARK SMILES IDX 4 16 76 17 5 18 6 19 70 20 71 21 75 22 72 23 74 24 73 25
REMARK SMILES IDX 16 26 17 27 18 28 19 29 20 30 21 32 22 33 23 34 69 35 24 36
REMARK SMILES IDX 68 37 25 38 26 39 27 40 62 41 28 42 67 43 61 44 63 45 29 46
REMARK SMILES IDX 66 47 60 48 59 49 30 51 52 52 37 53 51 54 38 55 41 56 50 57
REMARK SMILES IDX 64 58 39 59 40 60 49 62 65 63 42 64 31 65 32 66 36 67 33 68
REMARK SMILES IDX 35 69 34 70 53 71 54 72 58 73 55 74 57 75 56 76 43 77 44 78
REMARK SMILES IDX 48 79 45 80 47 81 46 82
REMARK H PARENT 12 7 8 10 8 11 19 31 63 50 41 61
REMARK Flexibility Score: inf
ROOT
ATOM      1  C   UNL A   1      36.664  22.144  24.165  1.00  0.00     0.002 C 
ENDROOT
BRANCH   1   2
ATOM      2  C   UNL A   1      36.488  23.461  24.935  1.00  0.00     0.021 C 
BRANCH   2   3
ATOM      3  C   UNL A   1      35.176  24.188  24.652  1.00  0.00     0.116 C 
BRANCH   3   4
ATOM      4  N   UNL A   1      34.784  24.026  23.266  1.00  0.00    -0.351 N 
ATOM      5  C   UNL A   1      33.671  23.446  22.726  1.00  0.00     0.283 C 
ATOM      6  O   UNL A   1      33.611  23.428  21.493  1.00  0.00    -0.268 OA
ATOM      7  H   UNL A   1      35.421  24.390  22.610  1.00  0.00     0.163 HD
BRANCH   5   8
ATOM      8  C   UNL A   1      32.543  22.911  23.650  1.00  0.00     0.304 C 
BRANCH   8   9
ATOM      9  N   UNL A   1      31.179  23.376  23.269  1.00  0.00    -0.329 N 
ATOM     10  H   UNL A   1      31.194  23.601  22.275  1.00  0.00     0.347 HD
ATOM     11  H   UNL A   1      30.552  22.610  23.519  1.00  0.00     0.347 HD
BRANCH   9  12
ATOM     12  C   UNL A   1      30.661  24.555  23.990  1.00  0.00     0.193 C 
ATOM     13  C   UNL A   1      28.630  26.935  23.674  1.00  0.00     0.012 C 
ATOM     14  C   UNL A   1      30.156  27.064  23.495  1.00  0.00    -0.021 C 
ATOM     15  C   UNL A   1      30.403  28.127  22.402  1.00  0.00     0.012 C 
ATOM     16  C   UNL A   1      30.844  27.528  24.794  1.00  0.00     0.076 C 
ATOM     17  C   UNL A   1      30.763  25.733  23.002  1.00  0.00     0.073 C 
ATOM     18  S   UNL A   1      30.816  26.313  26.153  1.00  0.00    -0.155 SA
ATOM     19  C   UNL A   1      31.467  24.860  25.265  1.00  0.00     0.134 C 
ENDBRANCH   9  12
ENDBRANCH   8   9
BRANCH   8  20
ATOM     20  C   UNL A   1      32.581  21.405  23.886  1.00  0.00     0.019 A 
ATOM     21  C   UNL A   1      32.977  20.847  25.109  1.00  0.00     0.010 A 
ATOM     22  C   UNL A   1      32.237  20.534  22.834  1.00  0.00     0.010 A 
ATOM     23  C   UNL A   1      33.011  19.461  25.283  1.00  0.00     0.001 A 
ATOM     24  C   UNL A   1      32.272  19.151  23.009  1.00  0.00     0.001 A 
ATOM     25  C   UNL A   1      32.658  18.613  24.233  1.00  0.00     0.000 A 
ENDBRANCH   8  20
ENDBRANCH   5   8
ENDBRANCH   3   4
ENDBRANCH   2   3
ENDBRANCH   1   2
BRANCH   1  26
ATOM     26  C   UNL A   1      36.650  20.873  25.022  1.00  0.00     0.002 C 
BRANCH  26  27
ATOM     27  C   UNL A   1      37.893  19.990  24.892  1.00  0.00     0.021 C 
BRANCH  27  28
ATOM     28  C   UNL A   1      39.055  20.389  25.793  1.00  0.00     0.116 C 
BRANCH  28  29
ATOM     29  N   UNL A   1      40.085  19.365  25.870  1.00  0.00    -0.352 N 
ATOM     30  C   UNL A   1      41.412  19.516  26.196  1.00  0.00     0.251 C 
ATOM     31  H   UNL A   1      39.795  18.447  25.663  1.00  0.00     0.163 HD
ATOM     32  O   UNL A   1      42.198  18.581  26.093  1.00  0.00    -0.269 OA
BRANCH  30  33
ATOM     33  C   UNL A   1      41.887  20.839  26.646  1.00  0.00     0.039 A 
ATOM     34  C   UNL A   1      42.416  21.728  25.707  1.00  0.00     0.014 A 
ATOM     35  C   UNL A   1      41.761  21.212  27.987  1.00  0.00     0.014 A 
ATOM     36  C   UNL A   1      42.757  23.024  26.101  1.00  0.00     0.010 A 
ATOM     37  C   UNL A   1      42.044  22.519  28.364  1.00  0.00     0.010 A 
ATOM     38  C   UNL A   1      42.539  23.439  27.424  1.00  0.00    -0.014 A 
BRANCH  38  39
ATOM     39  C   UNL A   1      42.816  24.827  27.869  1.00  0.00     0.031 A 
ATOM     40  C   UNL A   1      44.200  25.198  28.318  1.00  0.00     0.074 A 
ATOM     41  C   UNL A   1      41.808  25.714  27.978  1.00  0.00     0.049 A 
ATOM     42  N   UNL A   1      44.613  26.288  28.911  1.00  0.00    -0.248 NA
ATOM     43  C   UNL A   1      45.256  24.194  28.098  1.00  0.00     0.031 C 
ATOM     44  C   UNL A   1      40.414  25.470  27.599  1.00  0.00     0.029 A 
ATOM     45  N   UNL A   1      41.798  26.996  28.469  1.00  0.00    -0.354 N 
ATOM     46  C   UNL A   1      45.963  26.087  29.170  1.00  0.00     0.074 A 
ATOM     47  C   UNL A   1      46.295  24.762  28.694  1.00  0.00     0.031 C 
ATOM     48  C   UNL A   1      39.687  26.566  27.872  1.00  0.00     0.029 A 
ATOM     49  C   UNL A   1      40.550  27.569  28.486  1.00  0.00     0.049 A 
ATOM     50  H   UNL A   1      42.609  27.461  28.779  1.00  0.00     0.167 HD
ATOM     51  C   UNL A   1      46.848  26.935  29.744  1.00  0.00     0.031 A 
ATOM     52  C   UNL A   1      40.141  28.759  28.967  1.00  0.00     0.031 A 
ATOM     53  C   UNL A   1      46.523  28.262  30.188  1.00  0.00     0.049 A 
ATOM     54  C   UNL A   1      41.144  29.681  29.602  1.00  0.00     0.074 A 
ATOM     55  C   UNL A   1      47.367  29.222  30.721  1.00  0.00     0.029 A 
ATOM     56  N   UNL A   1      45.255  28.819  30.150  1.00  0.00    -0.354 N 
ATOM     57  N   UNL A   1      42.429  29.499  29.790  1.00  0.00    -0.248 NA
ATOM     58  C   UNL A   1      40.642  30.975  30.090  1.00  0.00     0.031 C 
ATOM     59  C   UNL A   1      46.601  30.345  31.045  1.00  0.00     0.029 A 
ATOM     60  C   UNL A   1      45.289  30.101  30.669  1.00  0.00     0.049 A 
ATOM     61  H   UNL A   1      44.450  28.368  29.806  1.00  0.00     0.167 HD
ATOM     62  C   UNL A   1      42.893  30.664  30.385  1.00  0.00     0.074 A 
ATOM     63  C   UNL A   1      41.756  31.550  30.523  1.00  0.00     0.031 C 
ATOM     64  C   UNL A   1      44.151  30.974  30.782  1.00  0.00     0.031 A 
BRANCH  51  65
ATOM     65  C   UNL A   1      48.255  26.447  29.936  1.00  0.00    -0.014 A 
ATOM     66  C   UNL A   1      48.644  25.789  31.114  1.00  0.00     0.009 A 
ATOM     67  C   UNL A   1      49.192  26.604  28.902  1.00  0.00     0.009 A 
ATOM     68  C   UNL A   1      49.953  25.325  31.262  1.00  0.00     0.001 A 
ATOM     69  C   UNL A   1      50.491  26.115  29.045  1.00  0.00     0.001 A 
ATOM     70  C   UNL A   1      50.873  25.484  30.226  1.00  0.00     0.000 A 
ENDBRANCH  51  65
BRANCH  52  71
ATOM     71  C   UNL A   1      38.709  29.148  28.878  1.00  0.00    -0.014 A 
ATOM     72  C   UNL A   1      37.855  28.972  29.978  1.00  0.00     0.009 A 
ATOM     73  C   UNL A   1      38.185  29.680  27.690  1.00  0.00     0.009 A 
ATOM     74  C   UNL A   1      36.500  29.296  29.879  1.00  0.00     0.001 A 
ATOM     75  C   UNL A   1      36.835  30.029  27.604  1.00  0.00     0.001 A 
ATOM     76  C   UNL A   1      35.992  29.826  28.695  1.00  0.00     0.000 A 
ENDBRANCH  52  71
BRANCH  64  77
ATOM     77  C   UNL A   1      44.382  32.341  31.356  1.00  0.00    -0.014 A 
ATOM     78  C   UNL A   1      44.312  32.572  32.737  1.00  0.00     0.009 A 
ATOM     79  C   UNL A   1      44.750  33.394  30.504  1.00  0.00     0.009 A 
ATOM     80  C   UNL A   1      44.589  33.840  33.252  1.00  0.00     0.001 A 
ATOM     81  C   UNL A   1      45.049  34.653  31.024  1.00  0.00     0.001 A 
ATOM     82  C   UNL A   1      44.964  34.876  32.397  1.00  0.00     0.000 A 
ENDBRANCH  64  77
ENDBRANCH  38  39
ENDBRANCH  30  33
ENDBRANCH  28  29
ENDBRANCH  27  28
ENDBRANCH  26  27
ENDBRANCH   1  26
TORSDOF 16
ENDMDL
MODEL 2
REMARK VINA RESULT:     -11.1      4.448      9.334
REMARK SMILES CC1(C)CSC[C@H]([NH2+][C@H](C(=O)NCCCCCCNC(=O)c2ccc(-c3c4nc(c(-c5ccccc5)c5ccc([nH]5)c(-c5ccccc5)c5nc(c(-c6ccccc6)c6ccc3[nH]6)C=C5)C=C4)cc2)c2ccccc2)C1
REMARK SMILES IDX 15 1 14 2 13 3 12 4 10 5 11 6 9 8 8 9 7 12 1 13 2 14 3 15
REMARK SMILES IDX 4 16 76 17 5 18 6 19 70 20 71 21 75 22 72 23 74 24 73 25
REMARK SMILES IDX 16 26 17 27 18 28 19 29 20 30 21 32 22 33 23 34 69 35 24 36
REMARK SMILES IDX 68 37 25 38 26 39 27 40 62 41 28 42 67 43 61 44 63 45 29 46
REMARK SMILES IDX 66 47 60 48 59 49 30 51 52 52 37 53 51 54 38 55 41 56 50 57
REMARK SMILES IDX 64 58 39 59 40 60 49 62 65 63 42 64 31 65 32 66 36 67 33 68
REMARK SMILES IDX 35 69 34 70 53 71 54 72 58 73 55 74 57 75 56 76 43 77 44 78
REMARK SMILES IDX 48 79 45 80 47 81 46 82
REMARK H PARENT 12 7 8 10 8 11 19 31 63 50 41 61
REMARK Flexibility Score: inf
ROOT
ATOM      1  C   UNL A   1      33.003  29.487  26.818  1.00  0.00     0.002 C 
ENDROOT
BRANCH   1   2
ATOM      2  C   UNL A   1      32.241  28.320  27.463  1.00  0.00     0.021 C 
BRANCH   2   3
ATOM      3  C   UNL A   1      32.281  27.020  26.662  1.00  0.00     0.116 C 
BRANCH   3   4
ATOM      4  N   UNL A   1      31.085  26.234  26.893  1.00  0.00    -0.351 N 
ATOM      5  C   UNL A   1      30.165  25.748  26.009  1.00  0.00     0.283 C 
ATOM      6  O   UNL A   1      29.219  25.121  26.498  1.00  0.00    -0.268 OA
ATOM      7  H   UNL A   1      30.909  26.017  27.837  1.00  0.00     0.163 HD
BRANCH   5   8
ATOM      8  C   UNL A   1      30.371  25.940  24.482  1.00  0.00     0.304 C 
BRANCH   8   9
ATOM      9  N   UNL A   1      30.073  24.723  23.673  1.00  0.00    -0.329 N 
ATOM     10  H   UNL A   1      29.466  24.122  24.230  1.00  0.00     0.347 HD
ATOM     11  H   UNL A   1      29.651  25.068  22.811  1.00  0.00     0.347 HD
BRANCH   9  12
ATOM     12  C   UNL A   1      31.234  23.918  23.247  1.00  0.00     0.193 C 
ATOM     13  C   UNL A   1      32.047  20.969  22.517  1.00  0.00     0.012 C 
ATOM     14  C   UNL A   1      32.353  21.648  23.867  1.00  0.00    -0.021 C 
ATOM     15  C   UNL A   1      32.286  20.554  24.957  1.00  0.00     0.012 C 
ATOM     16  C   UNL A   1      33.763  22.270  23.884  1.00  0.00     0.076 C 
ATOM     17  C   UNL A   1      31.284  22.709  24.201  1.00  0.00     0.073 C 
ATOM     18  S   UNL A   1      33.979  23.709  22.786  1.00  0.00    -0.155 SA
ATOM     19  C   UNL A   1      32.552  24.709  23.322  1.00  0.00     0.134 C 
ENDBRANCH   9  12
ENDBRANCH   8   9
BRANCH   8  20
ATOM     20  C   UNL A   1      29.696  27.180  23.905  1.00  0.00     0.019 A 
ATOM     21  C   UNL A   1      30.405  28.351  23.608  1.00  0.00     0.010 A 
ATOM     22  C   UNL A   1      28.304  27.168  23.688  1.00  0.00     0.010 A 
ATOM     23  C   UNL A   1      29.749  29.471  23.092  1.00  0.00     0.001 A 
ATOM     24  C   UNL A   1      27.650  28.288  23.174  1.00  0.00     0.001 A 
ATOM     25  C   UNL A   1      28.372  29.439  22.875  1.00  0.00     0.000 A 
ENDBRANCH   8  20
ENDBRANCH   5   8
ENDBRANCH   3   4
ENDBRANCH   2   3
ENDBRANCH   1   2
BRANCH   1  26
ATOM     26  C   UNL A   1      32.143  30.475  26.022  1.00  0.00     0.002 C 
BRANCH  26  27
ATOM     27  C   UNL A   1      31.699  31.718  26.795  1.00  0.00     0.021 C 
BRANCH  27  28
ATOM     28  C   UNL A   1      32.840  32.570  27.340  1.00  0.00     0.116 C 
BRANCH  28  29
ATOM     29  N   UNL A   1      32.437  33.941  27.614  1.00  0.00    -0.352 N 
ATOM     30  C   UNL A   1      32.980  34.822  28.518  1.00  0.00     0.251 C 
ATOM     31  H   UNL A   1      31.680  34.280  27.083  1.00  0.00     0.163 HD
ATOM     32  O   UNL A   1      32.453  35.907  28.737  1.00  0.00    -0.269 OA
BRANCH  30  33
ATOM     33  C   UNL A   1      34.198  34.427  29.252  1.00  0.00     0.039 A 
ATOM     34  C   UNL A   1      34.071  33.786  30.487  1.00  0.00     0.014 A 
ATOM     35  C   UNL A   1      35.458  34.648  28.691  1.00  0.00     0.014 A 
ATOM     36  C   UNL A   1      35.211  33.302  31.132  1.00  0.00     0.010 A 
ATOM     37  C   UNL A   1      36.584  34.114  29.305  1.00  0.00     0.010 A 
ATOM     38  C   UNL A   1      36.471  33.430  30.528  1.00  0.00    -0.014 A 
BRANCH  38  39
ATOM     39  C   UNL A   1      37.698  32.866  31.141  1.00  0.00     0.031 A 
ATOM     40  C   UNL A   1      38.350  31.662  30.522  1.00  0.00     0.074 A 
ATOM     41  C   UNL A   1      38.156  33.359  32.308  1.00  0.00     0.049 A 
ATOM     42  N   UNL A   1      39.308  30.907  30.991  1.00  0.00    -0.248 NA
ATOM     43  C   UNL A   1      37.831  31.233  29.212  1.00  0.00     0.031 C 
ATOM     44  C   UNL A   1      37.598  34.507  33.025  1.00  0.00     0.029 A 
ATOM     45  N   UNL A   1      39.184  32.933  33.113  1.00  0.00    -0.354 N 
ATOM     46  C   UNL A   1      39.481  29.895  30.057  1.00  0.00     0.074 A 
ATOM     47  C   UNL A   1      38.512  30.115  29.006  1.00  0.00     0.031 C 
ATOM     48  C   UNL A   1      38.290  34.694  34.162  1.00  0.00     0.029 A 
ATOM     49  C   UNL A   1      39.306  33.653  34.277  1.00  0.00     0.049 A 
ATOM     50  H   UNL A   1      39.777  32.183  32.879  1.00  0.00     0.167 HD
ATOM     51  C   UNL A   1      40.374  28.877  30.070  1.00  0.00     0.031 A 
ATOM     52  C   UNL A   1      40.126  33.479  35.330  1.00  0.00     0.031 A 
ATOM     53  C   UNL A   1      41.356  28.677  31.099  1.00  0.00     0.049 A 
ATOM     54  C   UNL A   1      41.107  32.340  35.320  1.00  0.00     0.074 A 
ATOM     55  C   UNL A   1      42.349  27.715  31.166  1.00  0.00     0.029 A 
ATOM     56  N   UNL A   1      41.472  29.454  32.241  1.00  0.00    -0.354 N 
ATOM     57  N   UNL A   1      41.296  31.422  34.403  1.00  0.00    -0.248 NA
ATOM     58  C   UNL A   1      41.991  32.213  36.490  1.00  0.00     0.031 C 
ATOM     59  C   UNL A   1      43.039  27.883  32.370  1.00  0.00     0.029 A 
ATOM     60  C   UNL A   1      42.506  28.980  33.028  1.00  0.00     0.049 A 
ATOM     61  H   UNL A   1      40.903  30.227  32.459  1.00  0.00     0.167 HD
ATOM     62  C   UNL A   1      42.339  30.631  34.868  1.00  0.00     0.074 A 
ATOM     63  C   UNL A   1      42.747  31.179  36.145  1.00  0.00     0.031 C 
ATOM     64  C   UNL A   1      42.909  29.548  34.287  1.00  0.00     0.031 A 
BRANCH  51  65
ATOM     65  C   UNL A   1      40.322  27.892  28.938  1.00  0.00    -0.014 A 
ATOM     66  C   UNL A   1      39.558  26.718  29.028  1.00  0.00     0.009 A 
ATOM     67  C   UNL A   1      41.010  28.168  27.745  1.00  0.00     0.009 A 
ATOM     68  C   UNL A   1      39.508  25.826  27.954  1.00  0.00     0.001 A 
ATOM     69  C   UNL A   1      40.936  27.286  26.666  1.00  0.00     0.001 A 
ATOM     70  C   UNL A   1      40.192  26.113  26.774  1.00  0.00     0.000 A 
ENDBRANCH  51  65
BRANCH  52  71
ATOM     71  C   UNL A   1      40.052  34.400  36.495  1.00  0.00    -0.014 A 
ATOM     72  C   UNL A   1      39.198  34.116  37.572  1.00  0.00     0.009 A 
ATOM     73  C   UNL A   1      40.820  35.574  36.528  1.00  0.00     0.009 A 
ATOM     74  C   UNL A   1      39.095  35.005  38.645  1.00  0.00     0.001 A 
ATOM     75  C   UNL A   1      40.735  36.446  37.615  1.00  0.00     0.001 A 
ATOM     76  C   UNL A   1      39.865  36.166  38.668  1.00  0.00     0.000 A 
ENDBRANCH  52  71
BRANCH  64  77
ATOM     77  C   UNL A   1      44.067  28.909  34.996  1.00  0.00    -0.014 A 
ATOM     78  C   UNL A   1      45.381  29.353  34.790  1.00  0.00     0.009 A 
ATOM     79  C   UNL A   1      43.826  27.900  35.942  1.00  0.00     0.009 A 
ATOM     80  C   UNL A   1      46.435  28.782  35.506  1.00  0.00     0.001 A 
ATOM     81  C   UNL A   1      44.878  27.350  36.673  1.00  0.00     0.001 A 
ATOM     82  C   UNL A   1      46.182  27.787  36.451  1.00  0.00     0.000 A 
ENDBRANCH  64  77
ENDBRANCH  38  39
ENDBRANCH  30  33
ENDBRANCH  28  29
ENDBRANCH  27  28
ENDBRANCH  26  27
ENDBRANCH   1  26
TORSDOF 16
ENDMDL
MODEL 3
REMARK VINA RESULT:     -11.1      1.371      5.975
REMARK SMILES CC1(C)CSC[C@H]([NH2+][C@H](C(=O)NCCCCCCNC(=O)c2ccc(-c3c4nc(c(-c5ccccc5)c5ccc([nH]5)c(-c5ccccc5)c5nc(c(-c6ccccc6)c6ccc3[nH]6)C=C5)C=C4)cc2)c2ccccc2)C1
REMARK SMILES IDX 15 1 14 2 13 3 12 4 10 5 11 6 9 8 8 9 7 12 1 13 2 14 3 15
REMARK SMILES IDX 4 16 76 17 5 18 6 19 70 20 71 21 75 22 72 23 74 24 73 25
REMARK SMILES IDX 16 26 17 27 18 28 19 29 20 30 21 32 22 33 23 34 69 35 24 36
REMARK SMILES IDX 68 37 25 38 26 39 27 40 62 41 28 42 67 43 61 44 63 45 29 46
REMARK SMILES IDX 66 47 60 48 59 49 30 51 52 52 37 53 51 54 38 55 41 56 50 57
REMARK SMILES IDX 64 58 39 59 40 60 49 62 65 63 42 64 31 65 32 66 36 67 33 68
REMARK SMILES IDX 35 69 34 70 53 71 54 72 58 73 55 74 57 75 56 76 43 77 44 78
REMARK SMILES IDX 48 79 45 80 47 81 46 82
REMARK H PARENT 12 7 8 10 8 11 19 31 63 50 41 61
REMARK Flexibility Score: inf
ROOT
ATOM      1  C   UNL A   1      36.931  22.366  24.277  1.00  0.00     0.002 C 
ENDROOT
BRANCH   1   2
ATOM      2  C   UNL A   1      36.561  23.695  24.950  1.00  0.00     0.021 C 
BRANCH   2   3
ATOM      3  C   UNL A   1      35.130  24.159  24.690  1.00  0.00     0.116 C 
BRANCH   3   4
ATOM      4  N   UNL A   1      34.789  24.018  23.289  1.00  0.00    -0.351 N 
ATOM      5  C   UNL A   1      33.731  23.387  22.697  1.00  0.00     0.283 C 
ATOM      6  O   UNL A   1      33.707  23.407  21.463  1.00  0.00    -0.268 OA
ATOM      7  H   UNL A   1      35.418  24.445  22.664  1.00  0.00     0.163 HD
BRANCH   5   8
ATOM      8  C   UNL A   1      32.615  22.750  23.569  1.00  0.00     0.304 C 
BRANCH   8   9
ATOM      9  N   UNL A   1      31.240  23.207  23.219  1.00  0.00    -0.329 N 
ATOM     10  H   UNL A   1      31.238  23.457  22.230  1.00  0.00     0.347 HD
ATOM     11  H   UNL A   1      30.626  22.427  23.458  1.00  0.00     0.347 HD
BRANCH   9  12
ATOM     12  C   UNL A   1      30.718  24.362  23.975  1.00  0.00     0.193 C 
ATOM     13  C   UNL A   1      28.640  26.712  23.754  1.00  0.00     0.012 C 
ATOM     14  C   UNL A   1      30.160  26.871  23.544  1.00  0.00    -0.021 C 
ATOM     15  C   UNL A   1      30.364  27.961  22.469  1.00  0.00     0.012 C 
ATOM     16  C   UNL A   1      30.868  27.320  24.838  1.00  0.00     0.076 C 
ATOM     17  C   UNL A   1      30.778  25.561  23.011  1.00  0.00     0.073 C 
ATOM     18  S   UNL A   1      30.892  26.077  26.171  1.00  0.00    -0.155 SA
ATOM     19  C   UNL A   1      31.547  24.654  25.238  1.00  0.00     0.134 C 
ENDBRANCH   9  12
ENDBRANCH   8   9
BRANCH   8  20
ATOM     20  C   UNL A   1      32.693  21.231  23.684  1.00  0.00     0.019 A 
ATOM     21  C   UNL A   1      33.295  20.591  24.776  1.00  0.00     0.010 A 
ATOM     22  C   UNL A   1      32.172  20.435  22.646  1.00  0.00     0.010 A 
ATOM     23  C   UNL A   1      33.358  19.197  24.839  1.00  0.00     0.001 A 
ATOM     24  C   UNL A   1      32.236  19.042  22.711  1.00  0.00     0.001 A 
ATOM     25  C   UNL A   1      32.828  18.423  23.807  1.00  0.00     0.000 A 
ENDBRANCH   8  20
ENDBRANCH   5   8
ENDBRANCH   3   4
ENDBRANCH   2   3
ENDBRANCH   1   2
BRANCH   1  26
ATOM     26  C   UNL A   1      36.832  21.125  25.171  1.00  0.00     0.002 C 
BRANCH  26  27
ATOM     27  C   UNL A   1      37.951  20.099  24.982  1.00  0.00     0.021 C 
BRANCH  27  28
ATOM     28  C   UNL A   1      39.206  20.366  25.804  1.00  0.00     0.116 C 
BRANCH  28  29
ATOM     29  N   UNL A   1      40.115  19.231  25.829  1.00  0.00    -0.352 N 
ATOM     30  C   UNL A   1      41.467  19.228  26.079  1.00  0.00     0.251 C 
ATOM     31  H   UNL A   1      39.710  18.352  25.645  1.00  0.00     0.163 HD
ATOM     32  O   UNL A   1      42.134  18.209  25.937  1.00  0.00    -0.269 OA
BRANCH  30  33
ATOM     33  C   UNL A   1      42.115  20.488  26.492  1.00  0.00     0.039 A 
ATOM     34  C   UNL A   1      42.648  21.332  25.514  1.00  0.00     0.014 A 
ATOM     35  C   UNL A   1      42.149  20.851  27.840  1.00  0.00     0.014 A 
ATOM     36  C   UNL A   1      43.155  22.580  25.884  1.00  0.00     0.010 A 
ATOM     37  C   UNL A   1      42.599  22.116  28.198  1.00  0.00     0.010 A 
ATOM     38  C   UNL A   1      43.101  22.995  27.224  1.00  0.00    -0.014 A 
BRANCH  38  39
ATOM     39  C   UNL A   1      43.560  24.340  27.649  1.00  0.00     0.031 A 
ATOM     40  C   UNL A   1      42.547  25.379  28.037  1.00  0.00     0.074 A 
ATOM     41  C   UNL A   1      44.867  24.660  27.577  1.00  0.00     0.049 A 
ATOM     42  N   UNL A   1      42.717  26.656  28.260  1.00  0.00    -0.248 NA
ATOM     43  C   UNL A   1      41.151  24.927  28.159  1.00  0.00     0.031 C 
ATOM     44  C   UNL A   1      45.946  23.749  27.191  1.00  0.00     0.029 A 
ATOM     45  N   UNL A   1      45.505  25.855  27.800  1.00  0.00    -0.354 N 
ATOM     46  C   UNL A   1      41.450  27.166  28.511  1.00  0.00     0.074 A 
ATOM     47  C   UNL A   1      40.517  26.068  28.386  1.00  0.00     0.031 C 
ATOM     48  C   UNL A   1      47.111  24.419  27.204  1.00  0.00     0.029 A 
ATOM     49  C   UNL A   1      46.855  25.812  27.552  1.00  0.00     0.049 A 
ATOM     50  H   UNL A   1      45.038  26.666  28.108  1.00  0.00     0.167 HD
ATOM     51  C   UNL A   1      41.097  28.435  28.824  1.00  0.00     0.031 A 
ATOM     52  C   UNL A   1      47.779  26.791  27.577  1.00  0.00     0.031 A 
ATOM     53  C   UNL A   1      42.028  29.518  28.978  1.00  0.00     0.049 A 
ATOM     54  C   UNL A   1      47.360  28.192  27.927  1.00  0.00     0.074 A 
ATOM     55  C   UNL A   1      41.774  30.824  29.361  1.00  0.00     0.029 A 
ATOM     56  N   UNL A   1      43.393  29.422  28.757  1.00  0.00    -0.354 N 
ATOM     57  N   UNL A   1      46.165  28.648  28.215  1.00  0.00    -0.248 NA
ATOM     58  C   UNL A   1      48.418  29.215  27.958  1.00  0.00     0.031 C 
ATOM     59  C   UNL A   1      42.980  31.530  29.331  1.00  0.00     0.029 A 
ATOM     60  C   UNL A   1      43.991  30.651  28.976  1.00  0.00     0.049 A 
ATOM     61  H   UNL A   1      43.865  28.603  28.485  1.00  0.00     0.167 HD
ATOM     62  C   UNL A   1      46.331  29.998  28.493  1.00  0.00     0.074 A 
ATOM     63  C   UNL A   1      47.743  30.289  28.345  1.00  0.00     0.031 C 
ATOM     64  C   UNL A   1      45.398  30.916  28.841  1.00  0.00     0.031 A 
BRANCH  51  65
ATOM     65  C   UNL A   1      39.635  28.724  29.014  1.00  0.00    -0.014 A 
ATOM     66  C   UNL A   1      39.010  28.535  30.256  1.00  0.00     0.009 A 
ATOM     67  C   UNL A   1      38.885  29.240  27.944  1.00  0.00     0.009 A 
ATOM     68  C   UNL A   1      37.654  28.830  30.414  1.00  0.00     0.001 A 
ATOM     69  C   UNL A   1      37.538  29.558  28.115  1.00  0.00     0.001 A 
ATOM     70  C   UNL A   1      36.921  29.346  29.346  1.00  0.00     0.000 A 
ENDBRANCH  51  65
BRANCH  52  71
ATOM     71  C   UNL A   1      49.198  26.488  27.250  1.00  0.00    -0.014 A 
ATOM     72  C   UNL A   1      49.652  26.558  25.924  1.00  0.00     0.009 A 
ATOM     73  C   UNL A   1      50.098  26.110  28.258  1.00  0.00     0.009 A 
ATOM     74  C   UNL A   1      50.973  26.229  25.611  1.00  0.00     0.001 A 
ATOM     75  C   UNL A   1      51.425  25.808  27.946  1.00  0.00     0.001 A 
ATOM     76  C   UNL A   1      51.859  25.858  26.621  1.00  0.00     0.000 A 
ENDBRANCH  52  71
BRANCH  64  77
ATOM     77  C   UNL A   1      45.872  32.310  29.137  1.00  0.00    -0.014 A 
ATOM     78  C   UNL A   1      46.338  32.664  30.411  1.00  0.00     0.009 A 
ATOM     79  C   UNL A   1      45.922  33.256  28.101  1.00  0.00     0.009 A 
ATOM     80  C   UNL A   1      46.828  33.951  30.645  1.00  0.00     0.001 A 
ATOM     81  C   UNL A   1      46.435  34.531  28.333  1.00  0.00     0.001 A 
ATOM     82  C   UNL A   1      46.883  34.880  29.606  1.00  0.00     0.000 A 
ENDBRANCH  64  77
ENDBRANCH  38  39
ENDBRANCH  30  33
ENDBRANCH  28  29
ENDBRANCH  27  28
ENDBRANCH  26  27
ENDBRANCH   1  26
TORSDOF 16
ENDMDL
