MODEL 1
REMARK VINA RESULT:     -10.6      0.000      0.000
REMARK SMILES CCOc1cc2nccc(Nc3ccc(C(=O)NCCCCCCNC(=O)c4ccc(-c5c6nc(c(-c7ccccc7)c7ccc([nH]7)c(-c7ccccc7)c7nc(c(-c8ccccc8)c8ccc5[nH]8)C=C7)C=C6)cc4)cc3)c2cc1OCC
REMARK SMILES IDX 20 1 19 2 18 3 16 4 17 5 15 7 12 8 13 9 77 10 14 11 76 12
REMARK SMILES IDX 11 13 10 15 4 16 5 17 80 18 6 19 79 20 7 21 78 22 8 23 9 24
REMARK SMILES IDX 3 25 2 26 1 27 81 28 82 29 83 30 21 31 22 32 23 33 24 34
REMARK SMILES IDX 25 35 26 36 27 38 28 39 29 40 75 41 30 42 74 43 31 44 32 45
REMARK SMILES IDX 33 46 68 47 34 48 73 49 67 50 69 51 35 52 72 53 66 54 65 55
REMARK SMILES IDX 36 57 58 58 43 59 57 60 44 61 47 62 56 63 70 64 45 65 46 66
REMARK SMILES IDX 55 68 71 69 48 70 37 71 38 72 42 73 39 74 41 75 40 76 59 77
REMARK SMILES IDX 60 78 64 79 61 80 63 81 62 82 49 83 50 84 54 85 51 86 53 87
REMARK SMILES IDX 52 88
REMARK H PARENT 18 6 11 14 25 37 69 56 47 67
REMARK Flexibility Score: inf
ROOT
ATOM      1  C   UNL A   1      35.263  31.000  27.945  1.00  0.00     0.021 C 
ENDROOT
BRANCH   1   2
ATOM      2  C   UNL A   1      34.110  30.308  27.219  1.00  0.00     0.116 C 
BRANCH   2   3
ATOM      3  N   UNL A   1      32.980  31.210  27.150  1.00  0.00    -0.352 N 
ATOM      4  C   UNL A   1      31.806  31.154  26.450  1.00  0.00     0.251 C 
ATOM      5  O   UNL A   1      31.043  32.116  26.523  1.00  0.00    -0.269 OA
ATOM      6  H   UNL A   1      33.074  32.014  27.709  1.00  0.00     0.163 HD
BRANCH   4   7
ATOM      7  C   UNL A   1      31.381  29.944  25.701  1.00  0.00     0.039 A 
ATOM      8  C   UNL A   1      30.846  27.522  24.372  1.00  0.00     0.038 A 
ATOM      9  C   UNL A   1      31.307  27.523  25.692  1.00  0.00     0.027 A 
ATOM     10  C   UNL A   1      30.606  28.742  23.739  1.00  0.00     0.027 A 
ATOM     11  C   UNL A   1      31.583  28.720  26.347  1.00  0.00     0.016 A 
ATOM     12  C   UNL A   1      30.820  29.946  24.421  1.00  0.00     0.016 A 
BRANCH   8  13
ATOM     13  N   UNL A   1      30.665  26.295  23.729  1.00  0.00    -0.355 N 
ATOM     14  H   UNL A   1      29.761  25.922  23.827  1.00  0.00     0.167 HD
BRANCH  13  15
ATOM     15  C   UNL A   1      31.537  25.489  22.961  1.00  0.00     0.050 A 
ATOM     16  C   UNL A   1      32.711  21.729  24.477  1.00  0.00     0.163 A 
ATOM     17  C   UNL A   1      33.289  22.247  23.308  1.00  0.00     0.079 A 
ATOM     18  C   UNL A   1      31.671  22.423  25.090  1.00  0.00     0.161 A 
ATOM     19  C   UNL A   1      32.878  23.466  22.760  1.00  0.00     0.076 A 
ATOM     20  C   UNL A   1      31.280  23.651  24.579  1.00  0.00     0.063 A 
ATOM     21  N   UNL A   1      33.445  23.927  21.630  1.00  0.00    -0.256 NA
ATOM     22  C   UNL A   1      31.887  24.204  23.438  1.00  0.00     0.028 A 
ATOM     23  C   UNL A   1      33.038  25.128  21.153  1.00  0.00     0.114 A 
ATOM     24  C   UNL A   1      32.095  25.932  21.768  1.00  0.00     0.047 A 
BRANCH  16  25
ATOM     25  O   UNL A   1      33.227  20.640  25.120  1.00  0.00    -0.490 OA
BRANCH  25  26
ATOM     26  C   UNL A   1      33.650  19.569  24.274  1.00  0.00     0.226 C 
ATOM     27  C   UNL A   1      32.446  18.655  24.081  1.00  0.00     0.049 C 
ENDBRANCH  25  26
ENDBRANCH  16  25
BRANCH  18  28
ATOM     28  O   UNL A   1      30.964  22.055  26.199  1.00  0.00    -0.490 OA
BRANCH  28  29
ATOM     29  C   UNL A   1      30.162  23.057  26.823  1.00  0.00     0.226 C 
ATOM     30  C   UNL A   1      28.948  22.515  27.570  1.00  0.00     0.049 C 
ENDBRANCH  28  29
ENDBRANCH  18  28
ENDBRANCH  13  15
ENDBRANCH   8  13
ENDBRANCH   4   7
ENDBRANCH   2   3
ENDBRANCH   1   2
BRANCH   1  31
ATOM     31  C   UNL A   1      34.778  31.952  29.046  1.00  0.00     0.002 C 
BRANCH  31  32
ATOM     32  C   UNL A   1      34.868  33.440  28.679  1.00  0.00     0.002 C 
BRANCH  32  33
ATOM     33  C   UNL A   1      33.542  34.198  28.771  1.00  0.00     0.021 C 
BRANCH  33  34
ATOM     34  C   UNL A   1      33.677  35.615  29.317  1.00  0.00     0.116 C 
BRANCH  34  35
ATOM     35  N   UNL A   1      32.818  35.824  30.471  1.00  0.00    -0.352 N 
ATOM     36  C   UNL A   1      32.914  35.292  31.730  1.00  0.00     0.251 C 
ATOM     37  H   UNL A   1      32.059  36.435  30.327  1.00  0.00     0.163 HD
ATOM     38  O   UNL A   1      31.975  35.379  32.512  1.00  0.00    -0.269 OA
BRANCH  36  39
ATOM     39  C   UNL A   1      34.157  34.608  32.142  1.00  0.00     0.039 A 
ATOM     40  C   UNL A   1      35.358  35.320  32.123  1.00  0.00     0.014 A 
ATOM     41  C   UNL A   1      34.142  33.261  32.515  1.00  0.00     0.014 A 
ATOM     42  C   UNL A   1      36.541  34.688  32.506  1.00  0.00     0.010 A 
ATOM     43  C   UNL A   1      35.309  32.654  32.969  1.00  0.00     0.010 A 
ATOM     44  C   UNL A   1      36.523  33.355  32.949  1.00  0.00    -0.014 A 
BRANCH  44  45
ATOM     45  C   UNL A   1      37.773  32.667  33.354  1.00  0.00     0.031 A 
ATOM     46  C   UNL A   1      38.396  31.644  32.443  1.00  0.00     0.074 A 
ATOM     47  C   UNL A   1      38.327  32.935  34.552  1.00  0.00     0.049 A 
ATOM     48  N   UNL A   1      39.469  30.916  32.629  1.00  0.00    -0.248 NA
ATOM     49  C   UNL A   1      37.712  31.388  31.164  1.00  0.00     0.031 C 
ATOM     50  C   UNL A   1      37.803  33.882  35.537  1.00  0.00     0.029 A 
ATOM     51  N   UNL A   1      39.459  32.432  35.141  1.00  0.00    -0.354 N 
ATOM     52  C   UNL A   1      39.579  30.113  31.500  1.00  0.00     0.074 A 
ATOM     53  C   UNL A   1      38.434  30.397  30.663  1.00  0.00     0.031 C 
ATOM     54  C   UNL A   1      38.631  33.919  36.594  1.00  0.00     0.029 A 
ATOM     55  C   UNL A   1      39.721  32.972  36.377  1.00  0.00     0.049 A 
ATOM     56  H   UNL A   1      40.031  31.751  34.719  1.00  0.00     0.167 HD
ATOM     57  C   UNL A   1      40.558  29.236  31.174  1.00  0.00     0.031 A 
ATOM     58  C   UNL A   1      40.729  32.733  37.237  1.00  0.00     0.031 A 
ATOM     59  C   UNL A   1      41.700  28.957  32.002  1.00  0.00     0.049 A 
ATOM     60  C   UNL A   1      41.792  31.739  36.858  1.00  0.00     0.074 A 
ATOM     61  C   UNL A   1      42.764  28.109  31.748  1.00  0.00     0.029 A 
ATOM     62  N   UNL A   1      41.929  29.527  33.244  1.00  0.00    -0.354 N 
ATOM     63  N   UNL A   1      41.911  31.027  35.764  1.00  0.00    -0.248 NA
ATOM     64  C   UNL A   1      42.874  31.531  37.832  1.00  0.00     0.031 C 
ATOM     65  C   UNL A   1      43.615  28.133  32.858  1.00  0.00     0.029 A 
ATOM     66  C   UNL A   1      43.111  29.040  33.776  1.00  0.00     0.049 A 
ATOM     67  H   UNL A   1      41.339  30.181  33.684  1.00  0.00     0.167 HD
ATOM     68  C   UNL A   1      43.098  30.319  35.899  1.00  0.00     0.074 A 
ATOM     69  C   UNL A   1      43.668  30.697  37.176  1.00  0.00     0.031 C 
ATOM     70  C   UNL A   1      43.667  29.436  35.044  1.00  0.00     0.031 A 
BRANCH  57  71
ATOM     71  C   UNL A   1      40.428  28.515  29.860  1.00  0.00    -0.014 A 
ATOM     72  C   UNL A   1      39.733  27.298  29.765  1.00  0.00     0.009 A 
ATOM     73  C   UNL A   1      40.987  29.068  28.698  1.00  0.00     0.009 A 
ATOM     74  C   UNL A   1      39.633  26.632  28.542  1.00  0.00     0.001 A 
ATOM     75  C   UNL A   1      40.859  28.415  27.470  1.00  0.00     0.001 A 
ATOM     76  C   UNL A   1      40.192  27.193  27.395  1.00  0.00     0.000 A 
ENDBRANCH  57  71
BRANCH  58  77
ATOM     77  C   UNL A   1      40.802  33.462  38.530  1.00  0.00    -0.014 A 
ATOM     78  C   UNL A   1      40.129  32.974  39.660  1.00  0.00     0.009 A 
ATOM     79  C   UNL A   1      41.525  34.660  38.636  1.00  0.00     0.009 A 
ATOM     80  C   UNL A   1      40.145  33.690  40.859  1.00  0.00     0.001 A 
ATOM     81  C   UNL A   1      41.565  35.358  39.844  1.00  0.00     0.001 A 
ATOM     82  C   UNL A   1      40.866  34.880  40.951  1.00  0.00     0.000 A 
ENDBRANCH  58  77
BRANCH  70  83
ATOM     83  C   UNL A   1      45.002  28.866  35.435  1.00  0.00    -0.014 A 
ATOM     84  C   UNL A   1      46.205  29.481  35.054  1.00  0.00     0.009 A 
ATOM     85  C   UNL A   1      45.052  27.703  36.220  1.00  0.00     0.009 A 
ATOM     86  C   UNL A   1      47.430  28.918  35.415  1.00  0.00     0.001 A 
ATOM     87  C   UNL A   1      46.277  27.160  36.606  1.00  0.00     0.001 A 
ATOM     88  C   UNL A   1      47.465  27.761  36.193  1.00  0.00     0.000 A 
ENDBRANCH  70  83
ENDBRANCH  44  45
ENDBRANCH  36  39
ENDBRANCH  34  35
ENDBRANCH  33  34
ENDBRANCH  32  33
ENDBRANCH  31  32
ENDBRANCH   1  31
TORSDOF 19
ENDMDL
MODEL 2
REMARK VINA RESULT:     -10.6      0.530      5.686
REMARK SMILES CCOc1cc2nccc(Nc3ccc(C(=O)NCCCCCCNC(=O)c4ccc(-c5c6nc(c(-c7ccccc7)c7ccc([nH]7)c(-c7ccccc7)c7nc(c(-c8ccccc8)c8ccc5[nH]8)C=C7)C=C6)cc4)cc3)c2cc1OCC
REMARK SMILES IDX 20 1 19 2 18 3 16 4 17 5 15 7 12 8 13 9 77 10 14 11 76 12
REMARK SMILES IDX 11 13 10 15 4 16 5 17 80 18 6 19 79 20 7 21 78 22 8 23 9 24
REMARK SMILES IDX 3 25 2 26 1 27 81 28 82 29 83 30 21 31 22 32 23 33 24 34
REMARK SMILES IDX 25 35 26 36 27 38 28 39 29 40 75 41 30 42 74 43 31 44 32 45
REMARK SMILES IDX 33 46 68 47 34 48 73 49 67 50 69 51 35 52 72 53 66 54 65 55
REMARK SMILES IDX 36 57 58 58 43 59 57 60 44 61 47 62 56 63 70 64 45 65 46 66
REMARK SMILES IDX 55 68 71 69 48 70 37 71 38 72 42 73 39 74 41 75 40 76 59 77
REMARK SMILES IDX 60 78 64 79 61 80 63 81 62 82 49 83 50 84 54 85 51 86 53 87
REMARK SMILES IDX 52 88
REMARK H PARENT 18 6 11 14 25 37 69 56 47 67
REMARK Flexibility Score: inf
ROOT
ATOM      1  C   UNL A   1      35.305  30.942  27.767  1.00  0.00     0.021 C 
ENDROOT
BRANCH   1   2
ATOM      2  C   UNL A   1      34.082  30.194  27.236  1.00  0.00     0.116 C 
BRANCH   2   3
ATOM      3  N   UNL A   1      32.951  31.098  27.197  1.00  0.00    -0.352 N 
ATOM      4  C   UNL A   1      31.779  31.066  26.492  1.00  0.00     0.251 C 
ATOM      5  O   UNL A   1      31.015  32.024  26.597  1.00  0.00    -0.269 OA
ATOM      6  H   UNL A   1      33.044  31.881  27.785  1.00  0.00     0.163 HD
BRANCH   4   7
ATOM      7  C   UNL A   1      31.357  29.883  25.699  1.00  0.00     0.039 A 
ATOM      8  C   UNL A   1      30.820  27.505  24.295  1.00  0.00     0.038 A 
ATOM      9  C   UNL A   1      31.225  27.466  25.633  1.00  0.00     0.027 A 
ATOM     10  C   UNL A   1      30.637  28.743  23.680  1.00  0.00     0.027 A 
ATOM     11  C   UNL A   1      31.501  28.641  26.325  1.00  0.00     0.016 A 
ATOM     12  C   UNL A   1      30.851  29.927  24.397  1.00  0.00     0.016 A 
BRANCH   8  13
ATOM     13  N   UNL A   1      30.637  26.297  23.617  1.00  0.00    -0.355 N 
ATOM     14  H   UNL A   1      29.730  25.927  23.699  1.00  0.00     0.167 HD
BRANCH  13  15
ATOM     15  C   UNL A   1      31.510  25.507  22.834  1.00  0.00     0.050 A 
ATOM     16  C   UNL A   1      33.064  21.941  24.472  1.00  0.00     0.163 A 
ATOM     17  C   UNL A   1      33.517  22.423  23.234  1.00  0.00     0.079 A 
ATOM     18  C   UNL A   1      32.021  22.597  25.120  1.00  0.00     0.161 A 
ATOM     19  C   UNL A   1      32.979  23.573  22.650  1.00  0.00     0.076 A 
ATOM     20  C   UNL A   1      31.504  23.761  24.570  1.00  0.00     0.063 A 
ATOM     21  N   UNL A   1      33.430  24.001  21.455  1.00  0.00    -0.256 NA
ATOM     22  C   UNL A   1      31.987  24.282  23.357  1.00  0.00     0.028 A 
ATOM     23  C   UNL A   1      32.902  25.138  20.942  1.00  0.00     0.114 A 
ATOM     24  C   UNL A   1      31.948  25.912  21.579  1.00  0.00     0.047 A 
BRANCH  16  25
ATOM     25  O   UNL A   1      33.703  20.934  25.136  1.00  0.00    -0.490 OA
BRANCH  25  26
ATOM     26  C   UNL A   1      33.678  19.658  24.492  1.00  0.00     0.226 C 
ATOM     27  C   UNL A   1      32.821  18.742  25.356  1.00  0.00     0.049 C 
ENDBRANCH  25  26
ENDBRANCH  16  25
BRANCH  18  28
ATOM     28  O   UNL A   1      31.423  22.252  26.298  1.00  0.00    -0.490 OA
BRANCH  28  29
ATOM     29  C   UNL A   1      30.501  23.184  26.860  1.00  0.00     0.226 C 
ATOM     30  C   UNL A   1      29.156  22.581  27.250  1.00  0.00     0.049 C 
ENDBRANCH  28  29
ENDBRANCH  18  28
ENDBRANCH  13  15
ENDBRANCH   8  13
ENDBRANCH   4   7
ENDBRANCH   2   3
ENDBRANCH   1   2
BRANCH   1  31
ATOM     31  C   UNL A   1      34.940  31.985  28.831  1.00  0.00     0.002 C 
BRANCH  31  32
ATOM     32  C   UNL A   1      34.949  33.434  28.325  1.00  0.00     0.002 C 
BRANCH  32  33
ATOM     33  C   UNL A   1      33.606  34.156  28.441  1.00  0.00     0.021 C 
BRANCH  33  34
ATOM     34  C   UNL A   1      33.721  35.607  28.894  1.00  0.00     0.116 C 
BRANCH  34  35
ATOM     35  N   UNL A   1      32.899  35.866  30.065  1.00  0.00    -0.352 N 
ATOM     36  C   UNL A   1      32.992  35.331  31.323  1.00  0.00     0.251 C 
ATOM     37  H   UNL A   1      32.172  36.517  29.935  1.00  0.00     0.163 HD
ATOM     38  O   UNL A   1      32.075  35.471  32.124  1.00  0.00    -0.269 OA
BRANCH  36  39
ATOM     39  C   UNL A   1      34.203  34.580  31.712  1.00  0.00     0.039 A 
ATOM     40  C   UNL A   1      35.446  35.210  31.622  1.00  0.00     0.014 A 
ATOM     41  C   UNL A   1      34.116  33.249  32.131  1.00  0.00     0.014 A 
ATOM     42  C   UNL A   1      36.600  34.513  31.982  1.00  0.00     0.010 A 
ATOM     43  C   UNL A   1      35.258  32.581  32.562  1.00  0.00     0.010 A 
ATOM     44  C   UNL A   1      36.512  33.199  32.471  1.00  0.00    -0.014 A 
BRANCH  44  45
ATOM     45  C   UNL A   1      37.731  32.443  32.852  1.00  0.00     0.031 A 
ATOM     46  C   UNL A   1      38.417  32.734  34.160  1.00  0.00     0.074 A 
ATOM     47  C   UNL A   1      38.240  31.524  32.010  1.00  0.00     0.049 A 
ATOM     48  N   UNL A   1      39.506  32.203  34.658  1.00  0.00    -0.248 NA
ATOM     49  C   UNL A   1      37.814  33.774  35.011  1.00  0.00     0.031 C 
ATOM     50  C   UNL A   1      37.686  31.174  30.701  1.00  0.00     0.029 A 
ATOM     51  N   UNL A   1      39.340  30.715  32.134  1.00  0.00    -0.354 N 
ATOM     52  C   UNL A   1      39.720  32.851  35.869  1.00  0.00     0.074 A 
ATOM     53  C   UNL A   1      38.687  33.854  36.003  1.00  0.00     0.031 C 
ATOM     54  C   UNL A   1      38.429  30.196  30.158  1.00  0.00     0.029 A 
ATOM     55  C   UNL A   1      39.530  29.877  31.062  1.00  0.00     0.049 A 
ATOM     56  H   UNL A   1      39.936  30.731  32.917  1.00  0.00     0.167 HD
ATOM     57  C   UNL A   1      40.675  32.615  36.800  1.00  0.00     0.031 A 
ATOM     58  C   UNL A   1      40.483  28.955  30.835  1.00  0.00     0.031 A 
ATOM     59  C   UNL A   1      41.699  31.613  36.671  1.00  0.00     0.049 A 
ATOM     60  C   UNL A   1      41.543  28.727  31.877  1.00  0.00     0.074 A 
ATOM     61  C   UNL A   1      42.693  31.275  37.571  1.00  0.00     0.029 A 
ATOM     62  N   UNL A   1      41.854  30.785  35.571  1.00  0.00    -0.354 N 
ATOM     63  N   UNL A   1      41.702  29.311  33.041  1.00  0.00    -0.248 NA
ATOM     64  C   UNL A   1      42.548  27.696  31.579  1.00  0.00     0.031 C 
ATOM     65  C   UNL A   1      43.478  30.270  36.996  1.00  0.00     0.029 A 
ATOM     66  C   UNL A   1      42.936  29.943  35.764  1.00  0.00     0.049 A 
ATOM     67  H   UNL A   1      41.280  30.793  34.771  1.00  0.00     0.167 HD
ATOM     68  C   UNL A   1      42.797  28.691  33.629  1.00  0.00     0.074 A 
ATOM     69  C   UNL A   1      43.255  27.679  32.700  1.00  0.00     0.031 C 
ATOM     70  C   UNL A   1      43.371  28.935  34.832  1.00  0.00     0.031 A 
BRANCH  57  71
ATOM     71  C   UNL A   1      40.651  33.463  38.042  1.00  0.00    -0.014 A 
ATOM     72  C   UNL A   1      41.394  34.653  38.123  1.00  0.00     0.009 A 
ATOM     73  C   UNL A   1      39.859  33.083  39.136  1.00  0.00     0.009 A 
ATOM     74  C   UNL A   1      41.373  35.423  39.288  1.00  0.00     0.001 A 
ATOM     75  C   UNL A   1      39.817  33.872  40.289  1.00  0.00     0.001 A 
ATOM     76  C   UNL A   1      40.582  35.035  40.367  1.00  0.00     0.000 A 
ENDBRANCH  57  71
BRANCH  58  77
ATOM     77  C   UNL A   1      40.470  28.152  29.584  1.00  0.00    -0.014 A 
ATOM     78  C   UNL A   1      41.204  28.571  28.464  1.00  0.00     0.009 A 
ATOM     79  C   UNL A   1      39.706  26.979  29.494  1.00  0.00     0.009 A 
ATOM     80  C   UNL A   1      41.143  27.854  27.267  1.00  0.00     0.001 A 
ATOM     81  C   UNL A   1      39.673  26.245  28.306  1.00  0.00     0.001 A 
ATOM     82  C   UNL A   1      40.380  26.689  27.191  1.00  0.00     0.000 A 
ENDBRANCH  58  77
BRANCH  70  83
ATOM     83  C   UNL A   1      44.520  28.053  35.234  1.00  0.00    -0.014 A 
ATOM     84  C   UNL A   1      44.315  26.847  35.922  1.00  0.00     0.009 A 
ATOM     85  C   UNL A   1      45.830  28.429  34.896  1.00  0.00     0.009 A 
ATOM     86  C   UNL A   1      45.403  26.058  36.301  1.00  0.00     0.001 A 
ATOM     87  C   UNL A   1      46.912  27.623  35.248  1.00  0.00     0.001 A 
ATOM     88  C   UNL A   1      46.699  26.445  35.961  1.00  0.00     0.000 A 
ENDBRANCH  70  83
ENDBRANCH  44  45
ENDBRANCH  36  39
ENDBRANCH  34  35
ENDBRANCH  33  34
ENDBRANCH  32  33
ENDBRANCH  31  32
ENDBRANCH   1  31
TORSDOF 19
ENDMDL
MODEL 3
REMARK VINA RESULT:     -10.2      5.619      8.915
REMARK SMILES CCOc1cc2nccc(Nc3ccc(C(=O)NCCCCCCNC(=O)c4ccc(-c5c6nc(c(-c7ccccc7)c7ccc([nH]7)c(-c7ccccc7)c7nc(c(-c8ccccc8)c8ccc5[nH]8)C=C7)C=C6)cc4)cc3)c2cc1OCC
REMARK SMILES IDX 20 1 19 2 18 3 16 4 17 5 15 7 12 8 13 9 77 10 14 11 76 12
REMARK SMILES IDX 11 13 10 15 4 16 5 17 80 18 6 19 79 20 7 21 78 22 8 23 9 24
REMARK SMILES IDX 3 25 2 26 1 27 81 28 82 29 83 30 21 31 22 32 23 33 24 34
REMARK SMILES IDX 25 35 26 36 27 38 28 39 29 40 75 41 30 42 74 43 31 44 32 45
REMARK SMILES IDX 33 46 68 47 34 48 73 49 67 50 69 51 35 52 72 53 66 54 65 55
REMARK SMILES IDX 36 57 58 58 43 59 57 60 44 61 47 62 56 63 70 64 45 65 46 66
REMARK SMILES IDX 55 68 71 69 48 70 37 71 38 72 42 73 39 74 41 75 40 76 59 77
REMARK SMILES IDX 60 78 64 79 61 80 63 81 62 82 49 83 50 84 54 85 51 86 53 87
REMARK SMILES IDX 52 88
REMARK H PARENT 18 6 11 14 25 37 69 56 47 67
REMARK Flexibility Score: inf
ROOT
ATOM      1  C   UNL A   1      37.519  31.186  29.058  1.00  0.00     0.021 C 
ENDROOT
BRANCH   1   2
ATOM      2  C   UNL A   1      37.038  29.737  28.971  1.00  0.00     0.116 C 
BRANCH   2   3
ATOM      3  N   UNL A   1      37.651  28.967  30.033  1.00  0.00    -0.352 N 
ATOM      4  C   UNL A   1      38.576  27.960  30.014  1.00  0.00     0.251 C 
ATOM      5  O   UNL A   1      38.868  27.423  31.082  1.00  0.00    -0.269 OA
ATOM      6  H   UNL A   1      37.345  29.213  30.935  1.00  0.00     0.163 HD
BRANCH   4   7
ATOM      7  C   UNL A   1      39.306  27.569  28.781  1.00  0.00     0.039 A 
ATOM      8  C   UNL A   1      40.821  26.604  26.616  1.00  0.00     0.038 A 
ATOM      9  C   UNL A   1      40.104  25.723  27.432  1.00  0.00     0.027 A 
ATOM     10  C   UNL A   1      40.733  27.974  26.859  1.00  0.00     0.027 A 
ATOM     11  C   UNL A   1      39.363  26.198  28.510  1.00  0.00     0.016 A 
ATOM     12  C   UNL A   1      39.935  28.457  27.903  1.00  0.00     0.016 A 
BRANCH   8  13
ATOM     13  N   UNL A   1      41.618  26.073  25.599  1.00  0.00    -0.355 N 
ATOM     14  H   UNL A   1      41.117  25.562  24.923  1.00  0.00     0.167 HD
BRANCH  13  15
ATOM     15  C   UNL A   1      43.010  26.130  25.357  1.00  0.00     0.050 A 
ATOM     16  C   UNL A   1      45.256  22.559  25.475  1.00  0.00     0.163 A 
ATOM     17  C   UNL A   1      45.890  23.805  25.352  1.00  0.00     0.079 A 
ATOM     18  C   UNL A   1      43.865  22.495  25.463  1.00  0.00     0.161 A 
ATOM     19  C   UNL A   1      45.163  24.995  25.258  1.00  0.00     0.076 A 
ATOM     20  C   UNL A   1      43.132  23.672  25.409  1.00  0.00     0.063 A 
ATOM     21  N   UNL A   1      45.803  26.173  25.128  1.00  0.00    -0.256 NA
ATOM     22  C   UNL A   1      43.757  24.929  25.338  1.00  0.00     0.028 A 
ATOM     23  C   UNL A   1      45.059  27.303  25.073  1.00  0.00     0.114 A 
ATOM     24  C   UNL A   1      43.679  27.334  25.173  1.00  0.00     0.047 A 
BRANCH  16  25
ATOM     25  O   UNL A   1      45.951  21.416  25.753  1.00  0.00    -0.490 OA
BRANCH  25  26
ATOM     26  C   UNL A   1      46.373  20.661  24.615  1.00  0.00     0.226 C 
ATOM     27  C   UNL A   1      45.758  19.274  24.752  1.00  0.00     0.049 C 
ENDBRANCH  25  26
ENDBRANCH  16  25
BRANCH  18  28
ATOM     28  O   UNL A   1      43.082  21.379  25.528  1.00  0.00    -0.490 OA
BRANCH  28  29
ATOM     29  C   UNL A   1      41.721  21.559  25.919  1.00  0.00     0.226 C 
ATOM     30  C   UNL A   1      41.016  20.277  26.347  1.00  0.00     0.049 C 
ENDBRANCH  28  29
ENDBRANCH  18  28
ENDBRANCH  13  15
ENDBRANCH   8  13
ENDBRANCH   4   7
ENDBRANCH   2   3
ENDBRANCH   1   2
BRANCH   1  31
ATOM     31  C   UNL A   1      36.457  32.124  29.645  1.00  0.00     0.002 C 
BRANCH  31  32
ATOM     32  C   UNL A   1      37.029  33.330  30.402  1.00  0.00     0.002 C 
BRANCH  32  33
ATOM     33  C   UNL A   1      36.281  33.686  31.689  1.00  0.00     0.021 C 
BRANCH  33  34
ATOM     34  C   UNL A   1      37.128  34.439  32.707  1.00  0.00     0.116 C 
BRANCH  34  35
ATOM     35  N   UNL A   1      36.946  33.908  34.048  1.00  0.00    -0.352 N 
ATOM     36  C   UNL A   1      37.522  32.809  34.630  1.00  0.00     0.251 C 
ATOM     37  H   UNL A   1      36.318  34.408  34.619  1.00  0.00     0.163 HD
ATOM     38  O   UNL A   1      37.077  32.361  35.680  1.00  0.00    -0.269 OA
BRANCH  36  39
ATOM     39  C   UNL A   1      38.683  32.163  33.984  1.00  0.00     0.039 A 
ATOM     40  C   UNL A   1      38.459  31.121  33.081  1.00  0.00     0.014 A 
ATOM     41  C   UNL A   1      39.987  32.562  34.291  1.00  0.00     0.014 A 
ATOM     42  C   UNL A   1      39.545  30.498  32.465  1.00  0.00     0.010 A 
ATOM     43  C   UNL A   1      41.063  31.992  33.619  1.00  0.00     0.010 A 
ATOM     44  C   UNL A   1      40.854  30.941  32.716  1.00  0.00    -0.014 A 
BRANCH  44  45
ATOM     45  C   UNL A   1      42.019  30.284  32.073  1.00  0.00     0.031 A 
ATOM     46  C   UNL A   1      42.659  30.909  30.862  1.00  0.00     0.074 A 
ATOM     47  C   UNL A   1      42.476  29.112  32.553  1.00  0.00     0.049 A 
ATOM     48  N   UNL A   1      43.665  30.476  30.143  1.00  0.00    -0.248 NA
ATOM     49  C   UNL A   1      42.080  32.175  30.382  1.00  0.00     0.031 C 
ATOM     50  C   UNL A   1      41.922  28.390  33.699  1.00  0.00     0.029 A 
ATOM     51  N   UNL A   1      43.518  28.324  32.133  1.00  0.00    -0.354 N 
ATOM     52  C   UNL A   1      43.828  31.409  29.126  1.00  0.00     0.074 A 
ATOM     53  C   UNL A   1      42.784  32.396  29.283  1.00  0.00     0.031 C 
ATOM     54  C   UNL A   1      42.651  27.282  33.914  1.00  0.00     0.029 A 
ATOM     55  C   UNL A   1      43.698  27.198  32.899  1.00  0.00     0.049 A 
ATOM     56  H   UNL A   1      44.083  28.544  31.358  1.00  0.00     0.167 HD
ATOM     57  C   UNL A   1      44.779  31.455  28.162  1.00  0.00     0.031 A 
ATOM     58  C   UNL A   1      44.606  26.210  32.796  1.00  0.00     0.031 A 
ATOM     59  C   UNL A   1      45.822  30.477  28.009  1.00  0.00     0.049 A 
ATOM     60  C   UNL A   1      45.638  26.277  31.705  1.00  0.00     0.074 A 
ATOM     61  C   UNL A   1      46.851  30.451  27.085  1.00  0.00     0.029 A 
ATOM     62  N   UNL A   1      45.971  29.354  28.807  1.00  0.00    -0.354 N 
ATOM     63  N   UNL A   1      45.813  27.192  30.782  1.00  0.00    -0.248 NA
ATOM     64  C   UNL A   1      46.612  25.177  31.653  1.00  0.00     0.031 C 
ATOM     65  C   UNL A   1      47.598  29.287  27.297  1.00  0.00     0.029 A 
ATOM     66  C   UNL A   1      47.068  28.620  28.390  1.00  0.00     0.049 A 
ATOM     67  H   UNL A   1      45.383  29.113  29.560  1.00  0.00     0.167 HD
ATOM     68  C   UNL A   1      46.938  26.801  30.068  1.00  0.00     0.074 A 
ATOM     69  C   UNL A   1      47.411  25.573  30.672  1.00  0.00     0.031 C 
ATOM     70  C   UNL A   1      47.529  27.405  29.009  1.00  0.00     0.031 A 
BRANCH  57  71
ATOM     71  C   UNL A   1      44.727  32.609  27.198  1.00  0.00    -0.014 A 
ATOM     72  C   UNL A   1      45.349  33.833  27.497  1.00  0.00     0.009 A 
ATOM     73  C   UNL A   1      44.069  32.466  25.967  1.00  0.00     0.009 A 
ATOM     74  C   UNL A   1      45.280  34.900  26.599  1.00  0.00     0.001 A 
ATOM     75  C   UNL A   1      44.028  33.526  25.058  1.00  0.00     0.001 A 
ATOM     76  C   UNL A   1      44.624  34.745  25.380  1.00  0.00     0.000 A 
ENDBRANCH  57  71
BRANCH  58  77
ATOM     77  C   UNL A   1      44.605  25.085  33.768  1.00  0.00    -0.014 A 
ATOM     78  C   UNL A   1      44.134  23.819  33.388  1.00  0.00     0.009 A 
ATOM     79  C   UNL A   1      45.053  25.274  35.084  1.00  0.00     0.009 A 
ATOM     80  C   UNL A   1      44.073  22.777  34.315  1.00  0.00     0.001 A 
ATOM     81  C   UNL A   1      45.021  24.222  36.001  1.00  0.00     0.001 A 
ATOM     82  C   UNL A   1      44.520  22.979  35.620  1.00  0.00     0.000 A 
ENDBRANCH  58  77
BRANCH  70  83
ATOM     83  C   UNL A   1      48.786  26.776  28.476  1.00  0.00    -0.014 A 
ATOM     84  C   UNL A   1      50.054  27.163  28.936  1.00  0.00     0.009 A 
ATOM     85  C   UNL A   1      48.692  25.761  27.510  1.00  0.00     0.009 A 
ATOM     86  C   UNL A   1      51.205  26.575  28.407  1.00  0.00     0.001 A 
ATOM     87  C   UNL A   1      49.843  25.154  27.007  1.00  0.00     0.001 A 
ATOM     88  C   UNL A   1      51.099  25.570  27.447  1.00  0.00     0.000 A 
ENDBRANCH  70  83
ENDBRANCH  44  45
ENDBRANCH  36  39
ENDBRANCH  34  35
ENDBRANCH  33  34
ENDBRANCH  32  33
ENDBRANCH  31  32
ENDBRANCH   1  31
TORSDOF 19
ENDMDL
