MODEL 1
REMARK VINA RESULT:     -10.9      0.000      0.000
REMARK SMILES CC[C@@H]1SC[C@H](C(=O)NCCCCCCNC(=O)c2ccc(-c3c4nc(c(-c5ccccc5)c5ccc([nH]5)c(-c5ccccc5)c5nc(c(-c6ccccc6)c6ccc3[nH]6)C=C5)C=C4)cc2)N1C(=O)c1ccc(C)cc1F
REMARK SMILES IDX 12 1 11 2 10 3 9 4 7 5 8 6 6 8 3 9 4 10 67 11 5 12 2 13 1 14
REMARK SMILES IDX 68 15 69 16 70 17 71 18 76 19 72 20 75 21 77 22 73 23 74 24
REMARK SMILES IDX 13 25 14 26 15 27 16 28 17 29 18 31 19 32 20 33 66 34 21 35
REMARK SMILES IDX 65 36 22 37 23 38 24 39 59 40 25 41 64 42 58 43 60 44 26 45
REMARK SMILES IDX 63 46 57 47 56 48 27 50 49 51 34 52 48 53 35 54 38 55 47 56
REMARK SMILES IDX 61 57 36 58 37 59 46 61 62 62 39 63 28 64 29 65 33 66 30 67
REMARK SMILES IDX 32 68 31 69 50 70 51 71 55 72 52 73 54 74 53 75 40 76 41 77
REMARK SMILES IDX 45 78 42 79 44 80 43 81
REMARK H PARENT 9 7 16 30 60 49 38 60
REMARK Flexibility Score: inf
ROOT
ATOM      1  C   UNL A   1      37.022  22.166  23.924  1.00  0.00     0.002 C 
ENDROOT
BRANCH   1   2
ATOM      2  C   UNL A   1      36.611  23.529  24.497  1.00  0.00     0.021 C 
BRANCH   2   3
ATOM      3  C   UNL A   1      35.105  23.779  24.471  1.00  0.00     0.116 C 
BRANCH   3   4
ATOM      4  N   UNL A   1      34.640  24.085  23.131  1.00  0.00    -0.354 N 
ATOM      5  C   UNL A   1      33.497  23.668  22.499  1.00  0.00     0.243 C 
ATOM      6  O   UNL A   1      33.337  23.974  21.316  1.00  0.00    -0.273 OA
ATOM      7  H   UNL A   1      35.227  24.673  22.602  1.00  0.00     0.163 HD
BRANCH   5   8
ATOM      8  C   UNL A   1      32.415  22.965  23.337  1.00  0.00     0.185 C 
ATOM      9  C   UNL A   1      31.430  22.749  25.553  1.00  0.00     0.144 C 
ATOM     10  S   UNL A   1      32.105  21.079  25.161  1.00  0.00    -0.134 SA
ATOM     11  N   UNL A   1      31.997  23.667  24.557  1.00  0.00    -0.314 N 
ATOM     12  C   UNL A   1      32.982  21.599  23.684  1.00  0.00     0.107 C 
BRANCH   9  13
ATOM     13  C   UNL A   1      31.651  22.980  27.056  1.00  0.00     0.033 C 
ATOM     14  C   UNL A   1      33.049  22.616  27.551  1.00  0.00     0.007 C 
ENDBRANCH   9  13
BRANCH  11  15
ATOM     15  C   UNL A   1      31.469  24.940  24.294  1.00  0.00     0.258 C 
ATOM     16  O   UNL A   1      30.646  25.137  23.396  1.00  0.00    -0.269 OA
BRANCH  15  17
ATOM     17  C   UNL A   1      31.838  26.104  25.099  1.00  0.00     0.075 A 
ATOM     18  C   UNL A   1      33.100  26.673  24.897  1.00  0.00     0.017 A 
ATOM     19  C   UNL A   1      31.013  26.586  26.110  1.00  0.00     0.136 A 
ATOM     20  C   UNL A   1      33.474  27.807  25.619  1.00  0.00     0.004 A 
ATOM     21  C   UNL A   1      31.390  27.712  26.844  1.00  0.00     0.043 A 
ATOM     22  F   UNL A   1      29.829  26.016  26.367  1.00  0.00    -0.206 F 
ATOM     23  C   UNL A   1      32.599  28.366  26.561  1.00  0.00    -0.048 A 
ATOM     24  C   UNL A   1      32.961  29.650  27.246  1.00  0.00     0.044 C 
ENDBRANCH  15  17
ENDBRANCH  11  15
ENDBRANCH   5   8
ENDBRANCH   3   4
ENDBRANCH   2   3
ENDBRANCH   1   2
BRANCH   1  25
ATOM     25  C   UNL A   1      36.620  20.958  24.776  1.00  0.00     0.002 C 
BRANCH  25  26
ATOM     26  C   UNL A   1      37.719  19.912  24.975  1.00  0.00     0.021 C 
BRANCH  26  27
ATOM     27  C   UNL A   1      38.945  20.418  25.727  1.00  0.00     0.116 C 
BRANCH  27  28
ATOM     28  N   UNL A   1      39.997  19.417  25.798  1.00  0.00    -0.352 N 
ATOM     29  C   UNL A   1      41.329  19.570  26.096  1.00  0.00     0.251 C 
ATOM     30  H   UNL A   1      39.713  18.495  25.604  1.00  0.00     0.163 HD
ATOM     31  O   UNL A   1      42.111  18.643  25.925  1.00  0.00    -0.269 OA
BRANCH  29  32
ATOM     32  C   UNL A   1      41.822  20.867  26.605  1.00  0.00     0.039 A 
ATOM     33  C   UNL A   1      42.269  21.825  25.691  1.00  0.00     0.014 A 
ATOM     34  C   UNL A   1      41.855  21.135  27.976  1.00  0.00     0.014 A 
ATOM     35  C   UNL A   1      42.692  23.074  26.150  1.00  0.00     0.010 A 
ATOM     36  C   UNL A   1      42.205  22.405  28.425  1.00  0.00     0.010 A 
ATOM     37  C   UNL A   1      42.632  23.386  27.517  1.00  0.00    -0.014 A 
BRANCH  37  38
ATOM     38  C   UNL A   1      43.015  24.730  28.019  1.00  0.00     0.031 A 
ATOM     39  C   UNL A   1      41.960  25.772  28.270  1.00  0.00     0.074 A 
ATOM     40  C   UNL A   1      44.316  25.033  28.188  1.00  0.00     0.049 A 
ATOM     41  N   UNL A   1      42.103  27.018  28.645  1.00  0.00    -0.248 NA
ATOM     42  C   UNL A   1      40.562  25.370  28.047  1.00  0.00     0.031 C 
ATOM     43  C   UNL A   1      45.439  24.125  27.947  1.00  0.00     0.029 A 
ATOM     44  N   UNL A   1      44.914  26.199  28.597  1.00  0.00    -0.354 N 
ATOM     45  C   UNL A   1      40.820  27.550  28.686  1.00  0.00     0.074 A 
ATOM     46  C   UNL A   1      39.917  26.508  28.248  1.00  0.00     0.031 C 
ATOM     47  C   UNL A   1      46.587  24.758  28.239  1.00  0.00     0.029 A 
ATOM     48  C   UNL A   1      46.286  26.128  28.643  1.00  0.00     0.049 A 
ATOM     49  H   UNL A   1      44.410  27.011  28.834  1.00  0.00     0.167 HD
ATOM     50  C   UNL A   1      40.425  28.787  29.071  1.00  0.00     0.031 A 
ATOM     51  C   UNL A   1      47.201  27.061  28.965  1.00  0.00     0.031 A 
ATOM     52  C   UNL A   1      41.323  29.822  29.513  1.00  0.00     0.049 A 
ATOM     53  C   UNL A   1      46.738  28.436  29.365  1.00  0.00     0.074 A 
ATOM     54  C   UNL A   1      41.016  31.090  29.974  1.00  0.00     0.029 A 
ATOM     55  N   UNL A   1      42.704  29.707  29.546  1.00  0.00    -0.354 N 
ATOM     56  N   UNL A   1      45.517  28.901  29.461  1.00  0.00    -0.248 NA
ATOM     57  C   UNL A   1      47.784  29.409  29.712  1.00  0.00     0.031 C 
ATOM     58  C   UNL A   1      42.214  31.763  30.231  1.00  0.00     0.029 A 
ATOM     59  C   UNL A   1      43.265  30.892  29.993  1.00  0.00     0.049 A 
ATOM     60  H   UNL A   1      43.211  28.903  29.289  1.00  0.00     0.167 HD
ATOM     61  C   UNL A   1      45.646  30.211  29.908  1.00  0.00     0.074 A 
ATOM     62  C   UNL A   1      47.062  30.458  30.079  1.00  0.00     0.031 C 
ATOM     63  C   UNL A   1      44.676  31.125  30.157  1.00  0.00     0.031 A 
BRANCH  50  64
ATOM     64  C   UNL A   1      38.954  29.092  29.019  1.00  0.00    -0.014 A 
ATOM     65  C   UNL A   1      38.139  28.956  30.156  1.00  0.00     0.009 A 
ATOM     66  C   UNL A   1      38.377  29.555  27.826  1.00  0.00     0.009 A 
ATOM     67  C   UNL A   1      36.774  29.237  30.086  1.00  0.00     0.001 A 
ATOM     68  C   UNL A   1      37.018  29.867  27.768  1.00  0.00     0.001 A 
ATOM     69  C   UNL A   1      36.215  29.698  28.895  1.00  0.00     0.000 A 
ENDBRANCH  50  64
BRANCH  51  70
ATOM     70  C   UNL A   1      48.650  26.728  28.935  1.00  0.00    -0.014 A 
ATOM     71  C   UNL A   1      49.390  26.870  27.752  1.00  0.00     0.009 A 
ATOM     72  C   UNL A   1      49.297  26.255  30.088  1.00  0.00     0.009 A 
ATOM     73  C   UNL A   1      50.741  26.518  27.715  1.00  0.00     0.001 A 
ATOM     74  C   UNL A   1      50.656  25.934  30.056  1.00  0.00     0.001 A 
ATOM     75  C   UNL A   1      51.374  26.055  28.867  1.00  0.00     0.000 A 
ENDBRANCH  51  70
BRANCH  63  76
ATOM     76  C   UNL A   1      45.112  32.466  30.680  1.00  0.00    -0.014 A 
ATOM     77  C   UNL A   1      45.377  33.537  29.815  1.00  0.00     0.009 A 
ATOM     78  C   UNL A   1      45.217  32.667  32.066  1.00  0.00     0.009 A 
ATOM     79  C   UNL A   1      45.774  34.775  30.326  1.00  0.00     0.001 A 
ATOM     80  C   UNL A   1      45.582  33.914  32.575  1.00  0.00     0.001 A 
ATOM     81  C   UNL A   1      45.870  34.964  31.705  1.00  0.00     0.000 A 
ENDBRANCH  63  76
ENDBRANCH  37  38
ENDBRANCH  29  32
ENDBRANCH  27  28
ENDBRANCH  26  27
ENDBRANCH  25  26
ENDBRANCH   1  25
TORSDOF 16
ENDMDL
MODEL 2
REMARK VINA RESULT:     -10.9      4.376      9.294
REMARK SMILES CC[C@@H]1SC[C@H](C(=O)NCCCCCCNC(=O)c2ccc(-c3c4nc(c(-c5ccccc5)c5ccc([nH]5)c(-c5ccccc5)c5nc(c(-c6ccccc6)c6ccc3[nH]6)C=C5)C=C4)cc2)N1C(=O)c1ccc(C)cc1F
REMARK SMILES IDX 12 1 11 2 10 3 9 4 7 5 8 6 6 8 3 9 4 10 67 11 5 12 2 13 1 14
REMARK SMILES IDX 68 15 69 16 70 17 71 18 76 19 72 20 75 21 77 22 73 23 74 24
REMARK SMILES IDX 13 25 14 26 15 27 16 28 17 29 18 31 19 32 20 33 66 34 21 35
REMARK SMILES IDX 65 36 22 37 23 38 24 39 59 40 25 41 64 42 58 43 60 44 26 45
REMARK SMILES IDX 63 46 57 47 56 48 27 50 49 51 34 52 48 53 35 54 38 55 47 56
REMARK SMILES IDX 61 57 36 58 37 59 46 61 62 62 39 63 28 64 29 65 33 66 30 67
REMARK SMILES IDX 32 68 31 69 50 70 51 71 55 72 52 73 54 74 53 75 40 76 41 77
REMARK SMILES IDX 45 78 42 79 44 80 43 81
REMARK H PARENT 9 7 16 30 60 49 38 60
REMARK Flexibility Score: inf
ROOT
ATOM      1  C   UNL A   1      32.743  29.567  26.393  1.00  0.00     0.002 C 
ENDROOT
BRANCH   1   2
ATOM      2  C   UNL A   1      32.150  28.376  27.157  1.00  0.00     0.021 C 
BRANCH   2   3
ATOM      3  C   UNL A   1      32.351  27.033  26.458  1.00  0.00     0.116 C 
BRANCH   3   4
ATOM      4  N   UNL A   1      31.354  26.064  26.872  1.00  0.00    -0.354 N 
ATOM      5  C   UNL A   1      30.371  25.467  26.126  1.00  0.00     0.243 C 
ATOM      6  O   UNL A   1      29.564  24.733  26.701  1.00  0.00    -0.273 OA
ATOM      7  H   UNL A   1      31.388  25.799  27.819  1.00  0.00     0.163 HD
BRANCH   5   8
ATOM      8  C   UNL A   1      30.414  25.630  24.596  1.00  0.00     0.185 C 
ATOM      9  C   UNL A   1      31.841  26.058  22.672  1.00  0.00     0.144 C 
ATOM     10  S   UNL A   1      30.655  27.468  22.714  1.00  0.00    -0.134 SA
ATOM     11  N   UNL A   1      31.713  25.372  23.964  1.00  0.00    -0.314 N 
ATOM     12  C   UNL A   1      29.968  27.056  24.320  1.00  0.00     0.107 C 
BRANCH   9  13
ATOM     13  C   UNL A   1      33.194  26.624  22.209  1.00  0.00     0.033 C 
ATOM     14  C   UNL A   1      33.798  27.662  23.152  1.00  0.00     0.007 C 
ENDBRANCH   9  13
BRANCH  11  15
ATOM     15  C   UNL A   1      32.176  24.067  24.193  1.00  0.00     0.258 C 
ATOM     16  O   UNL A   1      31.461  23.078  24.022  1.00  0.00    -0.269 OA
BRANCH  15  17
ATOM     17  C   UNL A   1      33.553  23.806  24.613  1.00  0.00     0.075 A 
ATOM     18  C   UNL A   1      34.539  23.716  23.625  1.00  0.00     0.017 A 
ATOM     19  C   UNL A   1      33.876  23.554  25.943  1.00  0.00     0.136 A 
ATOM     20  C   UNL A   1      35.869  23.506  23.990  1.00  0.00     0.004 A 
ATOM     21  C   UNL A   1      35.205  23.329  26.309  1.00  0.00     0.043 A 
ATOM     22  F   UNL A   1      32.938  23.568  26.898  1.00  0.00    -0.206 F 
ATOM     23  C   UNL A   1      36.218  23.364  25.340  1.00  0.00    -0.048 A 
ATOM     24  C   UNL A   1      37.663  23.256  25.729  1.00  0.00     0.044 C 
ENDBRANCH  15  17
ENDBRANCH  11  15
ENDBRANCH   5   8
ENDBRANCH   3   4
ENDBRANCH   2   3
ENDBRANCH   1   2
BRANCH   1  25
ATOM     25  C   UNL A   1      31.713  30.506  25.757  1.00  0.00     0.002 C 
BRANCH  25  26
ATOM     26  C   UNL A   1      31.405  31.770  26.563  1.00  0.00     0.021 C 
BRANCH  26  27
ATOM     27  C   UNL A   1      32.626  32.433  27.189  1.00  0.00     0.116 C 
BRANCH  27  28
ATOM     28  N   UNL A   1      32.383  33.828  27.522  1.00  0.00    -0.352 N 
ATOM     29  C   UNL A   1      32.989  34.619  28.466  1.00  0.00     0.251 C 
ATOM     30  H   UNL A   1      31.680  34.269  26.992  1.00  0.00     0.163 HD
ATOM     31  O   UNL A   1      32.528  35.721  28.739  1.00  0.00    -0.269 OA
BRANCH  29  32
ATOM     32  C   UNL A   1      34.192  34.128  29.171  1.00  0.00     0.039 A 
ATOM     33  C   UNL A   1      34.032  33.296  30.282  1.00  0.00     0.014 A 
ATOM     34  C   UNL A   1      35.473  34.495  28.747  1.00  0.00     0.014 A 
ATOM     35  C   UNL A   1      35.157  32.782  30.930  1.00  0.00     0.010 A 
ATOM     36  C   UNL A   1      36.591  33.922  29.347  1.00  0.00     0.010 A 
ATOM     37  C   UNL A   1      36.444  33.064  30.447  1.00  0.00    -0.014 A 
BRANCH  37  38
ATOM     38  C   UNL A   1      37.651  32.476  31.082  1.00  0.00     0.031 A 
ATOM     39  C   UNL A   1      38.306  31.263  30.481  1.00  0.00     0.074 A 
ATOM     40  C   UNL A   1      38.120  32.994  32.234  1.00  0.00     0.049 A 
ATOM     41  N   UNL A   1      39.325  30.570  30.923  1.00  0.00    -0.248 NA
ATOM     42  C   UNL A   1      37.727  30.746  29.231  1.00  0.00     0.031 C 
ATOM     43  C   UNL A   1      37.555  34.147  32.938  1.00  0.00     0.029 A 
ATOM     44  N   UNL A   1      39.178  32.610  33.019  1.00  0.00    -0.354 N 
ATOM     45  C   UNL A   1      39.495  29.530  30.018  1.00  0.00     0.074 A 
ATOM     46  C   UNL A   1      38.445  29.651  29.031  1.00  0.00     0.031 C 
ATOM     47  C   UNL A   1      38.289  34.393  34.035  1.00  0.00     0.029 A 
ATOM     48  C   UNL A   1      39.345  33.391  34.137  1.00  0.00     0.049 A 
ATOM     49  H   UNL A   1      39.762  31.847  32.803  1.00  0.00     0.167 HD
ATOM     50  C   UNL A   1      40.451  28.570  29.998  1.00  0.00     0.031 A 
ATOM     51  C   UNL A   1      40.242  33.306  35.138  1.00  0.00     0.031 A 
ATOM     52  C   UNL A   1      41.500  28.452  30.976  1.00  0.00     0.049 A 
ATOM     53  C   UNL A   1      41.277  32.216  35.105  1.00  0.00     0.074 A 
ATOM     54  C   UNL A   1      42.546  27.546  31.013  1.00  0.00     0.029 A 
ATOM     55  N   UNL A   1      41.634  29.265  32.091  1.00  0.00    -0.354 N 
ATOM     56  N   UNL A   1      41.464  31.280  34.207  1.00  0.00    -0.248 NA
ATOM     57  C   UNL A   1      42.233  32.179  36.222  1.00  0.00     0.031 C 
ATOM     58  C   UNL A   1      43.280  27.774  32.181  1.00  0.00     0.029 A 
ATOM     59  C   UNL A   1      42.730  28.863  32.838  1.00  0.00     0.049 A 
ATOM     60  H   UNL A   1      41.039  30.015  32.319  1.00  0.00     0.167 HD
ATOM     61  C   UNL A   1      42.575  30.563  34.634  1.00  0.00     0.074 A 
ATOM     62  C   UNL A   1      43.029  31.183  35.862  1.00  0.00     0.031 C 
ATOM     63  C   UNL A   1      43.169  29.488  34.058  1.00  0.00     0.031 A 
BRANCH  50  64
ATOM     64  C   UNL A   1      40.396  27.561  28.884  1.00  0.00    -0.014 A 
ATOM     65  C   UNL A   1      39.651  26.376  29.009  1.00  0.00     0.009 A 
ATOM     66  C   UNL A   1      41.070  27.811  27.679  1.00  0.00     0.009 A 
ATOM     67  C   UNL A   1      39.617  25.447  27.968  1.00  0.00     0.001 A 
ATOM     68  C   UNL A   1      41.007  26.896  26.627  1.00  0.00     0.001 A 
ATOM     69  C   UNL A   1      40.291  25.710  26.776  1.00  0.00     0.000 A 
ENDBRANCH  50  64
BRANCH  51  70
ATOM     70  C   UNL A   1      40.212  34.289  36.253  1.00  0.00    -0.014 A 
ATOM     71  C   UNL A   1      39.426  34.053  37.391  1.00  0.00     0.009 A 
ATOM     72  C   UNL A   1      40.959  35.476  36.179  1.00  0.00     0.009 A 
ATOM     73  C   UNL A   1      39.367  34.996  38.419  1.00  0.00     0.001 A 
ATOM     74  C   UNL A   1      40.922  36.403  37.223  1.00  0.00     0.001 A 
ATOM     75  C   UNL A   1      40.118  36.167  38.337  1.00  0.00     0.000 A 
ENDBRANCH  51  70
BRANCH  63  76
ATOM     76  C   UNL A   1      44.398  28.938  34.728  1.00  0.00    -0.014 A 
ATOM     77  C   UNL A   1      45.675  29.442  34.442  1.00  0.00     0.009 A 
ATOM     78  C   UNL A   1      44.265  27.927  35.692  1.00  0.00     0.009 A 
ATOM     79  C   UNL A   1      46.800  28.918  35.083  1.00  0.00     0.001 A 
ATOM     80  C   UNL A   1      45.387  27.428  36.355  1.00  0.00     0.001 A 
ATOM     81  C   UNL A   1      46.654  27.917  36.042  1.00  0.00     0.000 A 
ENDBRANCH  63  76
ENDBRANCH  37  38
ENDBRANCH  29  32
ENDBRANCH  27  28
ENDBRANCH  26  27
ENDBRANCH  25  26
ENDBRANCH   1  25
TORSDOF 16
ENDMDL
MODEL 3
REMARK VINA RESULT:     -10.8      1.387      2.094
REMARK SMILES CC[C@@H]1SC[C@H](C(=O)NCCCCCCNC(=O)c2ccc(-c3c4nc(c(-c5ccccc5)c5ccc([nH]5)c(-c5ccccc5)c5nc(c(-c6ccccc6)c6ccc3[nH]6)C=C5)C=C4)cc2)N1C(=O)c1ccc(C)cc1F
REMARK SMILES IDX 12 1 11 2 10 3 9 4 7 5 8 6 6 8 3 9 4 10 67 11 5 12 2 13 1 14
REMARK SMILES IDX 68 15 69 16 70 17 71 18 76 19 72 20 75 21 77 22 73 23 74 24
REMARK SMILES IDX 13 25 14 26 15 27 16 28 17 29 18 31 19 32 20 33 66 34 21 35
REMARK SMILES IDX 65 36 22 37 23 38 24 39 59 40 25 41 64 42 58 43 60 44 26 45
REMARK SMILES IDX 63 46 57 47 56 48 27 50 49 51 34 52 48 53 35 54 38 55 47 56
REMARK SMILES IDX 61 57 36 58 37 59 46 61 62 62 39 63 28 64 29 65 33 66 30 67
REMARK SMILES IDX 32 68 31 69 50 70 51 71 55 72 52 73 54 74 53 75 40 76 41 77
REMARK SMILES IDX 45 78 42 79 44 80 43 81
REMARK H PARENT 9 7 16 30 60 49 38 60
REMARK Flexibility Score: inf
ROOT
ATOM      1  C   UNL A   1      37.390  22.086  24.692  1.00  0.00     0.002 C 
ENDROOT
BRANCH   1   2
ATOM      2  C   UNL A   1      36.690  22.989  25.716  1.00  0.00     0.021 C 
BRANCH   2   3
ATOM      3  C   UNL A   1      35.545  23.812  25.130  1.00  0.00     0.116 C 
BRANCH   3   4
ATOM      4  N   UNL A   1      34.408  22.976  24.791  1.00  0.00    -0.354 N 
ATOM      5  C   UNL A   1      33.210  23.336  24.228  1.00  0.00     0.243 C 
ATOM      6  O   UNL A   1      32.338  22.474  24.107  1.00  0.00    -0.273 OA
ATOM      7  H   UNL A   1      34.511  22.018  24.994  1.00  0.00     0.163 HD
BRANCH   5   8
ATOM      8  C   UNL A   1      33.073  24.756  23.651  1.00  0.00     0.185 C 
ATOM      9  C   UNL A   1      31.611  26.690  23.428  1.00  0.00     0.144 C 
ATOM     10  S   UNL A   1      31.892  26.098  21.705  1.00  0.00    -0.134 SA
ATOM     11  N   UNL A   1      32.090  25.622  24.315  1.00  0.00    -0.314 N 
ATOM     12  C   UNL A   1      32.710  24.574  22.187  1.00  0.00     0.107 C 
BRANCH   9  13
ATOM     13  C   UNL A   1      30.158  27.184  23.501  1.00  0.00     0.033 C 
ATOM     14  C   UNL A   1      29.163  26.141  24.006  1.00  0.00     0.007 C 
ENDBRANCH   9  13
BRANCH  11  15
ATOM     15  C   UNL A   1      32.376  25.819  25.675  1.00  0.00     0.258 C 
ATOM     16  O   UNL A   1      32.377  24.891  26.487  1.00  0.00    -0.269 OA
BRANCH  15  17
ATOM     17  C   UNL A   1      32.727  27.138  26.200  1.00  0.00     0.075 A 
ATOM     18  C   UNL A   1      34.038  27.592  26.022  1.00  0.00     0.017 A 
ATOM     19  C   UNL A   1      31.825  27.894  26.942  1.00  0.00     0.136 A 
ATOM     20  C   UNL A   1      34.401  28.861  26.474  1.00  0.00     0.004 A 
ATOM     21  C   UNL A   1      32.189  29.158  27.409  1.00  0.00     0.043 A 
ATOM     22  F   UNL A   1      30.585  27.450  27.183  1.00  0.00    -0.206 F 
ATOM     23  C   UNL A   1      33.462  29.674  27.125  1.00  0.00    -0.048 A 
ATOM     24  C   UNL A   1      33.828  31.079  27.503  1.00  0.00     0.044 C 
ENDBRANCH  15  17
ENDBRANCH  11  15
ENDBRANCH   5   8
ENDBRANCH   3   4
ENDBRANCH   2   3
ENDBRANCH   1   2
BRANCH   1  25
ATOM     25  C   UNL A   1      37.016  20.602  24.776  1.00  0.00     0.002 C 
BRANCH  25  26
ATOM     26  C   UNL A   1      38.203  19.636  24.806  1.00  0.00     0.021 C 
BRANCH  26  27
ATOM     27  C   UNL A   1      39.098  19.773  26.032  1.00  0.00     0.116 C 
BRANCH  27  28
ATOM     28  N   UNL A   1      40.300  18.961  25.927  1.00  0.00    -0.352 N 
ATOM     29  C   UNL A   1      41.618  19.338  26.008  1.00  0.00     0.251 C 
ATOM     30  H   UNL A   1      40.146  18.001  25.774  1.00  0.00     0.163 HD
ATOM     31  O   UNL A   1      42.507  18.550  25.708  1.00  0.00    -0.269 OA
BRANCH  29  32
ATOM     32  C   UNL A   1      41.963  20.709  26.441  1.00  0.00     0.039 A 
ATOM     33  C   UNL A   1      42.117  20.968  27.805  1.00  0.00     0.014 A 
ATOM     34  C   UNL A   1      42.125  21.737  25.507  1.00  0.00     0.014 A 
ATOM     35  C   UNL A   1      42.492  22.245  28.229  1.00  0.00     0.010 A 
ATOM     36  C   UNL A   1      42.572  22.987  25.925  1.00  0.00     0.010 A 
ATOM     37  C   UNL A   1      42.755  23.255  27.290  1.00  0.00    -0.014 A 
BRANCH  37  38
ATOM     38  C   UNL A   1      43.218  24.600  27.715  1.00  0.00     0.031 A 
ATOM     39  C   UNL A   1      42.219  25.661  28.087  1.00  0.00     0.074 A 
ATOM     40  C   UNL A   1      44.534  24.888  27.706  1.00  0.00     0.049 A 
ATOM     41  N   UNL A   1      42.425  26.911  28.420  1.00  0.00    -0.248 NA
ATOM     42  C   UNL A   1      40.799  25.276  28.057  1.00  0.00     0.031 C 
ATOM     43  C   UNL A   1      45.603  23.960  27.333  1.00  0.00     0.029 A 
ATOM     44  N   UNL A   1      45.195  26.051  28.013  1.00  0.00    -0.354 N 
ATOM     45  C   UNL A   1      41.166  27.461  28.622  1.00  0.00     0.074 A 
ATOM     46  C   UNL A   1      40.199  26.426  28.324  1.00  0.00     0.031 C 
ATOM     47  C   UNL A   1      46.787  24.580  27.460  1.00  0.00     0.029 A 
ATOM     48  C   UNL A   1      46.560  25.960  27.878  1.00  0.00     0.049 A 
ATOM     49  H   UNL A   1      44.736  26.873  28.302  1.00  0.00     0.167 HD
ATOM     50  C   UNL A   1      40.841  28.709  29.036  1.00  0.00     0.031 A 
ATOM     51  C   UNL A   1      47.521  26.885  28.062  1.00  0.00     0.031 A 
ATOM     52  C   UNL A   1      41.802  29.737  29.339  1.00  0.00     0.049 A 
ATOM     53  C   UNL A   1      47.132  28.271  28.497  1.00  0.00     0.074 A 
ATOM     54  C   UNL A   1      41.574  31.016  29.816  1.00  0.00     0.029 A 
ATOM     55  N   UNL A   1      43.174  29.602  29.190  1.00  0.00    -0.354 N 
ATOM     56  N   UNL A   1      45.940  28.756  28.747  1.00  0.00    -0.248 NA
ATOM     57  C   UNL A   1      48.226  29.234  28.687  1.00  0.00     0.031 C 
ATOM     58  C   UNL A   1      42.804  31.675  29.902  1.00  0.00     0.029 A 
ATOM     59  C   UNL A   1      43.803  30.785  29.541  1.00  0.00     0.049 A 
ATOM     60  H   UNL A   1      43.632  28.788  28.882  1.00  0.00     0.167 HD
ATOM     61  C   UNL A   1      46.143  30.069  29.152  1.00  0.00     0.074 A 
ATOM     62  C   UNL A   1      47.573  30.299  29.131  1.00  0.00     0.031 C 
ATOM     63  C   UNL A   1      45.227  31.001  29.513  1.00  0.00     0.031 A 
BRANCH  50  64
ATOM     64  C   UNL A   1      39.379  29.035  29.174  1.00  0.00    -0.014 A 
ATOM     65  C   UNL A   1      38.655  29.606  28.113  1.00  0.00     0.009 A 
ATOM     66  C   UNL A   1      38.706  28.737  30.368  1.00  0.00     0.009 A 
ATOM     67  C   UNL A   1      37.301  29.908  28.262  1.00  0.00     0.001 A 
ATOM     68  C   UNL A   1      37.343  29.010  30.503  1.00  0.00     0.001 A 
ATOM     69  C   UNL A   1      36.645  29.605  29.454  1.00  0.00     0.000 A 
ENDBRANCH  50  64
BRANCH  51  70
ATOM     70  C   UNL A   1      48.948  26.531  27.846  1.00  0.00    -0.014 A 
ATOM     71  C   UNL A   1      49.728  26.039  28.903  1.00  0.00     0.009 A 
ATOM     72  C   UNL A   1      49.542  26.695  26.585  1.00  0.00     0.009 A 
ATOM     73  C   UNL A   1      51.080  25.744  28.709  1.00  0.00     0.001 A 
ATOM     74  C   UNL A   1      50.886  26.370  26.386  1.00  0.00     0.001 A 
ATOM     75  C   UNL A   1      51.656  25.906  27.451  1.00  0.00     0.000 A 
ENDBRANCH  51  70
BRANCH  63  76
ATOM     76  C   UNL A   1      45.744  32.343  29.952  1.00  0.00    -0.014 A 
ATOM     77  C   UNL A   1      46.095  32.591  31.287  1.00  0.00     0.009 A 
ATOM     78  C   UNL A   1      45.921  33.360  29.001  1.00  0.00     0.009 A 
ATOM     79  C   UNL A   1      46.580  33.844  31.668  1.00  0.00     0.001 A 
ATOM     80  C   UNL A   1      46.436  34.601  29.378  1.00  0.00     0.001 A 
ATOM     81  C   UNL A   1      46.755  34.845  30.713  1.00  0.00     0.000 A 
ENDBRANCH  63  76
ENDBRANCH  37  38
ENDBRANCH  29  32
ENDBRANCH  27  28
ENDBRANCH  26  27
ENDBRANCH  25  26
ENDBRANCH   1  25
TORSDOF 16
ENDMDL
