MODEL 1
REMARK VINA RESULT:     -10.9      0.000      0.000
REMARK SMILES CN(C(=O)N1Cc2nc[nH]c2C[C@@H]1C(=O)NCCCCCCNC(=O)c1ccc(-c2c3nc(c(-c4ccccc4)c4ccc([nH]4)c(-c4ccccc4)c4nc(c(-c5ccccc5)c5ccc2[nH]5)C=C4)C=C3)cc1)C1CC1
REMARK SMILES IDX 19 1 18 2 17 3 16 4 14 5 15 6 13 8 5 9 6 10 7 11 12 12 8 13
REMARK SMILES IDX 11 14 9 15 10 16 3 18 4 19 2 20 1 21 74 22 75 23 76 24 20 25
REMARK SMILES IDX 21 26 22 27 23 28 24 29 25 31 26 32 27 33 73 34 28 35 72 36
REMARK SMILES IDX 29 37 30 38 31 39 66 40 32 41 71 42 65 43 67 44 33 45 70 46
REMARK SMILES IDX 64 47 63 48 34 50 56 51 41 52 55 53 42 54 45 55 54 56 68 57
REMARK SMILES IDX 43 58 44 59 53 61 69 62 46 63 35 64 36 65 40 66 37 67 39 68
REMARK SMILES IDX 38 69 57 70 58 71 62 72 59 73 61 74 60 75 47 76 48 77 52 78
REMARK SMILES IDX 49 79 51 80 50 81
REMARK H PARENT 16 7 10 17 23 30 67 49 45 60
REMARK Flexibility Score: inf
ROOT
ATOM      1  C   UNL A   1      39.519  21.518  26.037  1.00  0.00     0.002 C 
ENDROOT
BRANCH   1   2
ATOM      2  C   UNL A   1      39.360  23.040  26.168  1.00  0.00     0.021 C 
BRANCH   2   3
ATOM      3  C   UNL A   1      37.897  23.487  26.263  1.00  0.00     0.116 C 
BRANCH   3   4
ATOM      4  N   UNL A   1      37.393  23.686  24.919  1.00  0.00    -0.354 N 
ATOM      5  C   UNL A   1      36.121  23.664  24.440  1.00  0.00     0.243 C 
ATOM      6  O   UNL A   1      35.976  23.513  23.222  1.00  0.00    -0.273 OA
ATOM      7  H   UNL A   1      38.085  23.867  24.241  1.00  0.00     0.163 HD
BRANCH   5   8
ATOM      8  C   UNL A   1      34.899  23.839  25.356  1.00  0.00     0.182 C 
ATOM      9  N   UNL A   1      34.333  22.603  25.999  1.00  0.00    -0.306 N 
ATOM     10  C   UNL A   1      33.207  22.785  26.938  1.00  0.00     0.180 C 
ATOM     11  C   UNL A   1      32.287  23.849  26.451  1.00  0.00     0.081 A 
ATOM     12  C   UNL A   1      33.857  24.797  24.699  1.00  0.00     0.091 C 
ATOM     13  N   UNL A   1      31.039  24.102  26.960  1.00  0.00    -0.240 NA
ATOM     14  C   UNL A   1      32.592  24.753  25.463  1.00  0.00     0.042 A 
ATOM     15  C   UNL A   1      30.584  25.121  26.263  1.00  0.00     0.197 A 
ATOM     16  N   UNL A   1      31.493  25.549  25.331  1.00  0.00    -0.348 N 
ATOM     17  H   UNL A   1      31.376  26.288  24.691  1.00  0.00     0.167 HD
BRANCH   9  18
ATOM     18  C   UNL A   1      34.549  21.313  25.560  1.00  0.00     0.321 C 
ATOM     19  O   UNL A   1      35.654  20.784  25.715  1.00  0.00    -0.248 OA
BRANCH  18  20
ATOM     20  N   UNL A   1      33.520  20.678  24.855  1.00  0.00    -0.325 N 
ATOM     21  C   UNL A   1      32.801  21.282  23.731  1.00  0.00     0.149 C 
BRANCH  20  22
ATOM     22  C   UNL A   1      33.257  19.268  25.144  1.00  0.00     0.086 C 
ATOM     23  C   UNL A   1      32.485  18.361  24.220  1.00  0.00     0.027 C 
ATOM     24  C   UNL A   1      33.954  18.132  24.436  1.00  0.00     0.027 C 
ENDBRANCH  20  22
ENDBRANCH  18  20
ENDBRANCH   9  18
ENDBRANCH   5   8
ENDBRANCH   3   4
ENDBRANCH   2   3
ENDBRANCH   1   2
BRANCH   1  25
ATOM     25  C   UNL A   1      40.651  20.905  26.875  1.00  0.00     0.002 C 
BRANCH  25  26
ATOM     26  C   UNL A   1      41.356  19.691  26.255  1.00  0.00     0.021 C 
BRANCH  26  27
ATOM     27  C   UNL A   1      42.763  19.465  26.790  1.00  0.00     0.116 C 
BRANCH  27  28
ATOM     28  N   UNL A   1      43.760  19.425  25.719  1.00  0.00    -0.352 N 
ATOM     29  C   UNL A   1      44.232  20.453  24.927  1.00  0.00     0.251 C 
ATOM     30  H   UNL A   1      44.148  18.539  25.537  1.00  0.00     0.163 HD
ATOM     31  O   UNL A   1      44.764  20.228  23.854  1.00  0.00    -0.269 OA
BRANCH  29  32
ATOM     32  C   UNL A   1      44.088  21.839  25.408  1.00  0.00     0.039 A 
ATOM     33  C   UNL A   1      43.104  22.691  24.899  1.00  0.00     0.014 A 
ATOM     34  C   UNL A   1      44.962  22.276  26.398  1.00  0.00     0.014 A 
ATOM     35  C   UNL A   1      42.969  23.962  25.452  1.00  0.00     0.010 A 
ATOM     36  C   UNL A   1      44.708  23.442  27.064  1.00  0.00     0.010 A 
ATOM     37  C   UNL A   1      43.768  24.323  26.547  1.00  0.00    -0.014 A 
BRANCH  37  38
ATOM     38  C   UNL A   1      43.578  25.590  27.240  1.00  0.00     0.031 A 
ATOM     39  C   UNL A   1      44.567  26.633  26.878  1.00  0.00     0.074 A 
ATOM     40  C   UNL A   1      42.474  25.870  27.967  1.00  0.00     0.049 A 
ATOM     41  N   UNL A   1      45.523  27.092  27.612  1.00  0.00    -0.248 NA
ATOM     42  C   UNL A   1      44.595  27.114  25.487  1.00  0.00     0.031 C 
ATOM     43  C   UNL A   1      41.265  25.045  28.125  1.00  0.00     0.029 A 
ATOM     44  N   UNL A   1      42.140  27.014  28.624  1.00  0.00    -0.354 N 
ATOM     45  C   UNL A   1      46.135  28.085  26.856  1.00  0.00     0.074 A 
ATOM     46  C   UNL A   1      45.665  27.911  25.505  1.00  0.00     0.031 C 
ATOM     47  C   UNL A   1      40.259  25.803  28.614  1.00  0.00     0.029 A 
ATOM     48  C   UNL A   1      40.799  27.098  28.979  1.00  0.00     0.049 A 
ATOM     49  H   UNL A   1      42.794  27.722  28.830  1.00  0.00     0.167 HD
ATOM     50  C   UNL A   1      46.731  29.150  27.459  1.00  0.00     0.031 A 
ATOM     51  C   UNL A   1      40.168  28.160  29.531  1.00  0.00     0.031 A 
ATOM     52  C   UNL A   1      46.875  28.930  28.876  1.00  0.00     0.049 A 
ATOM     53  C   UNL A   1      41.204  29.015  30.144  1.00  0.00     0.074 A 
ATOM     54  C   UNL A   1      47.589  28.071  29.683  1.00  0.00     0.029 A 
ATOM     55  N   UNL A   1      45.852  29.440  29.637  1.00  0.00    -0.354 N 
ATOM     56  N   UNL A   1      41.919  28.646  31.168  1.00  0.00    -0.248 NA
ATOM     57  C   UNL A   1      41.730  30.141  29.390  1.00  0.00     0.031 C 
ATOM     58  C   UNL A   1      46.758  27.841  30.821  1.00  0.00     0.029 A 
ATOM     59  C   UNL A   1      45.600  28.612  30.696  1.00  0.00     0.049 A 
ATOM     60  H   UNL A   1      45.372  30.279  29.449  1.00  0.00     0.167 HD
ATOM     61  C   UNL A   1      43.175  29.173  30.920  1.00  0.00     0.074 A 
ATOM     62  C   UNL A   1      42.954  30.213  29.921  1.00  0.00     0.031 C 
ATOM     63  C   UNL A   1      44.299  28.509  31.325  1.00  0.00     0.031 A 
BRANCH  50  64
ATOM     64  C   UNL A   1      46.702  30.558  26.900  1.00  0.00    -0.014 A 
ATOM     65  C   UNL A   1      47.867  31.342  27.010  1.00  0.00     0.009 A 
ATOM     66  C   UNL A   1      45.517  31.239  26.562  1.00  0.00     0.009 A 
ATOM     67  C   UNL A   1      47.827  32.734  26.869  1.00  0.00     0.001 A 
ATOM     68  C   UNL A   1      45.481  32.624  26.382  1.00  0.00     0.001 A 
ATOM     69  C   UNL A   1      46.631  33.377  26.563  1.00  0.00     0.000 A 
ENDBRANCH  50  64
BRANCH  51  70
ATOM     70  C   UNL A   1      38.765  28.595  29.382  1.00  0.00    -0.014 A 
ATOM     71  C   UNL A   1      37.914  28.687  30.494  1.00  0.00     0.009 A 
ATOM     72  C   UNL A   1      38.344  29.191  28.179  1.00  0.00     0.009 A 
ATOM     73  C   UNL A   1      36.704  29.391  30.414  1.00  0.00     0.001 A 
ATOM     74  C   UNL A   1      37.137  29.894  28.101  1.00  0.00     0.001 A 
ATOM     75  C   UNL A   1      36.324  30.008  29.225  1.00  0.00     0.000 A 
ENDBRANCH  51  70
BRANCH  63  76
ATOM     76  C   UNL A   1      44.132  27.437  32.372  1.00  0.00    -0.014 A 
ATOM     77  C   UNL A   1      43.680  27.684  33.680  1.00  0.00     0.009 A 
ATOM     78  C   UNL A   1      44.339  26.107  31.978  1.00  0.00     0.009 A 
ATOM     79  C   UNL A   1      43.472  26.627  34.574  1.00  0.00     0.001 A 
ATOM     80  C   UNL A   1      44.108  25.052  32.862  1.00  0.00     0.001 A 
ATOM     81  C   UNL A   1      43.681  25.312  34.162  1.00  0.00     0.000 A 
ENDBRANCH  63  76
ENDBRANCH  37  38
ENDBRANCH  29  32
ENDBRANCH  27  28
ENDBRANCH  26  27
ENDBRANCH  25  26
ENDBRANCH   1  25
TORSDOF 16
ENDMDL
MODEL 2
REMARK VINA RESULT:     -10.7      1.971      5.783
REMARK SMILES CN(C(=O)N1Cc2nc[nH]c2C[C@@H]1C(=O)NCCCCCCNC(=O)c1ccc(-c2c3nc(c(-c4ccccc4)c4ccc([nH]4)c(-c4ccccc4)c4nc(c(-c5ccccc5)c5ccc2[nH]5)C=C4)C=C3)cc1)C1CC1
REMARK SMILES IDX 19 1 18 2 17 3 16 4 14 5 15 6 13 8 5 9 6 10 7 11 12 12 8 13
REMARK SMILES IDX 11 14 9 15 10 16 3 18 4 19 2 20 1 21 74 22 75 23 76 24 20 25
REMARK SMILES IDX 21 26 22 27 23 28 24 29 25 31 26 32 27 33 73 34 28 35 72 36
REMARK SMILES IDX 29 37 30 38 31 39 66 40 32 41 71 42 65 43 67 44 33 45 70 46
REMARK SMILES IDX 64 47 63 48 34 50 56 51 41 52 55 53 42 54 45 55 54 56 68 57
REMARK SMILES IDX 43 58 44 59 53 61 69 62 46 63 35 64 36 65 40 66 37 67 39 68
REMARK SMILES IDX 38 69 57 70 58 71 62 72 59 73 61 74 60 75 47 76 48 77 52 78
REMARK SMILES IDX 49 79 51 80 50 81
REMARK H PARENT 16 7 10 17 23 30 67 49 45 60
REMARK Flexibility Score: inf
ROOT
ATOM      1  C   UNL A   1      38.463  22.334  25.779  1.00  0.00     0.002 C 
ENDROOT
BRANCH   1   2
ATOM      2  C   UNL A   1      37.765  23.698  25.683  1.00  0.00     0.021 C 
BRANCH   2   3
ATOM      3  C   UNL A   1      36.392  23.626  25.007  1.00  0.00     0.116 C 
BRANCH   3   4
ATOM      4  N   UNL A   1      35.373  23.809  26.021  1.00  0.00    -0.354 N 
ATOM      5  C   UNL A   1      34.133  23.263  26.137  1.00  0.00     0.243 C 
ATOM      6  O   UNL A   1      33.330  23.834  26.883  1.00  0.00    -0.273 OA
ATOM      7  H   UNL A   1      35.618  24.431  26.744  1.00  0.00     0.163 HD
BRANCH   5   8
ATOM      8  C   UNL A   1      33.732  21.979  25.394  1.00  0.00     0.182 C 
ATOM      9  N   UNL A   1      32.519  22.042  24.508  1.00  0.00    -0.306 N 
ATOM     10  C   UNL A   1      32.182  20.826  23.737  1.00  0.00     0.180 C 
ATOM     11  C   UNL A   1      32.439  19.605  24.547  1.00  0.00     0.081 A 
ATOM     12  C   UNL A   1      33.807  20.749  26.351  1.00  0.00     0.091 C 
ATOM     13  N   UNL A   1      32.021  18.341  24.219  1.00  0.00    -0.240 NA
ATOM     14  C   UNL A   1      33.180  19.577  25.704  1.00  0.00     0.042 A 
ATOM     15  C   UNL A   1      32.471  17.569  25.184  1.00  0.00     0.197 A 
ATOM     16  N   UNL A   1      33.179  18.278  26.119  1.00  0.00    -0.348 N 
ATOM     17  H   UNL A   1      33.604  17.920  26.931  1.00  0.00     0.167 HD
BRANCH   9  18
ATOM     18  C   UNL A   1      31.528  22.997  24.589  1.00  0.00     0.321 C 
ATOM     19  O   UNL A   1      30.537  22.802  25.299  1.00  0.00    -0.248 OA
BRANCH  18  20
ATOM     20  N   UNL A   1      31.638  24.128  23.770  1.00  0.00    -0.325 N 
ATOM     21  C   UNL A   1      31.056  25.433  24.091  1.00  0.00     0.149 C 
BRANCH  20  22
ATOM     22  C   UNL A   1      32.527  24.052  22.611  1.00  0.00     0.086 C 
ATOM     23  C   UNL A   1      32.800  25.219  21.696  1.00  0.00     0.027 C 
ATOM     24  C   UNL A   1      33.897  24.684  22.572  1.00  0.00     0.027 C 
ENDBRANCH  20  22
ENDBRANCH  18  20
ENDBRANCH   9  18
ENDBRANCH   5   8
ENDBRANCH   3   4
ENDBRANCH   2   3
ENDBRANCH   1   2
BRANCH   1  25
ATOM     25  C   UNL A   1      37.782  21.196  25.004  1.00  0.00     0.002 C 
BRANCH  25  26
ATOM     26  C   UNL A   1      38.515  19.847  25.018  1.00  0.00     0.021 C 
BRANCH  26  27
ATOM     27  C   UNL A   1      39.437  19.668  26.215  1.00  0.00     0.116 C 
BRANCH  27  28
ATOM     28  N   UNL A   1      40.709  19.047  25.843  1.00  0.00    -0.352 N 
ATOM     29  C   UNL A   1      41.952  19.630  25.688  1.00  0.00     0.251 C 
ATOM     30  H   UNL A   1      40.674  18.077  25.679  1.00  0.00     0.163 HD
ATOM     31  O   UNL A   1      42.823  19.089  25.028  1.00  0.00    -0.269 OA
BRANCH  29  32
ATOM     32  C   UNL A   1      42.213  20.923  26.346  1.00  0.00     0.039 A 
ATOM     33  C   UNL A   1      42.379  22.098  25.607  1.00  0.00     0.014 A 
ATOM     34  C   UNL A   1      42.283  20.942  27.734  1.00  0.00     0.014 A 
ATOM     35  C   UNL A   1      42.544  23.300  26.291  1.00  0.00     0.010 A 
ATOM     36  C   UNL A   1      42.254  22.135  28.401  1.00  0.00     0.010 A 
ATOM     37  C   UNL A   1      42.464  23.309  27.692  1.00  0.00    -0.014 A 
BRANCH  37  38
ATOM     38  C   UNL A   1      42.503  24.555  28.446  1.00  0.00     0.031 A 
ATOM     39  C   UNL A   1      41.385  25.480  28.143  1.00  0.00     0.074 A 
ATOM     40  C   UNL A   1      43.339  24.756  29.488  1.00  0.00     0.049 A 
ATOM     41  N   UNL A   1      41.448  26.597  27.500  1.00  0.00    -0.248 NA
ATOM     42  C   UNL A   1      40.015  25.044  28.457  1.00  0.00     0.031 C 
ATOM     43  C   UNL A   1      44.262  23.790  30.103  1.00  0.00     0.029 A 
ATOM     44  N   UNL A   1      43.455  25.838  30.305  1.00  0.00    -0.354 N 
ATOM     45  C   UNL A   1      40.159  27.118  27.524  1.00  0.00     0.074 A 
ATOM     46  C   UNL A   1      39.295  26.040  27.935  1.00  0.00     0.031 C 
ATOM     47  C   UNL A   1      44.648  24.239  31.317  1.00  0.00     0.029 A 
ATOM     48  C   UNL A   1      44.159  25.595  31.478  1.00  0.00     0.049 A 
ATOM     49  H   UNL A   1      43.071  26.718  30.084  1.00  0.00     0.167 HD
ATOM     50  C   UNL A   1      39.952  28.463  27.505  1.00  0.00     0.031 A 
ATOM     51  C   UNL A   1      44.327  26.444  32.518  1.00  0.00     0.031 A 
ATOM     52  C   UNL A   1      41.165  29.169  27.172  1.00  0.00     0.049 A 
ATOM     53  C   UNL A   1      44.078  27.809  32.014  1.00  0.00     0.074 A 
ATOM     54  C   UNL A   1      41.983  29.277  26.069  1.00  0.00     0.029 A 
ATOM     55  N   UNL A   1      41.893  29.589  28.258  1.00  0.00    -0.354 N 
ATOM     56  N   UNL A   1      44.845  28.398  31.142  1.00  0.00    -0.248 NA
ATOM     57  C   UNL A   1      42.758  28.395  32.179  1.00  0.00     0.031 C 
ATOM     58  C   UNL A   1      43.302  29.447  26.591  1.00  0.00     0.029 A 
ATOM     59  C   UNL A   1      43.231  29.497  27.985  1.00  0.00     0.049 A 
ATOM     60  H   UNL A   1      41.511  29.909  29.106  1.00  0.00     0.167 HD
ATOM     61  C   UNL A   1      43.972  29.115  30.341  1.00  0.00     0.074 A 
ATOM     62  C   UNL A   1      42.745  29.215  31.124  1.00  0.00     0.031 C 
ATOM     63  C   UNL A   1      44.233  29.290  29.012  1.00  0.00     0.031 A 
BRANCH  50  64
ATOM     64  C   UNL A   1      38.848  29.156  28.277  1.00  0.00    -0.014 A 
ATOM     65  C   UNL A   1      38.856  29.059  29.682  1.00  0.00     0.009 A 
ATOM     66  C   UNL A   1      37.659  29.623  27.686  1.00  0.00     0.009 A 
ATOM     67  C   UNL A   1      37.712  29.336  30.440  1.00  0.00     0.001 A 
ATOM     68  C   UNL A   1      36.527  29.937  28.444  1.00  0.00     0.001 A 
ATOM     69  C   UNL A   1      36.544  29.767  29.819  1.00  0.00     0.000 A 
ENDBRANCH  50  64
BRANCH  51  70
ATOM     70  C   UNL A   1      44.476  26.144  33.956  1.00  0.00    -0.014 A 
ATOM     71  C   UNL A   1      43.383  25.709  34.722  1.00  0.00     0.009 A 
ATOM     72  C   UNL A   1      45.762  26.018  34.513  1.00  0.00     0.009 A 
ATOM     73  C   UNL A   1      43.577  25.126  35.982  1.00  0.00     0.001 A 
ATOM     74  C   UNL A   1      45.955  25.436  35.770  1.00  0.00     0.001 A 
ATOM     75  C   UNL A   1      44.862  24.974  36.498  1.00  0.00     0.000 A 
ENDBRANCH  51  70
BRANCH  63  76
ATOM     76  C   UNL A   1      45.646  29.046  28.544  1.00  0.00    -0.014 A 
ATOM     77  C   UNL A   1      46.645  30.034  28.526  1.00  0.00     0.009 A 
ATOM     78  C   UNL A   1      46.002  27.731  28.210  1.00  0.00     0.009 A 
ATOM     79  C   UNL A   1      47.957  29.714  28.155  1.00  0.00     0.001 A 
ATOM     80  C   UNL A   1      47.314  27.409  27.864  1.00  0.00     0.001 A 
ATOM     81  C   UNL A   1      48.291  28.402  27.829  1.00  0.00     0.000 A 
ENDBRANCH  63  76
ENDBRANCH  37  38
ENDBRANCH  29  32
ENDBRANCH  27  28
ENDBRANCH  26  27
ENDBRANCH  25  26
ENDBRANCH   1  25
TORSDOF 16
ENDMDL
MODEL 3
REMARK VINA RESULT:     -10.6      4.305      9.619
REMARK SMILES CN(C(=O)N1Cc2nc[nH]c2C[C@@H]1C(=O)NCCCCCCNC(=O)c1ccc(-c2c3nc(c(-c4ccccc4)c4ccc([nH]4)c(-c4ccccc4)c4nc(c(-c5ccccc5)c5ccc2[nH]5)C=C4)C=C3)cc1)C1CC1
REMARK SMILES IDX 19 1 18 2 17 3 16 4 14 5 15 6 13 8 5 9 6 10 7 11 12 12 8 13
REMARK SMILES IDX 11 14 9 15 10 16 3 18 4 19 2 20 1 21 74 22 75 23 76 24 20 25
REMARK SMILES IDX 21 26 22 27 23 28 24 29 25 31 26 32 27 33 73 34 28 35 72 36
REMARK SMILES IDX 29 37 30 38 31 39 66 40 32 41 71 42 65 43 67 44 33 45 70 46
REMARK SMILES IDX 64 47 63 48 34 50 56 51 41 52 55 53 42 54 45 55 54 56 68 57
REMARK SMILES IDX 43 58 44 59 53 61 69 62 46 63 35 64 36 65 40 66 37 67 39 68
REMARK SMILES IDX 38 69 57 70 58 71 62 72 59 73 61 74 60 75 47 76 48 77 52 78
REMARK SMILES IDX 49 79 51 80 50 81
REMARK H PARENT 16 7 10 17 23 30 67 49 45 60
REMARK Flexibility Score: inf
ROOT
ATOM      1  C   UNL A   1      34.924  32.814  27.626  1.00  0.00     0.002 C 
ENDROOT
BRANCH   1   2
ATOM      2  C   UNL A   1      34.450  31.432  28.102  1.00  0.00     0.021 C 
BRANCH   2   3
ATOM      3  C   UNL A   1      33.729  30.634  27.011  1.00  0.00     0.116 C 
BRANCH   3   4
ATOM      4  N   UNL A   1      32.969  29.576  27.646  1.00  0.00    -0.354 N 
ATOM      5  C   UNL A   1      32.520  28.392  27.152  1.00  0.00     0.243 C 
ATOM      6  O   UNL A   1      31.609  27.829  27.770  1.00  0.00    -0.273 OA
ATOM      7  H   UNL A   1      32.740  29.741  28.590  1.00  0.00     0.163 HD
BRANCH   5   8
ATOM      8  C   UNL A   1      33.119  27.752  25.890  1.00  0.00     0.182 C 
ATOM      9  N   UNL A   1      32.628  28.253  24.560  1.00  0.00    -0.306 N 
ATOM     10  C   UNL A   1      33.262  27.689  23.350  1.00  0.00     0.180 C 
ATOM     11  C   UNL A   1      33.540  26.238  23.533  1.00  0.00     0.081 A 
ATOM     12  C   UNL A   1      33.187  26.200  26.044  1.00  0.00     0.091 C 
ATOM     13  N   UNL A   1      33.906  25.376  22.532  1.00  0.00    -0.240 NA
ATOM     14  C   UNL A   1      33.521  25.586  24.742  1.00  0.00     0.042 A 
ATOM     15  C   UNL A   1      34.068  24.212  23.123  1.00  0.00     0.197 A 
ATOM     16  N   UNL A   1      33.836  24.287  24.472  1.00  0.00    -0.348 N 
ATOM     17  H   UNL A   1      33.889  23.548  25.120  1.00  0.00     0.167 HD
BRANCH   9  18
ATOM     18  C   UNL A   1      31.447  28.937  24.358  1.00  0.00     0.321 C 
ATOM     19  O   UNL A   1      31.308  30.077  24.811  1.00  0.00    -0.248 OA
BRANCH  18  20
ATOM     20  N   UNL A   1      30.399  28.262  23.722  1.00  0.00    -0.325 N 
ATOM     21  C   UNL A   1      29.905  28.588  22.382  1.00  0.00     0.149 C 
BRANCH  20  22
ATOM     22  C   UNL A   1      29.876  27.052  24.357  1.00  0.00     0.086 C 
ATOM     23  C   UNL A   1      28.644  26.328  23.876  1.00  0.00     0.027 C 
ATOM     24  C   UNL A   1      29.992  25.677  23.747  1.00  0.00     0.027 C 
ENDBRANCH  20  22
ENDBRANCH  18  20
ENDBRANCH   9  18
ENDBRANCH   5   8
ENDBRANCH   3   4
ENDBRANCH   2   3
ENDBRANCH   1   2
BRANCH   1  25
ATOM     25  C   UNL A   1      35.406  33.757  28.738  1.00  0.00     0.002 C 
BRANCH  25  26
ATOM     26  C   UNL A   1      34.553  35.013  28.963  1.00  0.00     0.021 C 
BRANCH  26  27
ATOM     27  C   UNL A   1      33.227  34.733  29.656  1.00  0.00     0.116 C 
BRANCH  27  28
ATOM     28  N   UNL A   1      33.116  35.432  30.937  1.00  0.00    -0.352 N 
ATOM     29  C   UNL A   1      33.660  35.099  32.163  1.00  0.00     0.251 C 
ATOM     30  H   UNL A   1      32.577  36.256  30.923  1.00  0.00     0.163 HD
ATOM     31  O   UNL A   1      33.196  35.544  33.198  1.00  0.00    -0.269 OA
BRANCH  29  32
ATOM     32  C   UNL A   1      34.825  34.198  32.197  1.00  0.00     0.039 A 
ATOM     33  C   UNL A   1      34.677  32.809  32.129  1.00  0.00     0.014 A 
ATOM     34  C   UNL A   1      36.087  34.772  32.293  1.00  0.00     0.014 A 
ATOM     35  C   UNL A   1      35.820  32.016  32.086  1.00  0.00     0.010 A 
ATOM     36  C   UNL A   1      37.200  34.013  32.061  1.00  0.00     0.010 A 
ATOM     37  C   UNL A   1      37.081  32.631  32.037  1.00  0.00    -0.014 A 
BRANCH  37  38
ATOM     38  C   UNL A   1      38.298  31.851  31.864  1.00  0.00     0.031 A 
ATOM     39  C   UNL A   1      38.981  31.504  33.133  1.00  0.00     0.074 A 
ATOM     40  C   UNL A   1      38.653  31.297  30.683  1.00  0.00     0.049 A 
ATOM     41  N   UNL A   1      40.095  31.980  33.577  1.00  0.00    -0.248 NA
ATOM     42  C   UNL A   1      38.271  30.643  34.093  1.00  0.00     0.031 C 
ATOM     43  C   UNL A   1      37.887  31.283  29.428  1.00  0.00     0.029 A 
ATOM     44  N   UNL A   1      39.725  30.513  30.385  1.00  0.00    -0.354 N 
ATOM     45  C   UNL A   1      40.343  31.308  34.769  1.00  0.00     0.074 A 
ATOM     46  C   UNL A   1      39.106  30.665  35.134  1.00  0.00     0.031 C 
ATOM     47  C   UNL A   1      38.390  30.342  28.599  1.00  0.00     0.029 A 
ATOM     48  C   UNL A   1      39.615  29.830  29.180  1.00  0.00     0.049 A 
ATOM     49  H   UNL A   1      40.511  30.437  30.974  1.00  0.00     0.167 HD
ATOM     50  C   UNL A   1      41.618  31.086  35.190  1.00  0.00     0.031 A 
ATOM     51  C   UNL A   1      40.467  28.900  28.690  1.00  0.00     0.031 A 
ATOM     52  C   UNL A   1      42.560  31.862  34.422  1.00  0.00     0.049 A 
ATOM     53  C   UNL A   1      41.759  29.083  29.381  1.00  0.00     0.074 A 
ATOM     54  C   UNL A   1      42.846  33.199  34.255  1.00  0.00     0.029 A 
ATOM     55  N   UNL A   1      43.105  31.196  33.352  1.00  0.00    -0.354 N 
ATOM     56  N   UNL A   1      42.503  30.141  29.232  1.00  0.00    -0.248 NA
ATOM     57  C   UNL A   1      42.062  28.267  30.545  1.00  0.00     0.031 C 
ATOM     58  C   UNL A   1      43.274  33.328  32.899  1.00  0.00     0.029 A 
ATOM     59  C   UNL A   1      43.291  32.062  32.310  1.00  0.00     0.049 A 
ATOM     60  H   UNL A   1      43.330  30.237  33.337  1.00  0.00     0.167 HD
ATOM     61  C   UNL A   1      43.037  30.368  30.490  1.00  0.00     0.074 A 
ATOM     62  C   UNL A   1      42.876  29.103  31.197  1.00  0.00     0.031 C 
ATOM     63  C   UNL A   1      43.279  31.641  30.923  1.00  0.00     0.031 A 
BRANCH  50  64
ATOM     64  C   UNL A   1      42.062  29.823  35.899  1.00  0.00    -0.014 A 
ATOM     65  C   UNL A   1      43.266  29.858  36.629  1.00  0.00     0.009 A 
ATOM     66  C   UNL A   1      41.526  28.549  35.632  1.00  0.00     0.009 A 
ATOM     67  C   UNL A   1      43.932  28.683  36.997  1.00  0.00     0.001 A 
ATOM     68  C   UNL A   1      42.169  27.374  36.031  1.00  0.00     0.001 A 
ATOM     69  C   UNL A   1      43.388  27.440  36.689  1.00  0.00     0.000 A 
ENDBRANCH  50  64
BRANCH  51  70
ATOM     70  C   UNL A   1      40.185  27.733  27.830  1.00  0.00    -0.014 A 
ATOM     71  C   UNL A   1      40.960  27.471  26.690  1.00  0.00     0.009 A 
ATOM     72  C   UNL A   1      39.327  26.718  28.291  1.00  0.00     0.009 A 
ATOM     73  C   UNL A   1      40.909  26.220  26.060  1.00  0.00     0.001 A 
ATOM     74  C   UNL A   1      39.278  25.469  27.662  1.00  0.00     0.001 A 
ATOM     75  C   UNL A   1      40.082  25.215  26.556  1.00  0.00     0.000 A 
ENDBRANCH  51  70
BRANCH  63  76
ATOM     76  C   UNL A   1      43.334  32.730  29.881  1.00  0.00    -0.014 A 
ATOM     77  C   UNL A   1      44.346  32.835  28.911  1.00  0.00     0.009 A 
ATOM     78  C   UNL A   1      42.253  33.622  29.816  1.00  0.00     0.009 A 
ATOM     79  C   UNL A   1      44.288  33.826  27.925  1.00  0.00     0.001 A 
ATOM     80  C   UNL A   1      42.184  34.593  28.817  1.00  0.00     0.001 A 
ATOM     81  C   UNL A   1      43.205  34.700  27.875  1.00  0.00     0.000 A 
ENDBRANCH  63  76
ENDBRANCH  37  38
ENDBRANCH  29  32
ENDBRANCH  27  28
ENDBRANCH  26  27
ENDBRANCH  25  26
ENDBRANCH   1  25
TORSDOF 16
ENDMDL
