MODEL 1
REMARK VINA RESULT:     -11.3      0.000      0.000
REMARK SMILES COC(=O)C1=C(C)N(c2ccc(Br)cc2)C(=O)/C1=C\c1ccc(C(=O)NCCCCCCNC(=O)c2ccc(-c3c4nc(c(-c5ccccc5)c5ccc([nH]5)c(-c5ccccc5)c5nc(c(-c6ccccc6)c6ccc3[nH]6)C=C5)C=C4)cc2)cc1
REMARK SMILES IDX 29 1 28 2 27 3 26 4 24 5 25 6 23 8 20 9 21 10 85 11 22 12
REMARK SMILES IDX 84 13 19 14 5 15 6 16 18 17 7 18 8 19 16 20 17 21 3 22 4 23
REMARK SMILES IDX 2 24 1 25 9 26 10 27 15 28 11 29 14 30 12 31 13 32 30 33
REMARK SMILES IDX 31 34 32 35 33 36 34 37 35 39 36 40 37 41 83 42 38 43 82 44
REMARK SMILES IDX 39 45 40 46 41 47 76 48 42 49 81 50 75 51 77 52 43 53 80 54
REMARK SMILES IDX 74 55 73 56 44 58 66 59 51 60 65 61 52 62 55 63 64 64 78 65
REMARK SMILES IDX 53 66 54 67 63 69 79 70 56 71 45 72 46 73 50 74 47 75 49 76
REMARK SMILES IDX 48 77 67 78 68 79 72 80 69 81 71 82 70 83 57 84 58 85 62 86
REMARK SMILES IDX 59 87 61 88 60 89
REMARK H PARENT 26 7 33 38 77 57 55 68
REMARK Flexibility Score: inf
ROOT
ATOM      1  C   UNL A   1      40.649  22.061  26.157  1.00  0.00     0.002 C 
ENDROOT
BRANCH   1   2
ATOM      2  C   UNL A   1      39.518  22.787  26.899  1.00  0.00     0.021 C 
BRANCH   2   3
ATOM      3  C   UNL A   1      38.265  22.972  26.039  1.00  0.00     0.116 C 
BRANCH   3   4
ATOM      4  N   UNL A   1      37.674  21.679  25.753  1.00  0.00    -0.352 N 
ATOM      5  C   UNL A   1      36.439  21.313  25.285  1.00  0.00     0.251 C 
ATOM      6  O   UNL A   1      36.211  20.110  25.153  1.00  0.00    -0.269 OA
ATOM      7  H   UNL A   1      38.276  20.920  25.927  1.00  0.00     0.163 HD
BRANCH   5   8
ATOM      8  C   UNL A   1      35.398  22.298  24.881  1.00  0.00     0.039 A 
ATOM      9  C   UNL A   1      33.599  24.288  24.045  1.00  0.00    -0.025 A 
ATOM     10  C   UNL A   1      34.734  24.016  23.283  1.00  0.00     0.009 A 
ATOM     11  C   UNL A   1      33.335  23.528  25.187  1.00  0.00     0.009 A 
ATOM     12  C   UNL A   1      35.632  23.028  23.704  1.00  0.00     0.014 A 
ATOM     13  C   UNL A   1      34.210  22.516  25.579  1.00  0.00     0.014 A 
BRANCH   9  14
ATOM     14  C   UNL A   1      32.632  25.315  23.664  1.00  0.00     0.023 C 
ATOM     15  C   UNL A   1      31.426  27.477  24.006  1.00  0.00     0.092 C 
ATOM     16  C   UNL A   1      31.663  28.575  24.758  1.00  0.00     0.039 C 
ATOM     17  C   UNL A   1      32.460  26.494  24.282  1.00  0.00     0.057 C 
ATOM     18  C   UNL A   1      30.879  29.847  24.692  1.00  0.00     0.066 C 
ATOM     19  N   UNL A   1      32.800  28.383  25.553  1.00  0.00    -0.280 N 
ATOM     20  C   UNL A   1      33.329  27.080  25.355  1.00  0.00     0.263 C 
ATOM     21  O   UNL A   1      34.259  26.532  25.912  1.00  0.00    -0.268 OA
BRANCH  15  22
ATOM     22  C   UNL A   1      30.300  27.238  23.085  1.00  0.00     0.340 C 
ATOM     23  O   UNL A   1      30.151  27.844  22.034  1.00  0.00    -0.246 OA
BRANCH  22  24
ATOM     24  O   UNL A   1      29.452  26.303  23.577  1.00  0.00    -0.465 OA
ATOM     25  C   UNL A   1      28.139  26.800  23.837  1.00  0.00     0.282 C 
ENDBRANCH  22  24
ENDBRANCH  15  22
BRANCH  19  26
ATOM     26  C   UNL A   1      33.451  29.304  26.421  1.00  0.00     0.049 A 
ATOM     27  C   UNL A   1      34.774  29.056  26.819  1.00  0.00     0.028 A 
ATOM     28  C   UNL A   1      32.832  30.476  26.871  1.00  0.00     0.028 A 
ATOM     29  C   UNL A   1      35.485  29.987  27.582  1.00  0.00     0.018 A 
ATOM     30  C   UNL A   1      33.537  31.408  27.644  1.00  0.00     0.018 A 
ATOM     31  C   UNL A   1      34.866  31.166  27.980  1.00  0.00     0.018 A 
ATOM     32  Br  UNL A   1      35.836  32.446  28.977  1.00  0.00    -0.051 Br
ENDBRANCH  19  26
ENDBRANCH   9  14
ENDBRANCH   5   8
ENDBRANCH   3   4
ENDBRANCH   2   3
ENDBRANCH   1   2
BRANCH   1  33
ATOM     33  C   UNL A   1      41.184  20.818  26.877  1.00  0.00     0.002 C 
BRANCH  33  34
ATOM     34  C   UNL A   1      41.601  19.674  25.950  1.00  0.00     0.021 C 
BRANCH  34  35
ATOM     35  C   UNL A   1      42.970  19.088  26.274  1.00  0.00     0.116 C 
BRANCH  35  36
ATOM     36  N   UNL A   1      43.725  18.797  25.064  1.00  0.00    -0.352 N 
ATOM     37  C   UNL A   1      44.393  19.658  24.232  1.00  0.00     0.251 C 
ATOM     38  H   UNL A   1      43.760  17.848  24.807  1.00  0.00     0.163 HD
ATOM     39  O   UNL A   1      44.761  19.290  23.122  1.00  0.00    -0.269 OA
BRANCH  37  40
ATOM     40  C   UNL A   1      44.660  21.039  24.679  1.00  0.00     0.039 A 
ATOM     41  C   UNL A   1      44.296  22.104  23.853  1.00  0.00     0.014 A 
ATOM     42  C   UNL A   1      45.274  21.279  25.913  1.00  0.00     0.014 A 
ATOM     43  C   UNL A   1      44.501  23.413  24.288  1.00  0.00     0.010 A 
ATOM     44  C   UNL A   1      45.402  22.582  26.378  1.00  0.00     0.010 A 
ATOM     45  C   UNL A   1      45.025  23.663  25.567  1.00  0.00    -0.014 A 
BRANCH  45  46
ATOM     46  C   UNL A   1      45.187  25.047  26.075  1.00  0.00     0.031 A 
ATOM     47  C   UNL A   1      46.531  25.720  26.019  1.00  0.00     0.074 A 
ATOM     48  C   UNL A   1      44.138  25.675  26.641  1.00  0.00     0.049 A 
ATOM     49  N   UNL A   1      46.880  26.903  26.461  1.00  0.00    -0.248 NA
ATOM     50  C   UNL A   1      47.633  24.957  25.412  1.00  0.00     0.031 C 
ATOM     51  C   UNL A   1      42.792  25.115  26.787  1.00  0.00     0.029 A 
ATOM     52  N   UNL A   1      44.041  26.923  27.203  1.00  0.00    -0.354 N 
ATOM     53  C   UNL A   1      48.239  27.017  26.196  1.00  0.00     0.074 A 
ATOM     54  C   UNL A   1      48.663  25.766  25.609  1.00  0.00     0.031 C 
ATOM     55  C   UNL A   1      41.998  26.028  27.369  1.00  0.00     0.029 A 
ATOM     56  C   UNL A   1      42.787  27.214  27.681  1.00  0.00     0.049 A 
ATOM     57  H   UNL A   1      44.799  27.549  27.258  1.00  0.00     0.167 HD
ATOM     58  C   UNL A   1      49.056  28.077  26.404  1.00  0.00     0.031 A 
ATOM     59  C   UNL A   1      42.324  28.312  28.309  1.00  0.00     0.031 A 
ATOM     60  C   UNL A   1      48.631  29.321  26.988  1.00  0.00     0.049 A 
ATOM     61  C   UNL A   1      43.262  29.462  28.559  1.00  0.00     0.074 A 
ATOM     62  C   UNL A   1      49.371  30.472  27.194  1.00  0.00     0.029 A 
ATOM     63  N   UNL A   1      47.354  29.575  27.463  1.00  0.00    -0.354 N 
ATOM     64  N   UNL A   1      44.527  29.582  28.239  1.00  0.00    -0.248 NA
ATOM     65  C   UNL A   1      42.701  30.632  29.247  1.00  0.00     0.031 C 
ATOM     66  C   UNL A   1      48.559  31.400  27.855  1.00  0.00     0.029 A 
ATOM     67  C   UNL A   1      47.293  30.853  27.993  1.00  0.00     0.049 A 
ATOM     68  H   UNL A   1      46.602  28.941  27.430  1.00  0.00     0.167 HD
ATOM     69  C   UNL A   1      44.905  30.851  28.658  1.00  0.00     0.074 A 
ATOM     70  C   UNL A   1      43.730  31.467  29.239  1.00  0.00     0.031 C 
ATOM     71  C   UNL A   1      46.117  31.452  28.568  1.00  0.00     0.031 A 
BRANCH  58  72
ATOM     72  C   UNL A   1      50.500  27.927  26.009  1.00  0.00    -0.014 A 
ATOM     73  C   UNL A   1      51.464  27.468  26.923  1.00  0.00     0.009 A 
ATOM     74  C   UNL A   1      50.898  28.216  24.695  1.00  0.00     0.009 A 
ATOM     75  C   UNL A   1      52.800  27.339  26.538  1.00  0.00     0.001 A 
ATOM     76  C   UNL A   1      52.229  28.054  24.304  1.00  0.00     0.001 A 
ATOM     77  C   UNL A   1      53.180  27.626  25.228  1.00  0.00     0.000 A 
ENDBRANCH  58  72
BRANCH  59  78
ATOM     78  C   UNL A   1      40.903  28.383  28.741  1.00  0.00    -0.014 A 
ATOM     79  C   UNL A   1      39.935  28.975  27.916  1.00  0.00     0.009 A 
ATOM     80  C   UNL A   1      40.509  27.869  29.986  1.00  0.00     0.009 A 
ATOM     81  C   UNL A   1      38.608  29.078  28.342  1.00  0.00     0.001 A 
ATOM     82  C   UNL A   1      39.175  27.943  30.395  1.00  0.00     0.001 A 
ATOM     83  C   UNL A   1      38.228  28.559  29.578  1.00  0.00     0.000 A 
ENDBRANCH  59  78
BRANCH  71  84
ATOM     84  C   UNL A   1      46.224  32.865  29.074  1.00  0.00    -0.014 A 
ATOM     85  C   UNL A   1      46.604  33.146  30.394  1.00  0.00     0.009 A 
ATOM     86  C   UNL A   1      45.979  33.933  28.195  1.00  0.00     0.009 A 
ATOM     87  C   UNL A   1      46.703  34.468  30.834  1.00  0.00     0.001 A 
ATOM     88  C   UNL A   1      46.112  35.253  28.628  1.00  0.00     0.001 A 
ATOM     89  C   UNL A   1      46.464  35.519  29.950  1.00  0.00     0.000 A 
ENDBRANCH  71  84
ENDBRANCH  45  46
ENDBRANCH  37  40
ENDBRANCH  35  36
ENDBRANCH  34  35
ENDBRANCH  33  34
ENDBRANCH   1  33
TORSDOF 17
ENDMDL
MODEL 2
REMARK VINA RESULT:     -11.2      6.603     11.767
REMARK SMILES COC(=O)C1=C(C)N(c2ccc(Br)cc2)C(=O)/C1=C\c1ccc(C(=O)NCCCCCCNC(=O)c2ccc(-c3c4nc(c(-c5ccccc5)c5ccc([nH]5)c(-c5ccccc5)c5nc(c(-c6ccccc6)c6ccc3[nH]6)C=C5)C=C4)cc2)cc1
REMARK SMILES IDX 29 1 28 2 27 3 26 4 24 5 25 6 23 8 20 9 21 10 85 11 22 12
REMARK SMILES IDX 84 13 19 14 5 15 6 16 18 17 7 18 8 19 16 20 17 21 3 22 4 23
REMARK SMILES IDX 2 24 1 25 9 26 10 27 15 28 11 29 14 30 12 31 13 32 30 33
REMARK SMILES IDX 31 34 32 35 33 36 34 37 35 39 36 40 37 41 83 42 38 43 82 44
REMARK SMILES IDX 39 45 40 46 41 47 76 48 42 49 81 50 75 51 77 52 43 53 80 54
REMARK SMILES IDX 74 55 73 56 44 58 66 59 51 60 65 61 52 62 55 63 64 64 78 65
REMARK SMILES IDX 53 66 54 67 63 69 79 70 56 71 45 72 46 73 50 74 47 75 49 76
REMARK SMILES IDX 48 77 67 78 68 79 72 80 69 81 71 82 70 83 57 84 58 85 62 86
REMARK SMILES IDX 59 87 61 88 60 89
REMARK H PARENT 26 7 33 38 77 57 55 68
REMARK Flexibility Score: inf
ROOT
ATOM      1  C   UNL A   1      36.466  31.433  29.798  1.00  0.00     0.002 C 
ENDROOT
BRANCH   1   2
ATOM      2  C   UNL A   1      36.653  29.984  30.267  1.00  0.00     0.021 C 
BRANCH   2   3
ATOM      3  C   UNL A   1      37.444  29.134  29.270  1.00  0.00     0.116 C 
BRANCH   3   4
ATOM      4  N   UNL A   1      38.770  29.693  29.094  1.00  0.00    -0.352 N 
ATOM      5  C   UNL A   1      39.951  29.149  28.659  1.00  0.00     0.251 C 
ATOM      6  O   UNL A   1      40.941  29.881  28.630  1.00  0.00    -0.269 OA
ATOM      7  H   UNL A   1      38.835  30.646  29.334  1.00  0.00     0.163 HD
BRANCH   5   8
ATOM      8  C   UNL A   1      40.069  27.748  28.171  1.00  0.00     0.039 A 
ATOM      9  C   UNL A   1      40.336  25.042  27.460  1.00  0.00    -0.025 A 
ATOM     10  C   UNL A   1      39.725  25.385  28.666  1.00  0.00     0.009 A 
ATOM     11  C   UNL A   1      40.757  26.049  26.588  1.00  0.00     0.009 A 
ATOM     12  C   UNL A   1      39.599  26.733  29.020  1.00  0.00     0.014 A 
ATOM     13  C   UNL A   1      40.590  27.391  26.926  1.00  0.00     0.014 A 
BRANCH   9  14
ATOM     14  C   UNL A   1      40.508  23.653  27.041  1.00  0.00     0.023 C 
ATOM     15  C   UNL A   1      39.657  21.450  26.224  1.00  0.00     0.092 C 
ATOM     16  C   UNL A   1      38.515  21.050  25.620  1.00  0.00     0.039 C 
ATOM     17  C   UNL A   1      39.547  22.866  26.531  1.00  0.00     0.057 C 
ATOM     18  C   UNL A   1      38.271  19.684  25.063  1.00  0.00     0.066 C 
ATOM     19  N   UNL A   1      37.619  22.121  25.517  1.00  0.00    -0.280 N 
ATOM     20  C   UNL A   1      38.169  23.287  26.115  1.00  0.00     0.263 C 
ATOM     21  O   UNL A   1      37.667  24.381  26.277  1.00  0.00    -0.268 OA
BRANCH  15  22
ATOM     22  C   UNL A   1      40.825  20.626  26.585  1.00  0.00     0.340 C 
ATOM     23  O   UNL A   1      40.902  19.990  27.626  1.00  0.00    -0.246 OA
BRANCH  22  24
ATOM     24  O   UNL A   1      41.793  20.704  25.640  1.00  0.00    -0.465 OA
ATOM     25  C   UNL A   1      42.796  19.695  25.765  1.00  0.00     0.282 C 
ENDBRANCH  22  24
ENDBRANCH  15  22
BRANCH  19  26
ATOM     26  C   UNL A   1      36.348  22.167  24.879  1.00  0.00     0.049 A 
ATOM     27  C   UNL A   1      35.250  21.541  25.487  1.00  0.00     0.028 A 
ATOM     28  C   UNL A   1      36.139  22.849  23.673  1.00  0.00     0.028 A 
ATOM     29  C   UNL A   1      33.964  21.654  24.949  1.00  0.00     0.018 A 
ATOM     30  C   UNL A   1      34.855  22.957  23.125  1.00  0.00     0.018 A 
ATOM     31  C   UNL A   1      33.771  22.373  23.775  1.00  0.00     0.018 A 
ATOM     32  Br  UNL A   1      32.030  22.562  23.067  1.00  0.00    -0.051 Br
ENDBRANCH  19  26
ENDBRANCH   9  14
ENDBRANCH   5   8
ENDBRANCH   3   4
ENDBRANCH   2   3
ENDBRANCH   1   2
BRANCH   1  33
ATOM     33  C   UNL A   1      35.138  31.699  29.077  1.00  0.00     0.002 C 
BRANCH  33  34
ATOM     34  C   UNL A   1      35.055  33.057  28.376  1.00  0.00     0.021 C 
BRANCH  34  35
ATOM     35  C   UNL A   1      35.433  34.233  29.269  1.00  0.00     0.116 C 
BRANCH  35  36
ATOM     36  N   UNL A   1      34.331  34.619  30.138  1.00  0.00    -0.352 N 
ATOM     37  C   UNL A   1      34.184  34.423  31.487  1.00  0.00     0.251 C 
ATOM     38  H   UNL A   1      33.587  35.086  29.694  1.00  0.00     0.163 HD
ATOM     39  O   UNL A   1      33.091  34.578  32.022  1.00  0.00    -0.269 OA
BRANCH  37  40
ATOM     40  C   UNL A   1      35.351  34.016  32.294  1.00  0.00     0.039 A 
ATOM     41  C   UNL A   1      35.377  32.737  32.853  1.00  0.00     0.014 A 
ATOM     42  C   UNL A   1      36.414  34.900  32.500  1.00  0.00     0.014 A 
ATOM     43  C   UNL A   1      36.497  32.326  33.577  1.00  0.00     0.010 A 
ATOM     44  C   UNL A   1      37.560  34.461  33.151  1.00  0.00     0.010 A 
ATOM     45  C   UNL A   1      37.611  33.173  33.703  1.00  0.00    -0.014 A 
BRANCH  45  46
ATOM     46  C   UNL A   1      38.837  32.730  34.410  1.00  0.00     0.031 A 
ATOM     47  C   UNL A   1      39.846  31.866  33.706  1.00  0.00     0.074 A 
ATOM     48  C   UNL A   1      39.012  33.057  35.706  1.00  0.00     0.049 A 
ATOM     49  N   UNL A   1      40.950  31.338  34.173  1.00  0.00    -0.248 NA
ATOM     50  C   UNL A   1      39.568  31.530  32.300  1.00  0.00     0.031 C 
ATOM     51  C   UNL A   1      38.088  33.859  36.510  1.00  0.00     0.029 A 
ATOM     52  N   UNL A   1      40.028  32.748  36.576  1.00  0.00    -0.354 N 
ATOM     53  C   UNL A   1      41.487  30.600  33.126  1.00  0.00     0.074 A 
ATOM     54  C   UNL A   1      40.563  30.702  32.019  1.00  0.00     0.031 C 
ATOM     55  C   UNL A   1      38.595  34.006  37.745  1.00  0.00     0.029 A 
ATOM     56  C   UNL A   1      39.851  33.271  37.834  1.00  0.00     0.049 A 
ATOM     57  H   UNL A   1      40.809  32.205  36.321  1.00  0.00     0.167 HD
ATOM     58  C   UNL A   1      42.655  29.917  33.083  1.00  0.00     0.031 A 
ATOM     59  C   UNL A   1      40.612  33.162  38.939  1.00  0.00     0.031 A 
ATOM     60  C   UNL A   1      43.574  29.818  34.186  1.00  0.00     0.049 A 
ATOM     61  C   UNL A   1      41.888  32.368  38.874  1.00  0.00     0.074 A 
ATOM     62  C   UNL A   1      44.807  29.192  34.227  1.00  0.00     0.029 A 
ATOM     63  N   UNL A   1      43.356  30.357  35.445  1.00  0.00    -0.354 N 
ATOM     64  N   UNL A   1      42.417  31.734  37.856  1.00  0.00    -0.248 NA
ATOM     65  C   UNL A   1      42.676  32.285  40.111  1.00  0.00     0.031 C 
ATOM     66  C   UNL A   1      45.305  29.295  35.529  1.00  0.00     0.029 A 
ATOM     67  C   UNL A   1      44.417  30.048  36.279  1.00  0.00     0.049 A 
ATOM     68  H   UNL A   1      42.564  30.880  35.707  1.00  0.00     0.167 HD
ATOM     69  C   UNL A   1      43.615  31.204  38.320  1.00  0.00     0.074 A 
ATOM     70  C   UNL A   1      43.741  31.606  39.706  1.00  0.00     0.031 C 
ATOM     71  C   UNL A   1      44.529  30.454  37.657  1.00  0.00     0.031 A 
BRANCH  58  72
ATOM     72  C   UNL A   1      42.998  29.208  31.801  1.00  0.00    -0.014 A 
ATOM     73  C   UNL A   1      43.763  29.834  30.802  1.00  0.00     0.009 A 
ATOM     74  C   UNL A   1      42.581  27.883  31.603  1.00  0.00     0.009 A 
ATOM     75  C   UNL A   1      44.068  29.160  29.617  1.00  0.00     0.001 A 
ATOM     76  C   UNL A   1      42.917  27.200  30.432  1.00  0.00     0.001 A 
ATOM     77  C   UNL A   1      43.650  27.843  29.436  1.00  0.00     0.000 A 
ENDBRANCH  58  72
BRANCH  59  78
ATOM     78  C   UNL A   1      40.194  33.826  40.202  1.00  0.00    -0.014 A 
ATOM     79  C   UNL A   1      39.367  33.159  41.119  1.00  0.00     0.009 A 
ATOM     80  C   UNL A   1      40.610  35.134  40.494  1.00  0.00     0.009 A 
ATOM     81  C   UNL A   1      38.940  33.799  42.286  1.00  0.00     0.001 A 
ATOM     82  C   UNL A   1      40.210  35.759  41.677  1.00  0.00     0.001 A 
ATOM     83  C   UNL A   1      39.365  35.096  42.566  1.00  0.00     0.000 A 
ENDBRANCH  59  78
BRANCH  71  84
ATOM     84  C   UNL A   1      45.766  30.052  38.410  1.00  0.00    -0.014 A 
ATOM     85  C   UNL A   1      46.910  30.864  38.431  1.00  0.00     0.009 A 
ATOM     86  C   UNL A   1      45.769  28.857  39.147  1.00  0.00     0.009 A 
ATOM     87  C   UNL A   1      48.043  30.469  39.146  1.00  0.00     0.001 A 
ATOM     88  C   UNL A   1      46.890  28.482  39.888  1.00  0.00     0.001 A 
ATOM     89  C   UNL A   1      48.030  29.283  39.878  1.00  0.00     0.000 A 
ENDBRANCH  71  84
ENDBRANCH  45  46
ENDBRANCH  37  40
ENDBRANCH  35  36
ENDBRANCH  34  35
ENDBRANCH  33  34
ENDBRANCH   1  33
TORSDOF 17
ENDMDL
MODEL 3
REMARK VINA RESULT:     -11.0      0.524      5.632
REMARK SMILES COC(=O)C1=C(C)N(c2ccc(Br)cc2)C(=O)/C1=C\c1ccc(C(=O)NCCCCCCNC(=O)c2ccc(-c3c4nc(c(-c5ccccc5)c5ccc([nH]5)c(-c5ccccc5)c5nc(c(-c6ccccc6)c6ccc3[nH]6)C=C5)C=C4)cc2)cc1
REMARK SMILES IDX 29 1 28 2 27 3 26 4 24 5 25 6 23 8 20 9 21 10 85 11 22 12
REMARK SMILES IDX 84 13 19 14 5 15 6 16 18 17 7 18 8 19 16 20 17 21 3 22 4 23
REMARK SMILES IDX 2 24 1 25 9 26 10 27 15 28 11 29 14 30 12 31 13 32 30 33
REMARK SMILES IDX 31 34 32 35 33 36 34 37 35 39 36 40 37 41 83 42 38 43 82 44
REMARK SMILES IDX 39 45 40 46 41 47 76 48 42 49 81 50 75 51 77 52 43 53 80 54
REMARK SMILES IDX 74 55 73 56 44 58 66 59 51 60 65 61 52 62 55 63 64 64 78 65
REMARK SMILES IDX 53 66 54 67 63 69 79 70 56 71 45 72 46 73 50 74 47 75 49 76
REMARK SMILES IDX 48 77 67 78 68 79 72 80 69 81 71 82 70 83 57 84 58 85 62 86
REMARK SMILES IDX 59 87 61 88 60 89
REMARK H PARENT 26 7 33 38 77 57 55 68
REMARK Flexibility Score: inf
ROOT
ATOM      1  C   UNL A   1      40.452  22.124  26.129  1.00  0.00     0.002 C 
ENDROOT
BRANCH   1   2
ATOM      2  C   UNL A   1      39.542  23.079  26.914  1.00  0.00     0.021 C 
BRANCH   2   3
ATOM      3  C   UNL A   1      38.192  23.309  26.231  1.00  0.00     0.116 C 
BRANCH   3   4
ATOM      4  N   UNL A   1      37.566  22.033  25.944  1.00  0.00    -0.352 N 
ATOM      5  C   UNL A   1      36.304  21.697  25.528  1.00  0.00     0.251 C 
ATOM      6  O   UNL A   1      36.050  20.501  25.381  1.00  0.00    -0.269 OA
ATOM      7  H   UNL A   1      38.162  21.260  26.073  1.00  0.00     0.163 HD
BRANCH   5   8
ATOM      8  C   UNL A   1      35.262  22.707  25.195  1.00  0.00     0.039 A 
ATOM      9  C   UNL A   1      33.458  24.739  24.478  1.00  0.00    -0.025 A 
ATOM     10  C   UNL A   1      34.514  24.418  23.626  1.00  0.00     0.009 A 
ATOM     11  C   UNL A   1      33.272  24.008  25.654  1.00  0.00     0.009 A 
ATOM     12  C   UNL A   1      35.415  23.409  23.988  1.00  0.00     0.014 A 
ATOM     13  C   UNL A   1      34.146  22.975  25.989  1.00  0.00     0.014 A 
BRANCH   9  14
ATOM     14  C   UNL A   1      32.493  25.789  24.162  1.00  0.00     0.023 C 
ATOM     15  C   UNL A   1      31.396  28.000  24.555  1.00  0.00     0.092 C 
ATOM     16  C   UNL A   1      31.738  29.107  25.251  1.00  0.00     0.039 C 
ATOM     17  C   UNL A   1      32.418  26.988  24.760  1.00  0.00     0.057 C 
ATOM     18  C   UNL A   1      30.993  30.403  25.225  1.00  0.00     0.066 C 
ATOM     19  N   UNL A   1      32.938  28.895  25.942  1.00  0.00    -0.280 N 
ATOM     20  C   UNL A   1      33.404  27.570  25.731  1.00  0.00     0.263 C 
ATOM     21  O   UNL A   1      34.364  27.003  26.213  1.00  0.00    -0.268 OA
BRANCH  15  22
ATOM     22  C   UNL A   1      30.181  27.778  23.751  1.00  0.00     0.340 C 
ATOM     23  O   UNL A   1      29.282  27.020  24.087  1.00  0.00    -0.246 OA
BRANCH  22  24
ATOM     24  O   UNL A   1      30.218  28.485  22.596  1.00  0.00    -0.465 OA
ATOM     25  C   UNL A   1      29.041  29.259  22.360  1.00  0.00     0.282 C 
ENDBRANCH  22  24
ENDBRANCH  15  22
BRANCH  19  26
ATOM     26  C   UNL A   1      33.698  29.813  26.720  1.00  0.00     0.049 A 
ATOM     27  C   UNL A   1      35.072  29.589  26.900  1.00  0.00     0.028 A 
ATOM     28  C   UNL A   1      33.133  30.961  27.288  1.00  0.00     0.028 A 
ATOM     29  C   UNL A   1      35.874  30.521  27.565  1.00  0.00     0.018 A 
ATOM     30  C   UNL A   1      33.931  31.893  27.964  1.00  0.00     0.018 A 
ATOM     31  C   UNL A   1      35.301  31.676  28.083  1.00  0.00     0.018 A 
ATOM     32  Br  UNL A   1      36.388  32.958  28.947  1.00  0.00    -0.051 Br
ENDBRANCH  19  26
ENDBRANCH   9  14
ENDBRANCH   5   8
ENDBRANCH   3   4
ENDBRANCH   2   3
ENDBRANCH   1   2
BRANCH   1  33
ATOM     33  C   UNL A   1      40.925  20.901  26.924  1.00  0.00     0.002 C 
BRANCH  33  34
ATOM     34  C   UNL A   1      41.389  19.723  26.065  1.00  0.00     0.021 C 
BRANCH  34  35
ATOM     35  C   UNL A   1      42.805  19.255  26.377  1.00  0.00     0.116 C 
BRANCH  35  36
ATOM     36  N   UNL A   1      43.540  18.933  25.162  1.00  0.00    -0.352 N 
ATOM     37  C   UNL A   1      44.253  19.764  24.336  1.00  0.00     0.251 C 
ATOM     38  H   UNL A   1      43.522  17.986  24.897  1.00  0.00     0.163 HD
ATOM     39  O   UNL A   1      44.597  19.386  23.222  1.00  0.00    -0.269 OA
BRANCH  37  40
ATOM     40  C   UNL A   1      44.597  21.124  24.795  1.00  0.00     0.039 A 
ATOM     41  C   UNL A   1      44.188  22.221  24.035  1.00  0.00     0.014 A 
ATOM     42  C   UNL A   1      45.328  21.311  25.972  1.00  0.00     0.014 A 
ATOM     43  C   UNL A   1      44.467  23.512  24.486  1.00  0.00     0.010 A 
ATOM     44  C   UNL A   1      45.534  22.596  26.459  1.00  0.00     0.010 A 
ATOM     45  C   UNL A   1      45.113  23.710  25.718  1.00  0.00    -0.014 A 
BRANCH  45  46
ATOM     46  C   UNL A   1      45.359  25.073  26.246  1.00  0.00     0.031 A 
ATOM     47  C   UNL A   1      44.238  25.854  26.877  1.00  0.00     0.074 A 
ATOM     48  C   UNL A   1      46.577  25.632  26.105  1.00  0.00     0.049 A 
ATOM     49  N   UNL A   1      44.247  27.076  27.347  1.00  0.00    -0.248 NA
ATOM     50  C   UNL A   1      42.931  25.184  26.968  1.00  0.00     0.031 C 
ATOM     51  C   UNL A   1      47.736  24.991  25.480  1.00  0.00     0.029 A 
ATOM     52  N   UNL A   1      47.041  26.869  26.475  1.00  0.00    -0.354 N 
ATOM     53  C   UNL A   1      42.949  27.323  27.776  1.00  0.00     0.074 A 
ATOM     54  C   UNL A   1      42.167  26.149  27.460  1.00  0.00     0.031 C 
ATOM     55  C   UNL A   1      48.785  25.828  25.539  1.00  0.00     0.029 A 
ATOM     56  C   UNL A   1      48.361  27.078  26.159  1.00  0.00     0.049 A 
ATOM     57  H   UNL A   1      46.480  27.542  26.925  1.00  0.00     0.167 HD
ATOM     58  C   UNL A   1      42.456  28.421  28.396  1.00  0.00     0.031 A 
ATOM     59  C   UNL A   1      49.143  28.159  26.341  1.00  0.00     0.031 A 
ATOM     60  C   UNL A   1      43.236  29.589  28.711  1.00  0.00     0.049 A 
ATOM     61  C   UNL A   1      48.561  29.379  27.002  1.00  0.00     0.074 A 
ATOM     62  C   UNL A   1      42.842  30.732  29.382  1.00  0.00     0.029 A 
ATOM     63  N   UNL A   1      44.568  29.763  28.370  1.00  0.00    -0.354 N 
ATOM     64  N   UNL A   1      47.350  29.572  27.465  1.00  0.00    -0.248 NA
ATOM     65  C   UNL A   1      49.461  30.527  27.174  1.00  0.00     0.031 C 
ATOM     66  C   UNL A   1      43.918  31.626  29.390  1.00  0.00     0.029 A 
ATOM     67  C   UNL A   1      45.003  31.010  28.788  1.00  0.00     0.049 A 
ATOM     68  H   UNL A   1      45.123  29.100  27.899  1.00  0.00     0.167 HD
ATOM     69  C   UNL A   1      47.351  30.849  28.011  1.00  0.00     0.074 A 
ATOM     70  C   UNL A   1      48.689  31.377  27.837  1.00  0.00     0.031 C 
ATOM     71  C   UNL A   1      46.336  31.522  28.606  1.00  0.00     0.031 A 
BRANCH  58  72
ATOM     72  C   UNL A   1      40.997  28.416  28.763  1.00  0.00    -0.014 A 
ATOM     73  C   UNL A   1      40.021  28.920  27.886  1.00  0.00     0.009 A 
ATOM     74  C   UNL A   1      40.587  27.866  29.987  1.00  0.00     0.009 A 
ATOM     75  C   UNL A   1      38.672  28.909  28.246  1.00  0.00     0.001 A 
ATOM     76  C   UNL A   1      39.234  27.825  30.330  1.00  0.00     0.001 A 
ATOM     77  C   UNL A   1      38.279  28.356  29.464  1.00  0.00     0.000 A 
ENDBRANCH  58  72
BRANCH  59  78
ATOM     78  C   UNL A   1      50.562  28.139  25.899  1.00  0.00    -0.014 A 
ATOM     79  C   UNL A   1      51.586  27.803  26.798  1.00  0.00     0.009 A 
ATOM     80  C   UNL A   1      50.902  28.465  24.576  1.00  0.00     0.009 A 
ATOM     81  C   UNL A   1      52.922  27.826  26.391  1.00  0.00     0.001 A 
ATOM     82  C   UNL A   1      52.237  28.453  24.164  1.00  0.00     0.001 A 
ATOM     83  C   UNL A   1      53.247  28.146  25.074  1.00  0.00     0.000 A 
ENDBRANCH  59  78
BRANCH  71  84
ATOM     84  C   UNL A   1      46.643  32.891  29.149  1.00  0.00    -0.014 A 
ATOM     85  C   UNL A   1      46.534  34.039  28.350  1.00  0.00     0.009 A 
ATOM     86  C   UNL A   1      47.006  33.034  30.498  1.00  0.00     0.009 A 
ATOM     87  C   UNL A   1      46.817  35.299  28.883  1.00  0.00     0.001 A 
ATOM     88  C   UNL A   1      47.255  34.296  31.036  1.00  0.00     0.001 A 
ATOM     89  C   UNL A   1      47.171  35.427  30.226  1.00  0.00     0.000 A 
ENDBRANCH  71  84
ENDBRANCH  45  46
ENDBRANCH  37  40
ENDBRANCH  35  36
ENDBRANCH  34  35
ENDBRANCH  33  34
ENDBRANCH   1  33
TORSDOF 17
ENDMDL
