MODEL 1
REMARK VINA RESULT:      -9.7      0.000      0.000
REMARK SMILES O=C(NCCCCCCNC(=O)[C@H]1CC[C@@H]2CCCC[C@H]2[NH2+]1)c1ccc(-c2c3nc(c(-c4ccccc4)c4ccc([nH]4)c(-c4ccccc4)c4nc(c(-c5ccccc5)c5ccc2[nH]5)C=C4)C=C3)cc1
REMARK SMILES IDX 5 1 4 2 3 3 1 4 2 5 23 7 24 8 70 9 25 10 69 11 26 12 27 13
REMARK SMILES IDX 28 14 63 15 29 16 68 17 62 18 64 19 30 20 67 21 61 22 60 23
REMARK SMILES IDX 31 25 53 26 38 27 52 28 39 29 42 30 51 31 65 32 40 33 41 34
REMARK SMILES IDX 50 36 66 37 43 38 32 39 33 40 37 41 34 42 36 43 35 44 54 45
REMARK SMILES IDX 55 46 59 47 56 48 58 49 57 50 44 51 45 52 49 53 46 54 48 55
REMARK SMILES IDX 47 56 6 57 7 58 8 59 9 60 10 61 11 62 12 64 13 65 14 66
REMARK SMILES IDX 22 67 15 68 21 69 16 72 20 73 17 74 19 75 18 76
REMARK H PARENT 3 6 64 24 42 35 10 63 22 70 22 71
REMARK Flexibility Score: inf
ROOT
ATOM      1  C   UNL A   1      32.805  36.515  31.204  1.00  0.00     0.021 C 
ENDROOT
BRANCH   1   2
ATOM      2  C   UNL A   1      33.403  36.361  29.813  1.00  0.00     0.116 C 
BRANCH   2   3
ATOM      3  N   UNL A   1      32.645  35.416  29.008  1.00  0.00    -0.352 N 
ATOM      4  O   UNL A   1      32.373  33.700  27.566  1.00  0.00    -0.269 OA
ATOM      5  C   UNL A   1      33.071  34.260  28.407  1.00  0.00     0.251 C 
ATOM      6  H   UNL A   1      31.695  35.636  28.878  1.00  0.00     0.163 HD
BRANCH   5   7
ATOM      7  C   UNL A   1      34.382  33.693  28.777  1.00  0.00     0.039 A 
ATOM      8  C   UNL A   1      35.502  33.934  27.977  1.00  0.00     0.014 A 
ATOM      9  C   UNL A   1      34.497  32.931  29.943  1.00  0.00     0.014 A 
ATOM     10  C   UNL A   1      36.708  33.315  28.275  1.00  0.00     0.010 A 
ATOM     11  C   UNL A   1      35.734  32.384  30.290  1.00  0.00     0.010 A 
ATOM     12  C   UNL A   1      36.844  32.560  29.450  1.00  0.00    -0.014 A 
BRANCH  12  13
ATOM     13  C   UNL A   1      38.182  32.042  29.824  1.00  0.00     0.031 A 
ATOM     14  C   UNL A   1      39.107  32.829  30.704  1.00  0.00     0.074 A 
ATOM     15  C   UNL A   1      38.548  30.831  29.359  1.00  0.00     0.049 A 
ATOM     16  N   UNL A   1      40.304  32.510  31.128  1.00  0.00    -0.248 NA
ATOM     17  C   UNL A   1      38.637  34.145  31.163  1.00  0.00     0.031 C 
ATOM     18  C   UNL A   1      37.733  29.981  28.487  1.00  0.00     0.029 A 
ATOM     19  N   UNL A   1      39.688  30.099  29.564  1.00  0.00    -0.354 N 
ATOM     20  C   UNL A   1      40.739  33.590  31.885  1.00  0.00     0.074 A 
ATOM     21  C   UNL A   1      39.688  34.584  31.843  1.00  0.00     0.031 C 
ATOM     22  C   UNL A   1      38.378  28.828  28.267  1.00  0.00     0.029 A 
ATOM     23  C   UNL A   1      39.679  28.885  28.922  1.00  0.00     0.049 A 
ATOM     24  H   UNL A   1      40.440  30.413  30.116  1.00  0.00     0.167 HD
ATOM     25  C   UNL A   1      41.908  33.735  32.555  1.00  0.00     0.031 A 
ATOM     26  C   UNL A   1      40.622  27.929  28.845  1.00  0.00     0.031 A 
ATOM     27  C   UNL A   1      42.953  32.744  32.582  1.00  0.00     0.049 A 
ATOM     28  C   UNL A   1      41.922  28.136  29.563  1.00  0.00     0.074 A 
ATOM     29  C   UNL A   1      44.159  32.781  33.261  1.00  0.00     0.029 A 
ATOM     30  N   UNL A   1      42.921  31.541  31.892  1.00  0.00    -0.354 N 
ATOM     31  N   UNL A   1      42.299  29.142  30.313  1.00  0.00    -0.248 NA
ATOM     32  C   UNL A   1      42.926  27.073  29.424  1.00  0.00     0.031 C 
ATOM     33  C   UNL A   1      44.883  31.629  32.931  1.00  0.00     0.029 A 
ATOM     34  C   UNL A   1      44.100  30.843  32.102  1.00  0.00     0.049 A 
ATOM     35  H   UNL A   1      42.172  31.228  31.336  1.00  0.00     0.167 HD
ATOM     36  C   UNL A   1      43.576  28.828  30.752  1.00  0.00     0.074 A 
ATOM     37  C   UNL A   1      43.899  27.526  30.202  1.00  0.00     0.031 C 
ATOM     38  C   UNL A   1      44.409  29.553  31.538  1.00  0.00     0.031 A 
BRANCH  25  39
ATOM     39  C   UNL A   1      42.137  35.031  33.284  1.00  0.00    -0.014 A 
ATOM     40  C   UNL A   1      41.582  35.268  34.552  1.00  0.00     0.009 A 
ATOM     41  C   UNL A   1      42.956  36.016  32.709  1.00  0.00     0.009 A 
ATOM     42  C   UNL A   1      41.814  36.478  35.212  1.00  0.00     0.001 A 
ATOM     43  C   UNL A   1      43.209  37.213  33.382  1.00  0.00     0.001 A 
ATOM     44  C   UNL A   1      42.631  37.447  34.629  1.00  0.00     0.000 A 
ENDBRANCH  25  39
BRANCH  26  45
ATOM     45  C   UNL A   1      40.370  26.710  28.037  1.00  0.00    -0.014 A 
ATOM     46  C   UNL A   1      39.660  25.627  28.573  1.00  0.00     0.009 A 
ATOM     47  C   UNL A   1      40.824  26.633  26.709  1.00  0.00     0.009 A 
ATOM     48  C   UNL A   1      39.428  24.484  27.805  1.00  0.00     0.001 A 
ATOM     49  C   UNL A   1      40.563  25.504  25.933  1.00  0.00     0.001 A 
ATOM     50  C   UNL A   1      39.873  24.426  26.485  1.00  0.00     0.000 A 
ENDBRANCH  26  45
BRANCH  38  51
ATOM     51  C   UNL A   1      45.738  28.936  31.872  1.00  0.00    -0.014 A 
ATOM     52  C   UNL A   1      45.898  28.104  32.991  1.00  0.00     0.009 A 
ATOM     53  C   UNL A   1      46.841  29.172  31.036  1.00  0.00     0.009 A 
ATOM     54  C   UNL A   1      47.145  27.552  33.287  1.00  0.00     0.001 A 
ATOM     55  C   UNL A   1      48.079  28.593  31.316  1.00  0.00     0.001 A 
ATOM     56  C   UNL A   1      48.232  27.792  32.447  1.00  0.00     0.000 A 
ENDBRANCH  38  51
ENDBRANCH  12  13
ENDBRANCH   5   7
ENDBRANCH   2   3
ENDBRANCH   1   2
BRANCH   1  57
ATOM     57  C   UNL A   1      33.698  37.284  32.181  1.00  0.00     0.002 C 
BRANCH  57  58
ATOM     58  C   UNL A   1      34.127  36.496  33.426  1.00  0.00     0.002 C 
BRANCH  58  59
ATOM     59  C   UNL A   1      34.374  35.002  33.191  1.00  0.00     0.021 C 
BRANCH  59  60
ATOM     60  C   UNL A   1      35.835  34.599  33.370  1.00  0.00     0.116 C 
BRANCH  60  61
ATOM     61  N   UNL A   1      36.108  34.214  34.737  1.00  0.00    -0.351 N 
ATOM     62  C   UNL A   1      36.934  33.308  35.309  1.00  0.00     0.278 C 
ATOM     63  H   UNL A   1      35.578  34.722  35.392  1.00  0.00     0.163 HD
ATOM     64  O   UNL A   1      36.865  33.237  36.547  1.00  0.00    -0.268 OA
BRANCH  62  65
ATOM     65  C   UNL A   1      37.989  32.435  34.577  1.00  0.00     0.272 C 
ATOM     66  C   UNL A   1      39.290  32.064  35.283  1.00  0.00     0.076 C 
ATOM     67  N   UNL A   1      37.291  31.213  34.101  1.00  0.00    -0.333 N 
ATOM     68  C   UNL A   1      40.199  31.222  34.393  1.00  0.00     0.016 C 
ATOM     69  C   UNL A   1      38.138  30.397  33.222  1.00  0.00     0.186 C 
ATOM     70  H   UNL A   1      36.456  31.492  33.586  1.00  0.00     0.347 HD
ATOM     71  H   UNL A   1      37.052  30.651  34.917  1.00  0.00     0.347 HD
ATOM     72  C   UNL A   1      39.419  29.973  33.966  1.00  0.00     0.048 C 
ATOM     73  C   UNL A   1      37.348  29.172  32.746  1.00  0.00     0.065 C 
ATOM     74  C   UNL A   1      40.282  29.027  33.134  1.00  0.00     0.010 C 
ATOM     75  C   UNL A   1      38.222  28.222  31.928  1.00  0.00     0.006 C 
ATOM     76  C   UNL A   1      39.476  27.809  32.693  1.00  0.00     0.001 C 
ENDBRANCH  62  65
ENDBRANCH  60  61
ENDBRANCH  59  60
ENDBRANCH  58  59
ENDBRANCH  57  58
ENDBRANCH   1  57
TORSDOF 13
ENDMDL
MODEL 2
REMARK VINA RESULT:      -9.6      0.409      6.184
REMARK SMILES O=C(NCCCCCCNC(=O)[C@H]1CC[C@@H]2CCCC[C@H]2[NH2+]1)c1ccc(-c2c3nc(c(-c4ccccc4)c4ccc([nH]4)c(-c4ccccc4)c4nc(c(-c5ccccc5)c5ccc2[nH]5)C=C4)C=C3)cc1
REMARK SMILES IDX 5 1 4 2 3 3 1 4 2 5 23 7 24 8 70 9 25 10 69 11 26 12 27 13
REMARK SMILES IDX 28 14 63 15 29 16 68 17 62 18 64 19 30 20 67 21 61 22 60 23
REMARK SMILES IDX 31 25 53 26 38 27 52 28 39 29 42 30 51 31 65 32 40 33 41 34
REMARK SMILES IDX 50 36 66 37 43 38 32 39 33 40 37 41 34 42 36 43 35 44 54 45
REMARK SMILES IDX 55 46 59 47 56 48 58 49 57 50 44 51 45 52 49 53 46 54 48 55
REMARK SMILES IDX 47 56 6 57 7 58 8 59 9 60 10 61 11 62 12 64 13 65 14 66
REMARK SMILES IDX 22 67 15 68 21 69 16 72 20 73 17 74 19 75 18 76
REMARK H PARENT 3 6 64 24 42 35 10 63 22 70 22 71
REMARK Flexibility Score: inf
ROOT
ATOM      1  C   UNL A   1      33.064  36.511  31.053  1.00  0.00     0.021 C 
ENDROOT
BRANCH   1   2
ATOM      2  C   UNL A   1      33.473  36.448  29.588  1.00  0.00     0.116 C 
BRANCH   2   3
ATOM      3  N   UNL A   1      32.677  35.477  28.854  1.00  0.00    -0.352 N 
ATOM      4  O   UNL A   1      32.336  33.685  27.525  1.00  0.00    -0.269 OA
ATOM      5  C   UNL A   1      33.061  34.275  28.320  1.00  0.00     0.251 C 
ATOM      6  H   UNL A   1      31.731  35.716  28.723  1.00  0.00     0.163 HD
BRANCH   5   7
ATOM      7  C   UNL A   1      34.362  33.694  28.707  1.00  0.00     0.039 A 
ATOM      8  C   UNL A   1      35.517  34.019  27.991  1.00  0.00     0.014 A 
ATOM      9  C   UNL A   1      34.430  32.835  29.806  1.00  0.00     0.014 A 
ATOM     10  C   UNL A   1      36.716  33.392  28.296  1.00  0.00     0.010 A 
ATOM     11  C   UNL A   1      35.657  32.275  30.169  1.00  0.00     0.010 A 
ATOM     12  C   UNL A   1      36.805  32.538  29.406  1.00  0.00    -0.014 A 
BRANCH  12  13
ATOM     13  C   UNL A   1      38.131  32.006  29.803  1.00  0.00     0.031 A 
ATOM     14  C   UNL A   1      38.628  30.685  29.295  1.00  0.00     0.074 A 
ATOM     15  C   UNL A   1      38.893  32.749  30.629  1.00  0.00     0.049 A 
ATOM     16  N   UNL A   1      39.766  30.087  29.541  1.00  0.00    -0.248 NA
ATOM     17  C   UNL A   1      37.733  29.931  28.404  1.00  0.00     0.031 C 
ATOM     18  C   UNL A   1      38.507  34.046  31.194  1.00  0.00     0.029 A 
ATOM     19  N   UNL A   1      40.150  32.532  31.128  1.00  0.00    -0.354 N 
ATOM     20  C   UNL A   1      39.719  28.881  28.855  1.00  0.00     0.074 A 
ATOM     21  C   UNL A   1      38.429  28.820  28.200  1.00  0.00     0.031 C 
ATOM     22  C   UNL A   1      39.521  34.528  31.923  1.00  0.00     0.029 A 
ATOM     23  C   UNL A   1      40.598  33.547  31.937  1.00  0.00     0.049 A 
ATOM     24  H   UNL A   1      40.680  31.727  30.926  1.00  0.00     0.167 HD
ATOM     25  C   UNL A   1      40.667  27.916  28.778  1.00  0.00     0.031 A 
ATOM     26  C   UNL A   1      41.741  33.667  32.637  1.00  0.00     0.031 A 
ATOM     27  C   UNL A   1      41.944  27.982  29.441  1.00  0.00     0.049 A 
ATOM     28  C   UNL A   1      42.754  32.565  32.565  1.00  0.00     0.074 A 
ATOM     29  C   UNL A   1      42.987  27.072  29.396  1.00  0.00     0.029 A 
ATOM     30  N   UNL A   1      42.348  29.010  30.280  1.00  0.00    -0.354 N 
ATOM     31  N   UNL A   1      42.714  31.452  31.873  1.00  0.00    -0.248 NA
ATOM     32  C   UNL A   1      43.971  32.736  33.368  1.00  0.00     0.031 C 
ATOM     33  C   UNL A   1      43.996  27.520  30.256  1.00  0.00     0.029 A 
ATOM     34  C   UNL A   1      43.611  28.741  30.785  1.00  0.00     0.049 A 
ATOM     35  H   UNL A   1      41.817  29.813  30.486  1.00  0.00     0.167 HD
ATOM     36  C   UNL A   1      43.906  30.797  32.142  1.00  0.00     0.074 A 
ATOM     37  C   UNL A   1      44.658  31.650  33.042  1.00  0.00     0.031 C 
ATOM     38  C   UNL A   1      44.340  29.597  31.687  1.00  0.00     0.031 A 
BRANCH  25  39
ATOM     39  C   UNL A   1      40.344  26.685  27.975  1.00  0.00    -0.014 A 
ATOM     40  C   UNL A   1      40.812  26.522  26.661  1.00  0.00     0.009 A 
ATOM     41  C   UNL A   1      39.592  25.653  28.559  1.00  0.00     0.009 A 
ATOM     42  C   UNL A   1      40.503  25.366  25.938  1.00  0.00     0.001 A 
ATOM     43  C   UNL A   1      39.309  24.488  27.845  1.00  0.00     0.001 A 
ATOM     44  C   UNL A   1      39.756  24.349  26.532  1.00  0.00     0.000 A 
ENDBRANCH  25  39
BRANCH  26  45
ATOM     45  C   UNL A   1      41.964  34.868  33.481  1.00  0.00    -0.014 A 
ATOM     46  C   UNL A   1      42.785  35.915  33.039  1.00  0.00     0.009 A 
ATOM     47  C   UNL A   1      41.335  34.982  34.733  1.00  0.00     0.009 A 
ATOM     48  C   UNL A   1      42.989  37.040  33.840  1.00  0.00     0.001 A 
ATOM     49  C   UNL A   1      41.513  36.122  35.517  1.00  0.00     0.001 A 
ATOM     50  C   UNL A   1      42.348  37.146  35.074  1.00  0.00     0.000 A 
ENDBRANCH  26  45
BRANCH  38  51
ATOM     51  C   UNL A   1      45.703  29.151  32.136  1.00  0.00    -0.014 A 
ATOM     52  C   UNL A   1      46.842  29.378  31.348  1.00  0.00     0.009 A 
ATOM     53  C   UNL A   1      45.850  28.517  33.380  1.00  0.00     0.009 A 
ATOM     54  C   UNL A   1      48.097  28.945  31.781  1.00  0.00     0.001 A 
ATOM     55  C   UNL A   1      47.110  28.114  33.824  1.00  0.00     0.001 A 
ATOM     56  C   UNL A   1      48.230  28.318  33.020  1.00  0.00     0.000 A 
ENDBRANCH  38  51
ENDBRANCH  12  13
ENDBRANCH   5   7
ENDBRANCH   2   3
ENDBRANCH   1   2
BRANCH   1  57
ATOM     57  C   UNL A   1      34.045  35.816  32.000  1.00  0.00     0.002 C 
BRANCH  57  58
ATOM     58  C   UNL A   1      33.423  34.740  32.903  1.00  0.00     0.002 C 
BRANCH  58  59
ATOM     59  C   UNL A   1      34.411  33.700  33.441  1.00  0.00     0.021 C 
BRANCH  59  60
ATOM     60  C   UNL A   1      35.788  34.281  33.749  1.00  0.00     0.116 C 
BRANCH  60  61
ATOM     61  N   UNL A   1      36.202  33.958  35.097  1.00  0.00    -0.351 N 
ATOM     62  C   UNL A   1      37.123  33.115  35.619  1.00  0.00     0.278 C 
ATOM     63  H   UNL A   1      35.707  34.462  35.782  1.00  0.00     0.163 HD
ATOM     64  O   UNL A   1      37.169  33.083  36.860  1.00  0.00    -0.268 OA
BRANCH  62  65
ATOM     65  C   UNL A   1      38.152  32.270  34.820  1.00  0.00     0.272 C 
ATOM     66  C   UNL A   1      39.455  31.835  35.484  1.00  0.00     0.076 C 
ATOM     67  N   UNL A   1      37.426  31.092  34.281  1.00  0.00    -0.333 N 
ATOM     68  C   UNL A   1      40.337  31.033  34.532  1.00  0.00     0.016 C 
ATOM     69  C   UNL A   1      38.247  30.316  33.342  1.00  0.00     0.186 C 
ATOM     70  H   UNL A   1      36.590  31.415  33.796  1.00  0.00     0.347 HD
ATOM     71  H   UNL A   1      37.189  30.485  35.065  1.00  0.00     0.347 HD
ATOM     72  C   UNL A   1      39.530  29.826  34.042  1.00  0.00     0.048 C 
ATOM     73  C   UNL A   1      37.429  29.135  32.805  1.00  0.00     0.065 C 
ATOM     74  C   UNL A   1      40.365  28.917  33.142  1.00  0.00     0.010 C 
ATOM     75  C   UNL A   1      38.276  28.222  31.918  1.00  0.00     0.006 C 
ATOM     76  C   UNL A   1      39.532  27.742  32.639  1.00  0.00     0.001 C 
ENDBRANCH  62  65
ENDBRANCH  60  61
ENDBRANCH  59  60
ENDBRANCH  58  59
ENDBRANCH  57  58
ENDBRANCH   1  57
TORSDOF 13
ENDMDL
MODEL 3
REMARK VINA RESULT:      -9.2      4.580     10.957
REMARK SMILES O=C(NCCCCCCNC(=O)[C@H]1CC[C@@H]2CCCC[C@H]2[NH2+]1)c1ccc(-c2c3nc(c(-c4ccccc4)c4ccc([nH]4)c(-c4ccccc4)c4nc(c(-c5ccccc5)c5ccc2[nH]5)C=C4)C=C3)cc1
REMARK SMILES IDX 5 1 4 2 3 3 1 4 2 5 23 7 24 8 70 9 25 10 69 11 26 12 27 13
REMARK SMILES IDX 28 14 63 15 29 16 68 17 62 18 64 19 30 20 67 21 61 22 60 23
REMARK SMILES IDX 31 25 53 26 38 27 52 28 39 29 42 30 51 31 65 32 40 33 41 34
REMARK SMILES IDX 50 36 66 37 43 38 32 39 33 40 37 41 34 42 36 43 35 44 54 45
REMARK SMILES IDX 55 46 59 47 56 48 58 49 57 50 44 51 45 52 49 53 46 54 48 55
REMARK SMILES IDX 47 56 6 57 7 58 8 59 9 60 10 61 11 62 12 64 13 65 14 66
REMARK SMILES IDX 22 67 15 68 21 69 16 72 20 73 17 74 19 75 18 76
REMARK H PARENT 3 6 64 24 42 35 10 63 22 70 22 71
REMARK Flexibility Score: inf
ROOT
ATOM      1  C   UNL A   1      44.556  19.459  24.671  1.00  0.00     0.021 C 
ENDROOT
BRANCH   1   2
ATOM      2  C   UNL A   1      43.809  18.895  25.871  1.00  0.00     0.116 C 
BRANCH   2   3
ATOM      3  N   UNL A   1      42.387  18.759  25.599  1.00  0.00    -0.352 N 
ATOM      4  O   UNL A   1      40.189  19.177  25.896  1.00  0.00    -0.269 OA
ATOM      5  C   UNL A   1      41.351  19.557  26.006  1.00  0.00     0.251 C 
ATOM      6  H   UNL A   1      42.134  17.986  25.044  1.00  0.00     0.163 HD
BRANCH   5   7
ATOM      7  C   UNL A   1      41.644  20.883  26.585  1.00  0.00     0.039 A 
ATOM      8  C   UNL A   1      41.670  21.054  27.971  1.00  0.00     0.014 A 
ATOM      9  C   UNL A   1      41.914  21.959  25.735  1.00  0.00     0.014 A 
ATOM     10  C   UNL A   1      41.845  22.322  28.507  1.00  0.00     0.010 A 
ATOM     11  C   UNL A   1      42.181  23.217  26.279  1.00  0.00     0.010 A 
ATOM     12  C   UNL A   1      42.133  23.410  27.668  1.00  0.00    -0.014 A 
BRANCH  12  13
ATOM     13  C   UNL A   1      42.471  24.719  28.276  1.00  0.00     0.031 A 
ATOM     14  C   UNL A   1      41.434  25.787  28.461  1.00  0.00     0.074 A 
ATOM     15  C   UNL A   1      43.742  24.927  28.672  1.00  0.00     0.049 A 
ATOM     16  N   UNL A   1      41.569  26.979  28.983  1.00  0.00    -0.248 NA
ATOM     17  C   UNL A   1      40.071  25.486  27.994  1.00  0.00     0.031 C 
ATOM     18  C   UNL A   1      44.837  23.963  28.533  1.00  0.00     0.029 A 
ATOM     19  N   UNL A   1      44.326  26.005  29.284  1.00  0.00    -0.354 N 
ATOM     20  C   UNL A   1      40.319  27.579  28.892  1.00  0.00     0.074 A 
ATOM     21  C   UNL A   1      39.443  26.627  28.241  1.00  0.00     0.031 C 
ATOM     22  C   UNL A   1      45.947  24.474  29.081  1.00  0.00     0.029 A 
ATOM     23  C   UNL A   1      45.661  25.825  29.547  1.00  0.00     0.049 A 
ATOM     24  H   UNL A   1      43.835  26.828  29.512  1.00  0.00     0.167 HD
ATOM     25  C   UNL A   1      39.940  28.809  29.315  1.00  0.00     0.031 A 
ATOM     26  C   UNL A   1      46.568  26.662  30.082  1.00  0.00     0.031 A 
ATOM     27  C   UNL A   1      40.822  29.753  29.952  1.00  0.00     0.049 A 
ATOM     28  C   UNL A   1      46.128  28.033  30.502  1.00  0.00     0.074 A 
ATOM     29  C   UNL A   1      40.526  31.010  30.448  1.00  0.00     0.029 A 
ATOM     30  N   UNL A   1      42.177  29.547  30.170  1.00  0.00    -0.354 N 
ATOM     31  N   UNL A   1      44.932  28.566  30.452  1.00  0.00    -0.248 NA
ATOM     32  C   UNL A   1      47.163  28.915  31.056  1.00  0.00     0.031 C 
ATOM     33  C   UNL A   1      41.712  31.590  30.911  1.00  0.00     0.029 A 
ATOM     34  C   UNL A   1      42.736  30.668  30.764  1.00  0.00     0.049 A 
ATOM     35  H   UNL A   1      42.669  28.727  29.938  1.00  0.00     0.167 HD
ATOM     36  C   UNL A   1      45.065  29.841  30.983  1.00  0.00     0.074 A 
ATOM     37  C   UNL A   1      46.454  29.989  31.371  1.00  0.00     0.031 C 
ATOM     38  C   UNL A   1      44.122  30.802  31.134  1.00  0.00     0.031 A 
BRANCH  25  39
ATOM     39  C   UNL A   1      38.515  29.221  29.066  1.00  0.00    -0.014 A 
ATOM     40  C   UNL A   1      37.545  29.158  30.080  1.00  0.00     0.009 A 
ATOM     41  C   UNL A   1      38.146  29.722  27.807  1.00  0.00     0.009 A 
ATOM     42  C   UNL A   1      36.228  29.552  29.826  1.00  0.00     0.001 A 
ATOM     43  C   UNL A   1      36.837  30.143  27.564  1.00  0.00     0.001 A 
ATOM     44  C   UNL A   1      35.877  30.049  28.570  1.00  0.00     0.000 A 
ENDBRANCH  25  39
BRANCH  26  45
ATOM     45  C   UNL A   1      47.981  26.227  30.220  1.00  0.00    -0.014 A 
ATOM     46  C   UNL A   1      48.879  26.353  29.151  1.00  0.00     0.009 A 
ATOM     47  C   UNL A   1      48.444  25.700  31.438  1.00  0.00     0.009 A 
ATOM     48  C   UNL A   1      50.206  25.940  29.292  1.00  0.00     0.001 A 
ATOM     49  C   UNL A   1      49.778  25.320  31.586  1.00  0.00     0.001 A 
ATOM     50  C   UNL A   1      50.656  25.432  30.510  1.00  0.00     0.000 A 
ENDBRANCH  26  45
BRANCH  38  51
ATOM     51  C   UNL A   1      44.562  32.090  31.773  1.00  0.00    -0.014 A 
ATOM     52  C   UNL A   1      45.027  33.167  31.002  1.00  0.00     0.009 A 
ATOM     53  C   UNL A   1      44.483  32.235  33.167  1.00  0.00     0.009 A 
ATOM     54  C   UNL A   1      45.440  34.349  31.618  1.00  0.00     0.001 A 
ATOM     55  C   UNL A   1      44.866  33.429  33.777  1.00  0.00     0.001 A 
ATOM     56  C   UNL A   1      45.355  34.481  33.003  1.00  0.00     0.000 A 
ENDBRANCH  38  51
ENDBRANCH  12  13
ENDBRANCH   5   7
ENDBRANCH   2   3
ENDBRANCH   1   2
BRANCH   1  57
ATOM     57  C   UNL A   1      45.688  20.419  25.041  1.00  0.00     0.002 C 
BRANCH  57  58
ATOM     58  C   UNL A   1      45.435  21.890  24.680  1.00  0.00     0.002 C 
BRANCH  58  59
ATOM     59  C   UNL A   1      46.000  22.906  25.677  1.00  0.00     0.021 C 
BRANCH  59  60
ATOM     60  C   UNL A   1      46.193  24.296  25.077  1.00  0.00     0.116 C 
BRANCH  60  61
ATOM     61  N   UNL A   1      44.922  24.942  24.835  1.00  0.00    -0.351 N 
ATOM     62  C   UNL A   1      44.349  26.083  25.283  1.00  0.00     0.278 C 
ATOM     63  H   UNL A   1      44.350  24.444  24.207  1.00  0.00     0.163 HD
ATOM     64  O   UNL A   1      43.198  26.296  24.868  1.00  0.00    -0.268 OA
BRANCH  62  65
ATOM     65  C   UNL A   1      45.022  27.158  26.181  1.00  0.00     0.272 C 
ATOM     66  C   UNL A   1      46.502  27.481  25.997  1.00  0.00     0.076 C 
ATOM     67  N   UNL A   1      44.203  28.392  26.073  1.00  0.00    -0.333 N 
ATOM     68  C   UNL A   1      46.976  28.545  26.982  1.00  0.00     0.016 C 
ATOM     69  C   UNL A   1      44.626  29.423  27.029  1.00  0.00     0.186 C 
ATOM     70  H   UNL A   1      43.228  28.157  26.254  1.00  0.00     0.347 HD
ATOM     71  H   UNL A   1      44.326  28.767  25.132  1.00  0.00     0.347 HD
ATOM     72  C   UNL A   1      46.104  29.790  26.792  1.00  0.00     0.048 C 
ATOM     73  C   UNL A   1      43.724  30.655  26.882  1.00  0.00     0.065 C 
ATOM     74  C   UNL A   1      46.562  30.941  27.686  1.00  0.00     0.010 C 
ATOM     75  C   UNL A   1      44.197  31.808  27.768  1.00  0.00     0.006 C 
ATOM     76  C   UNL A   1      45.659  32.158  27.504  1.00  0.00     0.001 C 
ENDBRANCH  62  65
ENDBRANCH  60  61
ENDBRANCH  59  60
ENDBRANCH  58  59
ENDBRANCH  57  58
ENDBRANCH   1  57
TORSDOF 13
ENDMDL
