MODEL 1
REMARK VINA RESULT:     -12.0      0.000      0.000
REMARK SMILES N#Cc1cccnc1N1CC[NH+]([C@@H](C(=O)NCCCCCCNC(=O)c2ccc(-c3c4nc(c(-c5ccccc5)c5ccc([nH]5)c(-c5ccccc5)c5nc(c(-c6ccccc6)c6ccc3[nH]6)C=C5)C=C4)cc2)c2c[nH]c3cc(CO)ccc23)CC1
REMARK SMILES IDX 19 1 18 2 17 3 16 4 14 5 15 6 13 8 12 9 9 10 10 11 86 12
REMARK SMILES IDX 11 13 85 14 8 16 3 17 4 18 5 19 7 20 6 21 2 22 1 23 74 24
REMARK SMILES IDX 75 25 84 26 76 27 77 28 83 29 78 31 82 32 79 33 80 34 81 35
REMARK SMILES IDX 20 37 21 38 22 39 23 40 24 41 25 43 26 44 27 45 73 46 28 47
REMARK SMILES IDX 72 48 29 49 30 50 31 51 66 52 32 53 71 54 65 55 67 56 33 57
REMARK SMILES IDX 70 58 64 59 63 60 34 62 56 63 41 64 55 65 42 66 45 67 54 68
REMARK SMILES IDX 68 69 43 70 44 71 53 73 69 74 46 75 35 76 36 77 40 78 37 79
REMARK SMILES IDX 39 80 38 81 57 82 58 83 62 84 59 85 61 86 60 87 47 88 48 89
REMARK SMILES IDX 52 90 49 91 51 92 50 93
REMARK H PARENT 16 7 12 15 76 30 81 36 23 42 67 61 45 72
REMARK Flexibility Score: inf
ROOT
ATOM      1  C   UNL A   1      31.779  30.011  25.533  1.00  0.00     0.002 C 
ENDROOT
BRANCH   1   2
ATOM      2  C   UNL A   1      31.762  29.038  26.728  1.00  0.00     0.021 C 
BRANCH   2   3
ATOM      3  C   UNL A   1      33.101  28.322  27.081  1.00  0.00     0.116 C 
BRANCH   3   4
ATOM      4  N   UNL A   1      33.626  27.391  26.076  1.00  0.00    -0.351 N 
ATOM      5  C   UNL A   1      33.145  26.474  25.166  1.00  0.00     0.283 C 
ATOM      6  O   UNL A   1      34.034  25.994  24.449  1.00  0.00    -0.268 OA
ATOM      7  H   UNL A   1      34.609  27.434  26.040  1.00  0.00     0.163 HD
BRANCH   5   8
ATOM      8  C   UNL A   1      31.637  26.110  24.970  1.00  0.00     0.307 C 
BRANCH   8   9
ATOM      9  N   UNL A   1      31.126  24.780  25.504  1.00  0.00    -0.318 N 
ATOM     10  N   UNL A   1      33.101  22.575  25.380  1.00  0.00    -0.344 N 
ATOM     11  C   UNL A   1      32.385  23.020  24.179  1.00  0.00     0.179 C 
ATOM     12  C   UNL A   1      33.157  23.578  26.453  1.00  0.00     0.179 C 
ATOM     13  C   UNL A   1      31.035  23.596  24.627  1.00  0.00     0.284 C 
ATOM     14  C   UNL A   1      31.787  24.267  26.704  1.00  0.00     0.284 C 
ATOM     15  H   UNL A   1      30.186  25.142  25.665  1.00  0.00     0.349 HD
BRANCH  10  16
ATOM     16  C   UNL A   1      34.321  21.933  25.160  1.00  0.00     0.146 A 
ATOM     17  C   UNL A   1      34.392  20.537  25.071  1.00  0.00     0.095 A 
ATOM     18  C   UNL A   1      35.639  19.921  24.958  1.00  0.00     0.025 A 
ATOM     19  C   UNL A   1      36.787  20.703  24.935  1.00  0.00     0.022 A 
ATOM     20  N   UNL A   1      35.441  22.694  25.100  1.00  0.00    -0.238 NA
ATOM     21  C   UNL A   1      36.638  22.074  25.005  1.00  0.00     0.113 A 
BRANCH  17  22
ATOM     22  C   UNL A   1      33.204  19.723  25.112  1.00  0.00     0.103 C 
ATOM     23  N   UNL A   1      32.244  19.093  25.086  1.00  0.00    -0.192 NA
ENDBRANCH  17  22
ENDBRANCH  10  16
ENDBRANCH   8   9
BRANCH   8  24
ATOM     24  C   UNL A   1      31.087  26.369  23.517  1.00  0.00     0.044 A 
ATOM     25  C   UNL A   1      31.891  26.379  22.380  1.00  0.00     0.094 A 
ATOM     26  C   UNL A   1      30.008  27.237  23.096  1.00  0.00     0.009 A 
ATOM     27  N   UNL A   1      31.874  27.705  21.997  1.00  0.00    -0.361 N 
ATOM     28  C   UNL A   1      30.661  28.243  22.371  1.00  0.00     0.046 A 
ATOM     29  C   UNL A   1      28.655  27.450  23.423  1.00  0.00     0.011 A 
ATOM     30  H   UNL A   1      32.601  28.183  21.536  1.00  0.00     0.166 HD
ATOM     31  C   UNL A   1      30.167  29.552  22.287  1.00  0.00     0.032 A 
ATOM     32  C   UNL A   1      28.092  28.718  23.215  1.00  0.00     0.007 A 
ATOM     33  C   UNL A   1      28.890  29.796  22.815  1.00  0.00    -0.021 A 
BRANCH  33  34
ATOM     34  C   UNL A   1      28.417  31.211  23.043  1.00  0.00     0.191 C 
BRANCH  34  35
ATOM     35  O   UNL A   1      29.420  32.160  22.672  1.00  0.00    -0.392 OA
ATOM     36  H   UNL A   1      29.964  32.374  23.446  1.00  0.00     0.211 HD
ENDBRANCH  34  35
ENDBRANCH  33  34
ENDBRANCH   8  24
ENDBRANCH   5   8
ENDBRANCH   3   4
ENDBRANCH   2   3
ENDBRANCH   1   2
BRANCH   1  37
ATOM     37  C   UNL A   1      31.090  31.352  25.789  1.00  0.00     0.002 C 
BRANCH  37  38
ATOM     38  C   UNL A   1      31.389  31.999  27.145  1.00  0.00     0.021 C 
BRANCH  38  39
ATOM     39  C   UNL A   1      32.685  32.805  27.209  1.00  0.00     0.116 C 
BRANCH  39  40
ATOM     40  N   UNL A   1      32.441  34.198  27.557  1.00  0.00    -0.352 N 
ATOM     41  C   UNL A   1      33.018  34.946  28.557  1.00  0.00     0.251 C 
ATOM     42  H   UNL A   1      31.776  34.667  27.003  1.00  0.00     0.163 HD
ATOM     43  O   UNL A   1      32.538  36.023  28.893  1.00  0.00    -0.269 OA
BRANCH  41  44
ATOM     44  C   UNL A   1      34.225  34.431  29.239  1.00  0.00     0.039 A 
ATOM     45  C   UNL A   1      34.098  33.794  30.475  1.00  0.00     0.014 A 
ATOM     46  C   UNL A   1      35.481  34.574  28.642  1.00  0.00     0.014 A 
ATOM     47  C   UNL A   1      35.230  33.248  31.087  1.00  0.00     0.010 A 
ATOM     48  C   UNL A   1      36.593  33.966  29.217  1.00  0.00     0.010 A 
ATOM     49  C   UNL A   1      36.481  33.303  30.449  1.00  0.00    -0.014 A 
BRANCH  49  50
ATOM     50  C   UNL A   1      37.685  32.685  31.062  1.00  0.00     0.031 A 
ATOM     51  C   UNL A   1      38.284  31.442  30.462  1.00  0.00     0.074 A 
ATOM     52  C   UNL A   1      38.211  33.210  32.188  1.00  0.00     0.049 A 
ATOM     53  N   UNL A   1      39.301  30.731  30.879  1.00  0.00    -0.248 NA
ATOM     54  C   UNL A   1      37.644  30.916  29.245  1.00  0.00     0.031 C 
ATOM     55  C   UNL A   1      37.702  34.387  32.893  1.00  0.00     0.029 A 
ATOM     56  N   UNL A   1      39.289  32.813  32.940  1.00  0.00    -0.354 N 
ATOM     57  C   UNL A   1      39.418  29.677  29.981  1.00  0.00     0.074 A 
ATOM     58  C   UNL A   1      38.331  29.805  29.034  1.00  0.00     0.031 C 
ATOM     59  C   UNL A   1      38.479  34.630  33.961  1.00  0.00     0.029 A 
ATOM     60  C   UNL A   1      39.514  33.604  34.042  1.00  0.00     0.049 A 
ATOM     61  H   UNL A   1      39.847  32.035  32.712  1.00  0.00     0.167 HD
ATOM     62  C   UNL A   1      40.358  28.704  29.929  1.00  0.00     0.031 A 
ATOM     63  C   UNL A   1      40.441  33.508  35.013  1.00  0.00     0.031 A 
ATOM     64  C   UNL A   1      41.435  28.570  30.872  1.00  0.00     0.049 A 
ATOM     65  C   UNL A   1      41.454  32.397  34.954  1.00  0.00     0.074 A 
ATOM     66  C   UNL A   1      42.456  27.636  30.889  1.00  0.00     0.029 A 
ATOM     67  N   UNL A   1      41.629  29.394  31.970  1.00  0.00    -0.354 N 
ATOM     68  N   UNL A   1      41.587  31.446  34.060  1.00  0.00    -0.248 NA
ATOM     69  C   UNL A   1      42.455  32.355  36.030  1.00  0.00     0.031 C 
ATOM     70  C   UNL A   1      43.237  27.862  32.026  1.00  0.00     0.029 A 
ATOM     71  C   UNL A   1      42.742  28.978  32.681  1.00  0.00     0.049 A 
ATOM     72  H   UNL A   1      41.061  30.162  32.208  1.00  0.00     0.167 HD
ATOM     73  C   UNL A   1      42.700  30.712  34.451  1.00  0.00     0.074 A 
ATOM     74  C   UNL A   1      43.218  31.341  35.648  1.00  0.00     0.031 C 
ATOM     75  C   UNL A   1      43.246  29.615  33.870  1.00  0.00     0.031 A 
BRANCH  62  76
ATOM     76  C   UNL A   1      40.260  27.705  28.808  1.00  0.00    -0.014 A 
ATOM     77  C   UNL A   1      40.873  27.947  27.567  1.00  0.00     0.009 A 
ATOM     78  C   UNL A   1      39.581  26.493  29.003  1.00  0.00     0.009 A 
ATOM     79  C   UNL A   1      40.778  27.012  26.535  1.00  0.00     0.001 A 
ATOM     80  C   UNL A   1      39.515  25.545  27.979  1.00  0.00     0.001 A 
ATOM     81  C   UNL A   1      40.104  25.809  26.744  1.00  0.00     0.000 A 
ENDBRANCH  62  76
BRANCH  63  82
ATOM     82  C   UNL A   1      40.456  34.486  36.134  1.00  0.00    -0.014 A 
ATOM     83  C   UNL A   1      41.238  35.649  36.062  1.00  0.00     0.009 A 
ATOM     84  C   UNL A   1      39.703  34.249  37.295  1.00  0.00     0.009 A 
ATOM     85  C   UNL A   1      41.294  36.535  37.142  1.00  0.00     0.001 A 
ATOM     86  C   UNL A   1      39.733  35.152  38.359  1.00  0.00     0.001 A 
ATOM     87  C   UNL A   1      40.538  36.287  38.287  1.00  0.00     0.000 A 
ENDBRANCH  63  82
BRANCH  75  88
ATOM     88  C   UNL A   1      44.489  29.048  34.498  1.00  0.00    -0.014 A 
ATOM     89  C   UNL A   1      45.763  29.536  34.169  1.00  0.00     0.009 A 
ATOM     90  C   UNL A   1      44.377  28.036  35.464  1.00  0.00     0.009 A 
ATOM     91  C   UNL A   1      46.902  28.995  34.769  1.00  0.00     0.001 A 
ATOM     92  C   UNL A   1      45.514  27.520  36.087  1.00  0.00     0.001 A 
ATOM     93  C   UNL A   1      46.776  27.992  35.731  1.00  0.00     0.000 A 
ENDBRANCH  75  88
ENDBRANCH  49  50
ENDBRANCH  41  44
ENDBRANCH  39  40
ENDBRANCH  38  39
ENDBRANCH  37  38
ENDBRANCH   1  37
TORSDOF 19
ENDMDL
MODEL 2
REMARK VINA RESULT:     -11.9      1.239      5.673
REMARK SMILES N#Cc1cccnc1N1CC[NH+]([C@@H](C(=O)NCCCCCCNC(=O)c2ccc(-c3c4nc(c(-c5ccccc5)c5ccc([nH]5)c(-c5ccccc5)c5nc(c(-c6ccccc6)c6ccc3[nH]6)C=C5)C=C4)cc2)c2c[nH]c3cc(CO)ccc23)CC1
REMARK SMILES IDX 19 1 18 2 17 3 16 4 14 5 15 6 13 8 12 9 9 10 10 11 86 12
REMARK SMILES IDX 11 13 85 14 8 16 3 17 4 18 5 19 7 20 6 21 2 22 1 23 74 24
REMARK SMILES IDX 75 25 84 26 76 27 77 28 83 29 78 31 82 32 79 33 80 34 81 35
REMARK SMILES IDX 20 37 21 38 22 39 23 40 24 41 25 43 26 44 27 45 73 46 28 47
REMARK SMILES IDX 72 48 29 49 30 50 31 51 66 52 32 53 71 54 65 55 67 56 33 57
REMARK SMILES IDX 70 58 64 59 63 60 34 62 56 63 41 64 55 65 42 66 45 67 54 68
REMARK SMILES IDX 68 69 43 70 44 71 53 73 69 74 46 75 35 76 36 77 40 78 37 79
REMARK SMILES IDX 39 80 38 81 57 82 58 83 62 84 59 85 61 86 60 87 47 88 48 89
REMARK SMILES IDX 52 90 49 91 51 92 50 93
REMARK H PARENT 16 7 12 15 76 30 81 36 23 42 67 61 45 72
REMARK Flexibility Score: inf
ROOT
ATOM      1  C   UNL A   1      31.702  30.019  25.612  1.00  0.00     0.002 C 
ENDROOT
BRANCH   1   2
ATOM      2  C   UNL A   1      31.785  28.999  26.763  1.00  0.00     0.021 C 
BRANCH   2   3
ATOM      3  C   UNL A   1      33.168  28.322  27.014  1.00  0.00     0.116 C 
BRANCH   3   4
ATOM      4  N   UNL A   1      33.660  27.433  25.955  1.00  0.00    -0.351 N 
ATOM      5  C   UNL A   1      33.149  26.554  25.024  1.00  0.00     0.283 C 
ATOM      6  O   UNL A   1      34.014  26.104  24.260  1.00  0.00    -0.268 OA
ATOM      7  H   UNL A   1      34.641  27.478  25.890  1.00  0.00     0.163 HD
BRANCH   5   8
ATOM      8  C   UNL A   1      31.635  26.198  24.861  1.00  0.00     0.307 C 
BRANCH   8   9
ATOM      9  N   UNL A   1      31.138  24.852  25.366  1.00  0.00    -0.318 N 
ATOM     10  N   UNL A   1      33.158  22.687  25.262  1.00  0.00    -0.344 N 
ATOM     11  C   UNL A   1      32.462  23.133  24.050  1.00  0.00     0.179 C 
ATOM     12  C   UNL A   1      33.170  23.677  26.348  1.00  0.00     0.179 C 
ATOM     13  C   UNL A   1      31.091  23.677  24.473  1.00  0.00     0.284 C 
ATOM     14  C   UNL A   1      31.780  24.336  26.575  1.00  0.00     0.284 C 
ATOM     15  H   UNL A   1      30.187  25.193  25.510  1.00  0.00     0.349 HD
BRANCH  10  16
ATOM     16  C   UNL A   1      34.395  22.071  25.063  1.00  0.00     0.146 A 
ATOM     17  C   UNL A   1      34.513  20.676  25.072  1.00  0.00     0.095 A 
ATOM     18  C   UNL A   1      35.778  20.095  24.977  1.00  0.00     0.025 A 
ATOM     19  C   UNL A   1      36.898  20.911  24.875  1.00  0.00     0.022 A 
ATOM     20  N   UNL A   1      35.488  22.863  24.927  1.00  0.00    -0.238 NA
ATOM     21  C   UNL A   1      36.704  22.278  24.851  1.00  0.00     0.113 A 
BRANCH  17  22
ATOM     22  C   UNL A   1      33.354  19.828  25.195  1.00  0.00     0.103 C 
ATOM     23  N   UNL A   1      32.470  19.103  25.300  1.00  0.00    -0.192 NA
ENDBRANCH  17  22
ENDBRANCH  10  16
ENDBRANCH   8   9
BRANCH   8  24
ATOM     24  C   UNL A   1      31.042  26.504  23.435  1.00  0.00     0.044 A 
ATOM     25  C   UNL A   1      31.811  26.545  22.274  1.00  0.00     0.094 A 
ATOM     26  C   UNL A   1      29.957  27.392  23.074  1.00  0.00     0.009 A 
ATOM     27  N   UNL A   1      31.791  27.882  21.932  1.00  0.00    -0.361 N 
ATOM     28  C   UNL A   1      30.595  28.415  22.360  1.00  0.00     0.046 A 
ATOM     29  C   UNL A   1      28.616  27.603  23.450  1.00  0.00     0.011 A 
ATOM     30  H   UNL A   1      32.507  28.370  21.464  1.00  0.00     0.166 HD
ATOM     31  C   UNL A   1      30.108  29.730  22.332  1.00  0.00     0.032 A 
ATOM     32  C   UNL A   1      28.056  28.880  23.298  1.00  0.00     0.007 A 
ATOM     33  C   UNL A   1      28.849  29.965  22.907  1.00  0.00    -0.021 A 
BRANCH  33  34
ATOM     34  C   UNL A   1      28.394  31.376  23.192  1.00  0.00     0.191 C 
BRANCH  34  35
ATOM     35  O   UNL A   1      27.035  31.403  23.636  1.00  0.00    -0.392 OA
ATOM     36  H   UNL A   1      26.960  31.984  24.409  1.00  0.00     0.211 HD
ENDBRANCH  34  35
ENDBRANCH  33  34
ENDBRANCH   8  24
ENDBRANCH   5   8
ENDBRANCH   3   4
ENDBRANCH   2   3
ENDBRANCH   1   2
BRANCH   1  37
ATOM     37  C   UNL A   1      30.955  31.310  25.954  1.00  0.00     0.002 C 
BRANCH  37  38
ATOM     38  C   UNL A   1      31.457  32.054  27.195  1.00  0.00     0.021 C 
BRANCH  38  39
ATOM     39  C   UNL A   1      32.589  33.047  26.944  1.00  0.00     0.116 C 
BRANCH  39  40
ATOM     40  N   UNL A   1      32.453  34.243  27.765  1.00  0.00    -0.352 N 
ATOM     41  C   UNL A   1      33.184  34.611  28.871  1.00  0.00     0.251 C 
ATOM     42  H   UNL A   1      31.746  34.871  27.492  1.00  0.00     0.163 HD
ATOM     43  O   UNL A   1      32.798  35.513  29.607  1.00  0.00    -0.269 OA
BRANCH  41  44
ATOM     44  C   UNL A   1      34.441  33.897  29.177  1.00  0.00     0.039 A 
ATOM     45  C   UNL A   1      35.592  34.183  28.439  1.00  0.00     0.014 A 
ATOM     46  C   UNL A   1      34.479  32.950  30.205  1.00  0.00     0.014 A 
ATOM     47  C   UNL A   1      36.797  33.557  28.771  1.00  0.00     0.010 A 
ATOM     48  C   UNL A   1      35.693  32.385  30.581  1.00  0.00     0.010 A 
ATOM     49  C   UNL A   1      36.864  32.677  29.864  1.00  0.00    -0.014 A 
BRANCH  49  50
ATOM     50  C   UNL A   1      38.146  32.041  30.262  1.00  0.00     0.031 A 
ATOM     51  C   UNL A   1      39.078  32.750  31.207  1.00  0.00     0.074 A 
ATOM     52  C   UNL A   1      38.498  30.851  29.736  1.00  0.00     0.049 A 
ATOM     53  N   UNL A   1      40.260  32.381  31.634  1.00  0.00    -0.248 NA
ATOM     54  C   UNL A   1      38.635  34.055  31.725  1.00  0.00     0.031 C 
ATOM     55  C   UNL A   1      37.704  30.078  28.779  1.00  0.00     0.029 A 
ATOM     56  N   UNL A   1      39.622  30.085  29.930  1.00  0.00    -0.354 N 
ATOM     57  C   UNL A   1      40.699  33.406  32.462  1.00  0.00     0.074 A 
ATOM     58  C   UNL A   1      39.687  34.440  32.429  1.00  0.00     0.031 C 
ATOM     59  C   UNL A   1      38.355  28.940  28.486  1.00  0.00     0.029 A 
ATOM     60  C   UNL A   1      39.628  28.921  29.199  1.00  0.00     0.049 A 
ATOM     61  H   UNL A   1      40.354  30.346  30.534  1.00  0.00     0.167 HD
ATOM     62  C   UNL A   1      41.828  33.475  33.206  1.00  0.00     0.031 A 
ATOM     63  C   UNL A   1      40.558  27.952  29.105  1.00  0.00     0.031 A 
ATOM     64  C   UNL A   1      42.839  32.452  33.236  1.00  0.00     0.049 A 
ATOM     65  C   UNL A   1      41.822  28.066  29.914  1.00  0.00     0.074 A 
ATOM     66  C   UNL A   1      44.006  32.413  33.980  1.00  0.00     0.029 A 
ATOM     67  N   UNL A   1      42.804  31.287  32.485  1.00  0.00    -0.354 N 
ATOM     68  N   UNL A   1      42.191  29.015  30.741  1.00  0.00    -0.248 NA
ATOM     69  C   UNL A   1      42.791  26.968  29.787  1.00  0.00     0.031 C 
ATOM     70  C   UNL A   1      44.703  31.250  33.640  1.00  0.00     0.029 A 
ATOM     71  C   UNL A   1      43.939  30.532  32.734  1.00  0.00     0.049 A 
ATOM     72  H   UNL A   1      42.081  31.033  31.868  1.00  0.00     0.167 HD
ATOM     73  C   UNL A   1      43.418  28.614  31.254  1.00  0.00     0.074 A 
ATOM     74  C   UNL A   1      43.720  27.327  30.661  1.00  0.00     0.031 C 
ATOM     75  C   UNL A   1      44.225  29.253  32.137  1.00  0.00     0.031 A 
BRANCH  62  76
ATOM     76  C   UNL A   1      42.027  34.703  34.052  1.00  0.00    -0.014 A 
ATOM     77  C   UNL A   1      41.595  34.739  35.389  1.00  0.00     0.009 A 
ATOM     78  C   UNL A   1      42.687  35.823  33.524  1.00  0.00     0.009 A 
ATOM     79  C   UNL A   1      41.788  35.882  36.166  1.00  0.00     0.001 A 
ATOM     80  C   UNL A   1      42.907  36.953  34.313  1.00  0.00     0.001 A 
ATOM     81  C   UNL A   1      42.449  36.986  35.629  1.00  0.00     0.000 A 
ENDBRANCH  62  76
BRANCH  63  82
ATOM     82  C   UNL A   1      40.339  26.787  28.205  1.00  0.00    -0.014 A 
ATOM     83  C   UNL A   1      40.767  26.820  26.869  1.00  0.00     0.009 A 
ATOM     84  C   UNL A   1      39.678  25.641  28.674  1.00  0.00     0.009 A 
ATOM     85  C   UNL A   1      40.506  25.746  26.013  1.00  0.00     0.001 A 
ATOM     86  C   UNL A   1      39.448  24.555  27.827  1.00  0.00     0.001 A 
ATOM     87  C   UNL A   1      39.851  24.614  26.494  1.00  0.00     0.000 A 
ENDBRANCH  63  82
BRANCH  75  88
ATOM     88  C   UNL A   1      45.491  28.554  32.546  1.00  0.00    -0.014 A 
ATOM     89  C   UNL A   1      45.518  27.662  33.629  1.00  0.00     0.009 A 
ATOM     90  C   UNL A   1      46.667  28.765  31.809  1.00  0.00     0.009 A 
ATOM     91  C   UNL A   1      46.708  27.023  33.986  1.00  0.00     0.001 A 
ATOM     92  C   UNL A   1      47.846  28.100  32.147  1.00  0.00     0.001 A 
ATOM     93  C   UNL A   1      47.868  27.237  33.242  1.00  0.00     0.000 A 
ENDBRANCH  75  88
ENDBRANCH  49  50
ENDBRANCH  41  44
ENDBRANCH  39  40
ENDBRANCH  38  39
ENDBRANCH  37  38
ENDBRANCH   1  37
TORSDOF 19
ENDMDL
MODEL 3
REMARK VINA RESULT:     -11.4      3.786      9.615
REMARK SMILES N#Cc1cccnc1N1CC[NH+]([C@@H](C(=O)NCCCCCCNC(=O)c2ccc(-c3c4nc(c(-c5ccccc5)c5ccc([nH]5)c(-c5ccccc5)c5nc(c(-c6ccccc6)c6ccc3[nH]6)C=C5)C=C4)cc2)c2c[nH]c3cc(CO)ccc23)CC1
REMARK SMILES IDX 19 1 18 2 17 3 16 4 14 5 15 6 13 8 12 9 9 10 10 11 86 12
REMARK SMILES IDX 11 13 85 14 8 16 3 17 4 18 5 19 7 20 6 21 2 22 1 23 74 24
REMARK SMILES IDX 75 25 84 26 76 27 77 28 83 29 78 31 82 32 79 33 80 34 81 35
REMARK SMILES IDX 20 37 21 38 22 39 23 40 24 41 25 43 26 44 27 45 73 46 28 47
REMARK SMILES IDX 72 48 29 49 30 50 31 51 66 52 32 53 71 54 65 55 67 56 33 57
REMARK SMILES IDX 70 58 64 59 63 60 34 62 56 63 41 64 55 65 42 66 45 67 54 68
REMARK SMILES IDX 68 69 43 70 44 71 53 73 69 74 46 75 35 76 36 77 40 78 37 79
REMARK SMILES IDX 39 80 38 81 57 82 58 83 62 84 59 85 61 86 60 87 47 88 48 89
REMARK SMILES IDX 52 90 49 91 51 92 50 93
REMARK H PARENT 16 7 12 15 76 30 81 36 23 42 67 61 45 72
REMARK Flexibility Score: inf
ROOT
ATOM      1  C   UNL A   1      38.475  23.603  25.997  1.00  0.00     0.002 C 
ENDROOT
BRANCH   1   2
ATOM      2  C   UNL A   1      36.979  23.257  26.120  1.00  0.00     0.021 C 
BRANCH   2   3
ATOM      3  C   UNL A   1      36.453  22.064  25.265  1.00  0.00     0.116 C 
BRANCH   3   4
ATOM      4  N   UNL A   1      35.777  22.411  24.009  1.00  0.00    -0.351 N 
ATOM      5  C   UNL A   1      34.569  22.931  23.596  1.00  0.00     0.283 C 
ATOM      6  O   UNL A   1      34.522  23.130  22.374  1.00  0.00    -0.268 OA
ATOM      7  H   UNL A   1      36.356  22.217  23.236  1.00  0.00     0.163 HD
BRANCH   5   8
ATOM      8  C   UNL A   1      33.388  23.320  24.543  1.00  0.00     0.307 C 
BRANCH   8   9
ATOM      9  N   UNL A   1      33.593  24.439  25.553  1.00  0.00    -0.318 N 
ATOM     10  N   UNL A   1      32.117  26.931  24.929  1.00  0.00    -0.344 N 
ATOM     11  C   UNL A   1      33.347  26.579  24.211  1.00  0.00     0.179 C 
ATOM     12  C   UNL A   1      31.436  25.788  25.553  1.00  0.00     0.179 C 
ATOM     13  C   UNL A   1      34.205  25.721  25.150  1.00  0.00     0.284 C 
ATOM     14  C   UNL A   1      32.413  24.849  26.314  1.00  0.00     0.284 C 
ATOM     15  H   UNL A   1      34.275  23.905  26.092  1.00  0.00     0.349 HD
BRANCH  10  16
ATOM     16  C   UNL A   1      31.247  27.795  24.260  1.00  0.00     0.146 A 
ATOM     17  C   UNL A   1      31.226  29.164  24.556  1.00  0.00     0.095 A 
ATOM     18  C   UNL A   1      30.272  29.980  23.947  1.00  0.00     0.025 A 
ATOM     19  C   UNL A   1      29.361  29.422  23.060  1.00  0.00     0.022 A 
ATOM     20  N   UNL A   1      30.379  27.260  23.366  1.00  0.00    -0.238 NA
ATOM     21  C   UNL A   1      29.455  28.069  22.801  1.00  0.00     0.113 A 
BRANCH  17  22
ATOM     22  C   UNL A   1      32.159  29.742  25.488  1.00  0.00     0.103 C 
ATOM     23  N   UNL A   1      32.908  30.148  26.259  1.00  0.00    -0.192 NA
ENDBRANCH  17  22
ENDBRANCH  10  16
ENDBRANCH   8   9
BRANCH   8  24
ATOM     24  C   UNL A   1      32.662  22.096  25.217  1.00  0.00     0.044 A 
ATOM     25  C   UNL A   1      32.683  21.848  26.588  1.00  0.00     0.094 A 
ATOM     26  C   UNL A   1      32.470  20.757  24.702  1.00  0.00     0.009 A 
ATOM     27  N   UNL A   1      33.450  20.706  26.688  1.00  0.00    -0.361 N 
ATOM     28  C   UNL A   1      33.268  19.966  25.539  1.00  0.00     0.046 A 
ATOM     29  C   UNL A   1      31.959  20.153  23.537  1.00  0.00     0.011 A 
ATOM     30  H   UNL A   1      34.028  20.462  27.448  1.00  0.00     0.166 HD
ATOM     31  C   UNL A   1      33.866  18.774  25.105  1.00  0.00     0.032 A 
ATOM     32  C   UNL A   1      32.436  18.891  23.154  1.00  0.00     0.007 A 
ATOM     33  C   UNL A   1      33.501  18.293  23.838  1.00  0.00    -0.021 A 
BRANCH  33  34
ATOM     34  C   UNL A   1      34.310  17.206  23.174  1.00  0.00     0.191 C 
BRANCH  34  35
ATOM     35  O   UNL A   1      33.963  15.916  23.683  1.00  0.00    -0.392 OA
ATOM     36  H   UNL A   1      32.998  15.834  23.725  1.00  0.00     0.211 HD
ENDBRANCH  34  35
ENDBRANCH  33  34
ENDBRANCH   8  24
ENDBRANCH   5   8
ENDBRANCH   3   4
ENDBRANCH   2   3
ENDBRANCH   1   2
BRANCH   1  37
ATOM     37  C   UNL A   1      39.417  22.637  26.717  1.00  0.00     0.002 C 
BRANCH  37  38
ATOM     38  C   UNL A   1      39.761  21.356  25.950  1.00  0.00     0.021 C 
BRANCH  38  39
ATOM     39  C   UNL A   1      40.490  20.288  26.763  1.00  0.00     0.116 C 
BRANCH  39  40
ATOM     40  N   UNL A   1      41.699  19.829  26.093  1.00  0.00    -0.352 N 
ATOM     41  C   UNL A   1      42.809  20.558  25.732  1.00  0.00     0.251 C 
ATOM     42  H   UNL A   1      41.727  18.871  25.870  1.00  0.00     0.163 HD
ATOM     43  O   UNL A   1      43.638  20.097  24.956  1.00  0.00    -0.269 OA
BRANCH  41  44
ATOM     44  C   UNL A   1      42.990  21.918  26.282  1.00  0.00     0.039 A 
ATOM     45  C   UNL A   1      43.111  23.002  25.411  1.00  0.00     0.014 A 
ATOM     46  C   UNL A   1      43.028  22.115  27.666  1.00  0.00     0.014 A 
ATOM     47  C   UNL A   1      43.215  24.295  25.932  1.00  0.00     0.010 A 
ATOM     48  C   UNL A   1      43.057  23.407  28.180  1.00  0.00     0.010 A 
ATOM     49  C   UNL A   1      43.158  24.511  27.320  1.00  0.00    -0.014 A 
BRANCH  49  50
ATOM     50  C   UNL A   1      43.217  25.883  27.888  1.00  0.00     0.031 A 
ATOM     51  C   UNL A   1      44.532  26.453  28.346  1.00  0.00     0.074 A 
ATOM     52  C   UNL A   1      42.083  26.596  28.042  1.00  0.00     0.049 A 
ATOM     53  N   UNL A   1      44.779  27.608  28.911  1.00  0.00    -0.248 NA
ATOM     54  C   UNL A   1      45.723  25.607  28.164  1.00  0.00     0.031 C 
ATOM     55  C   UNL A   1      40.740  26.143  27.677  1.00  0.00     0.029 A 
ATOM     56  N   UNL A   1      41.882  27.855  28.553  1.00  0.00    -0.354 N 
ATOM     57  C   UNL A   1      46.147  27.624  29.154  1.00  0.00     0.074 A 
ATOM     58  C   UNL A   1      46.666  26.340  28.735  1.00  0.00     0.031 C 
ATOM     59  C   UNL A   1      39.857  27.117  27.955  1.00  0.00     0.029 A 
ATOM     60  C   UNL A   1      40.563  28.244  28.556  1.00  0.00     0.049 A 
ATOM     61  H   UNL A   1      42.613  28.424  28.886  1.00  0.00     0.167 HD
ATOM     62  C   UNL A   1      46.910  28.623  29.656  1.00  0.00     0.031 A 
ATOM     63  C   UNL A   1      39.987  29.376  29.002  1.00  0.00     0.031 A 
ATOM     64  C   UNL A   1      46.396  29.898  30.080  1.00  0.00     0.049 A 
ATOM     65  C   UNL A   1      40.851  30.458  29.589  1.00  0.00     0.074 A 
ATOM     66  C   UNL A   1      47.091  30.987  30.575  1.00  0.00     0.029 A 
ATOM     67  N   UNL A   1      45.056  30.253  30.062  1.00  0.00    -0.354 N 
ATOM     68  N   UNL A   1      42.152  30.480  29.752  1.00  0.00    -0.248 NA
ATOM     69  C   UNL A   1      40.168  31.680  30.039  1.00  0.00     0.031 C 
ATOM     70  C   UNL A   1      46.167  31.982  30.906  1.00  0.00     0.029 A 
ATOM     71  C   UNL A   1      44.903  31.538  30.556  1.00  0.00     0.049 A 
ATOM     72  H   UNL A   1      44.323  29.678  29.745  1.00  0.00     0.167 HD
ATOM     73  C   UNL A   1      42.445  31.724  30.296  1.00  0.00     0.074 A 
ATOM     74  C   UNL A   1      41.189  32.436  30.414  1.00  0.00     0.031 C 
ATOM     75  C   UNL A   1      43.646  32.233  30.666  1.00  0.00     0.031 A 
BRANCH  62  76
ATOM     76  C   UNL A   1      48.390  28.374  29.772  1.00  0.00    -0.014 A 
ATOM     77  C   UNL A   1      48.941  27.819  30.940  1.00  0.00     0.009 A 
ATOM     78  C   UNL A   1      49.239  28.660  28.692  1.00  0.00     0.009 A 
ATOM     79  C   UNL A   1      50.314  27.589  31.035  1.00  0.00     0.001 A 
ATOM     80  C   UNL A   1      50.608  28.399  28.779  1.00  0.00     0.001 A 
ATOM     81  C   UNL A   1      51.146  27.874  29.953  1.00  0.00     0.000 A 
ENDBRANCH  62  76
BRANCH  63  82
ATOM     82  C   UNL A   1      38.510  29.547  28.920  1.00  0.00    -0.014 A 
ATOM     83  C   UNL A   1      37.696  29.309  30.038  1.00  0.00     0.009 A 
ATOM     84  C   UNL A   1      37.905  29.929  27.712  1.00  0.00     0.009 A 
ATOM     85  C   UNL A   1      36.306  29.415  29.939  1.00  0.00     0.001 A 
ATOM     86  C   UNL A   1      36.519  30.068  27.624  1.00  0.00     0.001 A 
ATOM     87  C   UNL A   1      35.720  29.797  28.733  1.00  0.00     0.000 A 
ENDBRANCH  63  82
BRANCH  75  88
ATOM     88  C   UNL A   1      43.667  33.640  31.195  1.00  0.00    -0.014 A 
ATOM     89  C   UNL A   1      43.449  33.915  32.554  1.00  0.00     0.009 A 
ATOM     90  C   UNL A   1      43.948  34.703  30.323  1.00  0.00     0.009 A 
ATOM     91  C   UNL A   1      43.476  35.231  33.020  1.00  0.00     0.001 A 
ATOM     92  C   UNL A   1      44.009  36.014  30.798  1.00  0.00     0.001 A 
ATOM     93  C   UNL A   1      43.762  36.278  32.143  1.00  0.00     0.000 A 
ENDBRANCH  75  88
ENDBRANCH  49  50
ENDBRANCH  41  44
ENDBRANCH  39  40
ENDBRANCH  38  39
ENDBRANCH  37  38
ENDBRANCH   1  37
TORSDOF 19
ENDMDL
