MODEL 1
REMARK VINA RESULT:     -11.3      0.000      0.000
REMARK SMILES C[C@@H]1[NH2+]CC[C@H]1C(=O)N[C@@H]1CCC[C@H](C(=O)NCCCCCCNC(=O)c2ccc(-c3c4nc(c(-c5ccccc5)c5ccc([nH]5)c(-c5ccccc5)c5nc(c(-c6ccccc6)c6ccc3[nH]6)C=C5)C=C4)cc2)C1
REMARK SMILES IDX 20 1 19 2 18 3 17 4 15 5 16 6 14 8 10 9 11 10 75 11 12 12
REMARK SMILES IDX 13 13 9 14 7 15 8 16 6 18 1 19 2 20 3 21 4 22 5 25 21 26
REMARK SMILES IDX 22 27 23 28 24 29 25 30 26 32 27 33 28 34 74 35 29 36 73 37
REMARK SMILES IDX 30 38 31 39 32 40 67 41 33 42 72 43 66 44 68 45 34 46 71 47
REMARK SMILES IDX 65 48 64 49 35 51 57 52 42 53 56 54 43 55 46 56 55 57 69 58
REMARK SMILES IDX 44 59 45 60 54 62 70 63 47 64 36 65 37 66 41 67 38 68 40 69
REMARK SMILES IDX 39 70 58 71 59 72 63 73 60 74 62 75 61 76 48 77 49 78 53 79
REMARK SMILES IDX 50 80 52 81 51 82
REMARK H PARENT 17 7 9 17 3 23 3 24 24 31 68 50 46 61
REMARK Flexibility Score: inf
ROOT
ATOM      1  C   UNL A   1      34.147  32.475  28.419  1.00  0.00     0.002 C 
ENDROOT
BRANCH   1   2
ATOM      2  C   UNL A   1      35.371  31.729  27.878  1.00  0.00     0.021 C 
BRANCH   2   3
ATOM      3  C   UNL A   1      35.130  30.244  27.640  1.00  0.00     0.116 C 
BRANCH   3   4
ATOM      4  N   UNL A   1      33.717  29.912  27.756  1.00  0.00    -0.356 N 
ATOM      5  C   UNL A   1      32.857  29.302  26.893  1.00  0.00     0.223 C 
ATOM      6  O   UNL A   1      31.684  29.179  27.250  1.00  0.00    -0.275 OA
ATOM      7  H   UNL A   1      33.311  30.177  28.612  1.00  0.00     0.163 HD
BRANCH   5   8
ATOM      8  C   UNL A   1      33.324  28.707  25.567  1.00  0.00     0.080 C 
ATOM      9  C   UNL A   1      32.677  28.840  23.040  1.00  0.00     0.082 C 
ATOM     10  C   UNL A   1      32.584  27.302  23.092  1.00  0.00     0.025 C 
ATOM     11  C   UNL A   1      32.589  29.419  24.436  1.00  0.00     0.038 C 
ATOM     12  C   UNL A   1      33.533  26.673  24.107  1.00  0.00     0.003 C 
ATOM     13  C   UNL A   1      33.270  27.185  25.518  1.00  0.00     0.013 C 
BRANCH   9  14
ATOM     14  N   UNL A   1      31.623  29.326  22.116  1.00  0.00    -0.353 N 
ATOM     15  C   UNL A   1      30.288  29.562  22.100  1.00  0.00     0.229 C 
ATOM     16  O   UNL A   1      29.884  30.122  21.070  1.00  0.00    -0.275 OA
ATOM     17  H   UNL A   1      32.015  29.545  21.240  1.00  0.00     0.163 HD
BRANCH  15  18
ATOM     18  C   UNL A   1      29.252  29.169  23.151  1.00  0.00     0.142 C 
ATOM     19  C   UNL A   1      27.435  30.865  23.738  1.00  0.00     0.076 C 
ATOM     20  C   UNL A   1      27.843  29.679  22.866  1.00  0.00     0.192 C 
ATOM     21  N   UNL A   1      26.906  28.579  23.125  1.00  0.00    -0.343 N 
ATOM     22  C   UNL A   1      27.652  27.423  23.625  1.00  0.00     0.261 C 
ATOM     23  H   UNL A   1      26.426  28.328  22.262  1.00  0.00     0.346 HD
ATOM     24  H   UNL A   1      26.219  28.871  23.821  1.00  0.00     0.346 HD
ATOM     25  C   UNL A   1      29.139  27.693  23.463  1.00  0.00     0.081 C 
ENDBRANCH  15  18
ENDBRANCH   9  14
ENDBRANCH   5   8
ENDBRANCH   3   4
ENDBRANCH   2   3
ENDBRANCH   1   2
BRANCH   1  26
ATOM     26  C   UNL A   1      34.372  33.957  28.744  1.00  0.00     0.002 C 
BRANCH  26  27
ATOM     27  C   UNL A   1      33.109  34.819  28.816  1.00  0.00     0.021 C 
BRANCH  27  28
ATOM     28  C   UNL A   1      33.276  36.158  29.527  1.00  0.00     0.116 C 
BRANCH  28  29
ATOM     29  N   UNL A   1      32.427  36.281  30.698  1.00  0.00    -0.352 N 
ATOM     30  C   UNL A   1      32.575  35.722  31.939  1.00  0.00     0.251 C 
ATOM     31  H   UNL A   1      31.629  36.846  30.583  1.00  0.00     0.163 HD
ATOM     32  O   UNL A   1      31.670  35.831  32.771  1.00  0.00    -0.269 OA
BRANCH  30  33
ATOM     33  C   UNL A   1      33.799  34.971  32.290  1.00  0.00     0.039 A 
ATOM     34  C   UNL A   1      35.021  35.651  32.301  1.00  0.00     0.014 A 
ATOM     35  C   UNL A   1      33.762  33.600  32.565  1.00  0.00     0.014 A 
ATOM     36  C   UNL A   1      36.198  34.965  32.609  1.00  0.00     0.010 A 
ATOM     37  C   UNL A   1      34.926  32.934  32.944  1.00  0.00     0.010 A 
ATOM     38  C   UNL A   1      36.158  33.604  32.947  1.00  0.00    -0.014 A 
BRANCH  38  39
ATOM     39  C   UNL A   1      37.407  32.859  33.252  1.00  0.00     0.031 A 
ATOM     40  C   UNL A   1      38.145  33.120  34.538  1.00  0.00     0.074 A 
ATOM     41  C   UNL A   1      37.893  31.971  32.364  1.00  0.00     0.049 A 
ATOM     42  N   UNL A   1      39.250  32.575  34.982  1.00  0.00    -0.248 NA
ATOM     43  C   UNL A   1      37.581  34.144  35.432  1.00  0.00     0.031 C 
ATOM     44  C   UNL A   1      37.296  31.655  31.066  1.00  0.00     0.029 A 
ATOM     45  N   UNL A   1      39.004  31.168  32.425  1.00  0.00    -0.354 N 
ATOM     46  C   UNL A   1      39.521  33.203  36.191  1.00  0.00     0.074 A 
ATOM     47  C   UNL A   1      38.497  34.204  36.387  1.00  0.00     0.031 C 
ATOM     48  C   UNL A   1      38.027  30.699  30.468  1.00  0.00     0.029 A 
ATOM     49  C   UNL A   1      39.158  30.359  31.325  1.00  0.00     0.049 A 
ATOM     50  H   UNL A   1      39.630  31.170  33.185  1.00  0.00     0.167 HD
ATOM     51  C   UNL A   1      40.519  32.956  37.073  1.00  0.00     0.031 A 
ATOM     52  C   UNL A   1      40.102  29.441  31.043  1.00  0.00     0.031 A 
ATOM     53  C   UNL A   1      41.527  31.946  36.890  1.00  0.00     0.049 A 
ATOM     54  C   UNL A   1      41.194  29.177  32.042  1.00  0.00     0.074 A 
ATOM     55  C   UNL A   1      42.547  31.579  37.751  1.00  0.00     0.029 A 
ATOM     56  N   UNL A   1      41.640  31.140  35.769  1.00  0.00    -0.354 N 
ATOM     57  N   UNL A   1      41.397  29.732  33.212  1.00  0.00    -0.248 NA
ATOM     58  C   UNL A   1      42.176  28.143  31.687  1.00  0.00     0.031 C 
ATOM     59  C   UNL A   1      43.304  30.579  37.130  1.00  0.00     0.029 A 
ATOM     60  C   UNL A   1      42.722  30.287  35.907  1.00  0.00     0.049 A 
ATOM     61  H   UNL A   1      41.040  31.169  34.989  1.00  0.00     0.167 HD
ATOM     62  C   UNL A   1      42.506  29.090  33.748  1.00  0.00     0.074 A 
ATOM     63  C   UNL A   1      42.923  28.096  32.780  1.00  0.00     0.031 C 
ATOM     64  C   UNL A   1      43.122  29.301  34.937  1.00  0.00     0.031 A 
BRANCH  51  65
ATOM     65  C   UNL A   1      40.569  33.800  38.316  1.00  0.00    -0.014 A 
ATOM     66  C   UNL A   1      41.322  34.984  38.364  1.00  0.00     0.009 A 
ATOM     67  C   UNL A   1      39.831  33.420  39.448  1.00  0.00     0.009 A 
ATOM     68  C   UNL A   1      41.369  35.747  39.532  1.00  0.00     0.001 A 
ATOM     69  C   UNL A   1      39.856  34.200  40.605  1.00  0.00     0.001 A 
ATOM     70  C   UNL A   1      40.633  35.357  40.650  1.00  0.00     0.000 A 
ENDBRANCH  51  65
BRANCH  52  71
ATOM     71  C   UNL A   1      40.039  28.674  29.771  1.00  0.00    -0.014 A 
ATOM     72  C   UNL A   1      40.663  29.166  28.615  1.00  0.00     0.009 A 
ATOM     73  C   UNL A   1      39.348  27.455  29.704  1.00  0.00     0.009 A 
ATOM     74  C   UNL A   1      40.570  28.466  27.409  1.00  0.00     0.001 A 
ATOM     75  C   UNL A   1      39.281  26.743  28.504  1.00  0.00     0.001 A 
ATOM     76  C   UNL A   1      39.883  27.255  27.356  1.00  0.00     0.000 A 
ENDBRANCH  52  71
BRANCH  64  77
ATOM     77  C   UNL A   1      44.282  28.408  35.277  1.00  0.00    -0.014 A 
ATOM     78  C   UNL A   1      45.591  28.728  34.885  1.00  0.00     0.009 A 
ATOM     79  C   UNL A   1      44.061  27.243  36.028  1.00  0.00     0.009 A 
ATOM     80  C   UNL A   1      46.651  27.876  35.205  1.00  0.00     0.001 A 
ATOM     81  C   UNL A   1      45.125  26.410  36.372  1.00  0.00     0.001 A 
ATOM     82  C   UNL A   1      46.417  26.721  35.951  1.00  0.00     0.000 A 
ENDBRANCH  64  77
ENDBRANCH  38  39
ENDBRANCH  30  33
ENDBRANCH  28  29
ENDBRANCH  27  28
ENDBRANCH  26  27
ENDBRANCH   1  26
TORSDOF 15
ENDMDL
MODEL 2
REMARK VINA RESULT:     -11.2      0.379      5.937
REMARK SMILES C[C@@H]1[NH2+]CC[C@H]1C(=O)N[C@@H]1CCC[C@H](C(=O)NCCCCCCNC(=O)c2ccc(-c3c4nc(c(-c5ccccc5)c5ccc([nH]5)c(-c5ccccc5)c5nc(c(-c6ccccc6)c6ccc3[nH]6)C=C5)C=C4)cc2)C1
REMARK SMILES IDX 20 1 19 2 18 3 17 4 15 5 16 6 14 8 10 9 11 10 75 11 12 12
REMARK SMILES IDX 13 13 9 14 7 15 8 16 6 18 1 19 2 20 3 21 4 22 5 25 21 26
REMARK SMILES IDX 22 27 23 28 24 29 25 30 26 32 27 33 28 34 74 35 29 36 73 37
REMARK SMILES IDX 30 38 31 39 32 40 67 41 33 42 72 43 66 44 68 45 34 46 71 47
REMARK SMILES IDX 65 48 64 49 35 51 57 52 42 53 56 54 43 55 46 56 55 57 69 58
REMARK SMILES IDX 44 59 45 60 54 62 70 63 47 64 36 65 37 66 41 67 38 68 40 69
REMARK SMILES IDX 39 70 58 71 59 72 63 73 60 74 62 75 61 76 48 77 49 78 53 79
REMARK SMILES IDX 50 80 52 81 51 82
REMARK H PARENT 17 7 9 17 3 23 3 24 24 31 68 50 46 61
REMARK Flexibility Score: inf
ROOT
ATOM      1  C   UNL A   1      34.163  32.381  28.380  1.00  0.00     0.002 C 
ENDROOT
BRANCH   1   2
ATOM      2  C   UNL A   1      35.402  31.631  27.881  1.00  0.00     0.021 C 
BRANCH   2   3
ATOM      3  C   UNL A   1      35.182  30.135  27.697  1.00  0.00     0.116 C 
BRANCH   3   4
ATOM      4  N   UNL A   1      33.774  29.788  27.822  1.00  0.00    -0.356 N 
ATOM      5  C   UNL A   1      32.915  29.170  26.965  1.00  0.00     0.223 C 
ATOM      6  O   UNL A   1      31.745  29.033  27.330  1.00  0.00    -0.275 OA
ATOM      7  H   UNL A   1      33.371  30.048  28.681  1.00  0.00     0.163 HD
BRANCH   5   8
ATOM      8  C   UNL A   1      33.379  28.580  25.636  1.00  0.00     0.080 C 
ATOM      9  C   UNL A   1      32.763  28.767  23.104  1.00  0.00     0.082 C 
ATOM     10  C   UNL A   1      32.627  27.231  23.133  1.00  0.00     0.025 C 
ATOM     11  C   UNL A   1      32.676  29.328  24.507  1.00  0.00     0.038 C 
ATOM     12  C   UNL A   1      33.547  26.562  24.149  1.00  0.00     0.003 C 
ATOM     13  C   UNL A   1      33.283  27.061  25.564  1.00  0.00     0.013 C 
BRANCH   9  14
ATOM     14  N   UNL A   1      31.733  29.294  22.176  1.00  0.00    -0.353 N 
ATOM     15  C   UNL A   1      30.402  29.552  22.143  1.00  0.00     0.229 C 
ATOM     16  O   UNL A   1      30.025  30.147  21.123  1.00  0.00    -0.275 OA
ATOM     17  H   UNL A   1      32.144  29.533  21.314  1.00  0.00     0.163 HD
BRANCH  15  18
ATOM     18  C   UNL A   1      29.342  29.143  23.164  1.00  0.00     0.142 C 
ATOM     19  C   UNL A   1      27.488  30.816  23.702  1.00  0.00     0.076 C 
ATOM     20  C   UNL A   1      27.935  29.636  22.840  1.00  0.00     0.192 C 
ATOM     21  N   UNL A   1      27.006  28.524  23.072  1.00  0.00    -0.343 N 
ATOM     22  C   UNL A   1      27.751  27.377  23.591  1.00  0.00     0.261 C 
ATOM     23  H   UNL A   1      26.553  28.269  22.195  1.00  0.00     0.346 HD
ATOM     24  H   UNL A   1      26.295  28.806  23.747  1.00  0.00     0.346 HD
ATOM     25  C   UNL A   1      29.238  27.665  23.472  1.00  0.00     0.081 C 
ENDBRANCH  15  18
ENDBRANCH   9  14
ENDBRANCH   5   8
ENDBRANCH   3   4
ENDBRANCH   2   3
ENDBRANCH   1   2
BRANCH   1  26
ATOM     26  C   UNL A   1      34.385  33.859  28.725  1.00  0.00     0.002 C 
BRANCH  26  27
ATOM     27  C   UNL A   1      33.120  34.717  28.808  1.00  0.00     0.021 C 
BRANCH  27  28
ATOM     28  C   UNL A   1      33.291  36.060  29.512  1.00  0.00     0.116 C 
BRANCH  28  29
ATOM     29  N   UNL A   1      32.453  36.184  30.692  1.00  0.00    -0.352 N 
ATOM     30  C   UNL A   1      32.634  35.661  31.943  1.00  0.00     0.251 C 
ATOM     31  H   UNL A   1      31.636  36.721  30.574  1.00  0.00     0.163 HD
ATOM     32  O   UNL A   1      31.736  35.763  32.784  1.00  0.00    -0.269 OA
BRANCH  30  33
ATOM     33  C   UNL A   1      33.885  34.958  32.297  1.00  0.00     0.039 A 
ATOM     34  C   UNL A   1      33.807  33.629  32.726  1.00  0.00     0.014 A 
ATOM     35  C   UNL A   1      35.124  35.605  32.252  1.00  0.00     0.014 A 
ATOM     36  C   UNL A   1      34.969  32.944  33.085  1.00  0.00     0.010 A 
ATOM     37  C   UNL A   1      36.290  34.898  32.541  1.00  0.00     0.010 A 
ATOM     38  C   UNL A   1      36.222  33.568  32.984  1.00  0.00    -0.014 A 
BRANCH  38  39
ATOM     39  C   UNL A   1      37.462  32.856  33.387  1.00  0.00     0.031 A 
ATOM     40  C   UNL A   1      38.091  31.852  32.459  1.00  0.00     0.074 A 
ATOM     41  C   UNL A   1      38.006  33.090  34.596  1.00  0.00     0.049 A 
ATOM     42  N   UNL A   1      39.169  31.129  32.633  1.00  0.00    -0.248 NA
ATOM     43  C   UNL A   1      37.408  31.611  31.178  1.00  0.00     0.031 C 
ATOM     44  C   UNL A   1      37.474  34.009  35.604  1.00  0.00     0.029 A 
ATOM     45  N   UNL A   1      39.134  32.572  35.181  1.00  0.00    -0.354 N 
ATOM     46  C   UNL A   1      39.279  30.337  31.496  1.00  0.00     0.074 A 
ATOM     47  C   UNL A   1      38.133  30.629  30.664  1.00  0.00     0.031 C 
ATOM     48  C   UNL A   1      38.295  34.016  36.668  1.00  0.00     0.029 A 
ATOM     49  C   UNL A   1      39.391  33.082  36.431  1.00  0.00     0.049 A 
ATOM     50  H   UNL A   1      39.707  31.900  34.745  1.00  0.00     0.167 HD
ATOM     51  C   UNL A   1      40.256  29.461  31.161  1.00  0.00     0.031 A 
ATOM     52  C   UNL A   1      40.400  32.831  37.286  1.00  0.00     0.031 A 
ATOM     53  C   UNL A   1      41.408  29.184  31.977  1.00  0.00     0.049 A 
ATOM     54  C   UNL A   1      41.478  31.862  36.887  1.00  0.00     0.074 A 
ATOM     55  C   UNL A   1      42.482  28.356  31.701  1.00  0.00     0.029 A 
ATOM     56  N   UNL A   1      41.636  29.731  33.229  1.00  0.00    -0.354 N 
ATOM     57  N   UNL A   1      41.603  31.173  35.778  1.00  0.00    -0.248 NA
ATOM     58  C   UNL A   1      42.567  31.654  37.851  1.00  0.00     0.031 C 
ATOM     59  C   UNL A   1      43.339  28.370  32.806  1.00  0.00     0.029 A 
ATOM     60  C   UNL A   1      42.825  29.248  33.747  1.00  0.00     0.049 A 
ATOM     61  H   UNL A   1      41.040  30.370  33.684  1.00  0.00     0.167 HD
ATOM     62  C   UNL A   1      42.800  30.478  35.898  1.00  0.00     0.074 A 
ATOM     63  C   UNL A   1      43.368  30.839  37.180  1.00  0.00     0.031 C 
ATOM     64  C   UNL A   1      43.379  29.620  35.022  1.00  0.00     0.031 A 
BRANCH  51  65
ATOM     65  C   UNL A   1      40.114  28.734  29.852  1.00  0.00    -0.014 A 
ATOM     66  C   UNL A   1      40.583  29.294  28.653  1.00  0.00     0.009 A 
ATOM     67  C   UNL A   1      39.525  27.460  29.821  1.00  0.00     0.009 A 
ATOM     68  C   UNL A   1      40.428  28.612  27.444  1.00  0.00     0.001 A 
ATOM     69  C   UNL A   1      39.398  26.768  28.616  1.00  0.00     0.001 A 
ATOM     70  C   UNL A   1      39.839  27.348  27.427  1.00  0.00     0.000 A 
ENDBRANCH  51  65
BRANCH  52  71
ATOM     71  C   UNL A   1      40.461  33.534  38.593  1.00  0.00    -0.014 A 
ATOM     72  C   UNL A   1      41.156  34.748  38.714  1.00  0.00     0.009 A 
ATOM     73  C   UNL A   1      39.838  32.993  39.727  1.00  0.00     0.009 A 
ATOM     74  C   UNL A   1      41.249  35.389  39.951  1.00  0.00     0.001 A 
ATOM     75  C   UNL A   1      39.909  33.651  40.957  1.00  0.00     0.001 A 
ATOM     76  C   UNL A   1      40.623  34.843  41.070  1.00  0.00     0.000 A 
ENDBRANCH  52  71
BRANCH  64  77
ATOM     77  C   UNL A   1      44.718  29.052  35.402  1.00  0.00    -0.014 A 
ATOM     78  C   UNL A   1      44.826  27.843  36.106  1.00  0.00     0.009 A 
ATOM     79  C   UNL A   1      45.888  29.727  35.021  1.00  0.00     0.009 A 
ATOM     80  C   UNL A   1      46.083  27.342  36.456  1.00  0.00     0.001 A 
ATOM     81  C   UNL A   1      47.142  29.208  35.346  1.00  0.00     0.001 A 
ATOM     82  C   UNL A   1      47.238  28.022  36.072  1.00  0.00     0.000 A 
ENDBRANCH  64  77
ENDBRANCH  38  39
ENDBRANCH  30  33
ENDBRANCH  28  29
ENDBRANCH  27  28
ENDBRANCH  26  27
ENDBRANCH   1  26
TORSDOF 15
ENDMDL
MODEL 3
REMARK VINA RESULT:     -11.0      7.605     12.573
REMARK SMILES C[C@@H]1[NH2+]CC[C@H]1C(=O)N[C@@H]1CCC[C@H](C(=O)NCCCCCCNC(=O)c2ccc(-c3c4nc(c(-c5ccccc5)c5ccc([nH]5)c(-c5ccccc5)c5nc(c(-c6ccccc6)c6ccc3[nH]6)C=C5)C=C4)cc2)C1
REMARK SMILES IDX 20 1 19 2 18 3 17 4 15 5 16 6 14 8 10 9 11 10 75 11 12 12
REMARK SMILES IDX 13 13 9 14 7 15 8 16 6 18 1 19 2 20 3 21 4 22 5 25 21 26
REMARK SMILES IDX 22 27 23 28 24 29 25 30 26 32 27 33 28 34 74 35 29 36 73 37
REMARK SMILES IDX 30 38 31 39 32 40 67 41 33 42 72 43 66 44 68 45 34 46 71 47
REMARK SMILES IDX 65 48 64 49 35 51 57 52 42 53 56 54 43 55 46 56 55 57 69 58
REMARK SMILES IDX 44 59 45 60 54 62 70 63 47 64 36 65 37 66 41 67 38 68 40 69
REMARK SMILES IDX 39 70 58 71 59 72 63 73 60 74 62 75 61 76 48 77 49 78 53 79
REMARK SMILES IDX 50 80 52 81 51 82
REMARK H PARENT 17 7 9 17 3 23 3 24 24 31 68 50 46 61
REMARK Flexibility Score: inf
ROOT
ATOM      1  C   UNL A   1      40.349  21.272  26.780  1.00  0.00     0.002 C 
ENDROOT
BRANCH   1   2
ATOM      2  C   UNL A   1      40.202  22.725  27.243  1.00  0.00     0.021 C 
BRANCH   2   3
ATOM      3  C   UNL A   1      38.944  23.411  26.727  1.00  0.00     0.116 C 
BRANCH   3   4
ATOM      4  N   UNL A   1      38.499  22.825  25.471  1.00  0.00    -0.356 N 
ATOM      5  C   UNL A   1      37.265  22.451  25.034  1.00  0.00     0.223 C 
ATOM      6  O   UNL A   1      37.186  21.941  23.914  1.00  0.00    -0.275 OA
ATOM      7  H   UNL A   1      39.222  22.670  24.821  1.00  0.00     0.163 HD
BRANCH   5   8
ATOM      8  C   UNL A   1      36.000  22.726  25.844  1.00  0.00     0.080 C 
ATOM      9  C   UNL A   1      33.943  21.394  26.749  1.00  0.00     0.082 C 
ATOM     10  C   UNL A   1      33.078  22.452  26.034  1.00  0.00     0.025 C 
ATOM     11  C   UNL A   1      35.345  21.389  26.178  1.00  0.00     0.038 C 
ATOM     12  C   UNL A   1      33.742  23.822  25.954  1.00  0.00     0.003 C 
ATOM     13  C   UNL A   1      35.075  23.762  25.218  1.00  0.00     0.013 C 
BRANCH   9  14
ATOM     14  N   UNL A   1      33.242  20.091  26.644  1.00  0.00    -0.353 N 
ATOM     15  C   UNL A   1      32.975  19.129  25.728  1.00  0.00     0.229 C 
ATOM     16  O   UNL A   1      32.435  18.116  26.196  1.00  0.00    -0.275 OA
ATOM     17  H   UNL A   1      32.847  19.849  27.512  1.00  0.00     0.163 HD
BRANCH  15  18
ATOM     18  C   UNL A   1      33.201  19.183  24.218  1.00  0.00     0.142 C 
ATOM     19  C   UNL A   1      33.972  17.049  23.044  1.00  0.00     0.076 C 
ATOM     20  C   UNL A   1      32.789  17.915  23.475  1.00  0.00     0.192 C 
ATOM     21  N   UNL A   1      32.056  18.320  22.270  1.00  0.00    -0.343 N 
ATOM     22  C   UNL A   1      32.047  19.780  22.182  1.00  0.00     0.261 C 
ATOM     23  H   UNL A   1      31.099  17.974  22.320  1.00  0.00     0.346 HD
ATOM     24  H   UNL A   1      32.512  17.929  21.444  1.00  0.00     0.346 HD
ATOM     25  C   UNL A   1      32.579  20.352  23.486  1.00  0.00     0.081 C 
ENDBRANCH  15  18
ENDBRANCH   9  14
ENDBRANCH   5   8
ENDBRANCH   3   4
ENDBRANCH   2   3
ENDBRANCH   1   2
BRANCH   1  26
ATOM     26  C   UNL A   1      41.686  20.928  26.111  1.00  0.00     0.002 C 
BRANCH  26  27
ATOM     27  C   UNL A   1      41.892  19.451  25.765  1.00  0.00     0.021 C 
BRANCH  27  28
ATOM     28  C   UNL A   1      43.286  18.905  26.053  1.00  0.00     0.116 C 
BRANCH  28  29
ATOM     29  N   UNL A   1      44.075  18.718  24.848  1.00  0.00    -0.352 N 
ATOM     30  C   UNL A   1      44.777  19.641  24.120  1.00  0.00     0.251 C 
ATOM     31  H   UNL A   1      44.109  17.796  24.505  1.00  0.00     0.163 HD
ATOM     32  O   UNL A   1      45.277  19.315  23.040  1.00  0.00    -0.269 OA
BRANCH  30  33
ATOM     33  C   UNL A   1      44.930  21.029  24.603  1.00  0.00     0.039 A 
ATOM     34  C   UNL A   1      45.494  21.242  25.865  1.00  0.00     0.014 A 
ATOM     35  C   UNL A   1      44.484  22.118  23.847  1.00  0.00     0.014 A 
ATOM     36  C   UNL A   1      45.634  22.541  26.356  1.00  0.00     0.010 A 
ATOM     37  C   UNL A   1      44.691  23.417  24.307  1.00  0.00     0.010 A 
ATOM     38  C   UNL A   1      45.245  23.641  25.576  1.00  0.00    -0.014 A 
BRANCH  38  39
ATOM     39  C   UNL A   1      45.366  25.025  26.100  1.00  0.00     0.031 A 
ATOM     40  C   UNL A   1      46.692  25.737  26.049  1.00  0.00     0.074 A 
ATOM     41  C   UNL A   1      44.296  25.632  26.646  1.00  0.00     0.049 A 
ATOM     42  N   UNL A   1      46.997  26.944  26.458  1.00  0.00    -0.248 NA
ATOM     43  C   UNL A   1      47.828  24.989  25.488  1.00  0.00     0.031 C 
ATOM     44  C   UNL A   1      42.965  25.039  26.791  1.00  0.00     0.029 A 
ATOM     45  N   UNL A   1      44.159  26.890  27.178  1.00  0.00    -0.354 N 
ATOM     46  C   UNL A   1      48.359  27.088  26.222  1.00  0.00     0.074 A 
ATOM     47  C   UNL A   1      48.831  25.831  25.684  1.00  0.00     0.031 C 
ATOM     48  C   UNL A   1      42.138  25.944  27.341  1.00  0.00     0.029 A 
ATOM     49  C   UNL A   1      42.887  27.167  27.615  1.00  0.00     0.049 A 
ATOM     50  H   UNL A   1      44.902  27.533  27.240  1.00  0.00     0.167 HD
ATOM     51  C   UNL A   1      49.145  28.174  26.413  1.00  0.00     0.031 A 
ATOM     52  C   UNL A   1      42.378  28.284  28.168  1.00  0.00     0.031 A 
ATOM     53  C   UNL A   1      48.674  29.432  26.928  1.00  0.00     0.049 A 
ATOM     54  C   UNL A   1      43.268  29.481  28.361  1.00  0.00     0.074 A 
ATOM     55  C   UNL A   1      49.379  30.610  27.106  1.00  0.00     0.029 A 
ATOM     56  N   UNL A   1      47.376  29.675  27.347  1.00  0.00    -0.354 N 
ATOM     57  N   UNL A   1      44.538  29.623  28.068  1.00  0.00    -0.248 NA
ATOM     58  C   UNL A   1      42.645  30.679  28.941  1.00  0.00     0.031 C 
ATOM     59  C   UNL A   1      48.516  31.554  27.673  1.00  0.00     0.029 A 
ATOM     60  C   UNL A   1      47.261  30.979  27.797  1.00  0.00     0.049 A 
ATOM     61  H   UNL A   1      46.643  29.018  27.326  1.00  0.00     0.167 HD
ATOM     62  C   UNL A   1      44.857  30.935  28.396  1.00  0.00     0.074 A 
ATOM     63  C   UNL A   1      43.644  31.549  28.897  1.00  0.00     0.031 C 
ATOM     64  C   UNL A   1      46.047  31.576  28.288  1.00  0.00     0.031 A 
BRANCH  51  65
ATOM     65  C   UNL A   1      50.602  28.043  26.066  1.00  0.00    -0.014 A 
ATOM     66  C   UNL A   1      51.081  28.383  24.790  1.00  0.00     0.009 A 
ATOM     67  C   UNL A   1      51.514  27.598  27.035  1.00  0.00     0.009 A 
ATOM     68  C   UNL A   1      52.434  28.239  24.479  1.00  0.00     0.001 A 
ATOM     69  C   UNL A   1      52.872  27.483  26.732  1.00  0.00     0.001 A 
ATOM     70  C   UNL A   1      53.330  27.793  25.452  1.00  0.00     0.000 A 
ENDBRANCH  51  65
BRANCH  52  71
ATOM     71  C   UNL A   1      40.942  28.341  28.548  1.00  0.00    -0.014 A 
ATOM     72  C   UNL A   1      39.996  28.882  27.664  1.00  0.00     0.009 A 
ATOM     73  C   UNL A   1      40.513  27.867  29.796  1.00  0.00     0.009 A 
ATOM     74  C   UNL A   1      38.652  28.973  28.036  1.00  0.00     0.001 A 
ATOM     75  C   UNL A   1      39.164  27.933  30.154  1.00  0.00     0.001 A 
ATOM     76  C   UNL A   1      38.238  28.496  29.277  1.00  0.00     0.000 A 
ENDBRANCH  52  71
BRANCH  64  77
ATOM     77  C   UNL A   1      46.081  33.028  28.675  1.00  0.00    -0.014 A 
ATOM     78  C   UNL A   1      45.771  34.039  27.752  1.00  0.00     0.009 A 
ATOM     79  C   UNL A   1      46.401  33.384  29.994  1.00  0.00     0.009 A 
ATOM     80  C   UNL A   1      45.820  35.382  28.134  1.00  0.00     0.001 A 
ATOM     81  C   UNL A   1      46.420  34.725  30.381  1.00  0.00     0.001 A 
ATOM     82  C   UNL A   1      46.140  35.722  29.448  1.00  0.00     0.000 A 
ENDBRANCH  64  77
ENDBRANCH  38  39
ENDBRANCH  30  33
ENDBRANCH  28  29
ENDBRANCH  27  28
ENDBRANCH  26  27
ENDBRANCH   1  26
TORSDOF 15
ENDMDL
