MODEL 1
REMARK VINA RESULT:     -11.3      0.000      0.000
REMARK SMILES O=C(NCCCCCCNC(=O)c1cccc2c(C(F)(F)F)cc(Br)nc12)c1ccc(-c2c3nc(c(-c4ccccc4)c4ccc([nH]4)c(-c4ccccc4)c4nc(c(-c5ccccc5)c5ccc2[nH]5)C=C4)C=C3)cc1
REMARK SMILES IDX 6 1 5 2 4 3 3 4 1 5 2 6 28 8 29 9 75 10 30 11 74 12 31 13
REMARK SMILES IDX 32 14 33 15 68 16 34 17 73 18 67 19 69 20 35 21 72 22 66 23
REMARK SMILES IDX 65 24 36 26 58 27 43 28 57 29 44 30 47 31 56 32 70 33 45 34
REMARK SMILES IDX 46 35 55 37 71 38 48 39 37 40 38 41 42 42 39 43 41 44 40 45
REMARK SMILES IDX 59 46 60 47 64 48 61 49 63 50 62 51 49 52 50 53 54 54 51 55
REMARK SMILES IDX 53 56 52 57 7 58 8 59 9 60 10 61 11 62 12 64 13 65 14 66
REMARK SMILES IDX 27 67 15 68 17 69 26 70 16 71 18 72 24 73 23 74 25 75 19 76
REMARK SMILES IDX 20 77 21 78 22 79
REMARK H PARENT 3 7 69 25 47 36 10 63
REMARK Flexibility Score: inf
ROOT
ATOM      1  C   UNL A   1      36.383  20.434  25.002  1.00  0.00     0.002 C 
ENDROOT
BRANCH   1   2
ATOM      2  C   UNL A   1      37.769  19.834  24.748  1.00  0.00     0.021 C 
BRANCH   2   3
ATOM      3  C   UNL A   1      38.856  20.225  25.742  1.00  0.00     0.116 C 
BRANCH   3   4
ATOM      4  N   UNL A   1      39.967  19.293  25.757  1.00  0.00    -0.352 N 
ATOM      5  O   UNL A   1      42.095  18.583  25.828  1.00  0.00    -0.269 OA
ATOM      6  C   UNL A   1      41.299  19.503  26.003  1.00  0.00     0.251 C 
ATOM      7  H   UNL A   1      39.727  18.359  25.558  1.00  0.00     0.163 HD
BRANCH   6   8
ATOM      8  C   UNL A   1      41.805  20.818  26.468  1.00  0.00     0.039 A 
ATOM      9  C   UNL A   1      41.834  21.063  27.846  1.00  0.00     0.014 A 
ATOM     10  C   UNL A   1      42.163  21.837  25.580  1.00  0.00     0.014 A 
ATOM     11  C   UNL A   1      42.222  22.315  28.329  1.00  0.00     0.010 A 
ATOM     12  C   UNL A   1      42.617  23.064  26.064  1.00  0.00     0.010 A 
ATOM     13  C   UNL A   1      42.616  23.328  27.443  1.00  0.00    -0.014 A 
BRANCH  13  14
ATOM     14  C   UNL A   1      42.927  24.692  27.941  1.00  0.00     0.031 A 
ATOM     15  C   UNL A   1      44.364  25.123  28.090  1.00  0.00     0.074 A 
ATOM     16  C   UNL A   1      41.934  25.550  28.250  1.00  0.00     0.049 A 
ATOM     17  N   UNL A   1      44.844  26.269  28.504  1.00  0.00    -0.248 NA
ATOM     18  C   UNL A   1      45.396  24.132  27.744  1.00  0.00     0.031 C 
ATOM     19  C   UNL A   1      40.503  25.257  28.158  1.00  0.00     0.029 A 
ATOM     20  N   UNL A   1      41.982  26.850  28.688  1.00  0.00    -0.354 N 
ATOM     21  C   UNL A   1      46.225  26.127  28.486  1.00  0.00     0.074 A 
ATOM     22  C   UNL A   1      46.510  24.775  28.064  1.00  0.00     0.031 C 
ATOM     23  C   UNL A   1      39.810  26.360  28.485  1.00  0.00     0.029 A 
ATOM     24  C   UNL A   1      40.744  27.426  28.837  1.00  0.00     0.049 A 
ATOM     25  H   UNL A   1      42.823  27.324  28.880  1.00  0.00     0.167 HD
ATOM     26  C   UNL A   1      47.176  27.047  28.772  1.00  0.00     0.031 A 
ATOM     27  C   UNL A   1      40.400  28.679  29.196  1.00  0.00     0.031 A 
ATOM     28  C   UNL A   1      46.902  28.404  29.153  1.00  0.00     0.049 A 
ATOM     29  C   UNL A   1      41.475  29.689  29.491  1.00  0.00     0.074 A 
ATOM     30  C   UNL A   1      47.803  29.416  29.438  1.00  0.00     0.029 A 
ATOM     31  N   UNL A   1      45.634  28.944  29.284  1.00  0.00    -0.354 N 
ATOM     32  N   UNL A   1      42.777  29.543  29.447  1.00  0.00    -0.248 NA
ATOM     33  C   UNL A   1      41.034  31.041  29.867  1.00  0.00     0.031 C 
ATOM     34  C   UNL A   1      47.078  30.564  29.767  1.00  0.00     0.029 A 
ATOM     35  C   UNL A   1      45.728  30.276  29.642  1.00  0.00     0.049 A 
ATOM     36  H   UNL A   1      44.792  28.453  29.142  1.00  0.00     0.167 HD
ATOM     37  C   UNL A   1      43.308  30.789  29.752  1.00  0.00     0.074 A 
ATOM     38  C   UNL A   1      42.191  31.682  29.977  1.00  0.00     0.031 C 
ATOM     39  C   UNL A   1      44.609  31.160  29.833  1.00  0.00     0.031 A 
BRANCH  26  40
ATOM     40  C   UNL A   1      48.613  26.623  28.669  1.00  0.00    -0.014 A 
ATOM     41  C   UNL A   1      49.261  26.071  29.786  1.00  0.00     0.009 A 
ATOM     42  C   UNL A   1      49.347  26.837  27.493  1.00  0.00     0.009 A 
ATOM     43  C   UNL A   1      50.618  25.748  29.728  1.00  0.00     0.001 A 
ATOM     44  C   UNL A   1      50.698  26.490  27.429  1.00  0.00     0.001 A 
ATOM     45  C   UNL A   1      51.333  25.953  28.549  1.00  0.00     0.000 A 
ENDBRANCH  26  40
BRANCH  27  46
ATOM     46  C   UNL A   1      38.966  29.068  29.236  1.00  0.00    -0.014 A 
ATOM     47  C   UNL A   1      38.319  29.551  28.088  1.00  0.00     0.009 A 
ATOM     48  C   UNL A   1      38.241  28.968  30.434  1.00  0.00     0.009 A 
ATOM     49  C   UNL A   1      36.976  29.932  28.141  1.00  0.00     0.001 A 
ATOM     50  C   UNL A   1      36.892  29.328  30.477  1.00  0.00     0.001 A 
ATOM     51  C   UNL A   1      36.263  29.815  29.334  1.00  0.00     0.000 A 
ENDBRANCH  27  46
BRANCH  39  52
ATOM     52  C   UNL A   1      44.916  32.598  30.127  1.00  0.00    -0.014 A 
ATOM     53  C   UNL A   1      45.069  33.502  29.063  1.00  0.00     0.009 A 
ATOM     54  C   UNL A   1      45.161  33.037  31.436  1.00  0.00     0.009 A 
ATOM     55  C   UNL A   1      45.472  34.815  29.302  1.00  0.00     0.001 A 
ATOM     56  C   UNL A   1      45.542  34.359  31.674  1.00  0.00     0.001 A 
ATOM     57  C   UNL A   1      45.705  35.244  30.608  1.00  0.00     0.000 A 
ENDBRANCH  39  52
ENDBRANCH  13  14
ENDBRANCH   6   8
ENDBRANCH   3   4
ENDBRANCH   2   3
ENDBRANCH   1   2
BRANCH   1  58
ATOM     58  C   UNL A   1      36.354  21.786  25.720  1.00  0.00     0.002 C 
BRANCH  58  59
ATOM     59  C   UNL A   1      36.262  23.028  24.827  1.00  0.00     0.021 C 
BRANCH  59  60
ATOM     60  C   UNL A   1      35.152  24.018  25.172  1.00  0.00     0.116 C 
BRANCH  60  61
ATOM     61  N   UNL A   1      34.361  23.597  26.312  1.00  0.00    -0.352 N 
ATOM     62  C   UNL A   1      33.003  23.667  26.495  1.00  0.00     0.253 C 
ATOM     63  H   UNL A   1      34.870  23.209  27.060  1.00  0.00     0.163 HD
ATOM     64  O   UNL A   1      32.496  23.211  27.518  1.00  0.00    -0.269 OA
BRANCH  62  65
ATOM     65  C   UNL A   1      32.145  24.202  25.421  1.00  0.00     0.066 A 
ATOM     66  C   UNL A   1      31.516  23.276  24.575  1.00  0.00     0.016 A 
ATOM     67  C   UNL A   1      31.922  25.582  25.334  1.00  0.00     0.085 A 
ATOM     68  C   UNL A   1      30.657  23.730  23.590  1.00  0.00     0.002 A 
ATOM     69  C   UNL A   1      31.011  26.038  24.350  1.00  0.00     0.013 A 
ATOM     70  N   UNL A   1      32.562  26.447  26.149  1.00  0.00    -0.240 NA
ATOM     71  C   UNL A   1      30.403  25.095  23.483  1.00  0.00     0.011 A 
ATOM     72  C   UNL A   1      30.745  27.432  24.287  1.00  0.00     0.068 A 
ATOM     73  C   UNL A   1      32.297  27.762  26.070  1.00  0.00     0.107 A 
ATOM     74  C   UNL A   1      31.403  28.297  25.169  1.00  0.00     0.049 A 
ATOM     75  Br  UNL A   1      33.208  28.921  27.260  1.00  0.00    -0.029 Br
BRANCH  72  76
ATOM     76  C   UNL A   1      29.761  28.012  23.302  1.00  0.00     0.417 C 
ATOM     77  F   UNL A   1      28.542  27.411  23.366  1.00  0.00    -0.166 F 
ATOM     78  F   UNL A   1      29.538  29.341  23.499  1.00  0.00    -0.166 F 
ATOM     79  F   UNL A   1      30.159  27.897  22.003  1.00  0.00    -0.166 F 
ENDBRANCH  72  76
ENDBRANCH  62  65
ENDBRANCH  60  61
ENDBRANCH  59  60
ENDBRANCH  58  59
ENDBRANCH   1  58
TORSDOF 14
ENDMDL
MODEL 2
REMARK VINA RESULT:     -11.2      3.007      7.244
REMARK SMILES O=C(NCCCCCCNC(=O)c1cccc2c(C(F)(F)F)cc(Br)nc12)c1ccc(-c2c3nc(c(-c4ccccc4)c4ccc([nH]4)c(-c4ccccc4)c4nc(c(-c5ccccc5)c5ccc2[nH]5)C=C4)C=C3)cc1
REMARK SMILES IDX 6 1 5 2 4 3 3 4 1 5 2 6 28 8 29 9 75 10 30 11 74 12 31 13
REMARK SMILES IDX 32 14 33 15 68 16 34 17 73 18 67 19 69 20 35 21 72 22 66 23
REMARK SMILES IDX 65 24 36 26 58 27 43 28 57 29 44 30 47 31 56 32 70 33 45 34
REMARK SMILES IDX 46 35 55 37 71 38 48 39 37 40 38 41 42 42 39 43 41 44 40 45
REMARK SMILES IDX 59 46 60 47 64 48 61 49 63 50 62 51 49 52 50 53 54 54 51 55
REMARK SMILES IDX 53 56 52 57 7 58 8 59 9 60 10 61 11 62 12 64 13 65 14 66
REMARK SMILES IDX 27 67 15 68 17 69 26 70 16 71 18 72 24 73 23 74 25 75 19 76
REMARK SMILES IDX 20 77 21 78 22 79
REMARK H PARENT 3 7 69 25 47 36 10 63
REMARK Flexibility Score: inf
ROOT
ATOM      1  C   UNL A   1      35.369  22.019  26.129  1.00  0.00     0.002 C 
ENDROOT
BRANCH   1   2
ATOM      2  C   UNL A   1      36.136  23.344  26.102  1.00  0.00     0.021 C 
BRANCH   2   3
ATOM      3  C   UNL A   1      37.297  23.422  25.118  1.00  0.00     0.116 C 
BRANCH   3   4
ATOM      4  N   UNL A   1      38.416  22.583  25.501  1.00  0.00    -0.352 N 
ATOM      5  O   UNL A   1      40.442  22.043  26.304  1.00  0.00    -0.269 OA
ATOM      6  C   UNL A   1      39.551  22.885  26.209  1.00  0.00     0.251 C 
ATOM      7  H   UNL A   1      38.352  21.646  25.206  1.00  0.00     0.163 HD
BRANCH   6   8
ATOM      8  C   UNL A   1      39.733  24.207  26.857  1.00  0.00     0.039 A 
ATOM      9  C   UNL A   1      40.414  25.202  26.145  1.00  0.00     0.014 A 
ATOM     10  C   UNL A   1      39.330  24.455  28.173  1.00  0.00     0.014 A 
ATOM     11  C   UNL A   1      40.685  26.435  26.745  1.00  0.00     0.010 A 
ATOM     12  C   UNL A   1      39.539  25.709  28.748  1.00  0.00     0.010 A 
ATOM     13  C   UNL A   1      40.251  26.699  28.052  1.00  0.00    -0.014 A 
BRANCH  13  14
ATOM     14  C   UNL A   1      40.627  27.964  28.734  1.00  0.00     0.031 A 
ATOM     15  C   UNL A   1      39.606  29.062  28.885  1.00  0.00     0.074 A 
ATOM     16  C   UNL A   1      41.870  28.132  29.226  1.00  0.00     0.049 A 
ATOM     17  N   UNL A   1      39.734  30.237  29.449  1.00  0.00    -0.248 NA
ATOM     18  C   UNL A   1      38.271  28.815  28.315  1.00  0.00     0.031 C 
ATOM     19  C   UNL A   1      42.954  27.152  29.140  1.00  0.00     0.029 A 
ATOM     20  N   UNL A   1      42.424  29.185  29.912  1.00  0.00    -0.354 N 
ATOM     21  C   UNL A   1      38.508  30.870  29.283  1.00  0.00     0.074 A 
ATOM     22  C   UNL A   1      37.663  29.973  28.530  1.00  0.00     0.031 C 
ATOM     23  C   UNL A   1      44.029  27.632  29.790  1.00  0.00     0.029 A 
ATOM     24  C   UNL A   1      43.719  28.961  30.311  1.00  0.00     0.049 A 
ATOM     25  H   UNL A   1      41.940  30.021  30.099  1.00  0.00     0.167 HD
ATOM     26  C   UNL A   1      38.111  32.082  29.737  1.00  0.00     0.031 A 
ATOM     27  C   UNL A   1      44.558  29.730  31.033  1.00  0.00     0.031 A 
ATOM     28  C   UNL A   1      38.932  32.962  30.521  1.00  0.00     0.049 A 
ATOM     29  C   UNL A   1      44.086  31.065  31.543  1.00  0.00     0.074 A 
ATOM     30  C   UNL A   1      38.605  34.200  31.047  1.00  0.00     0.029 A 
ATOM     31  N   UNL A   1      40.234  32.690  30.905  1.00  0.00    -0.354 N 
ATOM     32  N   UNL A   1      42.916  31.638  31.395  1.00  0.00    -0.248 NA
ATOM     33  C   UNL A   1      45.045  31.852  32.334  1.00  0.00     0.031 C 
ATOM     34  C   UNL A   1      39.721  34.690  31.730  1.00  0.00     0.029 A 
ATOM     35  C   UNL A   1      40.724  33.736  31.666  1.00  0.00     0.049 A 
ATOM     36  H   UNL A   1      40.734  31.875  30.674  1.00  0.00     0.167 HD
ATOM     37  C   UNL A   1      42.986  32.830  32.104  1.00  0.00     0.074 A 
ATOM     38  C   UNL A   1      44.310  32.900  32.684  1.00  0.00     0.031 C 
ATOM     39  C   UNL A   1      42.033  33.779  32.262  1.00  0.00     0.031 A 
BRANCH  26  40
ATOM     40  C   UNL A   1      36.714  32.527  29.412  1.00  0.00    -0.014 A 
ATOM     41  C   UNL A   1      36.473  33.285  28.255  1.00  0.00     0.009 A 
ATOM     42  C   UNL A   1      35.650  32.262  30.287  1.00  0.00     0.009 A 
ATOM     43  C   UNL A   1      35.194  33.774  27.984  1.00  0.00     0.001 A 
ATOM     44  C   UNL A   1      34.366  32.730  30.000  1.00  0.00     0.001 A 
ATOM     45  C   UNL A   1      34.141  33.492  28.853  1.00  0.00     0.000 A 
ENDBRANCH  26  40
BRANCH  27  46
ATOM     46  C   UNL A   1      45.914  29.227  31.374  1.00  0.00    -0.014 A 
ATOM     47  C   UNL A   1      47.007  29.475  30.531  1.00  0.00     0.009 A 
ATOM     48  C   UNL A   1      46.115  28.481  32.546  1.00  0.00     0.009 A 
ATOM     49  C   UNL A   1      48.274  28.981  30.851  1.00  0.00     0.001 A 
ATOM     50  C   UNL A   1      47.387  28.009  32.876  1.00  0.00     0.001 A 
ATOM     51  C   UNL A   1      48.463  28.254  32.025  1.00  0.00     0.000 A 
ENDBRANCH  27  46
BRANCH  39  52
ATOM     52  C   UNL A   1      42.349  34.958  33.133  1.00  0.00    -0.014 A 
ATOM     53  C   UNL A   1      41.763  35.051  34.407  1.00  0.00     0.009 A 
ATOM     54  C   UNL A   1      43.128  36.024  32.662  1.00  0.00     0.009 A 
ATOM     55  C   UNL A   1      41.943  36.192  35.187  1.00  0.00     0.001 A 
ATOM     56  C   UNL A   1      43.326  37.155  33.456  1.00  0.00     0.001 A 
ATOM     57  C   UNL A   1      42.728  37.243  34.713  1.00  0.00     0.000 A 
ENDBRANCH  39  52
ENDBRANCH  13  14
ENDBRANCH   6   8
ENDBRANCH   3   4
ENDBRANCH   2   3
ENDBRANCH   1   2
BRANCH   1  58
ATOM     58  C   UNL A   1      35.765  20.989  25.067  1.00  0.00     0.002 C 
BRANCH  58  59
ATOM     59  C   UNL A   1      34.832  19.784  24.908  1.00  0.00     0.021 C 
BRANCH  59  60
ATOM     60  C   UNL A   1      33.347  20.054  25.140  1.00  0.00     0.116 C 
BRANCH  60  61
ATOM     61  N   UNL A   1      32.591  20.123  23.905  1.00  0.00    -0.352 N 
ATOM     62  C   UNL A   1      32.307  21.215  23.125  1.00  0.00     0.253 C 
ATOM     63  H   UNL A   1      32.229  19.266  23.582  1.00  0.00     0.163 HD
ATOM     64  O   UNL A   1      31.687  21.076  22.073  1.00  0.00    -0.269 OA
BRANCH  62  65
ATOM     65  C   UNL A   1      32.831  22.542  23.502  1.00  0.00     0.066 A 
ATOM     66  C   UNL A   1      33.878  23.067  22.730  1.00  0.00     0.016 A 
ATOM     67  C   UNL A   1      32.225  23.257  24.544  1.00  0.00     0.085 A 
ATOM     68  C   UNL A   1      34.362  24.332  23.011  1.00  0.00     0.002 A 
ATOM     69  C   UNL A   1      32.698  24.567  24.802  1.00  0.00     0.013 A 
ATOM     70  N   UNL A   1      31.236  22.712  25.284  1.00  0.00    -0.240 NA
ATOM     71  C   UNL A   1      33.775  25.075  24.032  1.00  0.00     0.011 A 
ATOM     72  C   UNL A   1      32.058  25.314  25.826  1.00  0.00     0.068 A 
ATOM     73  C   UNL A   1      30.646  23.436  26.249  1.00  0.00     0.107 A 
ATOM     74  C   UNL A   1      31.013  24.729  26.551  1.00  0.00     0.049 A 
ATOM     75  Br  UNL A   1      29.245  22.623  27.233  1.00  0.00    -0.029 Br
BRANCH  72  76
ATOM     76  C   UNL A   1      32.461  26.731  26.150  1.00  0.00     0.417 C 
ATOM     77  F   UNL A   1      31.743  27.254  27.182  1.00  0.00    -0.166 F 
ATOM     78  F   UNL A   1      33.770  26.839  26.508  1.00  0.00    -0.166 F 
ATOM     79  F   UNL A   1      32.292  27.596  25.111  1.00  0.00    -0.166 F 
ENDBRANCH  72  76
ENDBRANCH  62  65
ENDBRANCH  60  61
ENDBRANCH  59  60
ENDBRANCH  58  59
ENDBRANCH   1  58
TORSDOF 14
ENDMDL
MODEL 3
REMARK VINA RESULT:     -11.2      4.310      9.157
REMARK SMILES O=C(NCCCCCCNC(=O)c1cccc2c(C(F)(F)F)cc(Br)nc12)c1ccc(-c2c3nc(c(-c4ccccc4)c4ccc([nH]4)c(-c4ccccc4)c4nc(c(-c5ccccc5)c5ccc2[nH]5)C=C4)C=C3)cc1
REMARK SMILES IDX 6 1 5 2 4 3 3 4 1 5 2 6 28 8 29 9 75 10 30 11 74 12 31 13
REMARK SMILES IDX 32 14 33 15 68 16 34 17 73 18 67 19 69 20 35 21 72 22 66 23
REMARK SMILES IDX 65 24 36 26 58 27 43 28 57 29 44 30 47 31 56 32 70 33 45 34
REMARK SMILES IDX 46 35 55 37 71 38 48 39 37 40 38 41 42 42 39 43 41 44 40 45
REMARK SMILES IDX 59 46 60 47 64 48 61 49 63 50 62 51 49 52 50 53 54 54 51 55
REMARK SMILES IDX 53 56 52 57 7 58 8 59 9 60 10 61 11 62 12 64 13 65 14 66
REMARK SMILES IDX 27 67 15 68 17 69 26 70 16 71 18 72 24 73 23 74 25 75 19 76
REMARK SMILES IDX 20 77 21 78 22 79
REMARK H PARENT 3 7 69 25 47 36 10 63
REMARK Flexibility Score: inf
ROOT
ATOM      1  C   UNL A   1      31.500  30.475  25.982  1.00  0.00     0.002 C 
ENDROOT
BRANCH   1   2
ATOM      2  C   UNL A   1      31.381  31.905  26.516  1.00  0.00     0.021 C 
BRANCH   2   3
ATOM      3  C   UNL A   1      32.642  32.488  27.144  1.00  0.00     0.116 C 
BRANCH   3   4
ATOM      4  N   UNL A   1      32.446  33.831  27.656  1.00  0.00    -0.352 N 
ATOM      5  O   UNL A   1      32.727  35.621  28.980  1.00  0.00    -0.269 OA
ATOM      6  C   UNL A   1      33.153  34.534  28.596  1.00  0.00     0.251 C 
ATOM      7  H   UNL A   1      31.683  34.315  27.266  1.00  0.00     0.163 HD
BRANCH   6   8
ATOM      8  C   UNL A   1      34.418  34.011  29.168  1.00  0.00     0.039 A 
ATOM      9  C   UNL A   1      35.620  34.359  28.539  1.00  0.00     0.014 A 
ATOM     10  C   UNL A   1      34.439  33.121  30.246  1.00  0.00     0.014 A 
ATOM     11  C   UNL A   1      36.830  33.824  28.989  1.00  0.00     0.010 A 
ATOM     12  C   UNL A   1      35.653  32.642  30.739  1.00  0.00     0.010 A 
ATOM     13  C   UNL A   1      36.857  32.959  30.092  1.00  0.00    -0.014 A 
BRANCH  13  14
ATOM     14  C   UNL A   1      38.123  32.303  30.509  1.00  0.00     0.031 A 
ATOM     15  C   UNL A   1      38.917  32.875  31.656  1.00  0.00     0.074 A 
ATOM     16  C   UNL A   1      38.559  31.196  29.878  1.00  0.00     0.049 A 
ATOM     17  N   UNL A   1      40.043  32.451  32.173  1.00  0.00    -0.248 NA
ATOM     18  C   UNL A   1      38.387  34.092  32.293  1.00  0.00     0.031 C 
ATOM     19  C   UNL A   1      37.890  30.545  28.750  1.00  0.00     0.029 A 
ATOM     20  N   UNL A   1      39.664  30.413  30.109  1.00  0.00    -0.354 N 
ATOM     21  C   UNL A   1      40.360  33.357  33.178  1.00  0.00     0.074 A 
ATOM     22  C   UNL A   1      39.337  34.377  33.172  1.00  0.00     0.031 C 
ATOM     23  C   UNL A   1      38.574  29.437  28.418  1.00  0.00     0.029 A 
ATOM     24  C   UNL A   1      39.742  29.316  29.286  1.00  0.00     0.049 A 
ATOM     25  H   UNL A   1      40.337  30.620  30.797  1.00  0.00     0.167 HD
ATOM     26  C   UNL A   1      41.398  33.331  34.046  1.00  0.00     0.031 A 
ATOM     27  C   UNL A   1      40.641  28.313  29.249  1.00  0.00     0.031 A 
ATOM     28  C   UNL A   1      42.396  32.298  34.086  1.00  0.00     0.049 A 
ATOM     29  C   UNL A   1      41.776  28.296  30.237  1.00  0.00     0.074 A 
ATOM     30  C   UNL A   1      43.471  32.175  34.949  1.00  0.00     0.029 A 
ATOM     31  N   UNL A   1      42.430  31.204  33.239  1.00  0.00    -0.354 N 
ATOM     32  N   UNL A   1      42.047  29.150  31.195  1.00  0.00    -0.248 NA
ATOM     33  C   UNL A   1      42.717  27.169  30.152  1.00  0.00     0.031 C 
ATOM     34  C   UNL A   1      44.173  31.017  34.606  1.00  0.00     0.029 A 
ATOM     35  C   UNL A   1      43.506  30.398  33.561  1.00  0.00     0.049 A 
ATOM     36  H   UNL A   1      41.784  31.026  32.517  1.00  0.00     0.167 HD
ATOM     37  C   UNL A   1      43.164  28.644  31.847  1.00  0.00     0.074 A 
ATOM     38  C   UNL A   1      43.520  27.409  31.181  1.00  0.00     0.031 C 
ATOM     39  C   UNL A   1      43.831  29.157  32.908  1.00  0.00     0.031 A 
BRANCH  26  40
ATOM     40  C   UNL A   1      41.503  34.448  35.044  1.00  0.00    -0.014 A 
ATOM     41  C   UNL A   1      40.833  34.353  36.275  1.00  0.00     0.009 A 
ATOM     42  C   UNL A   1      42.202  35.626  34.739  1.00  0.00     0.009 A 
ATOM     43  C   UNL A   1      40.856  35.418  37.177  1.00  0.00     0.001 A 
ATOM     44  C   UNL A   1      42.244  36.680  35.654  1.00  0.00     0.001 A 
ATOM     45  C   UNL A   1      41.565  36.578  36.868  1.00  0.00     0.000 A 
ENDBRANCH  26  40
BRANCH  27  46
ATOM     46  C   UNL A   1      40.469  27.201  28.278  1.00  0.00    -0.014 A 
ATOM     47  C   UNL A   1      41.043  27.266  27.000  1.00  0.00     0.009 A 
ATOM     48  C   UNL A   1      39.714  26.071  28.627  1.00  0.00     0.009 A 
ATOM     49  C   UNL A   1      40.858  26.225  26.087  1.00  0.00     0.001 A 
ATOM     50  C   UNL A   1      39.551  25.020  27.721  1.00  0.00     0.001 A 
ATOM     51  C   UNL A   1      40.118  25.101  26.451  1.00  0.00     0.000 A 
ENDBRANCH  27  46
BRANCH  39  52
ATOM     52  C   UNL A   1      44.985  28.376  33.462  1.00  0.00    -0.014 A 
ATOM     53  C   UNL A   1      46.269  28.567  32.925  1.00  0.00     0.009 A 
ATOM     54  C   UNL A   1      44.792  27.379  34.429  1.00  0.00     0.009 A 
ATOM     55  C   UNL A   1      47.335  27.769  33.337  1.00  0.00     0.001 A 
ATOM     56  C   UNL A   1      45.867  26.597  34.857  1.00  0.00     0.001 A 
ATOM     57  C   UNL A   1      47.134  26.787  34.306  1.00  0.00     0.000 A 
ENDBRANCH  39  52
ENDBRANCH  13  14
ENDBRANCH   6   8
ENDBRANCH   3   4
ENDBRANCH   2   3
ENDBRANCH   1   2
BRANCH   1  58
ATOM     58  C   UNL A   1      32.096  29.443  26.943  1.00  0.00     0.002 C 
BRANCH  58  59
ATOM     59  C   UNL A   1      31.839  27.971  26.605  1.00  0.00     0.021 C 
BRANCH  59  60
ATOM     60  C   UNL A   1      33.050  27.174  26.126  1.00  0.00     0.116 C 
BRANCH  60  61
ATOM     61  N   UNL A   1      33.455  27.526  24.780  1.00  0.00    -0.352 N 
ATOM     62  C   UNL A   1      33.293  26.818  23.615  1.00  0.00     0.253 C 
ATOM     63  H   UNL A   1      33.912  28.393  24.688  1.00  0.00     0.163 HD
ATOM     64  O   UNL A   1      33.660  27.301  22.545  1.00  0.00    -0.269 OA
BRANCH  62  65
ATOM     65  C   UNL A   1      32.592  25.521  23.637  1.00  0.00     0.066 A 
ATOM     66  C   UNL A   1      31.236  25.513  23.279  1.00  0.00     0.016 A 
ATOM     67  C   UNL A   1      33.306  24.351  23.927  1.00  0.00     0.085 A 
ATOM     68  C   UNL A   1      30.552  24.311  23.230  1.00  0.00     0.002 A 
ATOM     69  C   UNL A   1      32.612  23.119  23.837  1.00  0.00     0.013 A 
ATOM     70  N   UNL A   1      34.606  24.396  24.292  1.00  0.00    -0.240 NA
ATOM     71  C   UNL A   1      31.234  23.127  23.501  1.00  0.00     0.011 A 
ATOM     72  C   UNL A   1      33.342  21.926  24.085  1.00  0.00     0.068 A 
ATOM     73  C   UNL A   1      35.275  23.255  24.524  1.00  0.00     0.107 A 
ATOM     74  C   UNL A   1      34.696  22.009  24.429  1.00  0.00     0.049 A 
ATOM     75  Br  UNL A   1      37.103  23.386  25.007  1.00  0.00    -0.029 Br
BRANCH  72  76
ATOM     76  C   UNL A   1      32.704  20.564  23.975  1.00  0.00     0.417 C 
ATOM     77  F   UNL A   1      32.079  20.375  22.780  1.00  0.00    -0.166 F 
ATOM     78  F   UNL A   1      33.603  19.549  24.095  1.00  0.00    -0.166 F 
ATOM     79  F   UNL A   1      31.757  20.328  24.926  1.00  0.00    -0.166 F 
ENDBRANCH  72  76
ENDBRANCH  62  65
ENDBRANCH  60  61
ENDBRANCH  59  60
ENDBRANCH  58  59
ENDBRANCH   1  58
TORSDOF 14
ENDMDL
