MODEL 1
REMARK VINA RESULT:     -11.5      0.000      0.000
REMARK SMILES COc1ccc(C(=O)N[C@H](C(=O)NCCCCCCNC(=O)c2ccc(-c3c4nc(c(-c5ccccc5)c5ccc([nH]5)c(-c5ccccc5)c5nc(c(-c6ccccc6)c6ccc3[nH]6)C=C5)C=C4)cc2)C2=C(C)N=N[C@H]2C)c(F)c1F
REMARK SMILES IDX 16 1 15 2 14 3 13 4 11 5 12 6 10 8 9 9 7 10 8 11 6 13 3 14
REMARK SMILES IDX 4 15 80 16 5 17 78 18 81 19 79 20 2 21 1 22 71 23 72 24
REMARK SMILES IDX 76 25 73 26 74 27 75 28 77 29 17 30 18 31 19 32 20 33 21 34
REMARK SMILES IDX 22 36 23 37 24 38 70 39 25 40 69 41 26 42 27 43 28 44 63 45
REMARK SMILES IDX 29 46 68 47 62 48 64 49 30 50 67 51 61 52 60 53 31 55 53 56
REMARK SMILES IDX 38 57 52 58 39 59 42 60 51 61 65 62 40 63 41 64 50 66 66 67
REMARK SMILES IDX 43 68 32 69 33 70 37 71 34 72 36 73 35 74 54 75 55 76 59 77
REMARK SMILES IDX 56 78 58 79 57 80 44 81 45 82 49 83 46 84 48 85 47 86
REMARK H PARENT 13 7 9 12 20 35 64 54 42 65
REMARK Flexibility Score: inf
ROOT
ATOM      1  C   UNL A   1      32.847  30.077  25.755  1.00  0.00     0.002 C 
ENDROOT
BRANCH   1   2
ATOM      2  C   UNL A   1      33.861  29.347  26.644  1.00  0.00     0.021 C 
BRANCH   2   3
ATOM      3  C   UNL A   1      33.936  27.829  26.467  1.00  0.00     0.116 C 
BRANCH   3   4
ATOM      4  N   UNL A   1      32.684  27.139  26.779  1.00  0.00    -0.354 N 
ATOM      5  C   UNL A   1      32.007  26.159  26.084  1.00  0.00     0.247 C 
ATOM      6  O   UNL A   1      31.087  25.573  26.662  1.00  0.00    -0.272 OA
ATOM      7  H   UNL A   1      32.256  27.419  27.621  1.00  0.00     0.163 HD
BRANCH   5   8
ATOM      8  C   UNL A   1      32.393  25.836  24.610  1.00  0.00     0.202 C 
BRANCH   8   9
ATOM      9  N   UNL A   1      31.976  24.552  23.991  1.00  0.00    -0.336 N 
ATOM     10  C   UNL A   1      32.589  23.430  23.473  1.00  0.00     0.255 C 
ATOM     11  O   UNL A   1      31.923  22.714  22.724  1.00  0.00    -0.269 OA
ATOM     12  H   UNL A   1      30.995  24.483  23.935  1.00  0.00     0.165 HD
BRANCH  10  13
ATOM     13  C   UNL A   1      33.929  22.946  23.864  1.00  0.00     0.078 A 
ATOM     14  C   UNL A   1      36.463  21.822  24.333  1.00  0.00     0.157 A 
ATOM     15  C   UNL A   1      36.359  23.068  23.718  1.00  0.00     0.050 A 
ATOM     16  C   UNL A   1      35.307  21.186  24.750  1.00  0.00     0.201 A 
ATOM     17  C   UNL A   1      35.091  23.619  23.460  1.00  0.00     0.021 A 
ATOM     18  C   UNL A   1      34.083  21.825  24.640  1.00  0.00     0.175 A 
ATOM     19  F   UNL A   1      35.370  19.942  25.241  1.00  0.00    -0.200 F 
ATOM     20  F   UNL A   1      33.053  21.417  25.376  1.00  0.00    -0.203 F 
BRANCH  14  21
ATOM     21  O   UNL A   1      37.700  21.259  24.458  1.00  0.00    -0.494 OA
ATOM     22  C   UNL A   1      38.388  21.664  25.645  1.00  0.00     0.278 C 
ENDBRANCH  14  21
ENDBRANCH  10  13
ENDBRANCH   8   9
BRANCH   8  23
ATOM     23  C   UNL A   1      31.709  26.959  23.841  1.00  0.00     0.011 C 
ATOM     24  C   UNL A   1      32.231  27.826  22.958  1.00  0.00     0.064 C 
ATOM     25  C   UNL A   1      30.366  27.548  24.185  1.00  0.00     0.156 C 
ATOM     26  C   UNL A   1      33.584  27.869  22.345  1.00  0.00     0.069 C 
ATOM     27  N   UNL A   1      31.402  28.889  22.700  1.00  0.00    -0.160 NA
ATOM     28  N   UNL A   1      30.372  28.824  23.414  1.00  0.00    -0.181 NA
ATOM     29  C   UNL A   1      29.143  26.775  23.698  1.00  0.00     0.040 C 
ENDBRANCH   8  23
ENDBRANCH   5   8
ENDBRANCH   3   4
ENDBRANCH   2   3
ENDBRANCH   1   2
BRANCH   1  30
ATOM     30  C   UNL A   1      31.589  30.610  26.447  1.00  0.00     0.002 C 
BRANCH  30  31
ATOM     31  C   UNL A   1      31.437  32.116  26.579  1.00  0.00     0.021 C 
BRANCH  31  32
ATOM     32  C   UNL A   1      32.578  32.826  27.278  1.00  0.00     0.116 C 
BRANCH  32  33
ATOM     33  N   UNL A   1      32.266  34.192  27.658  1.00  0.00    -0.352 N 
ATOM     34  C   UNL A   1      32.921  35.002  28.560  1.00  0.00     0.251 C 
ATOM     35  H   UNL A   1      31.484  34.592  27.213  1.00  0.00     0.163 HD
ATOM     36  O   UNL A   1      32.477  36.101  28.847  1.00  0.00    -0.269 OA
BRANCH  34  37
ATOM     37  C   UNL A   1      34.149  34.499  29.216  1.00  0.00     0.039 A 
ATOM     38  C   UNL A   1      34.047  33.948  30.495  1.00  0.00     0.014 A 
ATOM     39  C   UNL A   1      35.383  34.530  28.560  1.00  0.00     0.014 A 
ATOM     40  C   UNL A   1      35.170  33.368  31.086  1.00  0.00     0.010 A 
ATOM     41  C   UNL A   1      36.477  33.873  29.111  1.00  0.00     0.010 A 
ATOM     42  C   UNL A   1      36.384  33.289  30.383  1.00  0.00    -0.014 A 
BRANCH  42  43
ATOM     43  C   UNL A   1      37.560  32.597  30.965  1.00  0.00     0.031 A 
ATOM     44  C   UNL A   1      38.162  33.078  32.256  1.00  0.00     0.074 A 
ATOM     45  C   UNL A   1      38.116  31.562  30.305  1.00  0.00     0.049 A 
ATOM     46  N   UNL A   1      39.196  32.607  32.910  1.00  0.00    -0.248 NA
ATOM     47  C   UNL A   1      37.541  34.254  32.884  1.00  0.00     0.031 C 
ATOM     48  C   UNL A   1      37.657  31.031  29.018  1.00  0.00     0.029 A 
ATOM     49  N   UNL A   1      39.189  30.769  30.625  1.00  0.00    -0.354 N 
ATOM     50  C   UNL A   1      39.352  33.435  34.014  1.00  0.00     0.074 A 
ATOM     51  C   UNL A   1      38.347  34.470  33.913  1.00  0.00     0.031 C 
ATOM     52  C   UNL A   1      38.420  29.979  28.680  1.00  0.00     0.029 A 
ATOM     53  C   UNL A   1      39.446  29.788  29.699  1.00  0.00     0.049 A 
ATOM     54  H   UNL A   1      39.725  30.892  31.442  1.00  0.00     0.167 HD
ATOM     55  C   UNL A   1      40.238  33.333  35.032  1.00  0.00     0.031 A 
ATOM     56  C   UNL A   1      40.401  28.840  29.672  1.00  0.00     0.031 A 
ATOM     57  C   UNL A   1      41.235  32.300  35.134  1.00  0.00     0.049 A 
ATOM     58  C   UNL A   1      41.383  28.756  30.807  1.00  0.00     0.074 A 
ATOM     59  C   UNL A   1      42.140  32.074  36.157  1.00  0.00     0.029 A 
ATOM     60  N   UNL A   1      41.462  31.325  34.175  1.00  0.00    -0.354 N 
ATOM     61  N   UNL A   1      41.464  29.496  31.886  1.00  0.00    -0.248 NA
ATOM     62  C   UNL A   1      42.396  27.694  30.728  1.00  0.00     0.031 C 
ATOM     63  C   UNL A   1      42.957  31.001  35.788  1.00  0.00     0.029 A 
ATOM     64  C   UNL A   1      42.516  30.515  34.567  1.00  0.00     0.049 A 
ATOM     65  H   UNL A   1      40.951  31.223  33.340  1.00  0.00     0.167 HD
ATOM     66  C   UNL A   1      42.518  28.975  32.625  1.00  0.00     0.074 A 
ATOM     67  C   UNL A   1      43.029  27.841  31.882  1.00  0.00     0.031 C 
ATOM     68  C   UNL A   1      43.018  29.396  33.813  1.00  0.00     0.031 A 
BRANCH  55  69
ATOM     69  C   UNL A   1      40.175  34.375  36.116  1.00  0.00    -0.014 A 
ATOM     70  C   UNL A   1      40.906  35.570  36.023  1.00  0.00     0.009 A 
ATOM     71  C   UNL A   1      39.343  34.174  37.229  1.00  0.00     0.009 A 
ATOM     72  C   UNL A   1      40.833  36.526  37.040  1.00  0.00     0.001 A 
ATOM     73  C   UNL A   1      39.248  35.144  38.227  1.00  0.00     0.001 A 
ATOM     74  C   UNL A   1      40.000  36.315  38.138  1.00  0.00     0.000 A 
ENDBRANCH  55  69
BRANCH  56  75
ATOM     75  C   UNL A   1      40.474  27.885  28.534  1.00  0.00    -0.014 A 
ATOM     76  C   UNL A   1      41.220  28.195  27.386  1.00  0.00     0.009 A 
ATOM     77  C   UNL A   1      39.788  26.661  28.585  1.00  0.00     0.009 A 
ATOM     78  C   UNL A   1      41.249  27.315  26.301  1.00  0.00     0.001 A 
ATOM     79  C   UNL A   1      39.847  25.769  27.513  1.00  0.00     0.001 A 
ATOM     80  C   UNL A   1      40.567  26.101  26.367  1.00  0.00     0.000 A 
ENDBRANCH  56  75
BRANCH  68  81
ATOM     81  C   UNL A   1      44.158  28.606  34.395  1.00  0.00    -0.014 A 
ATOM     82  C   UNL A   1      45.494  28.950  34.138  1.00  0.00     0.009 A 
ATOM     83  C   UNL A   1      43.887  27.517  35.239  1.00  0.00     0.009 A 
ATOM     84  C   UNL A   1      46.535  28.193  34.681  1.00  0.00     0.001 A 
ATOM     85  C   UNL A   1      44.929  26.783  35.806  1.00  0.00     0.001 A 
ATOM     86  C   UNL A   1      46.252  27.114  35.518  1.00  0.00     0.000 A 
ENDBRANCH  68  81
ENDBRANCH  42  43
ENDBRANCH  34  37
ENDBRANCH  32  33
ENDBRANCH  31  32
ENDBRANCH  30  31
ENDBRANCH   1  30
TORSDOF 17
ENDMDL
MODEL 2
REMARK VINA RESULT:     -11.3      2.181      4.174
REMARK SMILES COc1ccc(C(=O)N[C@H](C(=O)NCCCCCCNC(=O)c2ccc(-c3c4nc(c(-c5ccccc5)c5ccc([nH]5)c(-c5ccccc5)c5nc(c(-c6ccccc6)c6ccc3[nH]6)C=C5)C=C4)cc2)C2=C(C)N=N[C@H]2C)c(F)c1F
REMARK SMILES IDX 16 1 15 2 14 3 13 4 11 5 12 6 10 8 9 9 7 10 8 11 6 13 3 14
REMARK SMILES IDX 4 15 80 16 5 17 78 18 81 19 79 20 2 21 1 22 71 23 72 24
REMARK SMILES IDX 76 25 73 26 74 27 75 28 77 29 17 30 18 31 19 32 20 33 21 34
REMARK SMILES IDX 22 36 23 37 24 38 70 39 25 40 69 41 26 42 27 43 28 44 63 45
REMARK SMILES IDX 29 46 68 47 62 48 64 49 30 50 67 51 61 52 60 53 31 55 53 56
REMARK SMILES IDX 38 57 52 58 39 59 42 60 51 61 65 62 40 63 41 64 50 66 66 67
REMARK SMILES IDX 43 68 32 69 33 70 37 71 34 72 36 73 35 74 54 75 55 76 59 77
REMARK SMILES IDX 56 78 58 79 57 80 44 81 45 82 49 83 46 84 48 85 47 86
REMARK H PARENT 13 7 9 12 20 35 64 54 42 65
REMARK Flexibility Score: inf
ROOT
ATOM      1  C   UNL A   1      33.157  29.469  25.363  1.00  0.00     0.002 C 
ENDROOT
BRANCH   1   2
ATOM      2  C   UNL A   1      33.757  28.429  26.316  1.00  0.00     0.021 C 
BRANCH   2   3
ATOM      3  C   UNL A   1      33.669  26.972  25.859  1.00  0.00     0.116 C 
BRANCH   3   4
ATOM      4  N   UNL A   1      32.613  26.209  26.528  1.00  0.00    -0.354 N 
ATOM      5  C   UNL A   1      32.136  24.939  26.281  1.00  0.00     0.247 C 
ATOM      6  O   UNL A   1      31.394  24.428  27.124  1.00  0.00    -0.272 OA
ATOM      7  H   UNL A   1      32.174  26.678  27.273  1.00  0.00     0.163 HD
BRANCH   5   8
ATOM      8  C   UNL A   1      32.516  24.203  24.962  1.00  0.00     0.202 C 
BRANCH   8   9
ATOM      9  N   UNL A   1      33.238  24.924  23.884  1.00  0.00    -0.336 N 
ATOM     10  C   UNL A   1      32.920  25.761  22.834  1.00  0.00     0.255 C 
ATOM     11  O   UNL A   1      33.752  25.885  21.934  1.00  0.00    -0.269 OA
ATOM     12  H   UNL A   1      34.208  24.760  23.930  1.00  0.00     0.165 HD
BRANCH  10  13
ATOM     13  C   UNL A   1      31.727  26.630  22.782  1.00  0.00     0.078 A 
ATOM     14  C   UNL A   1      29.514  28.349  23.014  1.00  0.00     0.157 A 
ATOM     15  C   UNL A   1      30.702  28.819  22.462  1.00  0.00     0.050 A 
ATOM     16  C   UNL A   1      29.433  27.019  23.389  1.00  0.00     0.201 A 
ATOM     17  C   UNL A   1      31.818  27.968  22.370  1.00  0.00     0.021 A 
ATOM     18  C   UNL A   1      30.486  26.157  23.130  1.00  0.00     0.175 A 
ATOM     19  F   UNL A   1      28.342  26.570  24.023  1.00  0.00    -0.200 F 
ATOM     20  F   UNL A   1      30.280  24.844  23.114  1.00  0.00    -0.203 F 
BRANCH  14  21
ATOM     21  O   UNL A   1      28.490  29.231  23.203  1.00  0.00    -0.494 OA
ATOM     22  C   UNL A   1      28.930  30.579  23.387  1.00  0.00     0.278 C 
ENDBRANCH  14  21
ENDBRANCH  10  13
ENDBRANCH   8   9
BRANCH   8  23
ATOM     23  C   UNL A   1      33.430  23.092  25.462  1.00  0.00     0.011 C 
ATOM     24  C   UNL A   1      33.254  21.761  25.417  1.00  0.00     0.064 C 
ATOM     25  C   UNL A   1      34.568  23.279  26.430  1.00  0.00     0.156 C 
ATOM     26  C   UNL A   1      32.202  20.957  24.741  1.00  0.00     0.069 C 
ATOM     27  N   UNL A   1      34.124  21.079  26.231  1.00  0.00    -0.160 NA
ATOM     28  N   UNL A   1      34.838  21.884  26.879  1.00  0.00    -0.181 NA
ATOM     29  C   UNL A   1      35.883  23.785  25.839  1.00  0.00     0.040 C 
ENDBRANCH   8  23
ENDBRANCH   5   8
ENDBRANCH   3   4
ENDBRANCH   2   3
ENDBRANCH   1   2
BRANCH   1  30
ATOM     30  C   UNL A   1      31.790  30.042  25.748  1.00  0.00     0.002 C 
BRANCH  30  31
ATOM     31  C   UNL A   1      31.741  31.056  26.880  1.00  0.00     0.021 C 
BRANCH  31  32
ATOM     32  C   UNL A   1      32.852  32.085  26.880  1.00  0.00     0.116 C 
BRANCH  32  33
ATOM     33  N   UNL A   1      32.453  33.371  27.424  1.00  0.00    -0.352 N 
ATOM     34  C   UNL A   1      33.107  34.150  28.353  1.00  0.00     0.251 C 
ATOM     35  H   UNL A   1      31.603  33.733  27.084  1.00  0.00     0.163 HD
ATOM     36  O   UNL A   1      32.593  35.167  28.786  1.00  0.00    -0.269 OA
BRANCH  34  37
ATOM     37  C   UNL A   1      34.428  33.709  28.856  1.00  0.00     0.039 A 
ATOM     38  C   UNL A   1      34.476  32.919  30.007  1.00  0.00     0.014 A 
ATOM     39  C   UNL A   1      35.605  34.034  28.177  1.00  0.00     0.014 A 
ATOM     40  C   UNL A   1      35.698  32.401  30.435  1.00  0.00     0.010 A 
ATOM     41  C   UNL A   1      36.807  33.443  28.552  1.00  0.00     0.010 A 
ATOM     42  C   UNL A   1      36.867  32.625  29.690  1.00  0.00    -0.014 A 
BRANCH  42  43
ATOM     43  C   UNL A   1      38.156  32.006  30.086  1.00  0.00     0.031 A 
ATOM     44  C   UNL A   1      39.085  32.722  31.027  1.00  0.00     0.074 A 
ATOM     45  C   UNL A   1      38.513  30.818  29.559  1.00  0.00     0.049 A 
ATOM     46  N   UNL A   1      40.256  32.344  31.477  1.00  0.00    -0.248 NA
ATOM     47  C   UNL A   1      38.657  34.045  31.508  1.00  0.00     0.031 C 
ATOM     48  C   UNL A   1      37.724  30.046  28.596  1.00  0.00     0.029 A 
ATOM     49  N   UNL A   1      39.632  30.050  29.760  1.00  0.00    -0.354 N 
ATOM     50  C   UNL A   1      40.705  33.384  32.280  1.00  0.00     0.074 A 
ATOM     51  C   UNL A   1      39.711  34.432  32.211  1.00  0.00     0.031 C 
ATOM     52  C   UNL A   1      38.366  28.899  28.320  1.00  0.00     0.029 A 
ATOM     53  C   UNL A   1      39.629  28.874  29.051  1.00  0.00     0.049 A 
ATOM     54  H   UNL A   1      40.368  30.318  30.357  1.00  0.00     0.167 HD
ATOM     55  C   UNL A   1      41.833  33.454  33.025  1.00  0.00     0.031 A 
ATOM     56  C   UNL A   1      40.541  27.886  28.991  1.00  0.00     0.031 A 
ATOM     57  C   UNL A   1      42.819  32.410  33.097  1.00  0.00     0.049 A 
ATOM     58  C   UNL A   1      41.792  27.994  29.817  1.00  0.00     0.074 A 
ATOM     59  C   UNL A   1      43.966  32.360  33.869  1.00  0.00     0.029 A 
ATOM     60  N   UNL A   1      42.779  31.235  32.363  1.00  0.00    -0.354 N 
ATOM     61  N   UNL A   1      42.162  28.948  30.637  1.00  0.00    -0.248 NA
ATOM     62  C   UNL A   1      42.746  26.880  29.721  1.00  0.00     0.031 C 
ATOM     63  C   UNL A   1      44.653  31.182  33.556  1.00  0.00     0.029 A 
ATOM     64  C   UNL A   1      43.899  30.467  32.639  1.00  0.00     0.049 A 
ATOM     65  H   UNL A   1      42.062  30.983  31.737  1.00  0.00     0.167 HD
ATOM     66  C   UNL A   1      43.376  28.539  31.173  1.00  0.00     0.074 A 
ATOM     67  C   UNL A   1      43.667  27.239  30.603  1.00  0.00     0.031 C 
ATOM     68  C   UNL A   1      44.179  29.180  32.058  1.00  0.00     0.031 A 
BRANCH  55  69
ATOM     69  C   UNL A   1      42.065  34.712  33.818  1.00  0.00    -0.014 A 
ATOM     70  C   UNL A   1      42.735  35.814  33.261  1.00  0.00     0.009 A 
ATOM     71  C   UNL A   1      41.573  34.811  35.129  1.00  0.00     0.009 A 
ATOM     72  C   UNL A   1      42.940  36.973  34.013  1.00  0.00     0.001 A 
ATOM     73  C   UNL A   1      41.751  35.982  35.867  1.00  0.00     0.001 A 
ATOM     74  C   UNL A   1      42.443  37.058  35.313  1.00  0.00     0.000 A 
ENDBRANCH  55  69
BRANCH  56  75
ATOM     75  C   UNL A   1      40.304  26.701  28.125  1.00  0.00    -0.014 A 
ATOM     76  C   UNL A   1      40.843  26.640  26.831  1.00  0.00     0.009 A 
ATOM     77  C   UNL A   1      39.526  25.626  28.586  1.00  0.00     0.009 A 
ATOM     78  C   UNL A   1      40.580  25.545  26.005  1.00  0.00     0.001 A 
ATOM     79  C   UNL A   1      39.294  24.517  27.769  1.00  0.00     0.001 A 
ATOM     80  C   UNL A   1      39.810  24.482  26.476  1.00  0.00     0.000 A 
ENDBRANCH  56  75
BRANCH  68  81
ATOM     81  C   UNL A   1      45.433  28.468  32.486  1.00  0.00    -0.014 A 
ATOM     82  C   UNL A   1      45.439  27.586  33.578  1.00  0.00     0.009 A 
ATOM     83  C   UNL A   1      46.621  28.664  31.764  1.00  0.00     0.009 A 
ATOM     84  C   UNL A   1      46.619  26.948  33.963  1.00  0.00     0.001 A 
ATOM     85  C   UNL A   1      47.791  27.998  32.131  1.00  0.00     0.001 A 
ATOM     86  C   UNL A   1      47.792  27.150  33.237  1.00  0.00     0.000 A 
ENDBRANCH  68  81
ENDBRANCH  42  43
ENDBRANCH  34  37
ENDBRANCH  32  33
ENDBRANCH  31  32
ENDBRANCH  30  31
ENDBRANCH   1  30
TORSDOF 17
ENDMDL
MODEL 3
REMARK VINA RESULT:     -11.2      2.080      4.191
REMARK SMILES COc1ccc(C(=O)N[C@H](C(=O)NCCCCCCNC(=O)c2ccc(-c3c4nc(c(-c5ccccc5)c5ccc([nH]5)c(-c5ccccc5)c5nc(c(-c6ccccc6)c6ccc3[nH]6)C=C5)C=C4)cc2)C2=C(C)N=N[C@H]2C)c(F)c1F
REMARK SMILES IDX 16 1 15 2 14 3 13 4 11 5 12 6 10 8 9 9 7 10 8 11 6 13 3 14
REMARK SMILES IDX 4 15 80 16 5 17 78 18 81 19 79 20 2 21 1 22 71 23 72 24
REMARK SMILES IDX 76 25 73 26 74 27 75 28 77 29 17 30 18 31 19 32 20 33 21 34
REMARK SMILES IDX 22 36 23 37 24 38 70 39 25 40 69 41 26 42 27 43 28 44 63 45
REMARK SMILES IDX 29 46 68 47 62 48 64 49 30 50 67 51 61 52 60 53 31 55 53 56
REMARK SMILES IDX 38 57 52 58 39 59 42 60 51 61 65 62 40 63 41 64 50 66 66 67
REMARK SMILES IDX 43 68 32 69 33 70 37 71 34 72 36 73 35 74 54 75 55 76 59 77
REMARK SMILES IDX 56 78 58 79 57 80 44 81 45 82 49 83 46 84 48 85 47 86
REMARK H PARENT 13 7 9 12 20 35 64 54 42 65
REMARK Flexibility Score: inf
ROOT
ATOM      1  C   UNL A   1      31.560  29.709  25.658  1.00  0.00     0.002 C 
ENDROOT
BRANCH   1   2
ATOM      2  C   UNL A   1      31.856  28.206  25.736  1.00  0.00     0.021 C 
BRANCH   2   3
ATOM      3  C   UNL A   1      33.318  27.801  25.543  1.00  0.00     0.116 C 
BRANCH   3   4
ATOM      4  N   UNL A   1      33.650  26.502  26.131  1.00  0.00    -0.354 N 
ATOM      5  C   UNL A   1      33.254  25.231  25.770  1.00  0.00     0.247 C 
ATOM      6  O   UNL A   1      33.846  24.276  26.281  1.00  0.00    -0.272 OA
ATOM      7  H   UNL A   1      34.252  26.542  26.909  1.00  0.00     0.163 HD
BRANCH   5   8
ATOM      8  C   UNL A   1      32.080  25.033  24.767  1.00  0.00     0.202 C 
BRANCH   8   9
ATOM      9  N   UNL A   1      32.234  25.435  23.345  1.00  0.00    -0.336 N 
ATOM     10  C   UNL A   1      31.496  26.113  22.398  1.00  0.00     0.255 C 
ATOM     11  O   UNL A   1      31.800  25.949  21.216  1.00  0.00    -0.269 OA
ATOM     12  H   UNL A   1      33.098  25.136  22.980  1.00  0.00     0.165 HD
BRANCH  10  13
ATOM     13  C   UNL A   1      30.468  27.131  22.701  1.00  0.00     0.078 A 
ATOM     14  C   UNL A   1      28.396  29.013  22.961  1.00  0.00     0.157 A 
ATOM     15  C   UNL A   1      28.245  27.736  23.496  1.00  0.00     0.050 A 
ATOM     16  C   UNL A   1      29.595  29.345  22.355  1.00  0.00     0.201 A 
ATOM     17  C   UNL A   1      29.270  26.786  23.344  1.00  0.00     0.021 A 
ATOM     18  C   UNL A   1      30.653  28.450  22.369  1.00  0.00     0.175 A 
ATOM     19  F   UNL A   1      29.726  30.524  21.735  1.00  0.00    -0.200 F 
ATOM     20  F   UNL A   1      31.892  28.884  22.159  1.00  0.00    -0.203 F 
BRANCH  14  21
ATOM     21  O   UNL A   1      27.337  29.872  23.017  1.00  0.00    -0.494 OA
ATOM     22  C   UNL A   1      27.651  31.117  23.647  1.00  0.00     0.278 C 
ENDBRANCH  14  21
ENDBRANCH  10  13
ENDBRANCH   8   9
BRANCH   8  23
ATOM     23  C   UNL A   1      31.878  23.523  24.796  1.00  0.00     0.011 C 
ATOM     24  C   UNL A   1      31.176  22.775  25.663  1.00  0.00     0.064 C 
ATOM     25  C   UNL A   1      32.722  22.524  24.050  1.00  0.00     0.156 C 
ATOM     26  C   UNL A   1      30.263  23.188  26.761  1.00  0.00     0.069 C 
ATOM     27  N   UNL A   1      31.466  21.437  25.571  1.00  0.00    -0.160 NA
ATOM     28  N   UNL A   1      32.380  21.244  24.731  1.00  0.00    -0.181 NA
ATOM     29  C   UNL A   1      32.379  22.314  22.576  1.00  0.00     0.040 C 
ENDBRANCH   8  23
ENDBRANCH   5   8
ENDBRANCH   3   4
ENDBRANCH   2   3
ENDBRANCH   1   2
BRANCH   1  30
ATOM     30  C   UNL A   1      31.890  30.537  26.903  1.00  0.00     0.002 C 
BRANCH  30  31
ATOM     31  C   UNL A   1      31.602  32.028  26.859  1.00  0.00     0.021 C 
BRANCH  31  32
ATOM     32  C   UNL A   1      32.783  32.929  27.153  1.00  0.00     0.116 C 
BRANCH  32  33
ATOM     33  N   UNL A   1      32.405  34.250  27.619  1.00  0.00    -0.352 N 
ATOM     34  C   UNL A   1      32.989  35.010  28.608  1.00  0.00     0.251 C 
ATOM     35  H   UNL A   1      31.629  34.657  27.170  1.00  0.00     0.163 HD
ATOM     36  O   UNL A   1      32.493  36.068  28.956  1.00  0.00    -0.269 OA
BRANCH  34  37
ATOM     37  C   UNL A   1      34.206  34.500  29.281  1.00  0.00     0.039 A 
ATOM     38  C   UNL A   1      34.068  33.839  30.502  1.00  0.00     0.014 A 
ATOM     39  C   UNL A   1      35.466  34.634  28.691  1.00  0.00     0.014 A 
ATOM     40  C   UNL A   1      35.186  33.254  31.098  1.00  0.00     0.010 A 
ATOM     41  C   UNL A   1      36.561  33.974  29.240  1.00  0.00     0.010 A 
ATOM     42  C   UNL A   1      36.433  33.282  30.453  1.00  0.00    -0.014 A 
BRANCH  42  43
ATOM     43  C   UNL A   1      37.609  32.587  31.033  1.00  0.00     0.031 A 
ATOM     44  C   UNL A   1      38.204  33.057  32.331  1.00  0.00     0.074 A 
ATOM     45  C   UNL A   1      38.171  31.560  30.366  1.00  0.00     0.049 A 
ATOM     46  N   UNL A   1      39.236  32.584  32.985  1.00  0.00    -0.248 NA
ATOM     47  C   UNL A   1      37.577  34.226  32.969  1.00  0.00     0.031 C 
ATOM     48  C   UNL A   1      37.720  31.041  29.072  1.00  0.00     0.029 A 
ATOM     49  N   UNL A   1      39.245  30.768  30.683  1.00  0.00    -0.354 N 
ATOM     50  C   UNL A   1      39.385  33.401  34.098  1.00  0.00     0.074 A 
ATOM     51  C   UNL A   1      38.378  34.434  34.003  1.00  0.00     0.031 C 
ATOM     52  C   UNL A   1      38.487  29.994  28.726  1.00  0.00     0.029 A 
ATOM     53  C   UNL A   1      39.509  29.796  29.749  1.00  0.00     0.049 A 
ATOM     54  H   UNL A   1      39.777  30.885  31.503  1.00  0.00     0.167 HD
ATOM     55  C   UNL A   1      40.267  33.292  35.119  1.00  0.00     0.031 A 
ATOM     56  C   UNL A   1      40.468  28.852  29.716  1.00  0.00     0.031 A 
ATOM     57  C   UNL A   1      41.267  32.261  35.215  1.00  0.00     0.049 A 
ATOM     58  C   UNL A   1      41.445  28.760  30.854  1.00  0.00     0.074 A 
ATOM     59  C   UNL A   1      42.168  32.029  36.239  1.00  0.00     0.029 A 
ATOM     60  N   UNL A   1      41.502  31.297  34.248  1.00  0.00    -0.354 N 
ATOM     61  N   UNL A   1      41.519  29.490  31.941  1.00  0.00    -0.248 NA
ATOM     62  C   UNL A   1      42.462  27.703  30.769  1.00  0.00     0.031 C 
ATOM     63  C   UNL A   1      42.990  30.961  35.864  1.00  0.00     0.029 A 
ATOM     64  C   UNL A   1      42.556  30.487  34.636  1.00  0.00     0.049 A 
ATOM     65  H   UNL A   1      40.995  31.201  33.409  1.00  0.00     0.167 HD
ATOM     66  C   UNL A   1      42.571  28.965  32.680  1.00  0.00     0.074 A 
ATOM     67  C   UNL A   1      43.089  27.840  31.927  1.00  0.00     0.031 C 
ATOM     68  C   UNL A   1      43.065  29.376  33.874  1.00  0.00     0.031 A 
BRANCH  55  69
ATOM     69  C   UNL A   1      40.196  34.323  36.212  1.00  0.00    -0.014 A 
ATOM     70  C   UNL A   1      40.908  35.530  36.126  1.00  0.00     0.009 A 
ATOM     71  C   UNL A   1      39.375  34.099  37.329  1.00  0.00     0.009 A 
ATOM     72  C   UNL A   1      40.828  36.475  37.151  1.00  0.00     0.001 A 
ATOM     73  C   UNL A   1      39.272  35.059  38.337  1.00  0.00     0.001 A 
ATOM     74  C   UNL A   1      40.006  36.242  38.253  1.00  0.00     0.000 A 
ENDBRANCH  55  69
BRANCH  56  75
ATOM     75  C   UNL A   1      40.549  27.909  28.569  1.00  0.00    -0.014 A 
ATOM     76  C   UNL A   1      39.847  26.694  28.591  1.00  0.00     0.009 A 
ATOM     77  C   UNL A   1      41.340  28.213  27.449  1.00  0.00     0.009 A 
ATOM     78  C   UNL A   1      39.961  25.790  27.531  1.00  0.00     0.001 A 
ATOM     79  C   UNL A   1      41.426  27.323  26.377  1.00  0.00     0.001 A 
ATOM     80  C   UNL A   1      40.746  26.107  26.423  1.00  0.00     0.000 A 
ENDBRANCH  56  75
BRANCH  68  81
ATOM     81  C   UNL A   1      44.205  28.584  34.453  1.00  0.00    -0.014 A 
ATOM     82  C   UNL A   1      45.540  28.970  34.256  1.00  0.00     0.009 A 
ATOM     83  C   UNL A   1      43.934  27.449  35.234  1.00  0.00     0.009 A 
ATOM     84  C   UNL A   1      46.581  28.211  34.794  1.00  0.00     0.001 A 
ATOM     85  C   UNL A   1      44.976  26.712  35.798  1.00  0.00     0.001 A 
ATOM     86  C   UNL A   1      46.299  27.086  35.568  1.00  0.00     0.000 A 
ENDBRANCH  68  81
ENDBRANCH  42  43
ENDBRANCH  34  37
ENDBRANCH  32  33
ENDBRANCH  31  32
ENDBRANCH  30  31
ENDBRANCH   1  30
TORSDOF 17
ENDMDL
