MODEL 1
REMARK VINA RESULT:     -10.6      0.000      0.000
REMARK SMILES Cc1cc(C(=O)N[C@](C)(C(=O)NCCCCCCNC(=O)c2ccc(-c3c4nc(c(-c5ccccc5)c5ccc([nH]5)c(-c5ccccc5)c5nc(c(-c6ccccc6)c6ccc3[nH]6)C=C5)C=C4)cc2)C(F)(F)F)no1
REMARK SMILES IDX 15 1 14 2 13 3 12 4 10 5 11 6 8 8 9 9 7 10 5 11 6 12 4 14
REMARK SMILES IDX 1 15 2 16 3 17 75 18 74 19 70 20 71 21 72 22 73 23 16 24
REMARK SMILES IDX 17 25 18 26 19 27 20 28 21 30 22 31 23 32 69 33 24 34 68 35
REMARK SMILES IDX 25 36 26 37 27 38 62 39 28 40 67 41 61 42 63 43 29 44 66 45
REMARK SMILES IDX 60 46 59 47 30 49 52 50 37 51 51 52 38 53 41 54 50 55 64 56
REMARK SMILES IDX 39 57 40 58 49 60 65 61 42 62 31 63 32 64 36 65 33 66 35 67
REMARK SMILES IDX 34 68 53 69 54 70 58 71 55 72 57 73 56 74 43 75 44 76 48 77
REMARK SMILES IDX 45 78 47 79 46 80
REMARK H PARENT 12 7 7 13 19 29 63 48 41 59
REMARK Flexibility Score: inf
ROOT
ATOM      1  C   UNL A   1      32.139  29.647  27.162  1.00  0.00     0.002 C 
ENDROOT
BRANCH   1   2
ATOM      2  C   UNL A   1      33.508  29.016  26.874  1.00  0.00     0.021 C 
BRANCH   2   3
ATOM      3  C   UNL A   1      33.439  27.554  26.440  1.00  0.00     0.116 C 
BRANCH   3   4
ATOM      4  N   UNL A   1      32.064  27.084  26.447  1.00  0.00    -0.354 N 
ATOM      5  C   UNL A   1      31.347  26.410  25.504  1.00  0.00     0.254 C 
ATOM      6  O   UNL A   1      30.167  26.187  25.784  1.00  0.00    -0.272 OA
ATOM      7  H   UNL A   1      31.567  27.285  27.273  1.00  0.00     0.163 HD
BRANCH   5   8
ATOM      8  C   UNL A   1      31.946  26.064  24.132  1.00  0.00     0.212 C 
ATOM      9  C   UNL A   1      30.761  25.623  23.231  1.00  0.00     0.056 C 
BRANCH   8  10
ATOM     10  N   UNL A   1      32.654  27.200  23.445  1.00  0.00    -0.329 N 
ATOM     11  C   UNL A   1      32.332  28.542  23.352  1.00  0.00     0.274 C 
ATOM     12  O   UNL A   1      33.278  29.330  23.389  1.00  0.00    -0.267 OA
ATOM     13  H   UNL A   1      33.486  26.944  22.983  1.00  0.00     0.165 HD
BRANCH  11  14
ATOM     14  C   UNL A   1      30.979  28.959  22.985  1.00  0.00     0.171 A 
ATOM     15  C   UNL A   1      27.330  29.193  23.027  1.00  0.00     0.091 C 
ATOM     16  C   UNL A   1      28.796  29.242  22.887  1.00  0.00     0.134 A 
ATOM     17  C   UNL A   1      29.845  29.281  23.773  1.00  0.00     0.082 A 
ATOM     18  O   UNL A   1      29.285  29.161  21.626  1.00  0.00    -0.361 OA
ATOM     19  N   UNL A   1      30.652  28.992  21.679  1.00  0.00    -0.074 NA
ENDBRANCH  11  14
ENDBRANCH   8  10
BRANCH   8  20
ATOM     20  C   UNL A   1      32.887  24.850  24.307  1.00  0.00     0.420 C 
ATOM     21  F   UNL A   1      32.946  24.052  23.221  1.00  0.00    -0.168 F 
ATOM     22  F   UNL A   1      34.156  25.294  24.525  1.00  0.00    -0.168 F 
ATOM     23  F   UNL A   1      32.553  24.095  25.377  1.00  0.00    -0.168 F 
ENDBRANCH   8  20
ENDBRANCH   5   8
ENDBRANCH   3   4
ENDBRANCH   2   3
ENDBRANCH   1   2
BRANCH   1  24
ATOM     24  C   UNL A   1      31.697  30.722  26.166  1.00  0.00     0.002 C 
BRANCH  24  25
ATOM     25  C   UNL A   1      31.408  32.097  26.762  1.00  0.00     0.021 C 
BRANCH  25  26
ATOM     26  C   UNL A   1      32.633  32.833  27.283  1.00  0.00     0.116 C 
BRANCH  26  27
ATOM     27  N   UNL A   1      32.349  34.207  27.664  1.00  0.00    -0.352 N 
ATOM     28  C   UNL A   1      32.984  34.975  28.608  1.00  0.00     0.251 C 
ATOM     29  H   UNL A   1      31.607  34.643  27.184  1.00  0.00     0.163 HD
ATOM     30  O   UNL A   1      32.558  36.087  28.908  1.00  0.00    -0.269 OA
BRANCH  28  31
ATOM     31  C   UNL A   1      34.173  34.426  29.289  1.00  0.00     0.039 A 
ATOM     32  C   UNL A   1      34.003  33.714  30.477  1.00  0.00     0.014 A 
ATOM     33  C   UNL A   1      35.443  34.572  28.722  1.00  0.00     0.014 A 
ATOM     34  C   UNL A   1      35.103  33.090  31.066  1.00  0.00     0.010 A 
ATOM     35  C   UNL A   1      36.521  33.884  29.267  1.00  0.00     0.010 A 
ATOM     36  C   UNL A   1      36.363  33.141  30.447  1.00  0.00    -0.014 A 
BRANCH  36  37
ATOM     37  C   UNL A   1      37.533  32.436  31.024  1.00  0.00     0.031 A 
ATOM     38  C   UNL A   1      38.165  32.946  32.290  1.00  0.00     0.074 A 
ATOM     39  C   UNL A   1      38.060  31.375  30.383  1.00  0.00     0.049 A 
ATOM     40  N   UNL A   1      39.226  32.507  32.918  1.00  0.00    -0.248 NA
ATOM     41  C   UNL A   1      37.538  34.121  32.919  1.00  0.00     0.031 C 
ATOM     42  C   UNL A   1      37.562  30.806  29.127  1.00  0.00     0.029 A 
ATOM     43  N   UNL A   1      39.137  30.586  30.699  1.00  0.00    -0.354 N 
ATOM     44  C   UNL A   1      39.400  33.357  34.002  1.00  0.00     0.074 A 
ATOM     45  C   UNL A   1      38.372  34.371  33.917  1.00  0.00     0.031 C 
ATOM     46  C   UNL A   1      38.311  29.740  28.801  1.00  0.00     0.029 A 
ATOM     47  C   UNL A   1      39.365  29.576  29.797  1.00  0.00     0.049 A 
ATOM     48  H   UNL A   1      39.694  30.731  31.499  1.00  0.00     0.167 HD
ATOM     49  C   UNL A   1      40.316  33.288  34.996  1.00  0.00     0.031 A 
ATOM     50  C   UNL A   1      40.319  28.626  29.773  1.00  0.00     0.031 A 
ATOM     51  C   UNL A   1      41.329  32.272  35.090  1.00  0.00     0.049 A 
ATOM     52  C   UNL A   1      41.338  28.584  30.879  1.00  0.00     0.074 A 
ATOM     53  C   UNL A   1      42.276  32.087  36.082  1.00  0.00     0.029 A 
ATOM     54  N   UNL A   1      41.523  31.265  34.157  1.00  0.00    -0.354 N 
ATOM     55  N   UNL A   1      41.451  29.361  31.929  1.00  0.00    -0.248 NA
ATOM     56  C   UNL A   1      42.354  27.525  30.800  1.00  0.00     0.031 C 
ATOM     57  C   UNL A   1      43.074  30.995  35.726  1.00  0.00     0.029 A 
ATOM     58  C   UNL A   1      42.587  30.468  34.540  1.00  0.00     0.049 A 
ATOM     59  H   UNL A   1      40.985  31.137  33.343  1.00  0.00     0.167 HD
ATOM     60  C   UNL A   1      42.530  28.865  32.651  1.00  0.00     0.074 A 
ATOM     61  C   UNL A   1      43.025  27.712  31.927  1.00  0.00     0.031 C 
ATOM     62  C   UNL A   1      43.061  29.321  33.811  1.00  0.00     0.031 A 
BRANCH  49  63
ATOM     63  C   UNL A   1      40.259  34.344  36.064  1.00  0.00    -0.014 A 
ATOM     64  C   UNL A   1      41.082  35.481  36.004  1.00  0.00     0.009 A 
ATOM     65  C   UNL A   1      39.349  34.220  37.125  1.00  0.00     0.009 A 
ATOM     66  C   UNL A   1      41.019  36.453  37.004  1.00  0.00     0.001 A 
ATOM     67  C   UNL A   1      39.266  35.209  38.107  1.00  0.00     0.001 A 
ATOM     68  C   UNL A   1      40.108  36.319  38.051  1.00  0.00     0.000 A 
ENDBRANCH  49  63
BRANCH  50  69
ATOM     69  C   UNL A   1      40.354  27.622  28.677  1.00  0.00    -0.014 A 
ATOM     70  C   UNL A   1      41.040  27.897  27.484  1.00  0.00     0.009 A 
ATOM     71  C   UNL A   1      39.685  26.395  28.807  1.00  0.00     0.009 A 
ATOM     72  C   UNL A   1      41.026  26.980  26.430  1.00  0.00     0.001 A 
ATOM     73  C   UNL A   1      39.697  25.468  27.763  1.00  0.00     0.001 A 
ATOM     74  C   UNL A   1      40.357  25.765  26.571  1.00  0.00     0.000 A 
ENDBRANCH  50  69
BRANCH  62  75
ATOM     75  C   UNL A   1      44.212  28.549  34.389  1.00  0.00    -0.014 A 
ATOM     76  C   UNL A   1      45.542  28.926  34.145  1.00  0.00     0.009 A 
ATOM     77  C   UNL A   1      43.958  27.450  35.224  1.00  0.00     0.009 A 
ATOM     78  C   UNL A   1      46.594  28.196  34.700  1.00  0.00     0.001 A 
ATOM     79  C   UNL A   1      45.011  26.740  35.801  1.00  0.00     0.001 A 
ATOM     80  C   UNL A   1      46.328  27.107  35.531  1.00  0.00     0.000 A 
ENDBRANCH  62  75
ENDBRANCH  36  37
ENDBRANCH  28  31
ENDBRANCH  26  27
ENDBRANCH  25  26
ENDBRANCH  24  25
ENDBRANCH   1  24
TORSDOF 16
ENDMDL
MODEL 2
REMARK VINA RESULT:     -10.6      4.302      8.701
REMARK SMILES Cc1cc(C(=O)N[C@](C)(C(=O)NCCCCCCNC(=O)c2ccc(-c3c4nc(c(-c5ccccc5)c5ccc([nH]5)c(-c5ccccc5)c5nc(c(-c6ccccc6)c6ccc3[nH]6)C=C5)C=C4)cc2)C(F)(F)F)no1
REMARK SMILES IDX 15 1 14 2 13 3 12 4 10 5 11 6 8 8 9 9 7 10 5 11 6 12 4 14
REMARK SMILES IDX 1 15 2 16 3 17 75 18 74 19 70 20 71 21 72 22 73 23 16 24
REMARK SMILES IDX 17 25 18 26 19 27 20 28 21 30 22 31 23 32 69 33 24 34 68 35
REMARK SMILES IDX 25 36 26 37 27 38 62 39 28 40 67 41 61 42 63 43 29 44 66 45
REMARK SMILES IDX 60 46 59 47 30 49 52 50 37 51 51 52 38 53 41 54 50 55 64 56
REMARK SMILES IDX 39 57 40 58 49 60 65 61 42 62 31 63 32 64 36 65 33 66 35 67
REMARK SMILES IDX 34 68 53 69 54 70 58 71 55 72 57 73 56 74 43 75 44 76 48 77
REMARK SMILES IDX 45 78 47 79 46 80
REMARK H PARENT 12 7 7 13 19 29 63 48 41 59
REMARK Flexibility Score: inf
ROOT
ATOM      1  C   UNL A   1      37.028  22.897  25.110  1.00  0.00     0.002 C 
ENDROOT
BRANCH   1   2
ATOM      2  C   UNL A   1      36.065  23.846  25.835  1.00  0.00     0.021 C 
BRANCH   2   3
ATOM      3  C   UNL A   1      35.131  24.613  24.904  1.00  0.00     0.116 C 
BRANCH   3   4
ATOM      4  N   UNL A   1      34.202  25.426  25.669  1.00  0.00    -0.354 N 
ATOM      5  C   UNL A   1      32.840  25.488  25.643  1.00  0.00     0.254 C 
ATOM      6  O   UNL A   1      32.326  26.325  26.389  1.00  0.00    -0.272 OA
ATOM      7  H   UNL A   1      34.627  26.035  26.316  1.00  0.00     0.163 HD
BRANCH   5   8
ATOM      8  C   UNL A   1      32.015  24.651  24.654  1.00  0.00     0.212 C 
ATOM      9  C   UNL A   1      30.550  25.154  24.765  1.00  0.00     0.056 C 
BRANCH   8  10
ATOM     10  N   UNL A   1      32.438  24.769  23.215  1.00  0.00    -0.329 N 
ATOM     11  C   UNL A   1      32.797  25.876  22.466  1.00  0.00     0.274 C 
ATOM     12  O   UNL A   1      33.703  25.707  21.649  1.00  0.00    -0.267 OA
ATOM     13  H   UNL A   1      32.464  23.916  22.724  1.00  0.00     0.165 HD
BRANCH  11  14
ATOM     14  C   UNL A   1      31.975  27.085  22.485  1.00  0.00     0.171 A 
ATOM     15  C   UNL A   1      30.060  29.914  23.791  1.00  0.00     0.091 C 
ATOM     16  C   UNL A   1      30.810  28.854  23.095  1.00  0.00     0.134 A 
ATOM     17  C   UNL A   1      32.028  28.250  23.292  1.00  0.00     0.082 A 
ATOM     18  O   UNL A   1      30.178  28.248  22.060  1.00  0.00    -0.361 OA
ATOM     19  N   UNL A   1      30.906  27.145  21.668  1.00  0.00    -0.074 NA
ENDBRANCH  11  14
ENDBRANCH   8  10
BRANCH   8  20
ATOM     20  C   UNL A   1      32.047  23.178  25.121  1.00  0.00     0.420 C 
ATOM     21  F   UNL A   1      32.519  23.019  26.375  1.00  0.00    -0.168 F 
ATOM     22  F   UNL A   1      30.780  22.681  25.123  1.00  0.00    -0.168 F 
ATOM     23  F   UNL A   1      32.769  22.394  24.289  1.00  0.00    -0.168 F 
ENDBRANCH   8  20
ENDBRANCH   5   8
ENDBRANCH   3   4
ENDBRANCH   2   3
ENDBRANCH   1   2
BRANCH   1  24
ATOM     24  C   UNL A   1      36.541  21.451  24.979  1.00  0.00     0.002 C 
BRANCH  24  25
ATOM     25  C   UNL A   1      37.633  20.388  24.911  1.00  0.00     0.021 C 
BRANCH  25  26
ATOM     26  C   UNL A   1      38.894  20.724  25.691  1.00  0.00     0.116 C 
BRANCH  26  27
ATOM     27  N   UNL A   1      39.874  19.649  25.676  1.00  0.00    -0.352 N 
ATOM     28  C   UNL A   1      41.202  19.706  26.015  1.00  0.00     0.251 C 
ATOM     29  H   UNL A   1      39.541  18.768  25.387  1.00  0.00     0.163 HD
ATOM     30  O   UNL A   1      41.940  18.741  25.840  1.00  0.00    -0.269 OA
BRANCH  28  31
ATOM     31  C   UNL A   1      41.745  20.966  26.562  1.00  0.00     0.039 A 
ATOM     32  C   UNL A   1      42.214  21.940  25.679  1.00  0.00     0.014 A 
ATOM     33  C   UNL A   1      41.734  21.201  27.940  1.00  0.00     0.014 A 
ATOM     34  C   UNL A   1      42.617  23.180  26.176  1.00  0.00     0.010 A 
ATOM     35  C   UNL A   1      42.059  22.463  28.424  1.00  0.00     0.010 A 
ATOM     36  C   UNL A   1      42.510  23.462  27.548  1.00  0.00    -0.014 A 
BRANCH  36  37
ATOM     37  C   UNL A   1      42.877  24.793  28.090  1.00  0.00     0.031 A 
ATOM     38  C   UNL A   1      41.811  25.834  28.303  1.00  0.00     0.074 A 
ATOM     39  C   UNL A   1      44.168  25.084  28.337  1.00  0.00     0.049 A 
ATOM     40  N   UNL A   1      41.937  27.072  28.709  1.00  0.00    -0.248 NA
ATOM     41  C   UNL A   1      40.426  25.441  27.992  1.00  0.00     0.031 C 
ATOM     42  C   UNL A   1      45.299  24.174  28.137  1.00  0.00     0.029 A 
ATOM     43  N   UNL A   1      44.749  26.234  28.809  1.00  0.00    -0.354 N 
ATOM     44  C   UNL A   1      40.655  27.605  28.689  1.00  0.00     0.074 A 
ATOM     45  C   UNL A   1      39.775  26.579  28.177  1.00  0.00     0.031 C 
ATOM     46  C   UNL A   1      46.430  24.790  28.516  1.00  0.00     0.029 A 
ATOM     47  C   UNL A   1      46.113  26.148  28.945  1.00  0.00     0.049 A 
ATOM     48  H   UNL A   1      44.236  27.045  29.031  1.00  0.00     0.167 HD
ATOM     49  C   UNL A   1      40.240  28.831  29.085  1.00  0.00     0.031 A 
ATOM     50  C   UNL A   1      47.007  27.062  29.365  1.00  0.00     0.031 A 
ATOM     51  C   UNL A   1      41.112  29.848  29.608  1.00  0.00     0.049 A 
ATOM     52  C   UNL A   1      46.523  28.424  29.780  1.00  0.00     0.074 A 
ATOM     53  C   UNL A   1      40.783  31.106  30.081  1.00  0.00     0.029 A 
ATOM     54  N   UNL A   1      42.486  29.718  29.733  1.00  0.00    -0.354 N 
ATOM     55  N   UNL A   1      45.298  28.892  29.810  1.00  0.00    -0.248 NA
ATOM     56  C   UNL A   1      47.545  29.380  30.229  1.00  0.00     0.031 C 
ATOM     57  C   UNL A   1      41.965  31.757  30.448  1.00  0.00     0.029 A 
ATOM     58  C   UNL A   1      43.022  30.882  30.255  1.00  0.00     0.049 A 
ATOM     59  H   UNL A   1      43.003  28.918  29.486  1.00  0.00     0.167 HD
ATOM     60  C   UNL A   1      45.400  30.184  30.312  1.00  0.00     0.074 A 
ATOM     61  C   UNL A   1      46.803  30.418  30.586  1.00  0.00     0.031 C 
ATOM     62  C   UNL A   1      44.420  31.094  30.528  1.00  0.00     0.031 A 
BRANCH  49  63
ATOM     63  C   UNL A   1      38.772  29.136  28.969  1.00  0.00    -0.014 A 
ATOM     64  C   UNL A   1      37.912  28.989  30.069  1.00  0.00     0.009 A 
ATOM     65  C   UNL A   1      38.249  29.610  27.756  1.00  0.00     0.009 A 
ATOM     66  C   UNL A   1      36.551  29.276  29.946  1.00  0.00     0.001 A 
ATOM     67  C   UNL A   1      36.894  29.925  27.645  1.00  0.00     0.001 A 
ATOM     68  C   UNL A   1      36.045  29.749  28.737  1.00  0.00     0.000 A 
ENDBRANCH  49  63
BRANCH  50  69
ATOM     69  C   UNL A   1      48.453  26.724  29.433  1.00  0.00    -0.014 A 
ATOM     70  C   UNL A   1      49.296  26.986  28.341  1.00  0.00     0.009 A 
ATOM     71  C   UNL A   1      48.995  26.118  30.577  1.00  0.00     0.009 A 
ATOM     72  C   UNL A   1      50.643  26.616  28.380  1.00  0.00     0.001 A 
ATOM     73  C   UNL A   1      50.349  25.776  30.624  1.00  0.00     0.001 A 
ATOM     74  C   UNL A   1      51.169  26.014  29.522  1.00  0.00     0.000 A 
ENDBRANCH  50  69
BRANCH  62  75
ATOM     75  C   UNL A   1      44.826  32.411  31.126  1.00  0.00    -0.014 A 
ATOM     76  C   UNL A   1      45.159  33.509  30.318  1.00  0.00     0.009 A 
ATOM     77  C   UNL A   1      44.834  32.563  32.522  1.00  0.00     0.009 A 
ATOM     78  C   UNL A   1      45.526  34.724  30.899  1.00  0.00     0.001 A 
ATOM     79  C   UNL A   1      45.173  33.787  33.098  1.00  0.00     0.001 A 
ATOM     80  C   UNL A   1      45.528  34.864  32.287  1.00  0.00     0.000 A 
ENDBRANCH  62  75
ENDBRANCH  36  37
ENDBRANCH  28  31
ENDBRANCH  26  27
ENDBRANCH  25  26
ENDBRANCH  24  25
ENDBRANCH   1  24
TORSDOF 16
ENDMDL
MODEL 3
REMARK VINA RESULT:     -10.6      1.740      3.053
REMARK SMILES Cc1cc(C(=O)N[C@](C)(C(=O)NCCCCCCNC(=O)c2ccc(-c3c4nc(c(-c5ccccc5)c5ccc([nH]5)c(-c5ccccc5)c5nc(c(-c6ccccc6)c6ccc3[nH]6)C=C5)C=C4)cc2)C(F)(F)F)no1
REMARK SMILES IDX 15 1 14 2 13 3 12 4 10 5 11 6 8 8 9 9 7 10 5 11 6 12 4 14
REMARK SMILES IDX 1 15 2 16 3 17 75 18 74 19 70 20 71 21 72 22 73 23 16 24
REMARK SMILES IDX 17 25 18 26 19 27 20 28 21 30 22 31 23 32 69 33 24 34 68 35
REMARK SMILES IDX 25 36 26 37 27 38 62 39 28 40 67 41 61 42 63 43 29 44 66 45
REMARK SMILES IDX 60 46 59 47 30 49 52 50 37 51 51 52 38 53 41 54 50 55 64 56
REMARK SMILES IDX 39 57 40 58 49 60 65 61 42 62 31 63 32 64 36 65 33 66 35 67
REMARK SMILES IDX 34 68 53 69 54 70 58 71 55 72 57 73 56 74 43 75 44 76 48 77
REMARK SMILES IDX 45 78 47 79 46 80
REMARK H PARENT 12 7 7 13 19 29 63 48 41 59
REMARK Flexibility Score: inf
ROOT
ATOM      1  C   UNL A   1      32.437  29.571  27.072  1.00  0.00     0.002 C 
ENDROOT
BRANCH   1   2
ATOM      2  C   UNL A   1      31.825  28.183  27.303  1.00  0.00     0.021 C 
BRANCH   2   3
ATOM      3  C   UNL A   1      32.095  27.190  26.177  1.00  0.00     0.116 C 
BRANCH   3   4
ATOM      4  N   UNL A   1      30.899  26.986  25.378  1.00  0.00    -0.354 N 
ATOM      5  C   UNL A   1      30.448  25.886  24.711  1.00  0.00     0.254 C 
ATOM      6  O   UNL A   1      29.404  26.036  24.071  1.00  0.00    -0.272 OA
ATOM      7  H   UNL A   1      30.315  27.776  25.307  1.00  0.00     0.163 HD
BRANCH   5   8
ATOM      8  C   UNL A   1      31.260  24.583  24.666  1.00  0.00     0.212 C 
ATOM      9  C   UNL A   1      30.667  23.733  23.509  1.00  0.00     0.056 C 
BRANCH   8  10
ATOM     10  N   UNL A   1      32.731  24.761  24.404  1.00  0.00    -0.329 N 
ATOM     11  C   UNL A   1      33.661  23.900  23.851  1.00  0.00     0.274 C 
ATOM     12  O   UNL A   1      34.517  24.415  23.131  1.00  0.00    -0.267 OA
ATOM     13  H   UNL A   1      33.091  25.638  24.672  1.00  0.00     0.165 HD
BRANCH  11  14
ATOM     14  C   UNL A   1      33.752  22.512  24.304  1.00  0.00     0.171 A 
ATOM     15  C   UNL A   1      32.716  19.129  25.232  1.00  0.00     0.091 C 
ATOM     16  C   UNL A   1      33.310  20.429  24.874  1.00  0.00     0.134 A 
ATOM     17  C   UNL A   1      33.113  21.329  23.855  1.00  0.00     0.082 A 
ATOM     18  O   UNL A   1      34.212  20.941  25.746  1.00  0.00    -0.361 OA
ATOM     19  N   UNL A   1      34.499  22.242  25.391  1.00  0.00    -0.074 NA
ENDBRANCH  11  14
ENDBRANCH   8  10
BRANCH   8  20
ATOM     20  C   UNL A   1      31.022  23.817  25.988  1.00  0.00     0.420 C 
ATOM     21  F   UNL A   1      32.038  23.929  26.868  1.00  0.00    -0.168 F 
ATOM     22  F   UNL A   1      29.921  24.326  26.608  1.00  0.00    -0.168 F 
ATOM     23  F   UNL A   1      30.776  22.505  25.780  1.00  0.00    -0.168 F 
ENDBRANCH   8  20
ENDBRANCH   5   8
ENDBRANCH   3   4
ENDBRANCH   2   3
ENDBRANCH   1   2
BRANCH   1  24
ATOM     24  C   UNL A   1      31.693  30.449  26.061  1.00  0.00     0.002 C 
BRANCH  24  25
ATOM     25  C   UNL A   1      31.418  31.882  26.507  1.00  0.00     0.021 C 
BRANCH  25  26
ATOM     26  C   UNL A   1      32.584  32.564  27.205  1.00  0.00     0.116 C 
BRANCH  26  27
ATOM     27  N   UNL A   1      32.304  33.947  27.558  1.00  0.00    -0.352 N 
ATOM     28  C   UNL A   1      32.949  34.736  28.476  1.00  0.00     0.251 C 
ATOM     29  H   UNL A   1      31.557  34.371  27.075  1.00  0.00     0.163 HD
ATOM     30  O   UNL A   1      32.526  35.855  28.754  1.00  0.00    -0.269 OA
BRANCH  28  31
ATOM     31  C   UNL A   1      34.146  34.204  29.157  1.00  0.00     0.039 A 
ATOM     32  C   UNL A   1      33.980  33.394  30.281  1.00  0.00     0.014 A 
ATOM     33  C   UNL A   1      35.423  34.462  28.649  1.00  0.00     0.014 A 
ATOM     34  C   UNL A   1      35.095  32.789  30.862  1.00  0.00     0.010 A 
ATOM     35  C   UNL A   1      36.521  33.795  29.179  1.00  0.00     0.010 A 
ATOM     36  C   UNL A   1      36.368  32.957  30.294  1.00  0.00    -0.014 A 
BRANCH  36  37
ATOM     37  C   UNL A   1      37.559  32.275  30.859  1.00  0.00     0.031 A 
ATOM     38  C   UNL A   1      38.201  32.807  32.111  1.00  0.00     0.074 A 
ATOM     39  C   UNL A   1      38.093  31.218  30.219  1.00  0.00     0.049 A 
ATOM     40  N   UNL A   1      39.279  32.390  32.726  1.00  0.00    -0.248 NA
ATOM     41  C   UNL A   1      37.565  33.977  32.740  1.00  0.00     0.031 C 
ATOM     42  C   UNL A   1      37.585  30.630  28.977  1.00  0.00     0.029 A 
ATOM     43  N   UNL A   1      39.187  30.449  30.526  1.00  0.00    -0.354 N 
ATOM     44  C   UNL A   1      39.455  33.252  33.800  1.00  0.00     0.074 A 
ATOM     45  C   UNL A   1      38.411  34.249  33.723  1.00  0.00     0.031 C 
ATOM     46  C   UNL A   1      38.346  29.573  28.648  1.00  0.00     0.029 A 
ATOM     47  C   UNL A   1      39.417  29.434  29.629  1.00  0.00     0.049 A 
ATOM     48  H   UNL A   1      39.754  30.609  31.315  1.00  0.00     0.167 HD
ATOM     49  C   UNL A   1      40.387  33.206  34.781  1.00  0.00     0.031 A 
ATOM     50  C   UNL A   1      40.386  28.500  29.599  1.00  0.00     0.031 A 
ATOM     51  C   UNL A   1      41.418  32.208  34.868  1.00  0.00     0.049 A 
ATOM     52  C   UNL A   1      41.422  28.483  30.689  1.00  0.00     0.074 A 
ATOM     53  C   UNL A   1      42.383  32.047  35.847  1.00  0.00     0.029 A 
ATOM     54  N   UNL A   1      41.614  31.196  33.940  1.00  0.00    -0.354 N 
ATOM     55  N   UNL A   1      41.539  29.271  31.730  1.00  0.00    -0.248 NA
ATOM     56  C   UNL A   1      42.454  27.440  30.603  1.00  0.00     0.031 C 
ATOM     57  C   UNL A   1      43.192  30.964  35.488  1.00  0.00     0.029 A 
ATOM     58  C   UNL A   1      42.697  30.419  34.314  1.00  0.00     0.049 A 
ATOM     59  H   UNL A   1      41.066  31.052  33.137  1.00  0.00     0.167 HD
ATOM     60  C   UNL A   1      42.636  28.799  32.440  1.00  0.00     0.074 A 
ATOM     61  C   UNL A   1      43.139  27.647  31.718  1.00  0.00     0.031 C 
ATOM     62  C   UNL A   1      43.178  29.274  33.587  1.00  0.00     0.031 A 
BRANCH  49  63
ATOM     63  C   UNL A   1      40.330  34.270  35.841  1.00  0.00    -0.014 A 
ATOM     64  C   UNL A   1      41.027  35.481  35.692  1.00  0.00     0.009 A 
ATOM     65  C   UNL A   1      39.543  34.077  36.986  1.00  0.00     0.009 A 
ATOM     66  C   UNL A   1      40.965  36.460  36.685  1.00  0.00     0.001 A 
ATOM     67  C   UNL A   1      39.458  35.071  37.963  1.00  0.00     0.001 A 
ATOM     68  C   UNL A   1      40.176  36.257  37.816  1.00  0.00     0.000 A 
ENDBRANCH  49  63
BRANCH  50  69
ATOM     69  C   UNL A   1      40.420  27.487  28.511  1.00  0.00    -0.014 A 
ATOM     70  C   UNL A   1      39.758  26.258  28.663  1.00  0.00     0.009 A 
ATOM     71  C   UNL A   1      41.132  27.730  27.326  1.00  0.00     0.009 A 
ATOM     72  C   UNL A   1      39.837  25.282  27.667  1.00  0.00     0.001 A 
ATOM     73  C   UNL A   1      41.185  26.764  26.319  1.00  0.00     0.001 A 
ATOM     74  C   UNL A   1      40.548  25.536  26.495  1.00  0.00     0.000 A 
ENDBRANCH  50  69
BRANCH  62  75
ATOM     75  C   UNL A   1      44.350  28.525  34.154  1.00  0.00    -0.014 A 
ATOM     76  C   UNL A   1      45.669  28.878  33.830  1.00  0.00     0.009 A 
ATOM     77  C   UNL A   1      44.128  27.475  35.060  1.00  0.00     0.009 A 
ATOM     78  C   UNL A   1      46.741  28.170  34.376  1.00  0.00     0.001 A 
ATOM     79  C   UNL A   1      45.202  26.789  35.626  1.00  0.00     0.001 A 
ATOM     80  C   UNL A   1      46.508  27.130  35.276  1.00  0.00     0.000 A 
ENDBRANCH  62  75
ENDBRANCH  36  37
ENDBRANCH  28  31
ENDBRANCH  26  27
ENDBRANCH  25  26
ENDBRANCH  24  25
ENDBRANCH   1  24
TORSDOF 16
ENDMDL
