MODEL 1
REMARK VINA RESULT:      -9.8      0.000      0.000
REMARK SMILES CC[C@@](C)([NH2+][C@H]1CC[C@H](C)[C@H](C)C1)C(=O)NCCCCCCNC(=O)c1ccc(-c2c3nc(c(-c4ccccc4)c4ccc([nH]4)c(-c4ccccc4)c4nc(c(-c5ccccc5)c5ccc2[nH]5)C=C4)C=C3)cc1
REMARK SMILES IDX 19 1 18 2 17 3 16 4 14 5 15 6 3 8 4 9 2 10 1 11 5 12 6 15
REMARK SMILES IDX 7 16 13 17 8 18 11 19 9 20 12 21 10 22 20 23 21 24 22 25
REMARK SMILES IDX 23 26 24 27 25 29 26 30 27 31 73 32 28 33 72 34 29 35 30 36
REMARK SMILES IDX 31 37 66 38 32 39 71 40 65 41 67 42 33 43 70 44 64 45 63 46
REMARK SMILES IDX 34 48 56 49 41 50 55 51 42 52 45 53 54 54 68 55 43 56 44 57
REMARK SMILES IDX 53 59 69 60 46 61 35 62 36 63 40 64 37 65 39 66 38 67 57 68
REMARK SMILES IDX 58 69 62 70 59 71 61 72 60 73 47 74 48 75 52 76 49 77 51 78
REMARK SMILES IDX 50 79
REMARK H PARENT 16 7 5 13 5 14 23 28 67 47 45 58
REMARK Flexibility Score: inf
ROOT
ATOM      1  C   UNL A   1      34.281  21.815  26.795  1.00  0.00     0.002 C 
ENDROOT
BRANCH   1   2
ATOM      2  C   UNL A   1      33.283  20.742  26.368  1.00  0.00     0.021 C 
BRANCH   2   3
ATOM      3  C   UNL A   1      32.197  21.193  25.388  1.00  0.00     0.116 C 
BRANCH   3   4
ATOM      4  N   UNL A   1      31.181  21.951  26.089  1.00  0.00    -0.351 N 
ATOM      5  C   UNL A   1      30.796  23.257  26.065  1.00  0.00     0.281 C 
ATOM      6  O   UNL A   1      30.188  23.610  27.086  1.00  0.00    -0.268 OA
ATOM      7  H   UNL A   1      30.657  21.405  26.719  1.00  0.00     0.163 HD
BRANCH   5   8
ATOM      8  C   UNL A   1      31.028  24.258  24.865  1.00  0.00     0.172 C 
ATOM      9  C   UNL A   1      30.653  23.677  23.497  1.00  0.00     0.090 C 
BRANCH   8  10
ATOM     10  C   UNL A   1      30.045  25.468  25.126  1.00  0.00     0.075 C 
ATOM     11  C   UNL A   1      29.397  26.078  23.879  1.00  0.00     0.011 C 
ENDBRANCH   8  10
BRANCH   8  12
ATOM     12  N   UNL A   1      32.379  24.903  24.933  1.00  0.00    -0.331 N 
ATOM     13  H   UNL A   1      32.778  24.846  23.996  1.00  0.00     0.347 HD
ATOM     14  H   UNL A   1      32.843  24.388  25.680  1.00  0.00     0.347 HD
BRANCH  12  15
ATOM     15  C   UNL A   1      32.513  26.292  25.360  1.00  0.00     0.183 C 
ATOM     16  C   UNL A   1      32.621  26.478  26.875  1.00  0.00     0.065 C 
ATOM     17  C   UNL A   1      33.783  26.905  24.734  1.00  0.00     0.068 C 
ATOM     18  C   UNL A   1      32.568  27.966  27.197  1.00  0.00     0.010 C 
ATOM     19  C   UNL A   1      34.013  28.399  25.088  1.00  0.00    -0.006 C 
ATOM     20  C   UNL A   1      33.751  28.729  26.586  1.00  0.00    -0.011 C 
ATOM     21  C   UNL A   1      33.284  29.328  24.112  1.00  0.00     0.008 C 
ATOM     22  C   UNL A   1      33.577  30.225  26.877  1.00  0.00     0.008 C 
ENDBRANCH  12  15
ENDBRANCH   8  12
ENDBRANCH   5   8
ENDBRANCH   3   4
ENDBRANCH   2   3
ENDBRANCH   1   2
BRANCH   1  23
ATOM     23  C   UNL A   1      34.783  22.698  25.648  1.00  0.00     0.002 C 
BRANCH  23  24
ATOM     24  C   UNL A   1      35.915  23.676  25.994  1.00  0.00     0.021 C 
BRANCH  24  25
ATOM     25  C   UNL A   1      37.093  23.702  25.021  1.00  0.00     0.116 C 
BRANCH  25  26
ATOM     26  N   UNL A   1      38.158  22.795  25.410  1.00  0.00    -0.352 N 
ATOM     27  C   UNL A   1      39.309  23.010  26.124  1.00  0.00     0.251 C 
ATOM     28  H   UNL A   1      38.032  21.866  25.110  1.00  0.00     0.163 HD
ATOM     29  O   UNL A   1      40.151  22.118  26.185  1.00  0.00    -0.269 OA
BRANCH  27  30
ATOM     30  C   UNL A   1      39.574  24.301  26.802  1.00  0.00     0.039 A 
ATOM     31  C   UNL A   1      39.069  24.476  28.095  1.00  0.00     0.014 A 
ATOM     32  C   UNL A   1      40.243  25.355  26.174  1.00  0.00     0.014 A 
ATOM     33  C   UNL A   1      39.277  25.681  28.772  1.00  0.00     0.010 A 
ATOM     34  C   UNL A   1      40.507  26.536  26.875  1.00  0.00     0.010 A 
ATOM     35  C   UNL A   1      40.024  26.713  28.180  1.00  0.00    -0.014 A 
BRANCH  35  36
ATOM     36  C   UNL A   1      40.313  27.955  28.944  1.00  0.00     0.031 A 
ATOM     37  C   UNL A   1      39.314  29.078  29.013  1.00  0.00     0.074 A 
ATOM     38  C   UNL A   1      41.494  28.076  29.580  1.00  0.00     0.049 A 
ATOM     39  N   UNL A   1      39.374  30.193  29.699  1.00  0.00    -0.248 NA
ATOM     40  C   UNL A   1      38.099  28.941  28.196  1.00  0.00     0.031 C 
ATOM     41  C   UNL A   1      42.568  27.080  29.563  1.00  0.00     0.029 A 
ATOM     42  N   UNL A   1      41.983  29.079  30.380  1.00  0.00    -0.354 N 
ATOM     43  C   UNL A   1      38.214  30.893  29.389  1.00  0.00     0.074 A 
ATOM     44  C   UNL A   1      37.491  30.097  28.420  1.00  0.00     0.031 C 
ATOM     45  C   UNL A   1      43.566  27.498  30.358  1.00  0.00     0.029 A 
ATOM     46  C   UNL A   1      43.218  28.802  30.912  1.00  0.00     0.049 A 
ATOM     47  H   UNL A   1      41.495  29.916  30.554  1.00  0.00     0.167 HD
ATOM     48  C   UNL A   1      37.780  32.081  29.878  1.00  0.00     0.031 A 
ATOM     49  C   UNL A   1      43.983  29.511  31.764  1.00  0.00     0.031 A 
ATOM     50  C   UNL A   1      38.496  32.876  30.843  1.00  0.00     0.049 A 
ATOM     51  C   UNL A   1      43.485  30.831  32.281  1.00  0.00     0.074 A 
ATOM     52  C   UNL A   1      38.105  34.058  31.449  1.00  0.00     0.029 A 
ATOM     53  N   UNL A   1      39.758  32.576  31.333  1.00  0.00    -0.354 N 
ATOM     54  N   UNL A   1      42.345  31.434  32.048  1.00  0.00    -0.248 NA
ATOM     55  C   UNL A   1      44.379  31.559  33.193  1.00  0.00     0.031 C 
ATOM     56  C   UNL A   1      39.154  34.504  32.260  1.00  0.00     0.029 A 
ATOM     57  C   UNL A   1      40.176  33.570  32.206  1.00  0.00     0.049 A 
ATOM     58  H   UNL A   1      40.281  31.776  31.097  1.00  0.00     0.167 HD
ATOM     59  C   UNL A   1      42.375  32.601  32.801  1.00  0.00     0.074 A 
ATOM     60  C   UNL A   1      43.636  32.606  33.515  1.00  0.00     0.031 C 
ATOM     61  C   UNL A   1      41.440  33.578  32.895  1.00  0.00     0.031 A 
BRANCH  48  62
ATOM     62  C   UNL A   1      36.470  32.606  29.355  1.00  0.00    -0.014 A 
ATOM     63  C   UNL A   1      36.408  33.391  28.192  1.00  0.00     0.009 A 
ATOM     64  C   UNL A   1      35.276  32.285  30.020  1.00  0.00     0.009 A 
ATOM     65  C   UNL A   1      35.183  33.880  27.732  1.00  0.00     0.001 A 
ATOM     66  C   UNL A   1      34.050  32.750  29.541  1.00  0.00     0.001 A 
ATOM     67  C   UNL A   1      34.006  33.557  28.404  1.00  0.00     0.000 A 
ENDBRANCH  48  62
BRANCH  49  68
ATOM     68  C   UNL A   1      45.291  28.969  32.214  1.00  0.00    -0.014 A 
ATOM     69  C   UNL A   1      45.369  28.173  33.368  1.00  0.00     0.009 A 
ATOM     70  C   UNL A   1      46.465  29.243  31.497  1.00  0.00     0.009 A 
ATOM     71  C   UNL A   1      46.600  27.682  33.808  1.00  0.00     0.001 A 
ATOM     72  C   UNL A   1      47.692  28.728  31.924  1.00  0.00     0.001 A 
ATOM     73  C   UNL A   1      47.759  27.956  33.083  1.00  0.00     0.000 A 
ENDBRANCH  49  68
BRANCH  61  74
ATOM     74  C   UNL A   1      41.745  34.725  33.818  1.00  0.00    -0.014 A 
ATOM     75  C   UNL A   1      42.474  35.843  33.378  1.00  0.00     0.009 A 
ATOM     76  C   UNL A   1      41.295  34.690  35.146  1.00  0.00     0.009 A 
ATOM     77  C   UNL A   1      42.782  36.879  34.262  1.00  0.00     0.001 A 
ATOM     78  C   UNL A   1      41.579  35.742  36.020  1.00  0.00     0.001 A 
ATOM     79  C   UNL A   1      42.333  36.828  35.580  1.00  0.00     0.000 A 
ENDBRANCH  61  74
ENDBRANCH  35  36
ENDBRANCH  27  30
ENDBRANCH  25  26
ENDBRANCH  24  25
ENDBRANCH  23  24
ENDBRANCH   1  23
TORSDOF 16
ENDMDL
MODEL 2
REMARK VINA RESULT:      -9.7      3.176      5.481
REMARK SMILES CC[C@@](C)([NH2+][C@H]1CC[C@H](C)[C@H](C)C1)C(=O)NCCCCCCNC(=O)c1ccc(-c2c3nc(c(-c4ccccc4)c4ccc([nH]4)c(-c4ccccc4)c4nc(c(-c5ccccc5)c5ccc2[nH]5)C=C4)C=C3)cc1
REMARK SMILES IDX 19 1 18 2 17 3 16 4 14 5 15 6 3 8 4 9 2 10 1 11 5 12 6 15
REMARK SMILES IDX 7 16 13 17 8 18 11 19 9 20 12 21 10 22 20 23 21 24 22 25
REMARK SMILES IDX 23 26 24 27 25 29 26 30 27 31 73 32 28 33 72 34 29 35 30 36
REMARK SMILES IDX 31 37 66 38 32 39 71 40 65 41 67 42 33 43 70 44 64 45 63 46
REMARK SMILES IDX 34 48 56 49 41 50 55 51 42 52 45 53 54 54 68 55 43 56 44 57
REMARK SMILES IDX 53 59 69 60 46 61 35 62 36 63 40 64 37 65 39 66 38 67 57 68
REMARK SMILES IDX 58 69 62 70 59 71 61 72 60 73 47 74 48 75 52 76 49 77 51 78
REMARK SMILES IDX 50 79
REMARK H PARENT 16 7 5 13 5 14 23 28 67 47 45 58
REMARK Flexibility Score: inf
ROOT
ATOM      1  C   UNL A   1      39.747  23.633  26.532  1.00  0.00     0.002 C 
ENDROOT
BRANCH   1   2
ATOM      2  C   UNL A   1      38.264  23.973  26.417  1.00  0.00     0.021 C 
BRANCH   2   3
ATOM      3  C   UNL A   1      37.374  22.886  25.809  1.00  0.00     0.116 C 
BRANCH   3   4
ATOM      4  N   UNL A   1      37.233  23.102  24.383  1.00  0.00    -0.351 N 
ATOM      5  C   UNL A   1      36.172  23.092  23.531  1.00  0.00     0.281 C 
ATOM      6  O   UNL A   1      36.493  22.907  22.347  1.00  0.00    -0.268 OA
ATOM      7  H   UNL A   1      38.088  23.296  23.935  1.00  0.00     0.163 HD
BRANCH   5   8
ATOM      8  C   UNL A   1      34.665  23.334  23.940  1.00  0.00     0.172 C 
ATOM      9  C   UNL A   1      34.383  24.758  24.436  1.00  0.00     0.090 C 
BRANCH   8  10
ATOM     10  C   UNL A   1      33.829  23.145  22.611  1.00  0.00     0.075 C 
ATOM     11  C   UNL A   1      32.607  24.057  22.461  1.00  0.00     0.011 C 
ENDBRANCH   8  10
BRANCH   8  12
ATOM     12  N   UNL A   1      34.145  22.240  24.822  1.00  0.00    -0.331 N 
ATOM     13  H   UNL A   1      33.174  22.469  25.031  1.00  0.00     0.347 HD
ATOM     14  H   UNL A   1      34.809  22.232  25.595  1.00  0.00     0.347 HD
BRANCH  12  15
ATOM     15  C   UNL A   1      34.159  20.854  24.364  1.00  0.00     0.183 C 
ATOM     16  C   UNL A   1      35.135  19.950  25.120  1.00  0.00     0.065 C 
ATOM     17  C   UNL A   1      32.751  20.242  24.527  1.00  0.00     0.068 C 
ATOM     18  C   UNL A   1      35.189  18.592  24.430  1.00  0.00     0.010 C 
ATOM     19  C   UNL A   1      32.633  18.774  24.036  1.00  0.00    -0.006 C 
ATOM     20  C   UNL A   1      33.831  17.877  24.463  1.00  0.00    -0.011 C 
ATOM     21  C   UNL A   1      32.307  18.705  22.541  1.00  0.00     0.008 C 
ATOM     22  C   UNL A   1      33.944  16.567  23.674  1.00  0.00     0.008 C 
ENDBRANCH  12  15
ENDBRANCH   8  12
ENDBRANCH   5   8
ENDBRANCH   3   4
ENDBRANCH   2   3
ENDBRANCH   1   2
BRANCH   1  23
ATOM     23  C   UNL A   1      40.034  22.324  27.274  1.00  0.00     0.002 C 
BRANCH  23  24
ATOM     24  C   UNL A   1      40.405  21.118  26.398  1.00  0.00     0.021 C 
BRANCH  24  25
ATOM     25  C   UNL A   1      41.491  20.198  26.956  1.00  0.00     0.116 C 
BRANCH  25  26
ATOM     26  N   UNL A   1      42.611  20.043  26.045  1.00  0.00    -0.352 N 
ATOM     27  C   UNL A   1      43.473  20.967  25.511  1.00  0.00     0.251 C 
ATOM     28  H   UNL A   1      42.780  19.116  25.761  1.00  0.00     0.163 HD
ATOM     29  O   UNL A   1      44.246  20.621  24.621  1.00  0.00    -0.269 OA
BRANCH  27  30
ATOM     30  C   UNL A   1      43.478  22.378  25.964  1.00  0.00     0.039 A 
ATOM     31  C   UNL A   1      43.725  22.630  27.317  1.00  0.00     0.014 A 
ATOM     32  C   UNL A   1      43.182  23.442  25.107  1.00  0.00     0.014 A 
ATOM     33  C   UNL A   1      43.725  23.943  27.798  1.00  0.00     0.010 A 
ATOM     34  C   UNL A   1      43.245  24.758  25.574  1.00  0.00     0.010 A 
ATOM     35  C   UNL A   1      43.514  25.022  26.925  1.00  0.00    -0.014 A 
BRANCH  35  36
ATOM     36  C   UNL A   1      43.603  26.417  27.432  1.00  0.00     0.031 A 
ATOM     37  C   UNL A   1      42.373  27.174  27.852  1.00  0.00     0.074 A 
ATOM     38  C   UNL A   1      44.809  27.013  27.510  1.00  0.00     0.049 A 
ATOM     39  N   UNL A   1      42.282  28.366  28.390  1.00  0.00    -0.248 NA
ATOM     40  C   UNL A   1      41.076  26.518  27.625  1.00  0.00     0.031 C 
ATOM     41  C   UNL A   1      46.078  26.407  27.100  1.00  0.00     0.029 A 
ATOM     42  N   UNL A   1      45.168  28.252  27.979  1.00  0.00    -0.354 N 
ATOM     43  C   UNL A   1      40.924  28.606  28.556  1.00  0.00     0.074 A 
ATOM     44  C   UNL A   1      40.227  27.456  28.021  1.00  0.00     0.031 C 
ATOM     45  C   UNL A   1      47.080  27.255  27.382  1.00  0.00     0.029 A 
ATOM     46  C   UNL A   1      46.524  28.473  27.961  1.00  0.00     0.049 A 
ATOM     47  H   UNL A   1      44.517  28.918  28.296  1.00  0.00     0.167 HD
ATOM     48  C   UNL A   1      40.311  29.678  29.118  1.00  0.00     0.031 A 
ATOM     49  C   UNL A   1      47.243  29.532  28.377  1.00  0.00     0.031 A 
ATOM     50  C   UNL A   1      41.000  30.823  29.653  1.00  0.00     0.049 A 
ATOM     51  C   UNL A   1      46.539  30.712  28.984  1.00  0.00     0.074 A 
ATOM     52  C   UNL A   1      40.469  31.925  30.303  1.00  0.00     0.029 A 
ATOM     53  N   UNL A   1      42.371  31.022  29.587  1.00  0.00    -0.354 N 
ATOM     54  N   UNL A   1      45.261  30.883  29.216  1.00  0.00    -0.248 NA
ATOM     55  C   UNL A   1      47.385  31.839  29.400  1.00  0.00     0.031 C 
ATOM     56  C   UNL A   1      41.512  32.817  30.577  1.00  0.00     0.029 A 
ATOM     57  C   UNL A   1      42.699  32.246  30.152  1.00  0.00     0.049 A 
ATOM     58  H   UNL A   1      43.015  30.390  29.197  1.00  0.00     0.167 HD
ATOM     59  C   UNL A   1      45.151  32.126  29.826  1.00  0.00     0.074 A 
ATOM     60  C   UNL A   1      46.495  32.653  29.947  1.00  0.00     0.031 C 
ATOM     61  C   UNL A   1      44.036  32.772  30.249  1.00  0.00     0.031 A 
BRANCH  48  62
ATOM     62  C   UNL A   1      38.806  29.667  29.161  1.00  0.00    -0.014 A 
ATOM     63  C   UNL A   1      38.110  29.357  30.341  1.00  0.00     0.009 A 
ATOM     64  C   UNL A   1      38.074  30.000  28.011  1.00  0.00     0.009 A 
ATOM     65  C   UNL A   1      36.714  29.339  30.355  1.00  0.00     0.001 A 
ATOM     66  C   UNL A   1      36.678  30.010  28.036  1.00  0.00     0.001 A 
ATOM     67  C   UNL A   1      35.999  29.668  29.205  1.00  0.00     0.000 A 
ENDBRANCH  48  62
BRANCH  49  68
ATOM     68  C   UNL A   1      48.725  29.511  28.269  1.00  0.00    -0.014 A 
ATOM     69  C   UNL A   1      49.507  29.040  29.335  1.00  0.00     0.009 A 
ATOM     70  C   UNL A   1      49.365  29.960  27.104  1.00  0.00     0.009 A 
ATOM     71  C   UNL A   1      50.900  29.042  29.246  1.00  0.00     0.001 A 
ATOM     72  C   UNL A   1      50.758  29.936  27.007  1.00  0.00     0.001 A 
ATOM     73  C   UNL A   1      51.525  29.486  28.081  1.00  0.00     0.000 A 
ENDBRANCH  49  68
BRANCH  61  74
ATOM     74  C   UNL A   1      44.233  34.113  30.898  1.00  0.00    -0.014 A 
ATOM     75  C   UNL A   1      44.471  34.229  32.278  1.00  0.00     0.009 A 
ATOM     76  C   UNL A   1      44.183  35.279  30.119  1.00  0.00     0.009 A 
ATOM     77  C   UNL A   1      44.609  35.487  32.869  1.00  0.00     0.001 A 
ATOM     78  C   UNL A   1      44.352  36.534  30.708  1.00  0.00     0.001 A 
ATOM     79  C   UNL A   1      44.552  36.637  32.083  1.00  0.00     0.000 A 
ENDBRANCH  61  74
ENDBRANCH  35  36
ENDBRANCH  27  30
ENDBRANCH  25  26
ENDBRANCH  24  25
ENDBRANCH  23  24
ENDBRANCH   1  23
TORSDOF 16
ENDMDL
MODEL 3
REMARK VINA RESULT:      -9.6      2.679      7.126
REMARK SMILES CC[C@@](C)([NH2+][C@H]1CC[C@H](C)[C@H](C)C1)C(=O)NCCCCCCNC(=O)c1ccc(-c2c3nc(c(-c4ccccc4)c4ccc([nH]4)c(-c4ccccc4)c4nc(c(-c5ccccc5)c5ccc2[nH]5)C=C4)C=C3)cc1
REMARK SMILES IDX 19 1 18 2 17 3 16 4 14 5 15 6 3 8 4 9 2 10 1 11 5 12 6 15
REMARK SMILES IDX 7 16 13 17 8 18 11 19 9 20 12 21 10 22 20 23 21 24 22 25
REMARK SMILES IDX 23 26 24 27 25 29 26 30 27 31 73 32 28 33 72 34 29 35 30 36
REMARK SMILES IDX 31 37 66 38 32 39 71 40 65 41 67 42 33 43 70 44 64 45 63 46
REMARK SMILES IDX 34 48 56 49 41 50 55 51 42 52 45 53 54 54 68 55 43 56 44 57
REMARK SMILES IDX 53 59 69 60 46 61 35 62 36 63 40 64 37 65 39 66 38 67 57 68
REMARK SMILES IDX 58 69 62 70 59 71 61 72 60 73 47 74 48 75 52 76 49 77 51 78
REMARK SMILES IDX 50 79
REMARK H PARENT 16 7 5 13 5 14 23 28 67 47 45 58
REMARK Flexibility Score: inf
ROOT
ATOM      1  C   UNL A   1      36.194  21.975  25.480  1.00  0.00     0.002 C 
ENDROOT
BRANCH   1   2
ATOM      2  C   UNL A   1      35.017  21.090  25.879  1.00  0.00     0.021 C 
BRANCH   2   3
ATOM      3  C   UNL A   1      33.716  21.320  25.105  1.00  0.00     0.116 C 
BRANCH   3   4
ATOM      4  N   UNL A   1      32.701  21.851  25.992  1.00  0.00    -0.351 N 
ATOM      5  C   UNL A   1      32.360  23.110  26.384  1.00  0.00     0.281 C 
ATOM      6  O   UNL A   1      31.728  23.138  27.451  1.00  0.00    -0.268 OA
ATOM      7  H   UNL A   1      32.137  21.154  26.398  1.00  0.00     0.163 HD
BRANCH   5   8
ATOM      8  C   UNL A   1      32.666  24.435  25.581  1.00  0.00     0.172 C 
ATOM      9  C   UNL A   1      34.108  24.932  25.740  1.00  0.00     0.090 C 
BRANCH   8  10
ATOM     10  C   UNL A   1      32.483  24.059  24.056  1.00  0.00     0.075 C 
ATOM     11  C   UNL A   1      33.687  24.347  23.153  1.00  0.00     0.011 C 
ENDBRANCH   8  10
BRANCH   8  12
ATOM     12  N   UNL A   1      31.608  25.474  25.799  1.00  0.00    -0.331 N 
ATOM     13  H   UNL A   1      31.897  26.021  26.609  1.00  0.00     0.347 HD
ATOM     14  H   UNL A   1      30.755  24.921  25.879  1.00  0.00     0.347 HD
BRANCH  12  15
ATOM     15  C   UNL A   1      31.282  26.428  24.744  1.00  0.00     0.183 C 
ATOM     16  C   UNL A   1      29.783  26.590  24.481  1.00  0.00     0.065 C 
ATOM     17  C   UNL A   1      31.832  27.821  25.119  1.00  0.00     0.068 C 
ATOM     18  C   UNL A   1      29.588  27.462  23.247  1.00  0.00     0.010 C 
ATOM     19  C   UNL A   1      31.577  28.917  24.050  1.00  0.00    -0.006 C 
ATOM     20  C   UNL A   1      30.142  28.878  23.450  1.00  0.00    -0.011 C 
ATOM     21  C   UNL A   1      32.689  28.946  22.997  1.00  0.00     0.008 C 
ATOM     22  C   UNL A   1      29.989  29.661  22.140  1.00  0.00     0.008 C 
ENDBRANCH  12  15
ENDBRANCH   8  12
ENDBRANCH   5   8
ENDBRANCH   3   4
ENDBRANCH   2   3
ENDBRANCH   1   2
BRANCH   1  23
ATOM     23  C   UNL A   1      37.036  21.418  24.329  1.00  0.00     0.002 C 
BRANCH  23  24
ATOM     24  C   UNL A   1      37.787  20.108  24.612  1.00  0.00     0.021 C 
BRANCH  24  25
ATOM     25  C   UNL A   1      38.602  20.073  25.904  1.00  0.00     0.116 C 
BRANCH  25  26
ATOM     26  N   UNL A   1      39.820  19.293  25.775  1.00  0.00    -0.352 N 
ATOM     27  C   UNL A   1      41.132  19.629  25.990  1.00  0.00     0.251 C 
ATOM     28  H   UNL A   1      39.679  18.364  25.481  1.00  0.00     0.163 HD
ATOM     29  O   UNL A   1      42.014  18.845  25.648  1.00  0.00    -0.269 OA
BRANCH  27  30
ATOM     30  C   UNL A   1      41.514  20.924  26.602  1.00  0.00     0.039 A 
ATOM     31  C   UNL A   1      41.949  21.946  25.753  1.00  0.00     0.014 A 
ATOM     32  C   UNL A   1      41.517  21.127  27.985  1.00  0.00     0.014 A 
ATOM     33  C   UNL A   1      42.336  23.180  26.282  1.00  0.00     0.010 A 
ATOM     34  C   UNL A   1      41.843  22.381  28.509  1.00  0.00     0.010 A 
ATOM     35  C   UNL A   1      42.259  23.420  27.663  1.00  0.00    -0.014 A 
BRANCH  35  36
ATOM     36  C   UNL A   1      42.590  24.765  28.205  1.00  0.00     0.031 A 
ATOM     37  C   UNL A   1      44.007  25.145  28.535  1.00  0.00     0.074 A 
ATOM     38  C   UNL A   1      41.598  25.655  28.407  1.00  0.00     0.049 A 
ATOM     39  N   UNL A   1      44.478  26.300  28.938  1.00  0.00    -0.248 NA
ATOM     40  C   UNL A   1      45.026  24.091  28.414  1.00  0.00     0.031 C 
ATOM     41  C   UNL A   1      40.176  25.403  28.166  1.00  0.00     0.029 A 
ATOM     42  N   UNL A   1      41.638  26.956  28.843  1.00  0.00    -0.354 N 
ATOM     43  C   UNL A   1      45.842  26.110  29.128  1.00  0.00     0.074 A 
ATOM     44  C   UNL A   1      46.114  24.718  28.839  1.00  0.00     0.031 C 
ATOM     45  C   UNL A   1      39.485  26.529  28.406  1.00  0.00     0.029 A 
ATOM     46  C   UNL A   1      40.407  27.568  28.850  1.00  0.00     0.049 A 
ATOM     47  H   UNL A   1      42.466  27.406  29.123  1.00  0.00     0.167 HD
ATOM     48  C   UNL A   1      46.785  27.013  29.493  1.00  0.00     0.031 A 
ATOM     49  C   UNL A   1      40.060  28.830  29.164  1.00  0.00     0.031 A 
ATOM     50  C   UNL A   1      46.518  28.399  29.781  1.00  0.00     0.049 A 
ATOM     51  C   UNL A   1      41.123  29.809  29.578  1.00  0.00     0.074 A 
ATOM     52  C   UNL A   1      47.418  29.405  30.091  1.00  0.00     0.029 A 
ATOM     53  N   UNL A   1      45.256  28.971  29.807  1.00  0.00    -0.354 N 
ATOM     54  N   UNL A   1      42.419  29.635  29.664  1.00  0.00    -0.248 NA
ATOM     55  C   UNL A   1      40.670  31.163  29.924  1.00  0.00     0.031 C 
ATOM     56  C   UNL A   1      46.695  30.571  30.363  1.00  0.00     0.029 A 
ATOM     57  C   UNL A   1      45.350  30.308  30.165  1.00  0.00     0.049 A 
ATOM     58  H   UNL A   1      44.417  28.499  29.603  1.00  0.00     0.167 HD
ATOM     59  C   UNL A   1      42.939  30.863  30.051  1.00  0.00     0.074 A 
ATOM     60  C   UNL A   1      41.820  31.776  30.160  1.00  0.00     0.031 C 
ATOM     61  C   UNL A   1      44.229  31.204  30.292  1.00  0.00     0.031 A 
BRANCH  48  62
ATOM     62  C   UNL A   1      48.200  26.518  29.623  1.00  0.00    -0.014 A 
ATOM     63  C   UNL A   1      49.099  26.578  28.545  1.00  0.00     0.009 A 
ATOM     64  C   UNL A   1      48.650  26.009  30.852  1.00  0.00     0.009 A 
ATOM     65  C   UNL A   1      50.404  26.100  28.683  1.00  0.00     0.001 A 
ATOM     66  C   UNL A   1      49.964  25.559  30.996  1.00  0.00     0.001 A 
ATOM     67  C   UNL A   1      50.836  25.594  29.908  1.00  0.00     0.000 A 
ENDBRANCH  48  62
BRANCH  49  68
ATOM     68  C   UNL A   1      38.640  29.256  29.064  1.00  0.00    -0.014 A 
ATOM     69  C   UNL A   1      37.800  29.192  30.187  1.00  0.00     0.009 A 
ATOM     70  C   UNL A   1      38.117  29.727  27.851  1.00  0.00     0.009 A 
ATOM     71  C   UNL A   1      36.459  29.568  30.090  1.00  0.00     0.001 A 
ATOM     72  C   UNL A   1      36.782  30.129  27.763  1.00  0.00     0.001 A 
ATOM     73  C   UNL A   1      35.952  30.041  28.880  1.00  0.00     0.000 A 
ENDBRANCH  49  68
BRANCH  61  74
ATOM     74  C   UNL A   1      44.494  32.632  30.680  1.00  0.00    -0.014 A 
ATOM     75  C   UNL A   1      44.730  33.621  29.711  1.00  0.00     0.009 A 
ATOM     76  C   UNL A   1      44.504  32.996  32.035  1.00  0.00     0.009 A 
ATOM     77  C   UNL A   1      45.015  34.933  30.094  1.00  0.00     0.001 A 
ATOM     78  C   UNL A   1      44.760  34.315  32.414  1.00  0.00     0.001 A 
ATOM     79  C   UNL A   1      45.028  35.279  31.444  1.00  0.00     0.000 A 
ENDBRANCH  61  74
ENDBRANCH  35  36
ENDBRANCH  27  30
ENDBRANCH  25  26
ENDBRANCH  24  25
ENDBRANCH  23  24
ENDBRANCH   1  23
TORSDOF 16
ENDMDL
