MODEL 1
REMARK VINA RESULT:     -11.1      0.000      0.000
REMARK SMILES CC(C)N(c1cc2c(cc1Cl)C=C(C(=O)NCCCCCCNC(=O)c1ccc(-c3c4nc(c(-c5ccccc5)c5ccc([nH]5)c(-c5ccccc5)c5nc(c(-c6ccccc6)c6ccc3[nH]6)C=C5)C=C4)cc1)[C@@H](C(F)(F)F)O2)C(C)C
REMARK SMILES IDX 19 1 18 2 17 3 16 4 14 5 15 6 13 8 5 9 6 10 10 11 7 12 9 13
REMARK SMILES IDX 11 14 8 15 79 16 12 17 74 18 4 19 2 20 1 21 3 22 80 23 81 24
REMARK SMILES IDX 82 25 75 26 76 27 77 28 78 29 20 30 21 31 22 32 23 33 24 34
REMARK SMILES IDX 25 36 26 37 27 38 73 39 28 40 72 41 29 42 30 43 31 44 66 45
REMARK SMILES IDX 32 46 71 47 65 48 67 49 33 50 70 51 64 52 63 53 34 55 56 56
REMARK SMILES IDX 41 57 55 58 42 59 45 60 54 61 68 62 43 63 44 64 53 66 69 67
REMARK SMILES IDX 46 68 35 69 36 70 40 71 37 72 39 73 38 74 57 75 58 76 62 77
REMARK SMILES IDX 59 78 61 79 60 80 47 81 48 82 52 83 49 84 51 85 50 86
REMARK H PARENT 16 7 23 35 67 54 45 65
REMARK Flexibility Score: inf
ROOT
ATOM      1  C   UNL A   1      40.627  21.669  27.567  1.00  0.00     0.002 C 
ENDROOT
BRANCH   1   2
ATOM      2  C   UNL A   1      40.129  23.111  27.426  1.00  0.00     0.021 C 
BRANCH   2   3
ATOM      3  C   UNL A   1      38.832  23.245  26.633  1.00  0.00     0.116 C 
BRANCH   3   4
ATOM      4  N   UNL A   1      38.483  22.008  25.957  1.00  0.00    -0.352 N 
ATOM      5  C   UNL A   1      37.454  21.536  25.218  1.00  0.00     0.251 C 
ATOM      6  O   UNL A   1      37.598  20.383  24.798  1.00  0.00    -0.270 OA
ATOM      7  H   UNL A   1      39.188  21.329  26.066  1.00  0.00     0.163 HD
BRANCH   5   8
ATOM      8  C   UNL A   1      36.206  22.287  24.891  1.00  0.00     0.067 C 
ATOM      9  C   UNL A   1      32.601  25.847  24.510  1.00  0.00     0.060 A 
ATOM     10  C   UNL A   1      32.882  24.626  23.869  1.00  0.00     0.074 A 
ATOM     11  C   UNL A   1      33.543  26.285  25.472  1.00  0.00     0.065 A 
ATOM     12  C   UNL A   1      34.010  23.870  24.187  1.00  0.00     0.130 A 
ATOM     13  C   UNL A   1      34.706  25.546  25.749  1.00  0.00     0.034 A 
ATOM     14  Cl  UNL A   1      33.309  27.698  26.447  1.00  0.00    -0.082 Cl
ATOM     15  C   UNL A   1      34.940  24.330  25.110  1.00  0.00     0.019 A 
ATOM     16  O   UNL A   1      34.153  22.690  23.521  1.00  0.00    -0.475 OA
ATOM     17  C   UNL A   1      36.139  23.545  25.367  1.00  0.00     0.025 C 
ATOM     18  C   UNL A   1      35.047  21.716  24.121  1.00  0.00     0.314 C 
BRANCH   9  19
ATOM     19  N   UNL A   1      31.417  26.533  24.171  1.00  0.00    -0.365 N 
BRANCH  19  20
ATOM     20  C   UNL A   1      31.561  27.772  23.374  1.00  0.00     0.076 C 
ATOM     21  C   UNL A   1      31.169  29.031  24.146  1.00  0.00     0.030 C 
ATOM     22  C   UNL A   1      32.944  27.927  22.749  1.00  0.00     0.030 C 
ENDBRANCH  19  20
BRANCH  19  23
ATOM     23  C   UNL A   1      30.143  25.857  24.512  1.00  0.00     0.076 C 
ATOM     24  C   UNL A   1      29.931  25.720  26.016  1.00  0.00     0.030 C 
ATOM     25  C   UNL A   1      28.921  26.464  23.828  1.00  0.00     0.030 C 
ENDBRANCH  19  23
ENDBRANCH   9  19
BRANCH  18  26
ATOM     26  C   UNL A   1      34.229  20.708  24.950  1.00  0.00     0.429 C 
ATOM     27  F   UNL A   1      34.687  19.446  24.751  1.00  0.00    -0.167 F 
ATOM     28  F   UNL A   1      34.317  20.936  26.282  1.00  0.00    -0.167 F 
ATOM     29  F   UNL A   1      32.915  20.716  24.634  1.00  0.00    -0.167 F 
ENDBRANCH  18  26
ENDBRANCH   5   8
ENDBRANCH   3   4
ENDBRANCH   2   3
ENDBRANCH   1   2
BRANCH   1  30
ATOM     30  C   UNL A   1      41.990  21.376  26.926  1.00  0.00     0.002 C 
BRANCH  30  31
ATOM     31  C   UNL A   1      42.030  20.176  25.975  1.00  0.00     0.021 C 
BRANCH  31  32
ATOM     32  C   UNL A   1      43.106  19.145  26.290  1.00  0.00     0.116 C 
BRANCH  32  33
ATOM     33  N   UNL A   1      43.869  18.756  25.116  1.00  0.00    -0.352 N 
ATOM     34  C   UNL A   1      44.656  19.521  24.291  1.00  0.00     0.251 C 
ATOM     35  H   UNL A   1      43.814  17.802  24.877  1.00  0.00     0.163 HD
ATOM     36  O   UNL A   1      45.102  19.046  23.250  1.00  0.00    -0.269 OA
BRANCH  34  37
ATOM     37  C   UNL A   1      44.943  20.929  24.640  1.00  0.00     0.039 A 
ATOM     38  C   UNL A   1      45.579  21.253  25.840  1.00  0.00     0.014 A 
ATOM     39  C   UNL A   1      44.567  21.942  23.753  1.00  0.00     0.014 A 
ATOM     40  C   UNL A   1      45.689  22.584  26.224  1.00  0.00     0.010 A 
ATOM     41  C   UNL A   1      44.763  23.282  24.101  1.00  0.00     0.010 A 
ATOM     42  C   UNL A   1      45.284  23.615  25.359  1.00  0.00    -0.014 A 
BRANCH  42  43
ATOM     43  C   UNL A   1      45.442  25.027  25.796  1.00  0.00     0.031 A 
ATOM     44  C   UNL A   1      44.303  25.779  26.427  1.00  0.00     0.074 A 
ATOM     45  C   UNL A   1      46.652  25.610  25.681  1.00  0.00     0.049 A 
ATOM     46  N   UNL A   1      44.305  26.979  26.953  1.00  0.00    -0.248 NA
ATOM     47  C   UNL A   1      42.994  25.109  26.475  1.00  0.00     0.031 C 
ATOM     48  C   UNL A   1      47.832  24.984  25.081  1.00  0.00     0.029 A 
ATOM     49  N   UNL A   1      47.101  26.839  26.097  1.00  0.00    -0.354 N 
ATOM     50  C   UNL A   1      43.002  27.213  27.376  1.00  0.00     0.074 A 
ATOM     51  C   UNL A   1      42.227  26.045  27.020  1.00  0.00     0.031 C 
ATOM     52  C   UNL A   1      48.885  25.799  25.233  1.00  0.00     0.029 A 
ATOM     53  C   UNL A   1      48.445  27.030  25.882  1.00  0.00     0.049 A 
ATOM     54  H   UNL A   1      46.518  27.517  26.508  1.00  0.00     0.167 HD
ATOM     55  C   UNL A   1      42.503  28.297  28.016  1.00  0.00     0.031 A 
ATOM     56  C   UNL A   1      49.241  28.075  26.172  1.00  0.00     0.031 A 
ATOM     57  C   UNL A   1      43.279  29.452  28.380  1.00  0.00     0.049 A 
ATOM     58  C   UNL A   1      48.658  29.273  26.863  1.00  0.00     0.074 A 
ATOM     59  C   UNL A   1      42.865  30.582  29.066  1.00  0.00     0.029 A 
ATOM     60  N   UNL A   1      44.622  29.632  28.088  1.00  0.00    -0.354 N 
ATOM     61  N   UNL A   1      47.433  29.459  27.291  1.00  0.00    -0.248 NA
ATOM     62  C   UNL A   1      49.563  30.402  27.112  1.00  0.00     0.031 C 
ATOM     63  C   UNL A   1      43.939  31.471  29.132  1.00  0.00     0.029 A 
ATOM     64  C   UNL A   1      45.043  30.868  28.551  1.00  0.00     0.049 A 
ATOM     65  H   UNL A   1      45.192  28.979  27.621  1.00  0.00     0.167 HD
ATOM     66  C   UNL A   1      47.420  30.722  27.865  1.00  0.00     0.074 A 
ATOM     67  C   UNL A   1      48.766  31.246  27.757  1.00  0.00     0.031 C 
ATOM     68  C   UNL A   1      46.381  31.388  28.426  1.00  0.00     0.031 A 
BRANCH  55  69
ATOM     69  C   UNL A   1      41.039  28.302  28.362  1.00  0.00    -0.014 A 
ATOM     70  C   UNL A   1      40.129  28.973  27.528  1.00  0.00     0.009 A 
ATOM     71  C   UNL A   1      40.570  27.735  29.557  1.00  0.00     0.009 A 
ATOM     72  C   UNL A   1      38.785  29.087  27.888  1.00  0.00     0.001 A 
ATOM     73  C   UNL A   1      39.219  27.827  29.901  1.00  0.00     0.001 A 
ATOM     74  C   UNL A   1      38.330  28.510  29.072  1.00  0.00     0.000 A 
ENDBRANCH  55  69
BRANCH  56  75
ATOM     75  C   UNL A   1      50.684  28.008  25.817  1.00  0.00    -0.014 A 
ATOM     76  C   UNL A   1      51.636  27.624  26.776  1.00  0.00     0.009 A 
ATOM     77  C   UNL A   1      51.124  28.392  24.542  1.00  0.00     0.009 A 
ATOM     78  C   UNL A   1      52.999  27.660  26.479  1.00  0.00     0.001 A 
ATOM     79  C   UNL A   1      52.487  28.397  24.237  1.00  0.00     0.001 A 
ATOM     80  C   UNL A   1      53.424  28.043  25.208  1.00  0.00     0.000 A 
ENDBRANCH  56  75
BRANCH  68  81
ATOM     81  C   UNL A   1      46.644  32.766  28.967  1.00  0.00    -0.014 A 
ATOM     82  C   UNL A   1      47.011  32.930  30.312  1.00  0.00     0.009 A 
ATOM     83  C   UNL A   1      46.436  33.905  28.174  1.00  0.00     0.009 A 
ATOM     84  C   UNL A   1      47.152  34.207  30.857  1.00  0.00     0.001 A 
ATOM     85  C   UNL A   1      46.608  35.181  28.715  1.00  0.00     0.001 A 
ATOM     86  C   UNL A   1      46.956  35.331  30.057  1.00  0.00     0.000 A 
ENDBRANCH  68  81
ENDBRANCH  42  43
ENDBRANCH  34  37
ENDBRANCH  32  33
ENDBRANCH  31  32
ENDBRANCH  30  31
ENDBRANCH   1  30
TORSDOF 17
ENDMDL
MODEL 2
REMARK VINA RESULT:     -10.7      6.185     11.150
REMARK SMILES CC(C)N(c1cc2c(cc1Cl)C=C(C(=O)NCCCCCCNC(=O)c1ccc(-c3c4nc(c(-c5ccccc5)c5ccc([nH]5)c(-c5ccccc5)c5nc(c(-c6ccccc6)c6ccc3[nH]6)C=C5)C=C4)cc1)[C@@H](C(F)(F)F)O2)C(C)C
REMARK SMILES IDX 19 1 18 2 17 3 16 4 14 5 15 6 13 8 5 9 6 10 10 11 7 12 9 13
REMARK SMILES IDX 11 14 8 15 79 16 12 17 74 18 4 19 2 20 1 21 3 22 80 23 81 24
REMARK SMILES IDX 82 25 75 26 76 27 77 28 78 29 20 30 21 31 22 32 23 33 24 34
REMARK SMILES IDX 25 36 26 37 27 38 73 39 28 40 72 41 29 42 30 43 31 44 66 45
REMARK SMILES IDX 32 46 71 47 65 48 67 49 33 50 70 51 64 52 63 53 34 55 56 56
REMARK SMILES IDX 41 57 55 58 42 59 45 60 54 61 68 62 43 63 44 64 53 66 69 67
REMARK SMILES IDX 46 68 35 69 36 70 40 71 37 72 39 73 38 74 57 75 58 76 62 77
REMARK SMILES IDX 59 78 61 79 60 80 47 81 48 82 52 83 49 84 51 85 50 86
REMARK H PARENT 16 7 23 35 67 54 45 65
REMARK Flexibility Score: inf
ROOT
ATOM      1  C   UNL A   1      34.629  30.710  27.877  1.00  0.00     0.002 C 
ENDROOT
BRANCH   1   2
ATOM      2  C   UNL A   1      33.761  30.295  26.686  1.00  0.00     0.021 C 
BRANCH   2   3
ATOM      3  C   UNL A   1      32.288  30.092  27.031  1.00  0.00     0.116 C 
BRANCH   3   4
ATOM      4  N   UNL A   1      31.438  30.213  25.861  1.00  0.00    -0.352 N 
ATOM      5  C   UNL A   1      31.099  29.451  24.796  1.00  0.00     0.251 C 
ATOM      6  O   UNL A   1      30.278  29.963  24.026  1.00  0.00    -0.270 OA
ATOM      7  H   UNL A   1      30.984  31.086  25.836  1.00  0.00     0.163 HD
BRANCH   5   8
ATOM      8  C   UNL A   1      31.631  28.088  24.501  1.00  0.00     0.067 C 
ATOM      9  C   UNL A   1      33.027  23.213  24.812  1.00  0.00     0.060 A 
ATOM     10  C   UNL A   1      32.854  24.147  23.774  1.00  0.00     0.074 A 
ATOM     11  C   UNL A   1      32.695  23.653  26.116  1.00  0.00     0.065 A 
ATOM     12  C   UNL A   1      32.411  25.445  24.017  1.00  0.00     0.130 A 
ATOM     13  C   UNL A   1      32.197  24.947  26.350  1.00  0.00     0.034 A 
ATOM     14  Cl  UNL A   1      32.955  22.689  27.533  1.00  0.00    -0.082 Cl
ATOM     15  C   UNL A   1      32.058  25.850  25.298  1.00  0.00     0.019 A 
ATOM     16  O   UNL A   1      32.316  26.264  22.933  1.00  0.00    -0.475 OA
ATOM     17  C   UNL A   1      31.537  27.195  25.504  1.00  0.00     0.025 C 
ATOM     18  C   UNL A   1      32.279  27.691  23.203  1.00  0.00     0.314 C 
BRANCH   9  19
ATOM     19  N   UNL A   1      33.524  21.932  24.496  1.00  0.00    -0.365 N 
BRANCH  19  20
ATOM     20  C   UNL A   1      34.995  21.765  24.481  1.00  0.00     0.076 C 
ATOM     21  C   UNL A   1      35.713  22.852  23.683  1.00  0.00     0.030 C 
ATOM     22  C   UNL A   1      35.597  21.626  25.876  1.00  0.00     0.030 C 
ENDBRANCH  19  20
BRANCH  19  23
ATOM     23  C   UNL A   1      32.520  20.849  24.370  1.00  0.00     0.076 C 
ATOM     24  C   UNL A   1      32.153  20.551  22.919  1.00  0.00     0.030 C 
ATOM     25  C   UNL A   1      32.889  19.576  25.126  1.00  0.00     0.030 C 
ENDBRANCH  19  23
ENDBRANCH   9  19
BRANCH  18  26
ATOM     26  C   UNL A   1      33.693  28.281  23.046  1.00  0.00     0.429 C 
ATOM     27  F   UNL A   1      34.453  27.987  24.131  1.00  0.00    -0.167 F 
ATOM     28  F   UNL A   1      34.352  27.776  21.977  1.00  0.00    -0.167 F 
ATOM     29  F   UNL A   1      33.686  29.625  22.908  1.00  0.00    -0.167 F 
ENDBRANCH  18  26
ENDBRANCH   5   8
ENDBRANCH   3   4
ENDBRANCH   2   3
ENDBRANCH   1   2
BRANCH   1  30
ATOM     30  C   UNL A   1      34.923  32.211  27.987  1.00  0.00     0.002 C 
BRANCH  30  31
ATOM     31  C   UNL A   1      33.696  33.126  28.027  1.00  0.00     0.021 C 
BRANCH  31  32
ATOM     32  C   UNL A   1      34.004  34.604  28.228  1.00  0.00     0.116 C 
BRANCH  32  33
ATOM     33  N   UNL A   1      33.194  35.207  29.274  1.00  0.00    -0.352 N 
ATOM     34  C   UNL A   1      33.287  35.074  30.638  1.00  0.00     0.251 C 
ATOM     35  H   UNL A   1      32.473  35.799  28.957  1.00  0.00     0.163 HD
ATOM     36  O   UNL A   1      32.412  35.540  31.363  1.00  0.00    -0.269 OA
BRANCH  34  37
ATOM     37  C   UNL A   1      34.425  34.342  31.234  1.00  0.00     0.039 A 
ATOM     38  C   UNL A   1      35.696  34.916  31.285  1.00  0.00     0.014 A 
ATOM     39  C   UNL A   1      34.215  33.059  31.749  1.00  0.00     0.014 A 
ATOM     40  C   UNL A   1      36.781  34.151  31.695  1.00  0.00     0.010 A 
ATOM     41  C   UNL A   1      35.295  32.324  32.248  1.00  0.00     0.010 A 
ATOM     42  C   UNL A   1      36.595  32.846  32.184  1.00  0.00    -0.014 A 
BRANCH  42  43
ATOM     43  C   UNL A   1      37.778  32.070  32.637  1.00  0.00     0.031 A 
ATOM     44  C   UNL A   1      38.412  31.030  31.755  1.00  0.00     0.074 A 
ATOM     45  C   UNL A   1      38.323  32.360  33.835  1.00  0.00     0.049 A 
ATOM     46  N   UNL A   1      39.505  30.337  31.960  1.00  0.00    -0.248 NA
ATOM     47  C   UNL A   1      37.739  30.720  30.484  1.00  0.00     0.031 C 
ATOM     48  C   UNL A   1      37.795  33.345  34.782  1.00  0.00     0.029 A 
ATOM     49  N   UNL A   1      39.459  31.887  34.444  1.00  0.00    -0.354 N 
ATOM     50  C   UNL A   1      39.641  29.503  30.858  1.00  0.00     0.074 A 
ATOM     51  C   UNL A   1      38.504  29.750  29.999  1.00  0.00     0.031 C 
ATOM     52  C   UNL A   1      38.642  33.456  35.815  1.00  0.00     0.029 A 
ATOM     53  C   UNL A   1      39.738  32.509  35.637  1.00  0.00     0.049 A 
ATOM     54  H   UNL A   1      40.019  31.173  34.063  1.00  0.00     0.167 HD
ATOM     55  C   UNL A   1      40.632  28.622  30.582  1.00  0.00     0.031 A 
ATOM     56  C   UNL A   1      40.759  32.342  36.498  1.00  0.00     0.031 A 
ATOM     57  C   UNL A   1      41.768  28.387  31.433  1.00  0.00     0.049 A 
ATOM     58  C   UNL A   1      41.833  31.344  36.178  1.00  0.00     0.074 A 
ATOM     59  C   UNL A   1      42.842  27.540  31.214  1.00  0.00     0.029 A 
ATOM     60  N   UNL A   1      41.979  28.992  32.661  1.00  0.00    -0.354 N 
ATOM     61  N   UNL A   1      41.965  30.593  35.112  1.00  0.00    -0.248 NA
ATOM     62  C   UNL A   1      42.897  31.170  37.175  1.00  0.00     0.031 C 
ATOM     63  C   UNL A   1      43.669  27.585  32.338  1.00  0.00     0.029 A 
ATOM     64  C   UNL A   1      43.150  28.512  33.227  1.00  0.00     0.049 A 
ATOM     65  H   UNL A   1      41.387  29.663  33.072  1.00  0.00     0.167 HD
ATOM     66  C   UNL A   1      43.128  29.862  35.306  1.00  0.00     0.074 A 
ATOM     67  C   UNL A   1      43.681  30.281  36.578  1.00  0.00     0.031 C 
ATOM     68  C   UNL A   1      43.684  28.923  34.501  1.00  0.00     0.031 A 
BRANCH  55  69
ATOM     69  C   UNL A   1      40.537  27.827  29.309  1.00  0.00    -0.014 A 
ATOM     70  C   UNL A   1      41.121  28.325  28.132  1.00  0.00     0.009 A 
ATOM     71  C   UNL A   1      39.790  26.640  29.244  1.00  0.00     0.009 A 
ATOM     72  C   UNL A   1      40.950  27.660  26.916  1.00  0.00     0.001 A 
ATOM     73  C   UNL A   1      39.643  25.963  28.030  1.00  0.00     0.001 A 
ATOM     74  C   UNL A   1      40.214  26.478  26.867  1.00  0.00     0.000 A 
ENDBRANCH  55  69
BRANCH  56  75
ATOM     75  C   UNL A   1      40.806  33.166  37.735  1.00  0.00    -0.014 A 
ATOM     76  C   UNL A   1      40.100  32.769  38.882  1.00  0.00     0.009 A 
ATOM     77  C   UNL A   1      41.498  34.386  37.754  1.00  0.00     0.009 A 
ATOM     78  C   UNL A   1      40.055  33.591  40.010  1.00  0.00     0.001 A 
ATOM     79  C   UNL A   1      41.479  35.191  38.896  1.00  0.00     0.001 A 
ATOM     80  C   UNL A   1      40.748  34.800  40.017  1.00  0.00     0.000 A 
ENDBRANCH  56  75
BRANCH  68  81
ATOM     81  C   UNL A   1      44.956  28.269  34.964  1.00  0.00    -0.014 A 
ATOM     82  C   UNL A   1      44.898  27.121  35.770  1.00  0.00     0.009 A 
ATOM     83  C   UNL A   1      46.206  28.842  34.683  1.00  0.00     0.009 A 
ATOM     84  C   UNL A   1      46.066  26.567  36.298  1.00  0.00     0.001 A 
ATOM     85  C   UNL A   1      47.374  28.267  35.187  1.00  0.00     0.001 A 
ATOM     86  C   UNL A   1      47.302  27.136  36.002  1.00  0.00     0.000 A 
ENDBRANCH  68  81
ENDBRANCH  42  43
ENDBRANCH  34  37
ENDBRANCH  32  33
ENDBRANCH  31  32
ENDBRANCH  30  31
ENDBRANCH   1  30
TORSDOF 17
ENDMDL
MODEL 3
REMARK VINA RESULT:     -10.7      5.297      8.682
REMARK SMILES CC(C)N(c1cc2c(cc1Cl)C=C(C(=O)NCCCCCCNC(=O)c1ccc(-c3c4nc(c(-c5ccccc5)c5ccc([nH]5)c(-c5ccccc5)c5nc(c(-c6ccccc6)c6ccc3[nH]6)C=C5)C=C4)cc1)[C@@H](C(F)(F)F)O2)C(C)C
REMARK SMILES IDX 19 1 18 2 17 3 16 4 14 5 15 6 13 8 5 9 6 10 10 11 7 12 9 13
REMARK SMILES IDX 11 14 8 15 79 16 12 17 74 18 4 19 2 20 1 21 3 22 80 23 81 24
REMARK SMILES IDX 82 25 75 26 76 27 77 28 78 29 20 30 21 31 22 32 23 33 24 34
REMARK SMILES IDX 25 36 26 37 27 38 73 39 28 40 72 41 29 42 30 43 31 44 66 45
REMARK SMILES IDX 32 46 71 47 65 48 67 49 33 50 70 51 64 52 63 53 34 55 56 56
REMARK SMILES IDX 41 57 55 58 42 59 45 60 54 61 68 62 43 63 44 64 53 66 69 67
REMARK SMILES IDX 46 68 35 69 36 70 40 71 37 72 39 73 38 74 57 75 58 76 62 77
REMARK SMILES IDX 59 78 61 79 60 80 47 81 48 82 52 83 49 84 51 85 50 86
REMARK H PARENT 16 7 23 35 67 54 45 65
REMARK Flexibility Score: inf
ROOT
ATOM      1  C   UNL A   1      44.345  23.330  28.818  1.00  0.00     0.002 C 
ENDROOT
BRANCH   1   2
ATOM      2  C   UNL A   1      43.070  23.965  29.379  1.00  0.00     0.021 C 
BRANCH   2   3
ATOM      3  C   UNL A   1      42.513  25.100  28.524  1.00  0.00     0.116 C 
BRANCH   3   4
ATOM      4  N   UNL A   1      41.104  24.911  28.228  1.00  0.00    -0.352 N 
ATOM      5  C   UNL A   1      39.978  25.659  28.237  1.00  0.00     0.251 C 
ATOM      6  O   UNL A   1      38.957  25.071  27.862  1.00  0.00    -0.270 OA
ATOM      7  H   UNL A   1      40.919  23.987  27.942  1.00  0.00     0.163 HD
BRANCH   5   8
ATOM      8  C   UNL A   1      39.891  27.090  28.654  1.00  0.00     0.067 C 
ATOM      9  C   UNL A   1      38.417  31.508  30.682  1.00  0.00     0.060 A 
ATOM     10  C   UNL A   1      39.604  31.006  30.116  1.00  0.00     0.074 A 
ATOM     11  C   UNL A   1      37.340  30.597  30.800  1.00  0.00     0.065 A 
ATOM     12  C   UNL A   1      39.705  29.691  29.666  1.00  0.00     0.130 A 
ATOM     13  C   UNL A   1      37.466  29.257  30.394  1.00  0.00     0.034 A 
ATOM     14  Cl  UNL A   1      35.767  31.061  31.358  1.00  0.00    -0.082 Cl
ATOM     15  C   UNL A   1      38.650  28.801  29.819  1.00  0.00     0.019 A 
ATOM     16  O   UNL A   1      40.896  29.334  29.107  1.00  0.00    -0.475 OA
ATOM     17  C   UNL A   1      38.816  27.417  29.396  1.00  0.00     0.025 C 
ATOM     18  C   UNL A   1      40.884  28.150  28.266  1.00  0.00     0.314 C 
BRANCH   9  19
ATOM     19  N   UNL A   1      38.373  32.862  31.072  1.00  0.00    -0.365 N 
BRANCH  19  20
ATOM     20  C   UNL A   1      38.814  33.182  32.449  1.00  0.00     0.076 C 
ATOM     21  C   UNL A   1      38.116  34.410  33.032  1.00  0.00     0.030 C 
ATOM     22  C   UNL A   1      38.713  31.995  33.402  1.00  0.00     0.030 C 
ENDBRANCH  19  20
BRANCH  19  23
ATOM     23  C   UNL A   1      38.041  33.843  30.012  1.00  0.00     0.076 C 
ATOM     24  C   UNL A   1      39.256  34.631  29.533  1.00  0.00     0.030 C 
ATOM     25  C   UNL A   1      37.266  33.245  28.840  1.00  0.00     0.030 C 
ENDBRANCH  19  23
ENDBRANCH   9  19
BRANCH  18  26
ATOM     26  C   UNL A   1      40.754  28.569  26.790  1.00  0.00     0.429 C 
ATOM     27  F   UNL A   1      41.651  29.542  26.491  1.00  0.00    -0.167 F 
ATOM     28  F   UNL A   1      41.005  27.549  25.935  1.00  0.00    -0.167 F 
ATOM     29  F   UNL A   1      39.525  29.043  26.488  1.00  0.00    -0.167 F 
ENDBRANCH  18  26
ENDBRANCH   5   8
ENDBRANCH   3   4
ENDBRANCH   2   3
ENDBRANCH   1   2
BRANCH   1  30
ATOM     30  C   UNL A   1      45.348  24.307  28.191  1.00  0.00     0.002 C 
BRANCH  30  31
ATOM     31  C   UNL A   1      46.128  23.774  26.987  1.00  0.00     0.021 C 
BRANCH  31  32
ATOM     32  C   UNL A   1      47.478  24.439  26.751  1.00  0.00     0.116 C 
BRANCH  32  33
ATOM     33  N   UNL A   1      47.548  25.124  25.471  1.00  0.00    -0.352 N 
ATOM     34  C   UNL A   1      47.002  26.324  25.089  1.00  0.00     0.251 C 
ATOM     35  H   UNL A   1      48.066  24.657  24.774  1.00  0.00     0.163 HD
ATOM     36  O   UNL A   1      47.037  26.670  23.912  1.00  0.00    -0.269 OA
BRANCH  34  37
ATOM     37  C   UNL A   1      46.342  27.188  26.091  1.00  0.00     0.039 A 
ATOM     38  C   UNL A   1      47.095  27.923  27.008  1.00  0.00     0.014 A 
ATOM     39  C   UNL A   1      44.946  27.261  26.114  1.00  0.00     0.014 A 
ATOM     40  C   UNL A   1      46.455  28.595  28.043  1.00  0.00     0.010 A 
ATOM     41  C   UNL A   1      44.304  28.014  27.102  1.00  0.00     0.010 A 
ATOM     42  C   UNL A   1      45.052  28.651  28.103  1.00  0.00    -0.014 A 
BRANCH  42  43
ATOM     43  C   UNL A   1      44.406  29.401  29.211  1.00  0.00     0.031 A 
ATOM     44  C   UNL A   1      44.122  28.745  30.534  1.00  0.00     0.074 A 
ATOM     45  C   UNL A   1      44.138  30.710  29.038  1.00  0.00     0.049 A 
ATOM     46  N   UNL A   1      43.656  29.285  31.634  1.00  0.00    -0.248 NA
ATOM     47  C   UNL A   1      44.386  27.301  30.644  1.00  0.00     0.031 C 
ATOM     48  C   UNL A   1      44.364  31.457  27.798  1.00  0.00     0.029 A 
ATOM     49  N   UNL A   1      43.655  31.653  29.911  1.00  0.00    -0.354 N 
ATOM     50  C   UNL A   1      43.558  28.250  32.555  1.00  0.00     0.074 A 
ATOM     51  C   UNL A   1      43.981  27.043  31.881  1.00  0.00     0.031 C 
ATOM     52  C   UNL A   1      44.092  32.752  28.011  1.00  0.00     0.029 A 
ATOM     53  C   UNL A   1      43.612  32.919  29.379  1.00  0.00     0.049 A 
ATOM     54  H   UNL A   1      43.368  31.442  30.829  1.00  0.00     0.167 HD
ATOM     55  C   UNL A   1      43.163  28.305  33.849  1.00  0.00     0.031 A 
ATOM     56  C   UNL A   1      43.232  34.089  29.925  1.00  0.00     0.031 A 
ATOM     57  C   UNL A   1      42.754  29.510  34.521  1.00  0.00     0.049 A 
ATOM     58  C   UNL A   1      42.779  34.120  31.355  1.00  0.00     0.074 A 
ATOM     59  C   UNL A   1      42.375  29.667  35.844  1.00  0.00     0.029 A 
ATOM     60  N   UNL A   1      42.665  30.760  33.928  1.00  0.00    -0.354 N 
ATOM     61  N   UNL A   1      42.730  33.138  32.222  1.00  0.00    -0.248 NA
ATOM     62  C   UNL A   1      42.331  35.414  31.884  1.00  0.00     0.031 C 
ATOM     63  C   UNL A   1      41.996  30.998  36.034  1.00  0.00     0.029 A 
ATOM     64  C   UNL A   1      42.206  31.687  34.851  1.00  0.00     0.049 A 
ATOM     65  H   UNL A   1      42.894  30.960  32.992  1.00  0.00     0.167 HD
ATOM     66  C   UNL A   1      42.252  33.696  33.400  1.00  0.00     0.074 A 
ATOM     67  C   UNL A   1      42.054  35.108  33.145  1.00  0.00     0.031 C 
ATOM     68  C   UNL A   1      41.997  33.087  34.584  1.00  0.00     0.031 A 
BRANCH  55  69
ATOM     69  C   UNL A   1      43.139  27.024  34.637  1.00  0.00    -0.014 A 
ATOM     70  C   UNL A   1      41.928  26.331  34.804  1.00  0.00     0.009 A 
ATOM     71  C   UNL A   1      44.285  26.554  35.299  1.00  0.00     0.009 A 
ATOM     72  C   UNL A   1      41.861  25.203  35.624  1.00  0.00     0.001 A 
ATOM     73  C   UNL A   1      44.220  25.409  36.096  1.00  0.00     0.001 A 
ATOM     74  C   UNL A   1      43.008  24.741  36.266  1.00  0.00     0.000 A 
ENDBRANCH  55  69
BRANCH  56  75
ATOM     75  C   UNL A   1      43.288  35.325  29.100  1.00  0.00    -0.014 A 
ATOM     76  C   UNL A   1      42.231  35.654  28.237  1.00  0.00     0.009 A 
ATOM     77  C   UNL A   1      44.427  36.145  29.120  1.00  0.00     0.009 A 
ATOM     78  C   UNL A   1      42.325  36.756  27.384  1.00  0.00     0.001 A 
ATOM     79  C   UNL A   1      44.505  37.265  28.289  1.00  0.00     0.001 A 
ATOM     80  C   UNL A   1      43.461  37.562  27.414  1.00  0.00     0.000 A 
ENDBRANCH  56  75
BRANCH  68  81
ATOM     81  C   UNL A   1      41.466  33.936  35.706  1.00  0.00    -0.014 A 
ATOM     82  C   UNL A   1      42.358  34.590  36.569  1.00  0.00     0.009 A 
ATOM     83  C   UNL A   1      40.089  34.009  35.966  1.00  0.00     0.009 A 
ATOM     84  C   UNL A   1      41.883  35.292  37.679  1.00  0.00     0.001 A 
ATOM     85  C   UNL A   1      39.616  34.738  37.059  1.00  0.00     0.001 A 
ATOM     86  C   UNL A   1      40.514  35.370  37.920  1.00  0.00     0.000 A 
ENDBRANCH  68  81
ENDBRANCH  42  43
ENDBRANCH  34  37
ENDBRANCH  32  33
ENDBRANCH  31  32
ENDBRANCH  30  31
ENDBRANCH   1  30
TORSDOF 17
ENDMDL
