MODEL 1
REMARK VINA RESULT:     -11.9      0.000      0.000
REMARK SMILES Cc1ccnc(C(=O)c2[nH]c3cc(F)ccc3c2CC(=O)NCCCCCCNC(=O)c2ccc(-c3c4nc(c(-c5ccccc5)c5ccc([nH]5)c(-c5ccccc5)c5nc(c(-c6ccccc6)c6ccc3[nH]6)C=C5)C=C4)cc2)c1
REMARK SMILES IDX 25 1 24 2 23 3 22 4 20 5 21 6 19 8 18 9 9 10 10 11 11 12
REMARK SMILES IDX 17 14 12 15 16 16 13 17 15 18 14 19 7 20 8 21 6 22 1 23 2 24
REMARK SMILES IDX 3 25 80 26 4 27 5 28 26 29 27 30 28 31 29 32 30 33 31 35
REMARK SMILES IDX 32 36 33 37 79 38 34 39 78 40 35 41 36 42 37 43 72 44 38 45
REMARK SMILES IDX 77 46 71 47 73 48 39 49 76 50 70 51 69 52 40 54 62 55 47 56
REMARK SMILES IDX 61 57 48 58 51 59 60 60 74 61 49 62 50 63 59 65 75 66 52 67
REMARK SMILES IDX 41 68 42 69 46 70 43 71 45 72 44 73 63 74 64 75 68 76 65 77
REMARK SMILES IDX 67 78 66 79 53 80 54 81 58 82 55 83 57 84 56 85
REMARK H PARENT 22 7 10 13 29 34 73 53 51 64
REMARK Flexibility Score: inf
ROOT
ATOM      1  C   UNL A   1      32.359  29.560  26.445  1.00  0.00     0.002 C 
ENDROOT
BRANCH   1   2
ATOM      2  C   UNL A   1      31.704  28.287  26.993  1.00  0.00     0.021 C 
BRANCH   2   3
ATOM      3  C   UNL A   1      32.277  26.979  26.451  1.00  0.00     0.116 C 
BRANCH   3   4
ATOM      4  N   UNL A   1      31.529  25.816  26.881  1.00  0.00    -0.356 N 
ATOM      5  C   UNL A   1      31.799  24.492  26.686  1.00  0.00     0.224 C 
ATOM      6  O   UNL A   1      31.082  23.657  27.242  1.00  0.00    -0.275 OA
ATOM      7  H   UNL A   1      30.705  26.008  27.385  1.00  0.00     0.163 HD
BRANCH   5   8
ATOM      8  C   UNL A   1      33.022  24.059  25.894  1.00  0.00     0.138 C 
BRANCH   8   9
ATOM      9  C   UNL A   1      32.731  23.444  24.555  1.00  0.00    -0.002 A 
ATOM     10  C   UNL A   1      32.511  24.102  23.349  1.00  0.00     0.093 A 
ATOM     11  N   UNL A   1      32.331  23.144  22.379  1.00  0.00    -0.351 N 
ATOM     12  C   UNL A   1      32.331  21.888  22.930  1.00  0.00     0.049 A 
ATOM     13  H   UNL A   1      32.218  23.334  21.419  1.00  0.00     0.167 HD
ATOM     14  C   UNL A   1      32.571  22.039  24.296  1.00  0.00     0.004 A 
ATOM     15  C   UNL A   1      32.147  20.640  22.324  1.00  0.00     0.066 A 
ATOM     16  C   UNL A   1      32.619  20.879  25.100  1.00  0.00     0.013 A 
ATOM     17  C   UNL A   1      32.205  19.518  23.149  1.00  0.00     0.125 A 
ATOM     18  C   UNL A   1      32.435  19.622  24.513  1.00  0.00     0.040 A 
ATOM     19  F   UNL A   1      32.033  18.305  22.606  1.00  0.00    -0.207 F 
BRANCH  10  20
ATOM     20  C   UNL A   1      32.529  25.523  23.043  1.00  0.00     0.227 C 
ATOM     21  O   UNL A   1      33.551  26.065  22.639  1.00  0.00    -0.285 OA
BRANCH  20  22
ATOM     22  C   UNL A   1      31.233  26.291  23.160  1.00  0.00     0.113 A 
ATOM     23  C   UNL A   1      29.733  29.716  22.497  1.00  0.00     0.044 C 
ATOM     24  C   UNL A   1      29.905  28.288  22.922  1.00  0.00    -0.047 A 
ATOM     25  C   UNL A   1      28.840  27.596  23.499  1.00  0.00     0.023 A 
ATOM     26  C   UNL A   1      31.117  27.616  22.731  1.00  0.00     0.036 A 
ATOM     27  C   UNL A   1      29.034  26.280  23.882  1.00  0.00     0.112 A 
ATOM     28  N   UNL A   1      30.204  25.622  23.740  1.00  0.00    -0.253 NA
ENDBRANCH  20  22
ENDBRANCH  10  20
ENDBRANCH   8   9
ENDBRANCH   5   8
ENDBRANCH   3   4
ENDBRANCH   2   3
ENDBRANCH   1   2
BRANCH   1  29
ATOM     29  C   UNL A   1      31.422  30.555  25.751  1.00  0.00     0.002 C 
BRANCH  29  30
ATOM     30  C   UNL A   1      31.283  31.928  26.418  1.00  0.00     0.021 C 
BRANCH  30  31
ATOM     31  C   UNL A   1      32.535  32.462  27.114  1.00  0.00     0.116 C 
BRANCH  31  32
ATOM     32  N   UNL A   1      32.360  33.809  27.626  1.00  0.00    -0.352 N 
ATOM     33  C   UNL A   1      33.136  34.511  28.514  1.00  0.00     0.251 C 
ATOM     34  H   UNL A   1      31.570  34.290  27.286  1.00  0.00     0.163 HD
ATOM     35  O   UNL A   1      32.758  35.603  28.928  1.00  0.00    -0.269 OA
BRANCH  33  36
ATOM     36  C   UNL A   1      34.421  33.958  29.002  1.00  0.00     0.039 A 
ATOM     37  C   UNL A   1      34.406  33.153  30.146  1.00  0.00     0.014 A 
ATOM     38  C   UNL A   1      35.637  34.277  28.389  1.00  0.00     0.014 A 
ATOM     39  C   UNL A   1      35.598  32.629  30.651  1.00  0.00     0.010 A 
ATOM     40  C   UNL A   1      36.828  33.739  28.883  1.00  0.00     0.010 A 
ATOM     41  C   UNL A   1      36.816  32.910  30.015  1.00  0.00    -0.014 A 
BRANCH  41  42
ATOM     42  C   UNL A   1      38.086  32.344  30.529  1.00  0.00     0.031 A 
ATOM     43  C   UNL A   1      38.657  31.092  29.929  1.00  0.00     0.074 A 
ATOM     44  C   UNL A   1      38.712  32.936  31.561  1.00  0.00     0.049 A 
ATOM     45  N   UNL A   1      39.695  30.394  30.318  1.00  0.00    -0.248 NA
ATOM     46  C   UNL A   1      37.969  30.552  28.747  1.00  0.00     0.031 C 
ATOM     47  C   UNL A   1      38.265  34.153  32.240  1.00  0.00     0.029 A 
ATOM     48  N   UNL A   1      39.861  32.584  32.223  1.00  0.00    -0.354 N 
ATOM     49  C   UNL A   1      39.766  29.314  29.449  1.00  0.00     0.074 A 
ATOM     50  C   UNL A   1      38.678  29.457  28.503  1.00  0.00     0.031 C 
ATOM     51  C   UNL A   1      39.133  34.448  33.222  1.00  0.00     0.029 A 
ATOM     52  C   UNL A   1      40.184  33.434  33.249  1.00  0.00     0.049 A 
ATOM     53  H   UNL A   1      40.401  31.796  31.983  1.00  0.00     0.167 HD
ATOM     54  C   UNL A   1      40.651  28.289  29.444  1.00  0.00     0.031 A 
ATOM     55  C   UNL A   1      41.206  33.397  34.122  1.00  0.00     0.031 A 
ATOM     56  C   UNL A   1      41.747  28.143  30.362  1.00  0.00     0.049 A 
ATOM     57  C   UNL A   1      42.209  32.285  34.057  1.00  0.00     0.074 A 
ATOM     58  C   UNL A   1      42.676  27.118  30.443  1.00  0.00     0.029 A 
ATOM     59  N   UNL A   1      42.072  29.057  31.349  1.00  0.00    -0.354 N 
ATOM     60  N   UNL A   1      42.237  31.250  33.256  1.00  0.00    -0.248 NA
ATOM     61  C   UNL A   1      43.318  32.336  35.021  1.00  0.00     0.031 C 
ATOM     62  C   UNL A   1      43.572  27.421  31.477  1.00  0.00     0.029 A 
ATOM     63  C   UNL A   1      43.197  28.632  32.033  1.00  0.00     0.049 A 
ATOM     64  H   UNL A   1      41.577  29.887  31.535  1.00  0.00     0.167 HD
ATOM     65  C   UNL A   1      43.361  30.522  33.621  1.00  0.00     0.074 A 
ATOM     66  C   UNL A   1      43.996  31.240  34.708  1.00  0.00     0.031 C 
ATOM     67  C   UNL A   1      43.820  29.358  33.106  1.00  0.00     0.031 A 
BRANCH  54  68
ATOM     68  C   UNL A   1      40.446  27.227  28.410  1.00  0.00    -0.014 A 
ATOM     69  C   UNL A   1      41.111  27.292  27.177  1.00  0.00     0.009 A 
ATOM     70  C   UNL A   1      39.596  26.144  28.679  1.00  0.00     0.009 A 
ATOM     71  C   UNL A   1      40.914  26.294  26.221  1.00  0.00     0.001 A 
ATOM     72  C   UNL A   1      39.406  25.146  27.722  1.00  0.00     0.001 A 
ATOM     73  C   UNL A   1      40.063  25.223  26.494  1.00  0.00     0.000 A 
ENDBRANCH  54  68
BRANCH  55  74
ATOM     74  C   UNL A   1      41.329  34.454  35.150  1.00  0.00    -0.014 A 
ATOM     75  C   UNL A   1      42.020  35.640  34.866  1.00  0.00     0.009 A 
ATOM     76  C   UNL A   1      40.753  34.279  36.415  1.00  0.00     0.009 A 
ATOM     77  C   UNL A   1      42.140  36.633  35.838  1.00  0.00     0.001 A 
ATOM     78  C   UNL A   1      40.870  35.277  37.384  1.00  0.00     0.001 A 
ATOM     79  C   UNL A   1      41.565  36.451  37.095  1.00  0.00     0.000 A 
ENDBRANCH  55  74
BRANCH  67  80
ATOM     80  C   UNL A   1      45.067  28.796  33.712  1.00  0.00    -0.014 A 
ATOM     81  C   UNL A   1      44.993  27.954  34.831  1.00  0.00     0.009 A 
ATOM     82  C   UNL A   1      46.318  29.093  33.154  1.00  0.00     0.009 A 
ATOM     83  C   UNL A   1      46.158  27.430  35.393  1.00  0.00     0.001 A 
ATOM     84  C   UNL A   1      47.481  28.565  33.717  1.00  0.00     0.001 A 
ATOM     85  C   UNL A   1      47.401  27.737  34.837  1.00  0.00     0.000 A 
ENDBRANCH  67  80
ENDBRANCH  41  42
ENDBRANCH  33  36
ENDBRANCH  31  32
ENDBRANCH  30  31
ENDBRANCH  29  30
ENDBRANCH   1  29
TORSDOF 16
ENDMDL
MODEL 2
REMARK VINA RESULT:     -11.9      3.768      8.961
REMARK SMILES Cc1ccnc(C(=O)c2[nH]c3cc(F)ccc3c2CC(=O)NCCCCCCNC(=O)c2ccc(-c3c4nc(c(-c5ccccc5)c5ccc([nH]5)c(-c5ccccc5)c5nc(c(-c6ccccc6)c6ccc3[nH]6)C=C5)C=C4)cc2)c1
REMARK SMILES IDX 25 1 24 2 23 3 22 4 20 5 21 6 19 8 18 9 9 10 10 11 11 12
REMARK SMILES IDX 17 14 12 15 16 16 13 17 15 18 14 19 7 20 8 21 6 22 1 23 2 24
REMARK SMILES IDX 3 25 80 26 4 27 5 28 26 29 27 30 28 31 29 32 30 33 31 35
REMARK SMILES IDX 32 36 33 37 79 38 34 39 78 40 35 41 36 42 37 43 72 44 38 45
REMARK SMILES IDX 77 46 71 47 73 48 39 49 76 50 70 51 69 52 40 54 62 55 47 56
REMARK SMILES IDX 61 57 48 58 51 59 60 60 74 61 49 62 50 63 59 65 75 66 52 67
REMARK SMILES IDX 41 68 42 69 46 70 43 71 45 72 44 73 63 74 64 75 68 76 65 77
REMARK SMILES IDX 67 78 66 79 53 80 54 81 58 82 55 83 57 84 56 85
REMARK H PARENT 22 7 10 13 29 34 73 53 51 64
REMARK Flexibility Score: inf
ROOT
ATOM      1  C   UNL A   1      36.730  22.225  24.039  1.00  0.00     0.002 C 
ENDROOT
BRANCH   1   2
ATOM      2  C   UNL A   1      36.467  23.438  24.938  1.00  0.00     0.021 C 
BRANCH   2   3
ATOM      3  C   UNL A   1      35.043  23.989  24.883  1.00  0.00     0.116 C 
BRANCH   3   4
ATOM      4  N   UNL A   1      34.668  24.449  23.562  1.00  0.00    -0.356 N 
ATOM      5  C   UNL A   1      33.878  25.504  23.205  1.00  0.00     0.224 C 
ATOM      6  O   UNL A   1      33.783  25.788  22.009  1.00  0.00    -0.275 OA
ATOM      7  H   UNL A   1      35.033  23.924  22.813  1.00  0.00     0.163 HD
BRANCH   5   8
ATOM      8  C   UNL A   1      33.224  26.376  24.263  1.00  0.00     0.138 C 
BRANCH   8   9
ATOM      9  C   UNL A   1      31.722  26.367  24.260  1.00  0.00    -0.002 A 
ATOM     10  C   UNL A   1      30.878  25.427  24.844  1.00  0.00     0.093 A 
ATOM     11  N   UNL A   1      29.584  25.842  24.632  1.00  0.00    -0.351 N 
ATOM     12  C   UNL A   1      29.556  26.966  23.847  1.00  0.00     0.049 A 
ATOM     13  H   UNL A   1      28.786  25.392  24.994  1.00  0.00     0.167 HD
ATOM     14  C   UNL A   1      30.881  27.319  23.588  1.00  0.00     0.004 A 
ATOM     15  C   UNL A   1      28.465  27.697  23.361  1.00  0.00     0.066 A 
ATOM     16  C   UNL A   1      31.126  28.459  22.790  1.00  0.00     0.013 A 
ATOM     17  C   UNL A   1      28.747  28.816  22.580  1.00  0.00     0.125 A 
ATOM     18  C   UNL A   1      30.049  29.200  22.292  1.00  0.00     0.040 A 
ATOM     19  F   UNL A   1      27.730  29.541  22.095  1.00  0.00    -0.207 F 
BRANCH  10  20
ATOM     20  C   UNL A   1      31.197  24.243  25.625  1.00  0.00     0.227 C 
ATOM     21  O   UNL A   1      31.066  24.240  26.843  1.00  0.00    -0.285 OA
BRANCH  20  22
ATOM     22  C   UNL A   1      31.614  22.994  24.882  1.00  0.00     0.113 A 
ATOM     23  C   UNL A   1      32.972  19.497  25.469  1.00  0.00     0.044 C 
ATOM     24  C   UNL A   1      32.478  20.746  24.801  1.00  0.00    -0.047 A 
ATOM     25  C   UNL A   1      32.415  20.819  23.410  1.00  0.00     0.023 A 
ATOM     26  C   UNL A   1      32.050  21.848  25.550  1.00  0.00     0.036 A 
ATOM     27  C   UNL A   1      31.955  21.988  22.827  1.00  0.00     0.112 A 
ATOM     28  N   UNL A   1      31.571  23.074  23.528  1.00  0.00    -0.253 NA
ENDBRANCH  20  22
ENDBRANCH  10  20
ENDBRANCH   8   9
ENDBRANCH   5   8
ENDBRANCH   3   4
ENDBRANCH   2   3
ENDBRANCH   1   2
BRANCH   1  29
ATOM     29  C   UNL A   1      36.514  20.851  24.683  1.00  0.00     0.002 C 
BRANCH  29  30
ATOM     30  C   UNL A   1      37.738  19.929  24.732  1.00  0.00     0.021 C 
BRANCH  30  31
ATOM     31  C   UNL A   1      38.764  20.240  25.822  1.00  0.00     0.116 C 
BRANCH  31  32
ATOM     32  N   UNL A   1      39.925  19.371  25.763  1.00  0.00    -0.352 N 
ATOM     33  C   UNL A   1      41.241  19.656  26.030  1.00  0.00     0.251 C 
ATOM     34  H   UNL A   1      39.743  18.442  25.492  1.00  0.00     0.163 HD
ATOM     35  O   UNL A   1      42.108  18.818  25.802  1.00  0.00    -0.269 OA
BRANCH  33  36
ATOM     36  C   UNL A   1      41.637  20.977  26.572  1.00  0.00     0.039 A 
ATOM     37  C   UNL A   1      41.556  21.179  27.954  1.00  0.00     0.014 A 
ATOM     38  C   UNL A   1      42.018  22.030  25.733  1.00  0.00     0.014 A 
ATOM     39  C   UNL A   1      41.900  22.417  28.503  1.00  0.00     0.010 A 
ATOM     40  C   UNL A   1      42.379  23.262  26.284  1.00  0.00     0.010 A 
ATOM     41  C   UNL A   1      42.324  23.463  27.672  1.00  0.00    -0.014 A 
BRANCH  41  42
ATOM     42  C   UNL A   1      42.712  24.774  28.243  1.00  0.00     0.031 A 
ATOM     43  C   UNL A   1      41.677  25.835  28.483  1.00  0.00     0.074 A 
ATOM     44  C   UNL A   1      44.004  25.028  28.517  1.00  0.00     0.049 A 
ATOM     45  N   UNL A   1      41.844  27.074  28.872  1.00  0.00    -0.248 NA
ATOM     46  C   UNL A   1      40.276  25.455  28.248  1.00  0.00     0.031 C 
ATOM     47  C   UNL A   1      45.112  24.091  28.327  1.00  0.00     0.029 A 
ATOM     48  N   UNL A   1      44.601  26.161  29.007  1.00  0.00    -0.354 N 
ATOM     49  C   UNL A   1      40.574  27.633  28.897  1.00  0.00     0.074 A 
ATOM     50  C   UNL A   1      39.645  26.595  28.501  1.00  0.00     0.031 C 
ATOM     51  C   UNL A   1      46.256  24.688  28.701  1.00  0.00     0.029 A 
ATOM     52  C   UNL A   1      45.962  26.049  29.140  1.00  0.00     0.049 A 
ATOM     53  H   UNL A   1      44.101  26.976  29.242  1.00  0.00     0.167 HD
ATOM     54  C   UNL A   1      40.214  28.900  29.213  1.00  0.00     0.031 A 
ATOM     55  C   UNL A   1      46.873  26.946  29.557  1.00  0.00     0.031 A 
ATOM     56  C   UNL A   1      41.119  29.935  29.627  1.00  0.00     0.049 A 
ATOM     57  C   UNL A   1      46.441  28.324  29.960  1.00  0.00     0.074 A 
ATOM     58  C   UNL A   1      40.840  31.256  29.939  1.00  0.00     0.029 A 
ATOM     59  N   UNL A   1      42.482  29.762  29.804  1.00  0.00    -0.354 N 
ATOM     60  N   UNL A   1      45.241  28.848  29.938  1.00  0.00    -0.248 NA
ATOM     61  C   UNL A   1      47.492  29.232  30.442  1.00  0.00     0.031 C 
ATOM     62  C   UNL A   1      42.036  31.880  30.316  1.00  0.00     0.029 A 
ATOM     63  C   UNL A   1      43.055  30.945  30.237  1.00  0.00     0.049 A 
ATOM     64  H   UNL A   1      42.969  28.922  29.645  1.00  0.00     0.167 HD
ATOM     65  C   UNL A   1      45.392  30.150  30.396  1.00  0.00     0.074 A 
ATOM     66  C   UNL A   1      46.796  30.332  30.700  1.00  0.00     0.031 C 
ATOM     67  C   UNL A   1      44.449  31.110  30.542  1.00  0.00     0.031 A 
BRANCH  54  68
ATOM     68  C   UNL A   1      38.759  29.235  29.096  1.00  0.00    -0.014 A 
ATOM     69  C   UNL A   1      37.912  29.133  30.208  1.00  0.00     0.009 A 
ATOM     70  C   UNL A   1      38.239  29.675  27.870  1.00  0.00     0.009 A 
ATOM     71  C   UNL A   1      36.557  29.451  30.088  1.00  0.00     0.001 A 
ATOM     72  C   UNL A   1      36.887  29.997  27.756  1.00  0.00     0.001 A 
ATOM     73  C   UNL A   1      36.046  29.881  28.863  1.00  0.00     0.000 A 
ENDBRANCH  54  68
BRANCH  55  74
ATOM     74  C   UNL A   1      48.302  26.566  29.609  1.00  0.00    -0.014 A 
ATOM     75  C   UNL A   1      48.827  25.940  30.748  1.00  0.00     0.009 A 
ATOM     76  C   UNL A   1      49.142  26.828  28.518  1.00  0.00     0.009 A 
ATOM     77  C   UNL A   1      50.176  25.588  30.797  1.00  0.00     0.001 A 
ATOM     78  C   UNL A   1      50.490  26.470  28.568  1.00  0.00     0.001 A 
ATOM     79  C   UNL A   1      51.005  25.853  29.708  1.00  0.00     0.000 A 
ENDBRANCH  55  74
BRANCH  67  80
ATOM     80  C   UNL A   1      44.911  32.436  31.055  1.00  0.00    -0.014 A 
ATOM     81  C   UNL A   1      45.327  33.435  30.163  1.00  0.00     0.009 A 
ATOM     82  C   UNL A   1      44.914  32.698  32.433  1.00  0.00     0.009 A 
ATOM     83  C   UNL A   1      45.755  34.673  30.646  1.00  0.00     0.001 A 
ATOM     84  C   UNL A   1      45.340  33.938  32.911  1.00  0.00     0.001 A 
ATOM     85  C   UNL A   1      45.763  34.923  32.019  1.00  0.00     0.000 A 
ENDBRANCH  67  80
ENDBRANCH  41  42
ENDBRANCH  33  36
ENDBRANCH  31  32
ENDBRANCH  30  31
ENDBRANCH  29  30
ENDBRANCH   1  29
TORSDOF 16
ENDMDL
MODEL 3
REMARK VINA RESULT:     -11.8      3.054      7.108
REMARK SMILES Cc1ccnc(C(=O)c2[nH]c3cc(F)ccc3c2CC(=O)NCCCCCCNC(=O)c2ccc(-c3c4nc(c(-c5ccccc5)c5ccc([nH]5)c(-c5ccccc5)c5nc(c(-c6ccccc6)c6ccc3[nH]6)C=C5)C=C4)cc2)c1
REMARK SMILES IDX 25 1 24 2 23 3 22 4 20 5 21 6 19 8 18 9 9 10 10 11 11 12
REMARK SMILES IDX 17 14 12 15 16 16 13 17 15 18 14 19 7 20 8 21 6 22 1 23 2 24
REMARK SMILES IDX 3 25 80 26 4 27 5 28 26 29 27 30 28 31 29 32 30 33 31 35
REMARK SMILES IDX 32 36 33 37 79 38 34 39 78 40 35 41 36 42 37 43 72 44 38 45
REMARK SMILES IDX 77 46 71 47 73 48 39 49 76 50 70 51 69 52 40 54 62 55 47 56
REMARK SMILES IDX 61 57 48 58 51 59 60 60 74 61 49 62 50 63 59 65 75 66 52 67
REMARK SMILES IDX 41 68 42 69 46 70 43 71 45 72 44 73 63 74 64 75 68 76 65 77
REMARK SMILES IDX 67 78 66 79 53 80 54 81 58 82 55 83 57 84 56 85
REMARK H PARENT 22 7 10 13 29 34 73 53 51 64
REMARK Flexibility Score: inf
ROOT
ATOM      1  C   UNL A   1      31.848  25.303  26.486  1.00  0.00     0.002 C 
ENDROOT
BRANCH   1   2
ATOM      2  C   UNL A   1      32.173  23.806  26.444  1.00  0.00     0.021 C 
BRANCH   2   3
ATOM      3  C   UNL A   1      31.103  22.928  25.797  1.00  0.00     0.116 C 
BRANCH   3   4
ATOM      4  N   UNL A   1      31.511  21.545  25.669  1.00  0.00    -0.356 N 
ATOM      5  C   UNL A   1      32.165  20.927  24.643  1.00  0.00     0.224 C 
ATOM      6  O   UNL A   1      32.520  19.755  24.792  1.00  0.00    -0.275 OA
ATOM      7  H   UNL A   1      31.281  20.965  26.431  1.00  0.00     0.163 HD
BRANCH   5   8
ATOM      8  C   UNL A   1      32.549  21.699  23.391  1.00  0.00     0.138 C 
BRANCH   8   9
ATOM      9  C   UNL A   1      33.695  22.656  23.557  1.00  0.00    -0.002 A 
ATOM     10  C   UNL A   1      33.852  23.904  22.963  1.00  0.00     0.093 A 
ATOM     11  N   UNL A   1      35.024  24.446  23.435  1.00  0.00    -0.351 N 
ATOM     12  C   UNL A   1      35.684  23.552  24.240  1.00  0.00     0.049 A 
ATOM     13  H   UNL A   1      35.347  25.352  23.224  1.00  0.00     0.167 HD
ATOM     14  C   UNL A   1      34.881  22.414  24.332  1.00  0.00     0.004 A 
ATOM     15  C   UNL A   1      36.914  23.669  24.895  1.00  0.00     0.066 A 
ATOM     16  C   UNL A   1      35.342  21.331  25.114  1.00  0.00     0.013 A 
ATOM     17  C   UNL A   1      37.334  22.582  25.660  1.00  0.00     0.125 A 
ATOM     18  C   UNL A   1      36.572  21.429  25.774  1.00  0.00     0.040 A 
ATOM     19  F   UNL A   1      38.508  22.656  26.303  1.00  0.00    -0.207 F 
BRANCH  10  20
ATOM     20  C   UNL A   1      32.966  24.630  22.067  1.00  0.00     0.227 C 
ATOM     21  O   UNL A   1      33.038  24.478  20.853  1.00  0.00    -0.285 OA
BRANCH  20  22
ATOM     22  C   UNL A   1      31.903  25.512  22.681  1.00  0.00     0.113 A 
ATOM     23  C   UNL A   1      31.284  29.087  23.799  1.00  0.00     0.044 C 
ATOM     24  C   UNL A   1      31.106  27.624  23.525  1.00  0.00    -0.047 A 
ATOM     25  C   UNL A   1      29.916  26.985  23.873  1.00  0.00     0.023 A 
ATOM     26  C   UNL A   1      32.109  26.876  22.899  1.00  0.00     0.036 A 
ATOM     27  C   UNL A   1      29.786  25.633  23.608  1.00  0.00     0.112 A 
ATOM     28  N   UNL A   1      30.753  24.885  23.037  1.00  0.00    -0.253 NA
ENDBRANCH  20  22
ENDBRANCH  10  20
ENDBRANCH   8   9
ENDBRANCH   5   8
ENDBRANCH   3   4
ENDBRANCH   2   3
ENDBRANCH   1   2
BRANCH   1  29
ATOM     29  C   UNL A   1      33.039  26.255  26.332  1.00  0.00     0.002 C 
BRANCH  29  30
ATOM     30  C   UNL A   1      32.837  27.680  26.863  1.00  0.00     0.021 C 
BRANCH  30  31
ATOM     31  C   UNL A   1      33.938  28.683  26.517  1.00  0.00     0.116 C 
BRANCH  31  32
ATOM     32  N   UNL A   1      33.734  29.977  27.143  1.00  0.00    -0.352 N 
ATOM     33  C   UNL A   1      34.552  30.670  27.998  1.00  0.00     0.251 C 
ATOM     34  H   UNL A   1      32.884  30.422  26.921  1.00  0.00     0.163 HD
ATOM     35  O   UNL A   1      34.152  31.701  28.529  1.00  0.00    -0.269 OA
BRANCH  33  36
ATOM     36  C   UNL A   1      35.914  30.177  28.312  1.00  0.00     0.039 A 
ATOM     37  C   UNL A   1      36.886  30.224  27.306  1.00  0.00     0.014 A 
ATOM     38  C   UNL A   1      36.222  29.610  29.553  1.00  0.00     0.014 A 
ATOM     39  C   UNL A   1      38.176  29.750  27.554  1.00  0.00     0.010 A 
ATOM     40  C   UNL A   1      37.517  29.152  29.807  1.00  0.00     0.010 A 
ATOM     41  C   UNL A   1      38.503  29.221  28.810  1.00  0.00    -0.014 A 
BRANCH  41  42
ATOM     42  C   UNL A   1      39.873  28.733  29.093  1.00  0.00     0.031 A 
ATOM     43  C   UNL A   1      40.874  29.626  29.768  1.00  0.00     0.074 A 
ATOM     44  C   UNL A   1      40.233  27.495  28.711  1.00  0.00     0.049 A 
ATOM     45  N   UNL A   1      42.145  29.411  29.996  1.00  0.00    -0.248 NA
ATOM     46  C   UNL A   1      40.384  30.930  30.237  1.00  0.00     0.031 C 
ATOM     47  C   UNL A   1      39.364  26.526  28.043  1.00  0.00     0.029 A 
ATOM     48  N   UNL A   1      41.436  26.844  28.828  1.00  0.00    -0.354 N 
ATOM     49  C   UNL A   1      42.617  30.564  30.607  1.00  0.00     0.074 A 
ATOM     50  C   UNL A   1      41.492  31.470  30.729  1.00  0.00     0.031 C 
ATOM     51  C   UNL A   1      40.062  25.401  27.812  1.00  0.00     0.029 A 
ATOM     52  C   UNL A   1      41.427  25.579  28.300  1.00  0.00     0.049 A 
ATOM     53  H   UNL A   1      42.228  27.248  29.250  1.00  0.00     0.167 HD
ATOM     54  C   UNL A   1      43.874  30.849  31.021  1.00  0.00     0.031 A 
ATOM     55  C   UNL A   1      42.410  24.666  28.209  1.00  0.00     0.031 A 
ATOM     56  C   UNL A   1      44.995  29.955  30.927  1.00  0.00     0.049 A 
ATOM     57  C   UNL A   1      43.779  24.982  28.731  1.00  0.00     0.074 A 
ATOM     58  C   UNL A   1      46.311  30.176  31.298  1.00  0.00     0.029 A 
ATOM     59  N   UNL A   1      44.928  28.661  30.438  1.00  0.00    -0.354 N 
ATOM     60  N   UNL A   1      44.217  26.093  29.269  1.00  0.00    -0.248 NA
ATOM     61  C   UNL A   1      44.788  23.918  28.630  1.00  0.00     0.031 C 
ATOM     62  C   UNL A   1      47.040  29.006  31.043  1.00  0.00     0.029 A 
ATOM     63  C   UNL A   1      46.174  28.064  30.515  1.00  0.00     0.049 A 
ATOM     64  H   UNL A   1      44.115  28.230  30.090  1.00  0.00     0.167 HD
ATOM     65  C   UNL A   1      45.554  25.866  29.564  1.00  0.00     0.074 A 
ATOM     66  C   UNL A   1      45.852  24.507  29.158  1.00  0.00     0.031 C 
ATOM     67  C   UNL A   1      46.455  26.713  30.114  1.00  0.00     0.031 A 
BRANCH  54  68
ATOM     68  C   UNL A   1      44.100  32.210  31.602  1.00  0.00    -0.014 A 
ATOM     69  C   UNL A   1      43.978  32.427  32.981  1.00  0.00     0.009 A 
ATOM     70  C   UNL A   1      44.456  33.277  30.764  1.00  0.00     0.009 A 
ATOM     71  C   UNL A   1      44.194  33.701  33.512  1.00  0.00     0.001 A 
ATOM     72  C   UNL A   1      44.676  34.546  31.298  1.00  0.00     0.001 A 
ATOM     73  C   UNL A   1      44.542  34.759  32.671  1.00  0.00     0.000 A 
ENDBRANCH  54  68
BRANCH  55  74
ATOM     74  C   UNL A   1      42.134  23.353  27.585  1.00  0.00    -0.014 A 
ATOM     75  C   UNL A   1      41.503  22.339  28.319  1.00  0.00     0.009 A 
ATOM     76  C   UNL A   1      42.498  23.114  26.253  1.00  0.00     0.009 A 
ATOM     77  C   UNL A   1      41.249  21.100  27.730  1.00  0.00     0.001 A 
ATOM     78  C   UNL A   1      42.238  21.875  25.666  1.00  0.00     0.001 A 
ATOM     79  C   UNL A   1      41.616  20.870  26.405  1.00  0.00     0.000 A 
ENDBRANCH  55  74
BRANCH  67  80
ATOM     80  C   UNL A   1      47.842  26.189  30.310  1.00  0.00    -0.014 A 
ATOM     81  C   UNL A   1      48.750  26.171  29.241  1.00  0.00     0.009 A 
ATOM     82  C   UNL A   1      48.251  25.727  31.569  1.00  0.00     0.009 A 
ATOM     83  C   UNL A   1      50.044  25.684  29.428  1.00  0.00     0.001 A 
ATOM     84  C   UNL A   1      49.547  25.243  31.753  1.00  0.00     0.001 A 
ATOM     85  C   UNL A   1      50.441  25.218  30.682  1.00  0.00     0.000 A 
ENDBRANCH  67  80
ENDBRANCH  41  42
ENDBRANCH  33  36
ENDBRANCH  31  32
ENDBRANCH  30  31
ENDBRANCH  29  30
ENDBRANCH   1  29
TORSDOF 16
ENDMDL
