MODEL 1
REMARK VINA RESULT:     -11.2      0.000      0.000
REMARK SMILES [H]/N=C1\C=CC2=NC(C(=O)NCCCCCCNC(=O)c3ccc(-c4c5nc(c(-c6ccccc6)c6ccc([nH]6)c(-c6ccccc6)c6nc(c(-c7ccccc7)c7ccc4[nH]7)C=C6)C=C5)cc3)=C[C@@H]2C1
REMARK SMILES IDX 15 1 14 2 13 3 12 4 11 5 9 6 10 7 8 9 2 10 3 11 1 12 4 13
REMARK SMILES IDX 71 14 5 15 70 16 6 17 69 18 7 19 16 20 17 21 18 22 19 23
REMARK SMILES IDX 20 25 21 26 22 27 68 28 23 29 67 30 24 31 25 32 26 33 61 34
REMARK SMILES IDX 27 35 66 36 60 37 62 38 28 39 65 40 59 41 58 42 29 44 51 45
REMARK SMILES IDX 36 46 50 47 37 48 40 49 49 50 63 51 38 52 39 53 48 55 64 56
REMARK SMILES IDX 41 57 30 58 31 59 35 60 32 61 34 62 33 63 52 64 53 65 57 66
REMARK SMILES IDX 54 67 56 68 55 69 42 70 43 71 47 72 44 73 46 74 45 75
REMARK H PARENT 11 8 18 24 62 43 40 54
REMARK Flexibility Score: inf
ROOT
ATOM      1  C   UNL A   1      36.665  20.805  24.856  1.00  0.00     0.002 C 
ENDROOT
BRANCH   1   2
ATOM      2  C   UNL A   1      36.834  22.041  23.959  1.00  0.00     0.002 C 
BRANCH   2   3
ATOM      3  C   UNL A   1      36.420  23.379  24.588  1.00  0.00     0.021 C 
BRANCH   3   4
ATOM      4  C   UNL A   1      35.986  23.273  26.050  1.00  0.00     0.116 C 
BRANCH   4   5
ATOM      5  N   UNL A   1      34.609  23.691  26.187  1.00  0.00    -0.351 N 
ATOM      6  C   UNL A   1      33.412  23.196  25.789  1.00  0.00     0.269 C 
ATOM      7  O   UNL A   1      32.448  23.958  25.925  1.00  0.00    -0.268 OA
ATOM      8  H   UNL A   1      34.519  24.534  26.687  1.00  0.00     0.163 HD
BRANCH   6   9
ATOM      9  C   UNL A   1      33.190  21.778  25.320  1.00  0.00     0.125 C 
ATOM     10  N   UNL A   1      33.038  16.267  23.501  1.00  0.00    -0.305 NA
ATOM     11  C   UNL A   1      32.958  17.554  23.585  1.00  0.00     0.032 C 
ATOM     12  H   UNL A   1      32.688  15.803  22.706  1.00  0.00     0.187 HD
ATOM     13  C   UNL A   1      32.387  18.375  22.485  1.00  0.00     0.025 C 
ATOM     14  C   UNL A   1      33.511  18.235  24.829  1.00  0.00     0.069 C 
ATOM     15  C   UNL A   1      32.212  19.694  22.612  1.00  0.00     0.026 C 
ATOM     16  C   UNL A   1      32.752  19.508  25.117  1.00  0.00     0.069 C 
ATOM     17  C   UNL A   1      32.559  20.336  23.881  1.00  0.00     0.049 C 
ATOM     18  C   UNL A   1      33.376  20.596  25.933  1.00  0.00     0.017 C 
ATOM     19  N   UNL A   1      32.712  21.609  24.030  1.00  0.00    -0.247 NA
ENDBRANCH   6   9
ENDBRANCH   4   5
ENDBRANCH   3   4
ENDBRANCH   2   3
ENDBRANCH   1   2
BRANCH   1  20
ATOM     20  C   UNL A   1      37.830  19.805  24.856  1.00  0.00     0.021 C 
BRANCH  20  21
ATOM     21  C   UNL A   1      38.991  20.226  25.742  1.00  0.00     0.116 C 
BRANCH  21  22
ATOM     22  N   UNL A   1      40.087  19.259  25.745  1.00  0.00    -0.352 N 
ATOM     23  C   UNL A   1      41.437  19.513  25.911  1.00  0.00     0.251 C 
ATOM     24  H   UNL A   1      39.834  18.316  25.614  1.00  0.00     0.163 HD
ATOM     25  O   UNL A   1      42.284  18.712  25.553  1.00  0.00    -0.269 OA
BRANCH  23  26
ATOM     26  C   UNL A   1      41.832  20.783  26.549  1.00  0.00     0.039 A 
ATOM     27  C   UNL A   1      42.349  21.849  25.806  1.00  0.00     0.014 A 
ATOM     28  C   UNL A   1      41.658  20.893  27.926  1.00  0.00     0.014 A 
ATOM     29  C   UNL A   1      42.623  23.048  26.460  1.00  0.00     0.010 A 
ATOM     30  C   UNL A   1      41.768  22.116  28.533  1.00  0.00     0.010 A 
ATOM     31  C   UNL A   1      42.314  23.176  27.824  1.00  0.00    -0.014 A 
BRANCH  31  32
ATOM     32  C   UNL A   1      42.450  24.451  28.517  1.00  0.00     0.031 A 
ATOM     33  C   UNL A   1      41.369  25.433  28.223  1.00  0.00     0.074 A 
ATOM     34  C   UNL A   1      43.340  24.640  29.517  1.00  0.00     0.049 A 
ATOM     35  N   UNL A   1      41.492  26.597  27.677  1.00  0.00    -0.248 NA
ATOM     36  C   UNL A   1      39.972  25.029  28.459  1.00  0.00     0.031 C 
ATOM     37  C   UNL A   1      44.252  23.664  30.131  1.00  0.00     0.029 A 
ATOM     38  N   UNL A   1      43.533  25.741  30.290  1.00  0.00    -0.354 N 
ATOM     39  C   UNL A   1      40.215  27.150  27.649  1.00  0.00     0.074 A 
ATOM     40  C   UNL A   1      39.304  26.092  28.006  1.00  0.00     0.031 C 
ATOM     41  C   UNL A   1      44.703  24.141  31.314  1.00  0.00     0.029 A 
ATOM     42  C   UNL A   1      44.262  25.516  31.453  1.00  0.00     0.049 A 
ATOM     43  H   UNL A   1      43.183  26.628  30.046  1.00  0.00     0.167 HD
ATOM     44  C   UNL A   1      40.024  28.494  27.538  1.00  0.00     0.031 A 
ATOM     45  C   UNL A   1      44.469  26.396  32.465  1.00  0.00     0.031 A 
ATOM     46  C   UNL A   1      41.220  29.164  27.098  1.00  0.00     0.049 A 
ATOM     47  C   UNL A   1      44.200  27.748  31.928  1.00  0.00     0.074 A 
ATOM     48  C   UNL A   1      41.993  29.107  25.955  1.00  0.00     0.029 A 
ATOM     49  N   UNL A   1      42.020  29.724  28.066  1.00  0.00    -0.354 N 
ATOM     50  N   UNL A   1      44.934  28.310  31.012  1.00  0.00    -0.248 NA
ATOM     51  C   UNL A   1      42.851  28.273  32.060  1.00  0.00     0.031 C 
ATOM     52  C   UNL A   1      43.339  29.158  26.424  1.00  0.00     0.029 A 
ATOM     53  C   UNL A   1      43.311  29.336  27.809  1.00  0.00     0.049 A 
ATOM     54  H   UNL A   1      41.721  30.299  28.808  1.00  0.00     0.167 HD
ATOM     55  C   UNL A   1      44.026  28.922  30.161  1.00  0.00     0.074 A 
ATOM     56  C   UNL A   1      42.767  28.945  30.907  1.00  0.00     0.031 C 
ATOM     57  C   UNL A   1      44.302  29.087  28.833  1.00  0.00     0.031 A 
BRANCH  44  58
ATOM     58  C   UNL A   1      38.882  29.233  28.185  1.00  0.00    -0.014 A 
ATOM     59  C   UNL A   1      38.753  29.202  29.585  1.00  0.00     0.009 A 
ATOM     60  C   UNL A   1      37.783  29.730  27.459  1.00  0.00     0.009 A 
ATOM     61  C   UNL A   1      37.564  29.593  30.216  1.00  0.00     0.001 A 
ATOM     62  C   UNL A   1      36.610  30.157  28.087  1.00  0.00     0.001 A 
ATOM     63  C   UNL A   1      36.492  30.064  29.465  1.00  0.00     0.000 A 
ENDBRANCH  44  58
BRANCH  45  64
ATOM     64  C   UNL A   1      44.599  26.145  33.918  1.00  0.00    -0.014 A 
ATOM     65  C   UNL A   1      43.596  25.459  34.623  1.00  0.00     0.009 A 
ATOM     66  C   UNL A   1      45.843  26.318  34.551  1.00  0.00     0.009 A 
ATOM     67  C   UNL A   1      43.846  24.928  35.898  1.00  0.00     0.001 A 
ATOM     68  C   UNL A   1      46.091  25.786  35.822  1.00  0.00     0.001 A 
ATOM     69  C   UNL A   1      45.097  25.077  36.489  1.00  0.00     0.000 A 
ENDBRANCH  45  64
BRANCH  57  70
ATOM     70  C   UNL A   1      45.700  28.755  28.356  1.00  0.00    -0.014 A 
ATOM     71  C   UNL A   1      46.733  29.707  28.259  1.00  0.00     0.009 A 
ATOM     72  C   UNL A   1      46.023  27.409  28.141  1.00  0.00     0.009 A 
ATOM     73  C   UNL A   1      48.039  29.321  27.927  1.00  0.00     0.001 A 
ATOM     74  C   UNL A   1      47.329  27.022  27.832  1.00  0.00     0.001 A 
ATOM     75  C   UNL A   1      48.336  27.978  27.719  1.00  0.00     0.000 A 
ENDBRANCH  57  70
ENDBRANCH  31  32
ENDBRANCH  23  26
ENDBRANCH  21  22
ENDBRANCH  20  21
ENDBRANCH   1  20
TORSDOF 13
ENDMDL
MODEL 2
REMARK VINA RESULT:     -11.1      3.309      7.473
REMARK SMILES [H]/N=C1\C=CC2=NC(C(=O)NCCCCCCNC(=O)c3ccc(-c4c5nc(c(-c6ccccc6)c6ccc([nH]6)c(-c6ccccc6)c6nc(c(-c7ccccc7)c7ccc4[nH]7)C=C6)C=C5)cc3)=C[C@@H]2C1
REMARK SMILES IDX 15 1 14 2 13 3 12 4 11 5 9 6 10 7 8 9 2 10 3 11 1 12 4 13
REMARK SMILES IDX 71 14 5 15 70 16 6 17 69 18 7 19 16 20 17 21 18 22 19 23
REMARK SMILES IDX 20 25 21 26 22 27 68 28 23 29 67 30 24 31 25 32 26 33 61 34
REMARK SMILES IDX 27 35 66 36 60 37 62 38 28 39 65 40 59 41 58 42 29 44 51 45
REMARK SMILES IDX 36 46 50 47 37 48 40 49 49 50 63 51 38 52 39 53 48 55 64 56
REMARK SMILES IDX 41 57 30 58 31 59 35 60 32 61 34 62 33 63 52 64 53 65 57 66
REMARK SMILES IDX 54 67 56 68 55 69 42 70 43 71 47 72 44 73 46 74 45 75
REMARK H PARENT 11 8 18 24 62 43 40 54
REMARK Flexibility Score: inf
ROOT
ATOM      1  C   UNL A   1      33.875  28.553  25.678  1.00  0.00     0.002 C 
ENDROOT
BRANCH   1   2
ATOM      2  C   UNL A   1      32.435  28.811  25.205  1.00  0.00     0.002 C 
BRANCH   2   3
ATOM      3  C   UNL A   1      32.262  29.030  23.695  1.00  0.00     0.021 C 
BRANCH   3   4
ATOM      4  C   UNL A   1      33.543  28.828  22.885  1.00  0.00     0.116 C 
BRANCH   4   5
ATOM      5  N   UNL A   1      33.385  27.706  21.986  1.00  0.00    -0.351 N 
ATOM      6  C   UNL A   1      33.352  26.359  22.131  1.00  0.00     0.269 C 
ATOM      7  O   UNL A   1      33.401  25.710  21.079  1.00  0.00    -0.268 OA
ATOM      8  H   UNL A   1      33.276  27.987  21.050  1.00  0.00     0.163 HD
BRANCH   6   9
ATOM      9  C   UNL A   1      33.144  25.648  23.445  1.00  0.00     0.125 C 
ATOM     10  N   UNL A   1      32.583  22.334  28.179  1.00  0.00    -0.305 NA
ATOM     11  C   UNL A   1      32.362  23.059  27.133  1.00  0.00     0.032 C 
ATOM     12  H   UNL A   1      31.832  22.055  28.752  1.00  0.00     0.187 HD
ATOM     13  C   UNL A   1      30.986  23.456  26.732  1.00  0.00     0.025 C 
ATOM     14  C   UNL A   1      33.549  23.468  26.272  1.00  0.00     0.069 C 
ATOM     15  C   UNL A   1      30.765  24.287  25.710  1.00  0.00     0.026 C 
ATOM     16  C   UNL A   1      33.282  24.794  25.600  1.00  0.00     0.069 C 
ATOM     17  C   UNL A   1      31.912  24.847  24.991  1.00  0.00     0.049 C 
ATOM     18  C   UNL A   1      34.016  25.174  24.352  1.00  0.00     0.017 C 
ATOM     19  N   UNL A   1      31.834  25.412  23.833  1.00  0.00    -0.247 NA
ENDBRANCH   6   9
ENDBRANCH   4   5
ENDBRANCH   3   4
ENDBRANCH   2   3
ENDBRANCH   1   2
BRANCH   1  20
ATOM     20  C   UNL A   1      34.128  28.700  27.185  1.00  0.00     0.021 C 
BRANCH  20  21
ATOM     21  C   UNL A   1      35.386  29.485  27.515  1.00  0.00     0.116 C 
BRANCH  21  22
ATOM     22  N   UNL A   1      35.439  29.918  28.910  1.00  0.00    -0.352 N 
ATOM     23  C   UNL A   1      36.390  29.588  29.860  1.00  0.00     0.251 C 
ATOM     24  H   UNL A   1      34.714  30.513  29.208  1.00  0.00     0.163 HD
ATOM     25  O   UNL A   1      36.163  29.703  31.053  1.00  0.00    -0.269 OA
BRANCH  23  26
ATOM     26  C   UNL A   1      37.701  29.102  29.392  1.00  0.00     0.039 A 
ATOM     27  C   UNL A   1      38.365  29.698  28.316  1.00  0.00     0.014 A 
ATOM     28  C   UNL A   1      38.269  28.027  30.072  1.00  0.00     0.014 A 
ATOM     29  C   UNL A   1      39.638  29.242  27.981  1.00  0.00     0.010 A 
ATOM     30  C   UNL A   1      39.578  27.695  29.851  1.00  0.00     0.010 A 
ATOM     31  C   UNL A   1      40.243  28.248  28.766  1.00  0.00    -0.014 A 
BRANCH  31  32
ATOM     32  C   UNL A   1      41.624  27.838  28.542  1.00  0.00     0.031 A 
ATOM     33  C   UNL A   1      41.775  26.528  27.849  1.00  0.00     0.074 A 
ATOM     34  C   UNL A   1      42.668  28.676  28.728  1.00  0.00     0.049 A 
ATOM     35  N   UNL A   1      42.343  25.461  28.301  1.00  0.00    -0.248 NA
ATOM     36  C   UNL A   1      41.116  26.345  26.544  1.00  0.00     0.031 C 
ATOM     37  C   UNL A   1      42.648  30.098  29.102  1.00  0.00     0.029 A 
ATOM     38  N   UNL A   1      43.989  28.457  28.499  1.00  0.00    -0.354 N 
ATOM     39  C   UNL A   1      42.269  24.517  27.281  1.00  0.00     0.074 A 
ATOM     40  C   UNL A   1      41.381  25.063  26.285  1.00  0.00     0.031 C 
ATOM     41  C   UNL A   1      43.850  30.658  28.834  1.00  0.00     0.029 A 
ATOM     42  C   UNL A   1      44.770  29.607  28.444  1.00  0.00     0.049 A 
ATOM     43  H   UNL A   1      44.364  27.554  28.380  1.00  0.00     0.167 HD
ATOM     44  C   UNL A   1      43.110  23.447  27.237  1.00  0.00     0.031 A 
ATOM     45  C   UNL A   1      46.077  29.685  28.085  1.00  0.00     0.031 A 
ATOM     46  C   UNL A   1      43.769  23.241  28.501  1.00  0.00     0.049 A 
ATOM     47  C   UNL A   1      46.646  28.326  28.216  1.00  0.00     0.074 A 
ATOM     48  C   UNL A   1      43.337  22.940  29.777  1.00  0.00     0.029 A 
ATOM     49  N   UNL A   1      45.032  23.767  28.645  1.00  0.00    -0.354 N 
ATOM     50  N   UNL A   1      46.782  27.717  29.358  1.00  0.00    -0.248 NA
ATOM     51  C   UNL A   1      46.618  27.464  27.045  1.00  0.00     0.031 C 
ATOM     52  C   UNL A   1      44.134  23.757  30.632  1.00  0.00     0.029 A 
ATOM     53  C   UNL A   1      45.065  24.436  29.843  1.00  0.00     0.049 A 
ATOM     54  H   UNL A   1      45.775  23.680  28.005  1.00  0.00     0.167 HD
ATOM     55  C   UNL A   1      46.400  26.408  29.105  1.00  0.00     0.074 A 
ATOM     56  C   UNL A   1      46.400  26.290  27.646  1.00  0.00     0.031 C 
ATOM     57  C   UNL A   1      45.841  25.633  30.082  1.00  0.00     0.031 A 
BRANCH  44  58
ATOM     58  C   UNL A   1      43.613  22.830  25.959  1.00  0.00    -0.014 A 
ATOM     59  C   UNL A   1      43.673  21.429  25.854  1.00  0.00     0.009 A 
ATOM     60  C   UNL A   1      44.278  23.568  24.961  1.00  0.00     0.009 A 
ATOM     61  C   UNL A   1      44.410  20.805  24.838  1.00  0.00     0.001 A 
ATOM     62  C   UNL A   1      44.981  22.950  23.925  1.00  0.00     0.001 A 
ATOM     63  C   UNL A   1      45.068  21.567  23.878  1.00  0.00     0.000 A 
ENDBRANCH  44  58
BRANCH  45  64
ATOM     64  C   UNL A   1      46.793  30.766  27.372  1.00  0.00    -0.014 A 
ATOM     65  C   UNL A   1      46.096  31.864  26.841  1.00  0.00     0.009 A 
ATOM     66  C   UNL A   1      48.192  30.866  27.473  1.00  0.00     0.009 A 
ATOM     67  C   UNL A   1      46.772  33.035  26.466  1.00  0.00     0.001 A 
ATOM     68  C   UNL A   1      48.866  32.035  27.100  1.00  0.00     0.001 A 
ATOM     69  C   UNL A   1      48.153  33.126  26.612  1.00  0.00     0.000 A 
ENDBRANCH  45  64
BRANCH  57  70
ATOM     70  C   UNL A   1      45.825  26.180  31.493  1.00  0.00    -0.014 A 
ATOM     71  C   UNL A   1      44.805  27.014  31.991  1.00  0.00     0.009 A 
ATOM     72  C   UNL A   1      46.794  25.717  32.394  1.00  0.00     0.009 A 
ATOM     73  C   UNL A   1      44.777  27.391  33.340  1.00  0.00     0.001 A 
ATOM     74  C   UNL A   1      46.754  26.076  33.743  1.00  0.00     0.001 A 
ATOM     75  C   UNL A   1      45.750  26.918  34.215  1.00  0.00     0.000 A 
ENDBRANCH  57  70
ENDBRANCH  31  32
ENDBRANCH  23  26
ENDBRANCH  21  22
ENDBRANCH  20  21
ENDBRANCH   1  20
TORSDOF 13
ENDMDL
MODEL 3
REMARK VINA RESULT:     -11.1      2.368      6.176
REMARK SMILES [H]/N=C1\C=CC2=NC(C(=O)NCCCCCCNC(=O)c3ccc(-c4c5nc(c(-c6ccccc6)c6ccc([nH]6)c(-c6ccccc6)c6nc(c(-c7ccccc7)c7ccc4[nH]7)C=C6)C=C5)cc3)=C[C@@H]2C1
REMARK SMILES IDX 15 1 14 2 13 3 12 4 11 5 9 6 10 7 8 9 2 10 3 11 1 12 4 13
REMARK SMILES IDX 71 14 5 15 70 16 6 17 69 18 7 19 16 20 17 21 18 22 19 23
REMARK SMILES IDX 20 25 21 26 22 27 68 28 23 29 67 30 24 31 25 32 26 33 61 34
REMARK SMILES IDX 27 35 66 36 60 37 62 38 28 39 65 40 59 41 58 42 29 44 51 45
REMARK SMILES IDX 36 46 50 47 37 48 40 49 49 50 63 51 38 52 39 53 48 55 64 56
REMARK SMILES IDX 41 57 30 58 31 59 35 60 32 61 34 62 33 63 52 64 53 65 57 66
REMARK SMILES IDX 54 67 56 68 55 69 42 70 43 71 47 72 44 73 46 74 45 75
REMARK H PARENT 11 8 18 24 62 43 40 54
REMARK Flexibility Score: inf
ROOT
ATOM      1  C   UNL A   1      41.234  20.230  26.951  1.00  0.00     0.002 C 
ENDROOT
BRANCH   1   2
ATOM      2  C   UNL A   1      40.475  21.454  26.412  1.00  0.00     0.002 C 
BRANCH   2   3
ATOM      3  C   UNL A   1      39.099  21.162  25.795  1.00  0.00     0.021 C 
BRANCH   3   4
ATOM      4  C   UNL A   1      38.114  22.328  25.887  1.00  0.00     0.116 C 
BRANCH   4   5
ATOM      5  N   UNL A   1      37.671  22.704  24.564  1.00  0.00    -0.351 N 
ATOM      6  C   UNL A   1      36.466  22.913  23.978  1.00  0.00     0.269 C 
ATOM      7  O   UNL A   1      36.487  23.031  22.748  1.00  0.00    -0.268 OA
ATOM      8  H   UNL A   1      38.421  22.842  23.941  1.00  0.00     0.163 HD
BRANCH   6   9
ATOM      9  C   UNL A   1      35.177  23.119  24.733  1.00  0.00     0.125 C 
ATOM     10  N   UNL A   1      29.886  23.689  27.056  1.00  0.00    -0.305 NA
ATOM     11  C   UNL A   1      31.053  23.908  26.546  1.00  0.00     0.032 C 
ATOM     12  H   UNL A   1      29.358  24.439  27.416  1.00  0.00     0.187 HD
ATOM     13  C   UNL A   1      31.616  25.280  26.441  1.00  0.00     0.025 C 
ATOM     14  C   UNL A   1      31.838  22.724  26.000  1.00  0.00     0.069 C 
ATOM     15  C   UNL A   1      32.861  25.497  26.006  1.00  0.00     0.026 C 
ATOM     16  C   UNL A   1      33.323  22.971  26.123  1.00  0.00     0.069 C 
ATOM     17  C   UNL A   1      33.701  24.348  25.661  1.00  0.00     0.049 C 
ATOM     18  C   UNL A   1      34.290  22.245  25.242  1.00  0.00     0.017 C 
ATOM     19  N   UNL A   1      34.788  24.428  24.969  1.00  0.00    -0.247 NA
ENDBRANCH   6   9
ENDBRANCH   4   5
ENDBRANCH   3   4
ENDBRANCH   2   3
ENDBRANCH   1   2
BRANCH   1  20
ATOM     20  C   UNL A   1      41.825  19.284  25.896  1.00  0.00     0.021 C 
BRANCH  20  21
ATOM     21  C   UNL A   1      43.259  18.873  26.185  1.00  0.00     0.116 C 
BRANCH  21  22
ATOM     22  N   UNL A   1      44.102  18.863  24.991  1.00  0.00    -0.352 N 
ATOM     23  C   UNL A   1      44.494  19.947  24.226  1.00  0.00     0.251 C 
ATOM     24  H   UNL A   1      44.428  17.982  24.698  1.00  0.00     0.163 HD
ATOM     25  O   UNL A   1      44.888  19.807  23.080  1.00  0.00    -0.269 OA
BRANCH  23  26
ATOM     26  C   UNL A   1      44.434  21.288  24.837  1.00  0.00     0.039 A 
ATOM     27  C   UNL A   1      43.485  22.234  24.441  1.00  0.00     0.014 A 
ATOM     28  C   UNL A   1      45.354  21.579  25.840  1.00  0.00     0.014 A 
ATOM     29  C   UNL A   1      43.431  23.451  25.118  1.00  0.00     0.010 A 
ATOM     30  C   UNL A   1      45.193  22.699  26.611  1.00  0.00     0.010 A 
ATOM     31  C   UNL A   1      44.281  23.668  26.214  1.00  0.00    -0.014 A 
BRANCH  31  32
ATOM     32  C   UNL A   1      44.167  24.863  27.039  1.00  0.00     0.031 A 
ATOM     33  C   UNL A   1      45.242  25.870  26.820  1.00  0.00     0.074 A 
ATOM     34  C   UNL A   1      43.060  25.141  27.762  1.00  0.00     0.049 A 
ATOM     35  N   UNL A   1      46.107  26.298  27.680  1.00  0.00    -0.248 NA
ATOM     36  C   UNL A   1      45.458  26.380  25.455  1.00  0.00     0.031 C 
ATOM     37  C   UNL A   1      41.792  24.398  27.824  1.00  0.00     0.029 A 
ATOM     38  N   UNL A   1      42.787  26.238  28.518  1.00  0.00    -0.354 N 
ATOM     39  C   UNL A   1      46.872  27.254  27.020  1.00  0.00     0.074 A 
ATOM     40  C   UNL A   1      46.528  27.160  25.624  1.00  0.00     0.031 C 
ATOM     41  C   UNL A   1      40.829  25.181  28.362  1.00  0.00     0.029 A 
ATOM     42  C   UNL A   1      41.445  26.401  28.846  1.00  0.00     0.049 A 
ATOM     43  H   UNL A   1      43.486  26.868  28.810  1.00  0.00     0.167 HD
ATOM     44  C   UNL A   1      47.579  28.195  27.704  1.00  0.00     0.031 A 
ATOM     45  C   UNL A   1      40.883  27.475  29.456  1.00  0.00     0.031 A 
ATOM     46  C   UNL A   1      47.721  27.845  29.094  1.00  0.00     0.049 A 
ATOM     47  C   UNL A   1      41.975  28.218  30.123  1.00  0.00     0.074 A 
ATOM     48  C   UNL A   1      48.320  26.801  29.770  1.00  0.00     0.029 A 
ATOM     49  N   UNL A   1      46.824  28.400  29.977  1.00  0.00    -0.354 N 
ATOM     50  N   UNL A   1      42.651  27.740  31.127  1.00  0.00    -0.248 NA
ATOM     51  C   UNL A   1      42.628  29.279  29.375  1.00  0.00     0.031 C 
ATOM     52  C   UNL A   1      47.406  26.472  30.814  1.00  0.00     0.029 A 
ATOM     53  C   UNL A   1      46.352  27.388  30.776  1.00  0.00     0.049 A 
ATOM     54  H   UNL A   1      46.568  29.349  30.027  1.00  0.00     0.167 HD
ATOM     55  C   UNL A   1      43.965  28.100  30.867  1.00  0.00     0.074 A 
ATOM     56  C   UNL A   1      43.877  29.125  29.826  1.00  0.00     0.031 C 
ATOM     57  C   UNL A   1      45.008  27.335  31.306  1.00  0.00     0.031 A 
BRANCH  44  58
ATOM     58  C   UNL A   1      47.812  29.596  27.202  1.00  0.00    -0.014 A 
ATOM     59  C   UNL A   1      49.112  30.130  27.242  1.00  0.00     0.009 A 
ATOM     60  C   UNL A   1      46.764  30.501  26.944  1.00  0.00     0.009 A 
ATOM     61  C   UNL A   1      49.340  31.504  27.091  1.00  0.00     0.001 A 
ATOM     62  C   UNL A   1      46.992  31.866  26.754  1.00  0.00     0.001 A 
ATOM     63  C   UNL A   1      48.279  32.371  26.852  1.00  0.00     0.000 A 
ENDBRANCH  44  58
BRANCH  45  64
ATOM     64  C   UNL A   1      39.538  28.064  29.272  1.00  0.00    -0.014 A 
ATOM     65  C   UNL A   1      38.665  28.222  30.361  1.00  0.00     0.009 A 
ATOM     66  C   UNL A   1      39.226  28.744  28.081  1.00  0.00     0.009 A 
ATOM     67  C   UNL A   1      37.546  29.064  30.274  1.00  0.00     0.001 A 
ATOM     68  C   UNL A   1      38.111  29.586  27.995  1.00  0.00     0.001 A 
ATOM     69  C   UNL A   1      37.280  29.758  29.097  1.00  0.00     0.000 A 
ENDBRANCH  45  64
BRANCH  57  70
ATOM     70  C   UNL A   1      44.696  26.187  32.243  1.00  0.00    -0.014 A 
ATOM     71  C   UNL A   1      44.387  26.359  33.606  1.00  0.00     0.009 A 
ATOM     72  C   UNL A   1      44.563  24.904  31.696  1.00  0.00     0.009 A 
ATOM     73  C   UNL A   1      43.987  25.275  34.398  1.00  0.00     0.001 A 
ATOM     74  C   UNL A   1      44.144  23.826  32.480  1.00  0.00     0.001 A 
ATOM     75  C   UNL A   1      43.862  24.010  33.831  1.00  0.00     0.000 A 
ENDBRANCH  57  70
ENDBRANCH  31  32
ENDBRANCH  23  26
ENDBRANCH  21  22
ENDBRANCH  20  21
ENDBRANCH   1  20
TORSDOF 13
ENDMDL
