MODEL 1
REMARK VINA RESULT:     -11.5      0.000      0.000
REMARK SMILES O=C(NCCCCCCNC(=O)c1cnc2c(ccn2C2CCCCC2)c1)c1ccc(-c2c3nc(c(-c4ccccc4)c4ccc([nH]4)c(-c4ccccc4)c4nc(c(-c5ccccc5)c5ccc2[nH]5)C=C4)C=C3)cc1
REMARK SMILES IDX 6 1 5 2 4 3 3 4 1 5 2 6 28 8 29 9 75 10 30 11 74 12 31 13
REMARK SMILES IDX 32 14 33 15 68 16 34 17 73 18 67 19 69 20 35 21 72 22 66 23
REMARK SMILES IDX 65 24 36 26 58 27 43 28 57 29 44 30 47 31 56 32 70 33 45 34
REMARK SMILES IDX 46 35 55 37 71 38 48 39 37 40 38 41 42 42 39 43 41 44 40 45
REMARK SMILES IDX 59 46 60 47 64 48 61 49 63 50 62 51 49 52 50 53 54 54 51 55
REMARK SMILES IDX 53 56 52 57 7 58 8 59 9 60 10 61 11 62 12 64 13 65 14 66
REMARK SMILES IDX 27 67 15 68 17 69 16 70 18 71 20 72 19 73 21 74 22 75 26 76
REMARK SMILES IDX 23 77 25 78 24 79
REMARK H PARENT 3 7 69 25 47 36 10 63
REMARK Flexibility Score: inf
ROOT
ATOM      1  C   UNL A   1      37.928  23.735  26.113  1.00  0.00     0.002 C 
ENDROOT
BRANCH   1   2
ATOM      2  C   UNL A   1      38.555  22.362  25.854  1.00  0.00     0.021 C 
BRANCH   2   3
ATOM      3  C   UNL A   1      39.836  22.083  26.641  1.00  0.00     0.116 C 
BRANCH   3   4
ATOM      4  N   UNL A   1      41.069  22.248  25.895  1.00  0.00    -0.352 N 
ATOM      5  O   UNL A   1      43.004  23.067  25.144  1.00  0.00    -0.269 OA
ATOM      6  C   UNL A   1      42.001  23.249  25.833  1.00  0.00     0.251 C 
ATOM      7  H   UNL A   1      41.278  21.481  25.313  1.00  0.00     0.163 HD
BRANCH   6   8
ATOM      8  C   UNL A   1      41.818  24.565  26.491  1.00  0.00     0.039 A 
ATOM      9  C   UNL A   1      42.276  24.864  27.774  1.00  0.00     0.014 A 
ATOM     10  C   UNL A   1      41.156  25.559  25.751  1.00  0.00     0.014 A 
ATOM     11  C   UNL A   1      41.970  26.086  28.356  1.00  0.00     0.010 A 
ATOM     12  C   UNL A   1      40.892  26.806  26.313  1.00  0.00     0.010 A 
ATOM     13  C   UNL A   1      41.272  27.055  27.631  1.00  0.00    -0.014 A 
BRANCH  13  14
ATOM     14  C   UNL A   1      41.120  28.362  28.265  1.00  0.00     0.031 A 
ATOM     15  C   UNL A   1      42.249  29.314  28.051  1.00  0.00     0.074 A 
ATOM     16  C   UNL A   1      40.009  28.794  28.887  1.00  0.00     0.049 A 
ATOM     17  N   UNL A   1      42.977  29.918  28.937  1.00  0.00    -0.248 NA
ATOM     18  C   UNL A   1      42.631  29.591  26.657  1.00  0.00     0.031 C 
ATOM     19  C   UNL A   1      38.689  28.168  28.907  1.00  0.00     0.029 A 
ATOM     20  N   UNL A   1      39.814  29.975  29.545  1.00  0.00    -0.354 N 
ATOM     21  C   UNL A   1      43.817  30.764  28.218  1.00  0.00     0.074 A 
ATOM     22  C   UNL A   1      43.626  30.460  26.821  1.00  0.00     0.031 C 
ATOM     23  C   UNL A   1      37.784  29.073  29.343  1.00  0.00     0.029 A 
ATOM     24  C   UNL A   1      38.480  30.286  29.746  1.00  0.00     0.049 A 
ATOM     25  H   UNL A   1      40.553  30.551  29.848  1.00  0.00     0.167 HD
ATOM     26  C   UNL A   1      44.497  31.800  28.778  1.00  0.00     0.031 A 
ATOM     27  C   UNL A   1      37.985  31.486  30.127  1.00  0.00     0.031 A 
ATOM     28  C   UNL A   1      44.607  31.717  30.202  1.00  0.00     0.049 A 
ATOM     29  C   UNL A   1      39.079  32.265  30.752  1.00  0.00     0.074 A 
ATOM     30  C   UNL A   1      45.176  30.831  31.094  1.00  0.00     0.029 A 
ATOM     31  N   UNL A   1      43.802  32.538  30.950  1.00  0.00    -0.354 N 
ATOM     32  N   UNL A   1      39.633  31.977  31.894  1.00  0.00    -0.248 NA
ATOM     33  C   UNL A   1      39.787  33.252  29.948  1.00  0.00     0.031 C 
ATOM     34  C   UNL A   1      44.345  30.877  32.251  1.00  0.00     0.029 A 
ATOM     35  C   UNL A   1      43.318  31.786  31.989  1.00  0.00     0.049 A 
ATOM     36  H   UNL A   1      43.608  33.488  30.773  1.00  0.00     0.167 HD
ATOM     37  C   UNL A   1      40.935  32.442  31.789  1.00  0.00     0.074 A 
ATOM     38  C   UNL A   1      40.925  33.336  30.639  1.00  0.00     0.031 C 
ATOM     39  C   UNL A   1      41.955  31.845  32.470  1.00  0.00     0.031 A 
BRANCH  26  40
ATOM     40  C   UNL A   1      44.763  33.070  28.024  1.00  0.00    -0.014 A 
ATOM     41  C   UNL A   1      43.729  33.988  27.794  1.00  0.00     0.009 A 
ATOM     42  C   UNL A   1      45.968  33.262  27.318  1.00  0.00     0.009 A 
ATOM     43  C   UNL A   1      43.900  35.055  26.902  1.00  0.00     0.001 A 
ATOM     44  C   UNL A   1      46.155  34.344  26.459  1.00  0.00     0.001 A 
ATOM     45  C   UNL A   1      45.114  35.235  26.240  1.00  0.00     0.000 A 
ENDBRANCH  26  40
BRANCH  27  46
ATOM     46  C   UNL A   1      36.695  32.111  29.754  1.00  0.00    -0.014 A 
ATOM     47  C   UNL A   1      35.984  32.882  30.687  1.00  0.00     0.009 A 
ATOM     48  C   UNL A   1      36.284  32.174  28.410  1.00  0.00     0.009 A 
ATOM     49  C   UNL A   1      34.937  33.720  30.283  1.00  0.00     0.001 A 
ATOM     50  C   UNL A   1      35.228  32.997  28.007  1.00  0.00     0.001 A 
ATOM     51  C   UNL A   1      34.567  33.785  28.942  1.00  0.00     0.000 A 
ENDBRANCH  27  46
BRANCH  39  52
ATOM     52  C   UNL A   1      41.602  30.904  33.591  1.00  0.00    -0.014 A 
ATOM     53  C   UNL A   1      41.336  29.541  33.375  1.00  0.00     0.009 A 
ATOM     54  C   UNL A   1      41.703  31.365  34.911  1.00  0.00     0.009 A 
ATOM     55  C   UNL A   1      41.155  28.669  34.453  1.00  0.00     0.001 A 
ATOM     56  C   UNL A   1      41.540  30.490  35.988  1.00  0.00     0.001 A 
ATOM     57  C   UNL A   1      41.264  29.144  35.758  1.00  0.00     0.000 A 
ENDBRANCH  39  52
ENDBRANCH  13  14
ENDBRANCH   6   8
ENDBRANCH   3   4
ENDBRANCH   2   3
ENDBRANCH   1   2
BRANCH   1  58
ATOM     58  C   UNL A   1      36.544  23.956  25.495  1.00  0.00     0.002 C 
BRANCH  58  59
ATOM     59  C   UNL A   1      35.386  23.219  26.176  1.00  0.00     0.021 C 
BRANCH  59  60
ATOM     60  C   UNL A   1      34.069  23.238  25.405  1.00  0.00     0.116 C 
BRANCH  60  61
ATOM     61  N   UNL A   1      32.940  22.909  26.261  1.00  0.00    -0.352 N 
ATOM     62  C   UNL A   1      31.934  23.717  26.732  1.00  0.00     0.252 C 
ATOM     63  H   UNL A   1      32.891  21.968  26.545  1.00  0.00     0.163 HD
ATOM     64  O   UNL A   1      31.195  23.326  27.624  1.00  0.00    -0.269 OA
BRANCH  62  65
ATOM     65  C   UNL A   1      31.745  25.063  26.167  1.00  0.00     0.058 A 
ATOM     66  C   UNL A   1      30.506  25.461  25.685  1.00  0.00     0.127 A 
ATOM     67  C   UNL A   1      32.806  25.972  26.165  1.00  0.00     0.027 A 
ATOM     68  N   UNL A   1      30.233  26.654  25.111  1.00  0.00    -0.238 NA
ATOM     69  C   UNL A   1      32.566  27.236  25.599  1.00  0.00     0.020 A 
ATOM     70  C   UNL A   1      31.292  27.490  25.093  1.00  0.00     0.140 A 
ATOM     71  C   UNL A   1      33.338  28.408  25.388  1.00  0.00     0.030 A 
ATOM     72  N   UNL A   1      31.297  28.758  24.559  1.00  0.00    -0.329 N 
ATOM     73  C   UNL A   1      32.534  29.328  24.748  1.00  0.00     0.088 A 
BRANCH  72  74
ATOM     74  C   UNL A   1      30.183  29.398  23.859  1.00  0.00     0.088 C 
ATOM     75  C   UNL A   1      29.937  30.828  24.370  1.00  0.00     0.025 C 
ATOM     76  C   UNL A   1      30.332  29.343  22.331  1.00  0.00     0.025 C 
ATOM     77  C   UNL A   1      28.779  31.501  23.636  1.00  0.00     0.002 C 
ATOM     78  C   UNL A   1      29.168  30.035  21.623  1.00  0.00     0.002 C 
ATOM     79  C   UNL A   1      28.978  31.464  22.124  1.00  0.00     0.000 C 
ENDBRANCH  72  74
ENDBRANCH  62  65
ENDBRANCH  60  61
ENDBRANCH  59  60
ENDBRANCH  58  59
ENDBRANCH   1  58
TORSDOF 14
ENDMDL
MODEL 2
REMARK VINA RESULT:     -11.5      3.087      8.436
REMARK SMILES O=C(NCCCCCCNC(=O)c1cnc2c(ccn2C2CCCCC2)c1)c1ccc(-c2c3nc(c(-c4ccccc4)c4ccc([nH]4)c(-c4ccccc4)c4nc(c(-c5ccccc5)c5ccc2[nH]5)C=C4)C=C3)cc1
REMARK SMILES IDX 6 1 5 2 4 3 3 4 1 5 2 6 28 8 29 9 75 10 30 11 74 12 31 13
REMARK SMILES IDX 32 14 33 15 68 16 34 17 73 18 67 19 69 20 35 21 72 22 66 23
REMARK SMILES IDX 65 24 36 26 58 27 43 28 57 29 44 30 47 31 56 32 70 33 45 34
REMARK SMILES IDX 46 35 55 37 71 38 48 39 37 40 38 41 42 42 39 43 41 44 40 45
REMARK SMILES IDX 59 46 60 47 64 48 61 49 63 50 62 51 49 52 50 53 54 54 51 55
REMARK SMILES IDX 53 56 52 57 7 58 8 59 9 60 10 61 11 62 12 64 13 65 14 66
REMARK SMILES IDX 27 67 15 68 17 69 16 70 18 71 20 72 19 73 21 74 22 75 26 76
REMARK SMILES IDX 23 77 25 78 24 79
REMARK H PARENT 3 7 69 25 47 36 10 63
REMARK Flexibility Score: inf
ROOT
ATOM      1  C   UNL A   1      33.269  28.758  26.076  1.00  0.00     0.002 C 
ENDROOT
BRANCH   1   2
ATOM      2  C   UNL A   1      33.933  29.255  27.364  1.00  0.00     0.021 C 
BRANCH   2   3
ATOM      3  C   UNL A   1      34.582  30.635  27.259  1.00  0.00     0.116 C 
BRANCH   3   4
ATOM      4  N   UNL A   1      34.583  31.412  28.484  1.00  0.00    -0.352 N 
ATOM      5  O   UNL A   1      35.223  32.345  30.408  1.00  0.00    -0.269 OA
ATOM      6  C   UNL A   1      35.472  31.531  29.519  1.00  0.00     0.251 C 
ATOM      7  H   UNL A   1      33.778  31.969  28.593  1.00  0.00     0.163 HD
BRANCH   6   8
ATOM      8  C   UNL A   1      36.672  30.672  29.655  1.00  0.00     0.039 A 
ATOM      9  C   UNL A   1      36.639  29.358  30.123  1.00  0.00     0.014 A 
ATOM     10  C   UNL A   1      37.901  31.230  29.265  1.00  0.00     0.014 A 
ATOM     11  C   UNL A   1      37.822  28.659  30.320  1.00  0.00     0.010 A 
ATOM     12  C   UNL A   1      39.086  30.512  29.412  1.00  0.00     0.010 A 
ATOM     13  C   UNL A   1      39.046  29.236  29.972  1.00  0.00    -0.014 A 
BRANCH  13  14
ATOM     14  C   UNL A   1      40.224  28.379  30.074  1.00  0.00     0.031 A 
ATOM     15  C   UNL A   1      40.869  28.329  31.419  1.00  0.00     0.074 A 
ATOM     16  C   UNL A   1      40.665  27.556  29.107  1.00  0.00     0.049 A 
ATOM     17  N   UNL A   1      42.094  28.604  31.740  1.00  0.00    -0.248 NA
ATOM     18  C   UNL A   1      40.009  27.957  32.555  1.00  0.00     0.031 C 
ATOM     19  C   UNL A   1      39.995  27.193  27.859  1.00  0.00     0.029 A 
ATOM     20  N   UNL A   1      41.783  26.770  29.110  1.00  0.00    -0.354 N 
ATOM     21  C   UNL A   1      42.202  28.303  33.095  1.00  0.00     0.074 A 
ATOM     22  C   UNL A   1      40.874  27.995  33.566  1.00  0.00     0.031 C 
ATOM     23  C   UNL A   1      40.600  26.101  27.340  1.00  0.00     0.029 A 
ATOM     24  C   UNL A   1      41.764  25.772  28.150  1.00  0.00     0.049 A 
ATOM     25  H   UNL A   1      42.532  26.902  29.735  1.00  0.00     0.167 HD
ATOM     26  C   UNL A   1      43.391  28.138  33.734  1.00  0.00     0.031 A 
ATOM     27  C   UNL A   1      42.594  24.705  28.086  1.00  0.00     0.031 A 
ATOM     28  C   UNL A   1      44.508  28.685  33.027  1.00  0.00     0.049 A 
ATOM     29  C   UNL A   1      43.801  25.005  28.889  1.00  0.00     0.074 A 
ATOM     30  C   UNL A   1      44.883  29.943  32.603  1.00  0.00     0.029 A 
ATOM     31  N   UNL A   1      45.342  27.807  32.382  1.00  0.00    -0.354 N 
ATOM     32  N   UNL A   1      44.698  25.894  28.572  1.00  0.00    -0.248 NA
ATOM     33  C   UNL A   1      43.885  24.494  30.251  1.00  0.00     0.031 C 
ATOM     34  C   UNL A   1      45.612  29.731  31.397  1.00  0.00     0.029 A 
ATOM     35  C   UNL A   1      45.633  28.355  31.160  1.00  0.00     0.049 A 
ATOM     36  H   UNL A   1      45.669  26.945  32.731  1.00  0.00     0.167 HD
ATOM     37  C   UNL A   1      45.208  26.336  29.783  1.00  0.00     0.074 A 
ATOM     38  C   UNL A   1      44.778  25.345  30.760  1.00  0.00     0.031 C 
ATOM     39  C   UNL A   1      45.691  27.604  29.925  1.00  0.00     0.031 A 
BRANCH  26  40
ATOM     40  C   UNL A   1      43.553  27.162  34.863  1.00  0.00    -0.014 A 
ATOM     41  C   UNL A   1      43.461  25.783  34.626  1.00  0.00     0.009 A 
ATOM     42  C   UNL A   1      43.550  27.590  36.206  1.00  0.00     0.009 A 
ATOM     43  C   UNL A   1      43.376  24.876  35.690  1.00  0.00     0.001 A 
ATOM     44  C   UNL A   1      43.505  26.687  37.267  1.00  0.00     0.001 A 
ATOM     45  C   UNL A   1      43.405  25.328  37.009  1.00  0.00     0.000 A 
ENDBRANCH  26  40
BRANCH  27  46
ATOM     46  C   UNL A   1      42.300  23.340  27.595  1.00  0.00    -0.014 A 
ATOM     47  C   UNL A   1      41.212  22.618  28.112  1.00  0.00     0.009 A 
ATOM     48  C   UNL A   1      42.920  22.839  26.435  1.00  0.00     0.009 A 
ATOM     49  C   UNL A   1      40.734  21.471  27.467  1.00  0.00     0.001 A 
ATOM     50  C   UNL A   1      42.454  21.684  25.800  1.00  0.00     0.001 A 
ATOM     51  C   UNL A   1      41.349  21.011  26.305  1.00  0.00     0.000 A 
ENDBRANCH  27  46
BRANCH  39  52
ATOM     52  C   UNL A   1      45.978  28.395  28.676  1.00  0.00    -0.014 A 
ATOM     53  C   UNL A   1      47.229  28.366  28.036  1.00  0.00     0.009 A 
ATOM     54  C   UNL A   1      44.915  29.052  28.039  1.00  0.00     0.009 A 
ATOM     55  C   UNL A   1      47.414  28.996  26.802  1.00  0.00     0.001 A 
ATOM     56  C   UNL A   1      45.096  29.666  26.797  1.00  0.00     0.001 A 
ATOM     57  C   UNL A   1      46.346  29.639  26.181  1.00  0.00     0.000 A 
ENDBRANCH  39  52
ENDBRANCH  13  14
ENDBRANCH   6   8
ENDBRANCH   3   4
ENDBRANCH   2   3
ENDBRANCH   1   2
BRANCH   1  58
ATOM     58  C   UNL A   1      32.137  29.636  25.534  1.00  0.00     0.002 C 
BRANCH  58  59
ATOM     59  C   UNL A   1      31.423  29.106  24.286  1.00  0.00     0.021 C 
BRANCH  59  60
ATOM     60  C   UNL A   1      32.326  28.871  23.078  1.00  0.00     0.116 C 
BRANCH  60  61
ATOM     61  N   UNL A   1      31.693  28.007  22.094  1.00  0.00    -0.352 N 
ATOM     62  C   UNL A   1      31.783  26.645  21.939  1.00  0.00     0.252 C 
ATOM     63  H   UNL A   1      31.116  28.467  21.443  1.00  0.00     0.163 HD
ATOM     64  O   UNL A   1      31.367  26.111  20.921  1.00  0.00    -0.269 OA
BRANCH  62  65
ATOM     65  C   UNL A   1      32.389  25.821  22.998  1.00  0.00     0.058 A 
ATOM     66  C   UNL A   1      33.704  25.392  22.895  1.00  0.00     0.127 A 
ATOM     67  C   UNL A   1      31.653  25.510  24.144  1.00  0.00     0.027 A 
ATOM     68  N   UNL A   1      34.343  24.600  23.785  1.00  0.00    -0.238 NA
ATOM     69  C   UNL A   1      32.282  24.708  25.112  1.00  0.00     0.020 A 
ATOM     70  C   UNL A   1      33.589  24.291  24.860  1.00  0.00     0.140 A 
ATOM     71  C   UNL A   1      31.909  24.166  26.369  1.00  0.00     0.030 A 
ATOM     72  N   UNL A   1      33.986  23.494  25.909  1.00  0.00    -0.329 N 
ATOM     73  C   UNL A   1      32.974  23.425  26.838  1.00  0.00     0.088 A 
BRANCH  72  74
ATOM     74  C   UNL A   1      35.262  22.788  26.014  1.00  0.00     0.088 C 
ATOM     75  C   UNL A   1      35.305  21.550  25.102  1.00  0.00     0.025 C 
ATOM     76  C   UNL A   1      36.472  23.712  25.799  1.00  0.00     0.025 C 
ATOM     77  C   UNL A   1      36.639  20.815  25.205  1.00  0.00     0.002 C 
ATOM     78  C   UNL A   1      37.791  22.948  25.894  1.00  0.00     0.002 C 
ATOM     79  C   UNL A   1      37.815  21.752  24.947  1.00  0.00     0.000 C 
ENDBRANCH  72  74
ENDBRANCH  62  65
ENDBRANCH  60  61
ENDBRANCH  59  60
ENDBRANCH  58  59
ENDBRANCH   1  58
TORSDOF 14
ENDMDL
MODEL 3
REMARK VINA RESULT:     -11.4      3.136      8.503
REMARK SMILES O=C(NCCCCCCNC(=O)c1cnc2c(ccn2C2CCCCC2)c1)c1ccc(-c2c3nc(c(-c4ccccc4)c4ccc([nH]4)c(-c4ccccc4)c4nc(c(-c5ccccc5)c5ccc2[nH]5)C=C4)C=C3)cc1
REMARK SMILES IDX 6 1 5 2 4 3 3 4 1 5 2 6 28 8 29 9 75 10 30 11 74 12 31 13
REMARK SMILES IDX 32 14 33 15 68 16 34 17 73 18 67 19 69 20 35 21 72 22 66 23
REMARK SMILES IDX 65 24 36 26 58 27 43 28 57 29 44 30 47 31 56 32 70 33 45 34
REMARK SMILES IDX 46 35 55 37 71 38 48 39 37 40 38 41 42 42 39 43 41 44 40 45
REMARK SMILES IDX 59 46 60 47 64 48 61 49 63 50 62 51 49 52 50 53 54 54 51 55
REMARK SMILES IDX 53 56 52 57 7 58 8 59 9 60 10 61 11 62 12 64 13 65 14 66
REMARK SMILES IDX 27 67 15 68 17 69 16 70 18 71 20 72 19 73 21 74 22 75 26 76
REMARK SMILES IDX 23 77 25 78 24 79
REMARK H PARENT 3 7 69 25 47 36 10 63
REMARK Flexibility Score: inf
ROOT
ATOM      1  C   UNL A   1      32.484  29.028  25.260  1.00  0.00     0.002 C 
ENDROOT
BRANCH   1   2
ATOM      2  C   UNL A   1      33.740  28.898  26.126  1.00  0.00     0.021 C 
BRANCH   2   3
ATOM      3  C   UNL A   1      33.547  29.270  27.597  1.00  0.00     0.116 C 
BRANCH   3   4
ATOM      4  N   UNL A   1      33.927  30.626  27.946  1.00  0.00    -0.352 N 
ATOM      5  O   UNL A   1      35.142  32.421  28.478  1.00  0.00    -0.269 OA
ATOM      6  C   UNL A   1      35.116  31.203  28.306  1.00  0.00     0.251 C 
ATOM      7  H   UNL A   1      33.175  31.262  27.919  1.00  0.00     0.163 HD
BRANCH   6   8
ATOM      8  C   UNL A   1      36.346  30.420  28.572  1.00  0.00     0.039 A 
ATOM      9  C   UNL A   1      37.412  30.318  27.679  1.00  0.00     0.014 A 
ATOM     10  C   UNL A   1      36.427  29.766  29.813  1.00  0.00     0.014 A 
ATOM     11  C   UNL A   1      38.480  29.478  27.962  1.00  0.00     0.010 A 
ATOM     12  C   UNL A   1      37.521  28.963  30.124  1.00  0.00     0.010 A 
ATOM     13  C   UNL A   1      38.534  28.794  29.179  1.00  0.00    -0.014 A 
BRANCH  13  14
ATOM     14  C   UNL A   1      39.759  28.050  29.457  1.00  0.00     0.031 A 
ATOM     15  C   UNL A   1      40.283  28.171  30.850  1.00  0.00     0.074 A 
ATOM     16  C   UNL A   1      40.345  27.184  28.612  1.00  0.00     0.049 A 
ATOM     17  N   UNL A   1      41.450  28.574  31.243  1.00  0.00    -0.248 NA
ATOM     18  C   UNL A   1      39.356  27.831  31.942  1.00  0.00     0.031 C 
ATOM     19  C   UNL A   1      39.818  26.659  27.354  1.00  0.00     0.029 A 
ATOM     20  N   UNL A   1      41.514  26.497  28.781  1.00  0.00    -0.354 N 
ATOM     21  C   UNL A   1      41.459  28.403  32.624  1.00  0.00     0.074 A 
ATOM     22  C   UNL A   1      40.122  28.029  33.012  1.00  0.00     0.031 C 
ATOM     23  C   UNL A   1      40.547  25.579  26.992  1.00  0.00     0.029 A 
ATOM     24  C   UNL A   1      41.655  25.420  27.922  1.00  0.00     0.049 A 
ATOM     25  H   UNL A   1      42.192  26.744  29.451  1.00  0.00     0.167 HD
ATOM     26  C   UNL A   1      42.595  28.394  33.372  1.00  0.00     0.031 A 
ATOM     27  C   UNL A   1      42.565  24.424  28.028  1.00  0.00     0.031 A 
ATOM     28  C   UNL A   1      43.728  28.967  32.710  1.00  0.00     0.049 A 
ATOM     29  C   UNL A   1      43.670  24.893  28.895  1.00  0.00     0.074 A 
ATOM     30  C   UNL A   1      44.043  30.210  32.201  1.00  0.00     0.029 A 
ATOM     31  N   UNL A   1      44.679  28.108  32.221  1.00  0.00    -0.354 N 
ATOM     32  N   UNL A   1      44.523  25.821  28.570  1.00  0.00    -0.248 NA
ATOM     33  C   UNL A   1      43.671  24.512  30.301  1.00  0.00     0.031 C 
ATOM     34  C   UNL A   1      44.891  29.954  31.085  1.00  0.00     0.029 A 
ATOM     35  C   UNL A   1      45.035  28.569  30.981  1.00  0.00     0.049 A 
ATOM     36  H   UNL A   1      45.037  27.311  32.676  1.00  0.00     0.167 HD
ATOM     37  C   UNL A   1      44.888  26.409  29.771  1.00  0.00     0.074 A 
ATOM     38  C   UNL A   1      44.448  25.475  30.799  1.00  0.00     0.031 C 
ATOM     39  C   UNL A   1      45.260  27.720  29.831  1.00  0.00     0.031 A 
BRANCH  26  40
ATOM     40  C   UNL A   1      42.729  27.538  34.597  1.00  0.00    -0.014 A 
ATOM     41  C   UNL A   1      42.960  28.124  35.850  1.00  0.00     0.009 A 
ATOM     42  C   UNL A   1      42.878  26.140  34.499  1.00  0.00     0.009 A 
ATOM     43  C   UNL A   1      43.317  27.340  36.954  1.00  0.00     0.001 A 
ATOM     44  C   UNL A   1      43.196  25.353  35.606  1.00  0.00     0.001 A 
ATOM     45  C   UNL A   1      43.429  25.956  36.833  1.00  0.00     0.000 A 
ENDBRANCH  26  40
BRANCH  27  46
ATOM     46  C   UNL A   1      42.420  23.001  27.645  1.00  0.00    -0.014 A 
ATOM     47  C   UNL A   1      41.346  22.240  28.137  1.00  0.00     0.009 A 
ATOM     48  C   UNL A   1      43.177  22.453  26.594  1.00  0.00     0.009 A 
ATOM     49  C   UNL A   1      41.016  21.005  27.566  1.00  0.00     0.001 A 
ATOM     50  C   UNL A   1      42.858  21.213  26.034  1.00  0.00     0.001 A 
ATOM     51  C   UNL A   1      41.765  20.498  26.508  1.00  0.00     0.000 A 
ENDBRANCH  27  46
BRANCH  39  52
ATOM     52  C   UNL A   1      45.597  28.419  28.541  1.00  0.00    -0.014 A 
ATOM     53  C   UNL A   1      44.630  29.089  27.773  1.00  0.00     0.009 A 
ATOM     54  C   UNL A   1      46.946  28.547  28.180  1.00  0.00     0.009 A 
ATOM     55  C   UNL A   1      45.004  29.849  26.660  1.00  0.00     0.001 A 
ATOM     56  C   UNL A   1      47.320  29.321  27.078  1.00  0.00     0.001 A 
ATOM     57  C   UNL A   1      46.348  29.969  26.318  1.00  0.00     0.000 A 
ENDBRANCH  39  52
ENDBRANCH  13  14
ENDBRANCH   6   8
ENDBRANCH   3   4
ENDBRANCH   2   3
ENDBRANCH   1   2
BRANCH   1  58
ATOM     58  C   UNL A   1      31.605  27.777  25.177  1.00  0.00     0.002 C 
BRANCH  58  59
ATOM     59  C   UNL A   1      30.476  27.824  24.142  1.00  0.00     0.021 C 
BRANCH  59  60
ATOM     60  C   UNL A   1      30.702  26.960  22.904  1.00  0.00     0.116 C 
BRANCH  60  61
ATOM     61  N   UNL A   1      31.865  27.396  22.149  1.00  0.00    -0.352 N 
ATOM     62  C   UNL A   1      33.147  26.901  22.152  1.00  0.00     0.252 C 
ATOM     63  H   UNL A   1      31.711  28.159  21.546  1.00  0.00     0.163 HD
ATOM     64  O   UNL A   1      34.053  27.532  21.627  1.00  0.00    -0.269 OA
BRANCH  62  65
ATOM     65  C   UNL A   1      33.437  25.610  22.797  1.00  0.00     0.058 A 
ATOM     66  C   UNL A   1      33.212  24.417  22.124  1.00  0.00     0.127 A 
ATOM     67  C   UNL A   1      33.994  25.581  24.077  1.00  0.00     0.027 A 
ATOM     68  N   UNL A   1      33.403  23.181  22.635  1.00  0.00    -0.238 NA
ATOM     69  C   UNL A   1      34.234  24.318  24.644  1.00  0.00     0.020 A 
ATOM     70  C   UNL A   1      33.907  23.193  23.886  1.00  0.00     0.140 A 
ATOM     71  C   UNL A   1      34.756  23.849  25.877  1.00  0.00     0.030 A 
ATOM     72  N   UNL A   1      34.186  22.080  24.645  1.00  0.00    -0.329 N 
ATOM     73  C   UNL A   1      34.716  22.470  25.852  1.00  0.00     0.088 A 
BRANCH  72  74
ATOM     74  C   UNL A   1      33.925  20.693  24.260  1.00  0.00     0.088 C 
ATOM     75  C   UNL A   1      34.939  19.726  24.894  1.00  0.00     0.025 C 
ATOM     76  C   UNL A   1      32.471  20.267  24.522  1.00  0.00     0.025 C 
ATOM     77  C   UNL A   1      34.665  18.277  24.499  1.00  0.00     0.002 C 
ATOM     78  C   UNL A   1      32.230  18.810  24.131  1.00  0.00     0.002 C 
ATOM     79  C   UNL A   1      33.227  17.875  24.809  1.00  0.00     0.000 C 
ENDBRANCH  72  74
ENDBRANCH  62  65
ENDBRANCH  60  61
ENDBRANCH  59  60
ENDBRANCH  58  59
ENDBRANCH   1  58
TORSDOF 14
ENDMDL
