MODEL 1
REMARK VINA RESULT:     -11.1      0.000      0.000
REMARK SMILES C[C@H](O)[C@H](C)[N@@H+]1Cc2ccccc2C[C@@H]1C(=O)NCCCCCCNC(=O)c1ccc(-c2c3nc(c(-c4ccccc4)c4ccc([nH]4)c(-c4ccccc4)c4nc(c(-c5ccccc5)c5ccc2[nH]5)C=C4)C=C3)cc1
REMARK SMILES IDX 21 1 20 2 19 3 18 4 16 5 17 6 15 8 6 9 7 10 8 12 14 13 9 14
REMARK SMILES IDX 13 15 10 16 12 17 11 18 4 19 5 20 2 21 1 22 3 23 22 25 23 26
REMARK SMILES IDX 24 27 25 28 26 29 27 31 28 32 29 33 75 34 30 35 74 36 31 37
REMARK SMILES IDX 32 38 33 39 68 40 34 41 73 42 67 43 69 44 35 45 72 46 66 47
REMARK SMILES IDX 65 48 36 50 58 51 43 52 57 53 44 54 47 55 56 56 70 57 45 58
REMARK SMILES IDX 46 59 55 61 71 62 48 63 37 64 38 65 42 66 39 67 41 68 40 69
REMARK SMILES IDX 59 70 60 71 64 72 61 73 63 74 62 75 49 76 50 77 54 78 51 79
REMARK SMILES IDX 53 80 52 81
REMARK H PARENT 18 7 6 11 3 24 25 30 69 49 47 60
REMARK Flexibility Score: inf
ROOT
ATOM      1  C   UNL A   1      31.441  29.072  24.564  1.00  0.00     0.002 C 
ENDROOT
BRANCH   1   2
ATOM      2  C   UNL A   1      31.210  29.047  23.047  1.00  0.00     0.021 C 
BRANCH   2   3
ATOM      3  C   UNL A   1      30.960  27.650  22.474  1.00  0.00     0.116 C 
BRANCH   3   4
ATOM      4  N   UNL A   1      32.192  27.115  21.943  1.00  0.00    -0.351 N 
ATOM      5  C   UNL A   1      32.923  26.043  22.352  1.00  0.00     0.278 C 
ATOM      6  O   UNL A   1      34.112  26.057  22.023  1.00  0.00    -0.268 OA
ATOM      7  H   UNL A   1      32.558  27.599  21.167  1.00  0.00     0.163 HD
BRANCH   5   8
ATOM      8  C   UNL A   1      32.236  24.857  23.084  1.00  0.00     0.279 C 
ATOM      9  N   UNL A   1      32.149  25.045  24.529  1.00  0.00    -0.316 N 
ATOM     10  C   UNL A   1      33.407  25.181  25.255  1.00  0.00     0.300 C 
ATOM     11  H   UNL A   1      31.729  24.116  24.549  1.00  0.00     0.349 HD
ATOM     12  C   UNL A   1      34.530  24.318  24.710  1.00  0.00     0.010 A 
ATOM     13  C   UNL A   1      33.053  23.581  22.801  1.00  0.00     0.111 C 
ATOM     14  C   UNL A   1      35.779  24.331  25.348  1.00  0.00     0.010 A 
ATOM     15  C   UNL A   1      34.373  23.565  23.531  1.00  0.00    -0.033 A 
ATOM     16  C   UNL A   1      36.851  23.610  24.821  1.00  0.00     0.001 A 
ATOM     17  C   UNL A   1      35.445  22.823  23.023  1.00  0.00     0.004 A 
ATOM     18  C   UNL A   1      36.683  22.856  23.661  1.00  0.00     0.000 A 
BRANCH   9  19
ATOM     19  C   UNL A   1      30.907  25.327  25.242  1.00  0.00     0.210 C 
ATOM     20  C   UNL A   1      29.677  25.478  24.336  1.00  0.00     0.078 C 
BRANCH  19  21
ATOM     21  C   UNL A   1      30.611  24.251  26.336  1.00  0.00     0.169 C 
ATOM     22  C   UNL A   1      30.772  22.810  25.860  1.00  0.00     0.045 C 
BRANCH  21  23
ATOM     23  O   UNL A   1      29.285  24.405  26.855  1.00  0.00    -0.387 OA
ATOM     24  H   UNL A   1      29.303  24.310  27.820  1.00  0.00     0.211 HD
ENDBRANCH  21  23
ENDBRANCH  19  21
ENDBRANCH   9  19
ENDBRANCH   5   8
ENDBRANCH   3   4
ENDBRANCH   2   3
ENDBRANCH   1   2
BRANCH   1  25
ATOM     25  C   UNL A   1      32.810  29.604  24.997  1.00  0.00     0.002 C 
BRANCH  25  26
ATOM     26  C   UNL A   1      33.678  28.591  25.746  1.00  0.00     0.021 C 
BRANCH  26  27
ATOM     27  C   UNL A   1      33.639  28.737  27.262  1.00  0.00     0.116 C 
BRANCH  27  28
ATOM     28  N   UNL A   1      33.634  30.132  27.673  1.00  0.00    -0.352 N 
ATOM     29  C   UNL A   1      34.594  30.838  28.353  1.00  0.00     0.251 C 
ATOM     30  H   UNL A   1      32.827  30.642  27.428  1.00  0.00     0.163 HD
ATOM     31  O   UNL A   1      34.344  31.945  28.810  1.00  0.00    -0.269 OA
BRANCH  29  32
ATOM     32  C   UNL A   1      35.932  30.241  28.546  1.00  0.00     0.039 A 
ATOM     33  C   UNL A   1      36.834  30.245  27.480  1.00  0.00     0.014 A 
ATOM     34  C   UNL A   1      36.294  29.682  29.774  1.00  0.00     0.014 A 
ATOM     35  C   UNL A   1      38.121  29.737  27.664  1.00  0.00     0.010 A 
ATOM     36  C   UNL A   1      37.599  29.251  29.980  1.00  0.00     0.010 A 
ATOM     37  C   UNL A   1      38.525  29.267  28.926  1.00  0.00    -0.014 A 
BRANCH  37  38
ATOM     38  C   UNL A   1      39.909  28.787  29.160  1.00  0.00     0.031 A 
ATOM     39  C   UNL A   1      40.932  29.702  29.775  1.00  0.00     0.074 A 
ATOM     40  C   UNL A   1      40.262  27.549  28.762  1.00  0.00     0.049 A 
ATOM     41  N   UNL A   1      42.202  29.481  30.008  1.00  0.00    -0.248 NA
ATOM     42  C   UNL A   1      40.477  31.048  30.158  1.00  0.00     0.031 C 
ATOM     43  C   UNL A   1      39.373  26.579  28.119  1.00  0.00     0.029 A 
ATOM     44  N   UNL A   1      41.466  26.897  28.836  1.00  0.00    -0.354 N 
ATOM     45  C   UNL A   1      42.696  30.662  30.546  1.00  0.00     0.074 A 
ATOM     46  C   UNL A   1      41.606  31.613  30.558  1.00  0.00     0.031 C 
ATOM     47  C   UNL A   1      40.054  25.446  27.885  1.00  0.00     0.029 A 
ATOM     48  C   UNL A   1      41.436  25.625  28.317  1.00  0.00     0.049 A 
ATOM     49  H   UNL A   1      42.276  27.300  29.225  1.00  0.00     0.167 HD
ATOM     50  C   UNL A   1      43.941  30.928  31.009  1.00  0.00     0.031 A 
ATOM     51  C   UNL A   1      42.414  24.707  28.193  1.00  0.00     0.031 A 
ATOM     52  C   UNL A   1      45.024  29.980  31.002  1.00  0.00     0.049 A 
ATOM     53  C   UNL A   1      43.795  25.036  28.690  1.00  0.00     0.074 A 
ATOM     54  C   UNL A   1      46.307  30.135  31.498  1.00  0.00     0.029 A 
ATOM     55  N   UNL A   1      44.953  28.703  30.466  1.00  0.00    -0.354 N 
ATOM     56  N   UNL A   1      44.228  26.133  29.261  1.00  0.00    -0.248 NA
ATOM     57  C   UNL A   1      44.819  23.993  28.533  1.00  0.00     0.031 C 
ATOM     58  C   UNL A   1      47.031  28.975  31.205  1.00  0.00     0.029 A 
ATOM     59  C   UNL A   1      46.178  28.071  30.590  1.00  0.00     0.049 A 
ATOM     60  H   UNL A   1      44.151  28.306  30.057  1.00  0.00     0.167 HD
ATOM     61  C   UNL A   1      45.565  25.902  29.561  1.00  0.00     0.074 A 
ATOM     62  C   UNL A   1      45.865  24.554  29.122  1.00  0.00     0.031 C 
ATOM     63  C   UNL A   1      46.463  26.730  30.148  1.00  0.00     0.031 A 
BRANCH  50  64
ATOM     64  C   UNL A   1      44.202  32.306  31.551  1.00  0.00    -0.014 A 
ATOM     65  C   UNL A   1      44.016  32.606  32.911  1.00  0.00     0.009 A 
ATOM     66  C   UNL A   1      44.676  33.314  30.696  1.00  0.00     0.009 A 
ATOM     67  C   UNL A   1      44.261  33.893  33.394  1.00  0.00     0.001 A 
ATOM     68  C   UNL A   1      44.953  34.591  31.188  1.00  0.00     0.001 A 
ATOM     69  C   UNL A   1      44.735  34.882  32.534  1.00  0.00     0.000 A 
ENDBRANCH  50  64
BRANCH  51  70
ATOM     70  C   UNL A   1      42.122  23.385  27.578  1.00  0.00    -0.014 A 
ATOM     71  C   UNL A   1      42.422  23.143  26.229  1.00  0.00     0.009 A 
ATOM     72  C   UNL A   1      41.534  22.360  28.337  1.00  0.00     0.009 A 
ATOM     73  C   UNL A   1      42.113  21.912  25.645  1.00  0.00     0.001 A 
ATOM     74  C   UNL A   1      41.257  21.119  27.759  1.00  0.00     0.001 A 
ATOM     75  C   UNL A   1      41.535  20.900  26.411  1.00  0.00     0.000 A 
ENDBRANCH  51  70
BRANCH  63  76
ATOM     76  C   UNL A   1      47.846  26.190  30.388  1.00  0.00    -0.014 A 
ATOM     77  C   UNL A   1      48.807  26.151  29.366  1.00  0.00     0.009 A 
ATOM     78  C   UNL A   1      48.204  25.752  31.674  1.00  0.00     0.009 A 
ATOM     79  C   UNL A   1      50.087  25.652  29.618  1.00  0.00     0.001 A 
ATOM     80  C   UNL A   1      49.493  25.287  31.932  1.00  0.00     0.001 A 
ATOM     81  C   UNL A   1      50.431  25.227  30.901  1.00  0.00     0.000 A 
ENDBRANCH  63  76
ENDBRANCH  37  38
ENDBRANCH  29  32
ENDBRANCH  27  28
ENDBRANCH  26  27
ENDBRANCH  25  26
ENDBRANCH   1  25
TORSDOF 16
ENDMDL
MODEL 2
REMARK VINA RESULT:     -11.1      2.215      7.617
REMARK SMILES C[C@H](O)[C@H](C)[N@@H+]1Cc2ccccc2C[C@@H]1C(=O)NCCCCCCNC(=O)c1ccc(-c2c3nc(c(-c4ccccc4)c4ccc([nH]4)c(-c4ccccc4)c4nc(c(-c5ccccc5)c5ccc2[nH]5)C=C4)C=C3)cc1
REMARK SMILES IDX 21 1 20 2 19 3 18 4 16 5 17 6 15 8 6 9 7 10 8 12 14 13 9 14
REMARK SMILES IDX 13 15 10 16 12 17 11 18 4 19 5 20 2 21 1 22 3 23 22 25 23 26
REMARK SMILES IDX 24 27 25 28 26 29 27 31 28 32 29 33 75 34 30 35 74 36 31 37
REMARK SMILES IDX 32 38 33 39 68 40 34 41 73 42 67 43 69 44 35 45 72 46 66 47
REMARK SMILES IDX 65 48 36 50 58 51 43 52 57 53 44 54 47 55 56 56 70 57 45 58
REMARK SMILES IDX 46 59 55 61 71 62 48 63 37 64 38 65 42 66 39 67 41 68 40 69
REMARK SMILES IDX 59 70 60 71 64 72 61 73 63 74 62 75 49 76 50 77 54 78 51 79
REMARK SMILES IDX 53 80 52 81
REMARK H PARENT 18 7 6 11 3 24 25 30 69 49 47 60
REMARK Flexibility Score: inf
ROOT
ATOM      1  C   UNL A   1      32.763  22.630  25.752  1.00  0.00     0.002 C 
ENDROOT
BRANCH   1   2
ATOM      2  C   UNL A   1      31.312  22.927  26.156  1.00  0.00     0.021 C 
BRANCH   2   3
ATOM      3  C   UNL A   1      30.674  24.089  25.391  1.00  0.00     0.116 C 
BRANCH   3   4
ATOM      4  N   UNL A   1      30.440  25.194  26.291  1.00  0.00    -0.351 N 
ATOM      5  C   UNL A   1      30.882  26.479  26.226  1.00  0.00     0.278 C 
ATOM      6  O   UNL A   1      30.906  27.086  27.299  1.00  0.00    -0.268 OA
ATOM      7  H   UNL A   1      29.874  24.986  27.071  1.00  0.00     0.163 HD
BRANCH   5   8
ATOM      8  C   UNL A   1      31.218  27.125  24.853  1.00  0.00     0.279 C 
ATOM      9  N   UNL A   1      32.554  26.791  24.370  1.00  0.00    -0.316 N 
ATOM     10  C   UNL A   1      33.680  27.205  25.200  1.00  0.00     0.300 C 
ATOM     11  H   UNL A   1      32.340  27.401  23.582  1.00  0.00     0.349 HD
ATOM     12  C   UNL A   1      33.479  28.543  25.887  1.00  0.00     0.010 A 
ATOM     13  C   UNL A   1      31.117  28.655  25.005  1.00  0.00     0.111 C 
ATOM     14  C   UNL A   1      34.508  29.069  26.682  1.00  0.00     0.010 A 
ATOM     15  C   UNL A   1      32.254  29.232  25.812  1.00  0.00    -0.033 A 
ATOM     16  C   UNL A   1      34.320  30.257  27.389  1.00  0.00     0.001 A 
ATOM     17  C   UNL A   1      32.082  30.437  26.503  1.00  0.00     0.004 A 
ATOM     18  C   UNL A   1      33.109  30.940  27.298  1.00  0.00     0.000 A 
BRANCH   9  19
ATOM     19  C   UNL A   1      32.817  25.890  23.252  1.00  0.00     0.210 C 
ATOM     20  C   UNL A   1      31.557  25.285  22.617  1.00  0.00     0.078 C 
BRANCH  19  21
ATOM     21  C   UNL A   1      33.672  26.580  22.141  1.00  0.00     0.169 C 
ATOM     22  C   UNL A   1      33.651  28.105  22.189  1.00  0.00     0.045 C 
BRANCH  21  23
ATOM     23  O   UNL A   1      33.242  26.167  20.839  1.00  0.00    -0.387 OA
ATOM     24  H   UNL A   1      32.950  25.243  20.873  1.00  0.00     0.211 HD
ENDBRANCH  21  23
ENDBRANCH  19  21
ENDBRANCH   9  19
ENDBRANCH   5   8
ENDBRANCH   3   4
ENDBRANCH   2   3
ENDBRANCH   1   2
BRANCH   1  25
ATOM     25  C   UNL A   1      33.779  23.694  26.175  1.00  0.00     0.002 C 
BRANCH  25  26
ATOM     26  C   UNL A   1      35.078  23.137  26.758  1.00  0.00     0.021 C 
BRANCH  26  27
ATOM     27  C   UNL A   1      36.341  23.680  26.100  1.00  0.00     0.116 C 
BRANCH  27  28
ATOM     28  N   UNL A   1      37.380  22.667  26.004  1.00  0.00    -0.352 N 
ATOM     29  C   UNL A   1      38.732  22.791  26.206  1.00  0.00     0.251 C 
ATOM     30  H   UNL A   1      37.069  21.765  25.759  1.00  0.00     0.163 HD
ATOM     31  O   UNL A   1      39.495  21.894  25.874  1.00  0.00    -0.269 OA
BRANCH  29  32
ATOM     32  C   UNL A   1      39.263  24.029  26.813  1.00  0.00     0.039 A 
ATOM     33  C   UNL A   1      39.964  24.930  26.007  1.00  0.00     0.014 A 
ATOM     34  C   UNL A   1      39.070  24.300  28.170  1.00  0.00     0.014 A 
ATOM     35  C   UNL A   1      40.422  26.130  26.553  1.00  0.00     0.010 A 
ATOM     36  C   UNL A   1      39.455  25.528  28.692  1.00  0.00     0.010 A 
ATOM     37  C   UNL A   1      40.142  26.454  27.892  1.00  0.00    -0.014 A 
BRANCH  37  38
ATOM     38  C   UNL A   1      40.560  27.755  28.471  1.00  0.00     0.031 A 
ATOM     39  C   UNL A   1      41.977  27.958  28.930  1.00  0.00     0.074 A 
ATOM     40  C   UNL A   1      39.647  28.732  28.642  1.00  0.00     0.049 A 
ATOM     41  N   UNL A   1      42.516  29.002  29.508  1.00  0.00    -0.248 NA
ATOM     42  C   UNL A   1      42.907  26.834  28.734  1.00  0.00     0.031 C 
ATOM     43  C   UNL A   1      38.233  28.646  28.273  1.00  0.00     0.029 A 
ATOM     44  N   UNL A   1      39.776  29.990  29.174  1.00  0.00    -0.354 N 
ATOM     45  C   UNL A   1      43.836  28.654  29.760  1.00  0.00     0.074 A 
ATOM     46  C   UNL A   1      44.006  27.287  29.320  1.00  0.00     0.031 C 
ATOM     47  C   UNL A   1      37.632  29.811  28.563  1.00  0.00     0.029 A 
ATOM     48  C   UNL A   1      38.604  30.707  29.179  1.00  0.00     0.049 A 
ATOM     49  H   UNL A   1      40.626  30.346  29.519  1.00  0.00     0.167 HD
ATOM     50  C   UNL A   1      44.827  29.410  30.290  1.00  0.00     0.031 A 
ATOM     51  C   UNL A   1      38.338  31.945  29.637  1.00  0.00     0.031 A 
ATOM     52  C   UNL A   1      44.659  30.772  30.723  1.00  0.00     0.049 A 
ATOM     53  C   UNL A   1      39.448  32.755  30.247  1.00  0.00     0.074 A 
ATOM     54  C   UNL A   1      45.613  31.641  31.223  1.00  0.00     0.029 A 
ATOM     55  N   UNL A   1      43.456  31.461  30.713  1.00  0.00    -0.354 N 
ATOM     56  N   UNL A   1      40.710  32.436  30.413  1.00  0.00    -0.248 NA
ATOM     57  C   UNL A   1      39.100  34.101  30.725  1.00  0.00     0.031 C 
ATOM     58  C   UNL A   1      44.975  32.834  31.575  1.00  0.00     0.029 A 
ATOM     59  C   UNL A   1      43.637  32.733  31.228  1.00  0.00     0.049 A 
ATOM     60  H   UNL A   1      42.600  31.100  30.388  1.00  0.00     0.167 HD
ATOM     61  C   UNL A   1      41.311  33.552  30.983  1.00  0.00     0.074 A 
ATOM     62  C   UNL A   1      40.279  34.560  31.119  1.00  0.00     0.031 C 
ATOM     63  C   UNL A   1      42.601  33.726  31.358  1.00  0.00     0.031 A 
BRANCH  50  64
ATOM     64  C   UNL A   1      46.181  28.773  30.445  1.00  0.00    -0.014 A 
ATOM     65  C   UNL A   1      47.144  28.844  29.425  1.00  0.00     0.009 A 
ATOM     66  C   UNL A   1      46.513  28.123  31.644  1.00  0.00     0.009 A 
ATOM     67  C   UNL A   1      48.394  28.244  29.587  1.00  0.00     0.001 A 
ATOM     68  C   UNL A   1      47.776  27.553  31.816  1.00  0.00     0.001 A 
ATOM     69  C   UNL A   1      48.711  27.605  30.784  1.00  0.00     0.000 A 
ENDBRANCH  50  64
BRANCH  51  70
ATOM     70  C   UNL A   1      36.963  32.501  29.531  1.00  0.00    -0.014 A 
ATOM     71  C   UNL A   1      36.024  32.282  30.550  1.00  0.00     0.009 A 
ATOM     72  C   UNL A   1      36.580  33.246  28.405  1.00  0.00     0.009 A 
ATOM     73  C   UNL A   1      34.721  32.773  30.431  1.00  0.00     0.001 A 
ATOM     74  C   UNL A   1      35.287  33.765  28.303  1.00  0.00     0.001 A 
ATOM     75  C   UNL A   1      34.355  33.519  29.309  1.00  0.00     0.000 A 
ENDBRANCH  51  70
BRANCH  63  76
ATOM     76  C   UNL A   1      42.982  35.070  31.916  1.00  0.00    -0.014 A 
ATOM     77  C   UNL A   1      42.821  35.373  33.276  1.00  0.00     0.009 A 
ATOM     78  C   UNL A   1      43.554  36.034  31.069  1.00  0.00     0.009 A 
ATOM     79  C   UNL A   1      43.191  36.626  33.770  1.00  0.00     0.001 A 
ATOM     80  C   UNL A   1      43.954  37.272  31.570  1.00  0.00     0.001 A 
ATOM     81  C   UNL A   1      43.763  37.572  32.918  1.00  0.00     0.000 A 
ENDBRANCH  63  76
ENDBRANCH  37  38
ENDBRANCH  29  32
ENDBRANCH  27  28
ENDBRANCH  26  27
ENDBRANCH  25  26
ENDBRANCH   1  25
TORSDOF 16
ENDMDL
MODEL 3
REMARK VINA RESULT:     -10.9      2.200      7.401
REMARK SMILES C[C@H](O)[C@H](C)[N@@H+]1Cc2ccccc2C[C@@H]1C(=O)NCCCCCCNC(=O)c1ccc(-c2c3nc(c(-c4ccccc4)c4ccc([nH]4)c(-c4ccccc4)c4nc(c(-c5ccccc5)c5ccc2[nH]5)C=C4)C=C3)cc1
REMARK SMILES IDX 21 1 20 2 19 3 18 4 16 5 17 6 15 8 6 9 7 10 8 12 14 13 9 14
REMARK SMILES IDX 13 15 10 16 12 17 11 18 4 19 5 20 2 21 1 22 3 23 22 25 23 26
REMARK SMILES IDX 24 27 25 28 26 29 27 31 28 32 29 33 75 34 30 35 74 36 31 37
REMARK SMILES IDX 32 38 33 39 68 40 34 41 73 42 67 43 69 44 35 45 72 46 66 47
REMARK SMILES IDX 65 48 36 50 58 51 43 52 57 53 44 54 47 55 56 56 70 57 45 58
REMARK SMILES IDX 46 59 55 61 71 62 48 63 37 64 38 65 42 66 39 67 41 68 40 69
REMARK SMILES IDX 59 70 60 71 64 72 61 73 63 74 62 75 49 76 50 77 54 78 51 79
REMARK SMILES IDX 53 80 52 81
REMARK H PARENT 18 7 6 11 3 24 25 30 69 49 47 60
REMARK Flexibility Score: inf
ROOT
ATOM      1  C   UNL A   1      33.718  23.272  23.174  1.00  0.00     0.002 C 
ENDROOT
BRANCH   1   2
ATOM      2  C   UNL A   1      33.459  24.010  21.853  1.00  0.00     0.021 C 
BRANCH   2   3
ATOM      3  C   UNL A   1      32.560  25.240  21.988  1.00  0.00     0.116 C 
BRANCH   3   4
ATOM      4  N   UNL A   1      33.345  26.371  22.425  1.00  0.00    -0.351 N 
ATOM      5  C   UNL A   1      33.324  27.040  23.610  1.00  0.00     0.278 C 
ATOM      6  O   UNL A   1      33.760  28.193  23.574  1.00  0.00    -0.268 OA
ATOM      7  H   UNL A   1      33.993  26.710  21.765  1.00  0.00     0.163 HD
BRANCH   5   8
ATOM      8  C   UNL A   1      32.875  26.319  24.910  1.00  0.00     0.279 C 
ATOM      9  N   UNL A   1      31.497  26.617  25.288  1.00  0.00    -0.316 N 
ATOM     10  C   UNL A   1      31.176  28.012  25.571  1.00  0.00     0.300 C 
ATOM     11  H   UNL A   1      31.673  26.032  26.104  1.00  0.00     0.349 HD
ATOM     12  C   UNL A   1      32.290  28.772  26.265  1.00  0.00     0.010 A 
ATOM     13  C   UNL A   1      33.807  26.765  26.053  1.00  0.00     0.111 C 
ATOM     14  C   UNL A   1      32.089  30.112  26.625  1.00  0.00     0.010 A 
ATOM     15  C   UNL A   1      33.554  28.189  26.484  1.00  0.00    -0.033 A 
ATOM     16  C   UNL A   1      33.123  30.857  27.192  1.00  0.00     0.001 A 
ATOM     17  C   UNL A   1      34.579  28.935  27.076  1.00  0.00     0.004 A 
ATOM     18  C   UNL A   1      34.366  30.268  27.417  1.00  0.00     0.000 A 
BRANCH   9  19
ATOM     19  C   UNL A   1      30.396  25.665  25.180  1.00  0.00     0.210 C 
ATOM     20  C   UNL A   1      30.224  25.052  23.783  1.00  0.00     0.078 C 
BRANCH  19  21
ATOM     21  C   UNL A   1      30.518  24.517  26.233  1.00  0.00     0.169 C 
ATOM     22  C   UNL A   1      31.020  23.193  25.664  1.00  0.00     0.045 C 
BRANCH  21  23
ATOM     23  O   UNL A   1      29.260  24.279  26.875  1.00  0.00    -0.387 OA
ATOM     24  H   UNL A   1      28.781  25.118  26.965  1.00  0.00     0.211 HD
ENDBRANCH  21  23
ENDBRANCH  19  21
ENDBRANCH   9  19
ENDBRANCH   5   8
ENDBRANCH   3   4
ENDBRANCH   2   3
ENDBRANCH   1   2
BRANCH   1  25
ATOM     25  C   UNL A   1      35.154  23.375  23.697  1.00  0.00     0.002 C 
BRANCH  25  26
ATOM     26  C   UNL A   1      35.282  23.318  25.220  1.00  0.00     0.021 C 
BRANCH  26  27
ATOM     27  C   UNL A   1      36.617  23.824  25.753  1.00  0.00     0.116 C 
BRANCH  27  28
ATOM     28  N   UNL A   1      37.582  22.747  25.906  1.00  0.00    -0.352 N 
ATOM     29  C   UNL A   1      38.892  22.809  26.310  1.00  0.00     0.251 C 
ATOM     30  H   UNL A   1      37.248  21.846  25.689  1.00  0.00     0.163 HD
ATOM     31  O   UNL A   1      39.630  21.841  26.177  1.00  0.00    -0.269 OA
BRANCH  29  32
ATOM     32  C   UNL A   1      39.413  24.064  26.891  1.00  0.00     0.039 A 
ATOM     33  C   UNL A   1      40.082  24.967  26.061  1.00  0.00     0.014 A 
ATOM     34  C   UNL A   1      39.241  24.348  28.248  1.00  0.00     0.014 A 
ATOM     35  C   UNL A   1      40.529  26.182  26.583  1.00  0.00     0.010 A 
ATOM     36  C   UNL A   1      39.615  25.590  28.747  1.00  0.00     0.010 A 
ATOM     37  C   UNL A   1      40.269  26.517  27.922  1.00  0.00    -0.014 A 
BRANCH  37  38
ATOM     38  C   UNL A   1      40.675  27.832  28.478  1.00  0.00     0.031 A 
ATOM     39  C   UNL A   1      42.099  28.069  28.899  1.00  0.00     0.074 A 
ATOM     40  C   UNL A   1      39.747  28.793  28.660  1.00  0.00     0.049 A 
ATOM     41  N   UNL A   1      42.630  29.130  29.452  1.00  0.00    -0.248 NA
ATOM     42  C   UNL A   1      43.046  26.961  28.692  1.00  0.00     0.031 C 
ATOM     43  C   UNL A   1      38.326  28.675  28.327  1.00  0.00     0.029 A 
ATOM     44  N   UNL A   1      39.863  30.059  29.176  1.00  0.00    -0.354 N 
ATOM     45  C   UNL A   1      43.963  28.811  29.675  1.00  0.00     0.074 A 
ATOM     46  C   UNL A   1      44.149  27.442  29.246  1.00  0.00     0.031 C 
ATOM     47  C   UNL A   1      37.709  29.831  28.619  1.00  0.00     0.029 A 
ATOM     48  C   UNL A   1      38.678  30.753  29.202  1.00  0.00     0.049 A 
ATOM     49  H   UNL A   1      40.714  30.436  29.496  1.00  0.00     0.167 HD
ATOM     50  C   UNL A   1      44.951  29.592  30.173  1.00  0.00     0.031 A 
ATOM     51  C   UNL A   1      38.398  31.990  29.654  1.00  0.00     0.031 A 
ATOM     52  C   UNL A   1      44.766  30.955  30.595  1.00  0.00     0.049 A 
ATOM     53  C   UNL A   1      39.507  32.829  30.228  1.00  0.00     0.074 A 
ATOM     54  C   UNL A   1      45.715  31.848  31.062  1.00  0.00     0.029 A 
ATOM     55  N   UNL A   1      43.549  31.620  30.607  1.00  0.00    -0.354 N 
ATOM     56  N   UNL A   1      40.778  32.537  30.366  1.00  0.00    -0.248 NA
ATOM     57  C   UNL A   1      39.143  34.173  30.699  1.00  0.00     0.031 C 
ATOM     58  C   UNL A   1      45.062  33.033  31.418  1.00  0.00     0.029 A 
ATOM     59  C   UNL A   1      43.718  32.901  31.104  1.00  0.00     0.049 A 
ATOM     60  H   UNL A   1      42.693  31.238  30.308  1.00  0.00     0.167 HD
ATOM     61  C   UNL A   1      41.370  33.671  30.909  1.00  0.00     0.074 A 
ATOM     62  C   UNL A   1      40.322  34.660  31.059  1.00  0.00     0.031 C 
ATOM     63  C   UNL A   1      42.666  33.875  31.250  1.00  0.00     0.031 A 
BRANCH  50  64
ATOM     64  C   UNL A   1      46.321  28.984  30.301  1.00  0.00    -0.014 A 
ATOM     65  C   UNL A   1      47.256  29.062  29.256  1.00  0.00     0.009 A 
ATOM     66  C   UNL A   1      46.695  28.355  31.498  1.00  0.00     0.009 A 
ATOM     67  C   UNL A   1      48.522  28.489  29.393  1.00  0.00     0.001 A 
ATOM     68  C   UNL A   1      47.974  27.812  31.646  1.00  0.00     0.001 A 
ATOM     69  C   UNL A   1      48.882  27.870  30.589  1.00  0.00     0.000 A 
ENDBRANCH  50  64
BRANCH  51  70
ATOM     70  C   UNL A   1      37.010  32.517  29.575  1.00  0.00    -0.014 A 
ATOM     71  C   UNL A   1      36.094  32.273  30.610  1.00  0.00     0.009 A 
ATOM     72  C   UNL A   1      36.591  33.261  28.461  1.00  0.00     0.009 A 
ATOM     73  C   UNL A   1      34.780  32.737  30.516  1.00  0.00     0.001 A 
ATOM     74  C   UNL A   1      35.286  33.753  28.385  1.00  0.00     0.001 A 
ATOM     75  C   UNL A   1      34.378  33.481  29.407  1.00  0.00     0.000 A 
ENDBRANCH  51  70
BRANCH  63  76
ATOM     76  C   UNL A   1      43.033  35.232  31.783  1.00  0.00    -0.014 A 
ATOM     77  C   UNL A   1      42.908  35.544  33.146  1.00  0.00     0.009 A 
ATOM     78  C   UNL A   1      43.555  36.201  30.910  1.00  0.00     0.009 A 
ATOM     79  C   UNL A   1      43.264  36.810  33.616  1.00  0.00     0.001 A 
ATOM     80  C   UNL A   1      43.942  37.452  31.388  1.00  0.00     0.001 A 
ATOM     81  C   UNL A   1      43.787  37.760  32.739  1.00  0.00     0.000 A 
ENDBRANCH  63  76
ENDBRANCH  37  38
ENDBRANCH  29  32
ENDBRANCH  27  28
ENDBRANCH  26  27
ENDBRANCH  25  26
ENDBRANCH   1  25
TORSDOF 16
ENDMDL
