MODEL 1
REMARK VINA RESULT:     -10.3      0.000      0.000
REMARK SMILES C[N@H+]1CCO[C@@H](C[N@H+]2CCCC[C@@H]2CCC(=O)NCCCCCCNC(=O)c2ccc(-c3c4nc(c(-c5ccccc5)c5ccc([nH]5)c(-c5ccccc5)c5nc(c(-c6ccccc6)c6ccc3[nH]6)C=C5)C=C4)cc2)C1
REMARK SMILES IDX 20 1 19 2 18 3 16 4 17 5 15 7 14 8 13 9 8 10 9 11 10 13
REMARK SMILES IDX 12 14 11 15 7 16 6 17 1 18 2 19 3 20 76 21 4 23 5 24 21 25
REMARK SMILES IDX 22 26 23 27 24 28 25 29 26 30 27 32 28 33 29 34 75 35 30 36
REMARK SMILES IDX 74 37 31 38 32 39 33 40 68 41 34 42 73 43 67 44 69 45 35 46
REMARK SMILES IDX 72 47 66 48 65 49 36 51 58 52 43 53 57 54 44 55 47 56 56 57
REMARK SMILES IDX 70 58 45 59 46 60 55 62 71 63 48 64 37 65 38 66 42 67 39 68
REMARK SMILES IDX 41 69 40 70 59 71 60 72 64 73 61 74 63 75 62 76 49 77 50 78
REMARK SMILES IDX 54 79 51 80 53 81 52 82
REMARK H PARENT 18 6 8 12 2 22 25 31 69 50 47 61
REMARK Flexibility Score: inf
ROOT
ATOM      1  C   UNL A   1      35.576  32.050  28.023  1.00  0.00     0.021 C 
ENDROOT
BRANCH   1   2
ATOM      2  C   UNL A   1      35.453  30.527  27.960  1.00  0.00     0.116 C 
BRANCH   2   3
ATOM      3  N   UNL A   1      34.062  30.122  28.013  1.00  0.00    -0.356 N 
ATOM      4  C   UNL A   1      33.307  29.459  27.093  1.00  0.00     0.220 C 
ATOM      5  O   UNL A   1      32.102  29.325  27.313  1.00  0.00    -0.275 OA
ATOM      6  H   UNL A   1      33.589  30.362  28.843  1.00  0.00     0.163 HD
BRANCH   4   7
ATOM      7  C   UNL A   1      33.933  28.902  25.826  1.00  0.00     0.106 C 
BRANCH   7   8
ATOM      8  C   UNL A   1      33.378  27.518  25.468  1.00  0.00     0.075 C 
BRANCH   8   9
ATOM      9  C   UNL A   1      32.387  27.523  24.277  1.00  0.00     0.184 C 
ATOM     10  N   UNL A   1      31.039  27.778  24.794  1.00  0.00    -0.330 N 
ATOM     11  C   UNL A   1      30.360  26.635  25.383  1.00  0.00     0.262 C 
ATOM     12  H   UNL A   1      31.235  28.327  25.630  1.00  0.00     0.348 HD
ATOM     13  C   UNL A   1      30.393  25.382  24.510  1.00  0.00     0.062 C 
ATOM     14  C   UNL A   1      32.470  26.248  23.419  1.00  0.00     0.065 C 
ATOM     15  C   UNL A   1      31.810  25.041  24.074  1.00  0.00     0.012 C 
BRANCH  10  16
ATOM     16  C   UNL A   1      30.226  28.766  24.079  1.00  0.00     0.300 C 
BRANCH  16  17
ATOM     17  C   UNL A   1      29.357  28.355  22.865  1.00  0.00     0.228 C 
ATOM     18  C   UNL A   1      27.627  31.043  23.710  1.00  0.00     0.332 C 
ATOM     19  N   UNL A   1      27.452  30.099  22.612  1.00  0.00    -0.333 N 
ATOM     20  C   UNL A   1      28.154  30.531  21.395  1.00  0.00     0.290 C 
ATOM     21  C   UNL A   1      27.848  28.716  22.941  1.00  0.00     0.300 C 
ATOM     22  H   UNL A   1      26.447  30.096  22.441  1.00  0.00     0.348 HD
ATOM     23  C   UNL A   1      29.662  30.266  21.453  1.00  0.00     0.222 C 
ATOM     24  O   UNL A   1      29.940  28.871  21.638  1.00  0.00    -0.361 OA
ENDBRANCH  16  17
ENDBRANCH  10  16
ENDBRANCH   8   9
ENDBRANCH   7   8
ENDBRANCH   4   7
ENDBRANCH   2   3
ENDBRANCH   1   2
BRANCH   1  25
ATOM     25  C   UNL A   1      34.542  32.744  28.908  1.00  0.00     0.002 C 
BRANCH  25  26
ATOM     26  C   UNL A   1      34.602  34.275  28.889  1.00  0.00     0.002 C 
BRANCH  26  27
ATOM     27  C   UNL A   1      33.252  35.004  28.919  1.00  0.00     0.021 C 
BRANCH  27  28
ATOM     28  C   UNL A   1      33.228  36.317  29.701  1.00  0.00     0.116 C 
BRANCH  28  29
ATOM     29  N   UNL A   1      32.405  36.229  30.897  1.00  0.00    -0.352 N 
ATOM     30  C   UNL A   1      32.571  35.513  32.056  1.00  0.00     0.251 C 
ATOM     31  H   UNL A   1      31.588  36.777  30.871  1.00  0.00     0.163 HD
ATOM     32  O   UNL A   1      31.634  35.427  32.846  1.00  0.00    -0.269 OA
BRANCH  30  33
ATOM     33  C   UNL A   1      33.851  34.841  32.383  1.00  0.00     0.039 A 
ATOM     34  C   UNL A   1      33.826  33.497  32.769  1.00  0.00     0.014 A 
ATOM     35  C   UNL A   1      35.064  35.532  32.397  1.00  0.00     0.014 A 
ATOM     36  C   UNL A   1      35.014  32.843  33.116  1.00  0.00     0.010 A 
ATOM     37  C   UNL A   1      36.257  34.869  32.683  1.00  0.00     0.010 A 
ATOM     38  C   UNL A   1      36.244  33.518  33.053  1.00  0.00    -0.014 A 
BRANCH  38  39
ATOM     39  C   UNL A   1      37.517  32.813  33.345  1.00  0.00     0.031 A 
ATOM     40  C   UNL A   1      38.273  33.070  34.620  1.00  0.00     0.074 A 
ATOM     41  C   UNL A   1      38.025  31.971  32.425  1.00  0.00     0.049 A 
ATOM     42  N   UNL A   1      39.381  32.517  35.047  1.00  0.00    -0.248 NA
ATOM     43  C   UNL A   1      37.726  34.094  35.524  1.00  0.00     0.031 C 
ATOM     44  C   UNL A   1      37.423  31.677  31.122  1.00  0.00     0.029 A 
ATOM     45  N   UNL A   1      39.162  31.202  32.448  1.00  0.00    -0.354 N 
ATOM     46  C   UNL A   1      39.671  33.134  36.258  1.00  0.00     0.074 A 
ATOM     47  C   UNL A   1      38.648  34.133  36.476  1.00  0.00     0.031 C 
ATOM     48  C   UNL A   1      38.173  30.760  30.491  1.00  0.00     0.029 A 
ATOM     49  C   UNL A   1      39.319  30.423  31.328  1.00  0.00     0.049 A 
ATOM     50  H   UNL A   1      39.803  31.209  33.196  1.00  0.00     0.167 HD
ATOM     51  C   UNL A   1      40.686  32.879  37.120  1.00  0.00     0.031 A 
ATOM     52  C   UNL A   1      40.273  29.528  31.015  1.00  0.00     0.031 A 
ATOM     53  C   UNL A   1      41.702  31.882  36.909  1.00  0.00     0.049 A 
ATOM     54  C   UNL A   1      41.384  29.259  31.989  1.00  0.00     0.074 A 
ATOM     55  C   UNL A   1      42.724  31.496  37.759  1.00  0.00     0.029 A 
ATOM     56  N   UNL A   1      41.828  31.117  35.760  1.00  0.00    -0.354 N 
ATOM     57  N   UNL A   1      41.589  29.781  33.174  1.00  0.00    -0.248 NA
ATOM     58  C   UNL A   1      42.386  28.264  31.584  1.00  0.00     0.031 C 
ATOM     59  C   UNL A   1      43.500  30.533  37.104  1.00  0.00     0.029 A 
ATOM     60  C   UNL A   1      42.930  30.282  35.867  1.00  0.00     0.049 A 
ATOM     61  H   UNL A   1      41.226  31.160  34.983  1.00  0.00     0.167 HD
ATOM     62  C   UNL A   1      42.726  29.158  33.667  1.00  0.00     0.074 A 
ATOM     63  C   UNL A   1      43.157  28.210  32.661  1.00  0.00     0.031 C 
ATOM     64  C   UNL A   1      43.354  29.352  34.853  1.00  0.00     0.031 A 
BRANCH  51  65
ATOM     65  C   UNL A   1      40.750  33.709  38.374  1.00  0.00    -0.014 A 
ATOM     66  C   UNL A   1      40.078  33.316  39.542  1.00  0.00     0.009 A 
ATOM     67  C   UNL A   1      41.515  34.886  38.395  1.00  0.00     0.009 A 
ATOM     68  C   UNL A   1      40.137  34.106  40.693  1.00  0.00     0.001 A 
ATOM     69  C   UNL A   1      41.595  35.659  39.555  1.00  0.00     0.001 A 
ATOM     70  C   UNL A   1      40.898  35.274  40.700  1.00  0.00     0.000 A 
ENDBRANCH  51  65
BRANCH  52  71
ATOM     71  C   UNL A   1      40.188  28.775  29.738  1.00  0.00    -0.014 A 
ATOM     72  C   UNL A   1      39.498  27.554  29.684  1.00  0.00     0.009 A 
ATOM     73  C   UNL A   1      40.787  29.271  28.570  1.00  0.00     0.009 A 
ATOM     74  C   UNL A   1      39.428  26.833  28.491  1.00  0.00     0.001 A 
ATOM     75  C   UNL A   1      40.693  28.559  27.372  1.00  0.00     0.001 A 
ATOM     76  C   UNL A   1      40.021  27.339  27.335  1.00  0.00     0.000 A 
ENDBRANCH  52  71
BRANCH  64  77
ATOM     77  C   UNL A   1      44.560  28.498  35.132  1.00  0.00    -0.014 A 
ATOM     78  C   UNL A   1      44.431  27.210  35.673  1.00  0.00     0.009 A 
ATOM     79  C   UNL A   1      45.841  28.988  34.837  1.00  0.00     0.009 A 
ATOM     80  C   UNL A   1      45.565  26.444  35.951  1.00  0.00     0.001 A 
ATOM     81  C   UNL A   1      46.972  28.209  35.090  1.00  0.00     0.001 A 
ATOM     82  C   UNL A   1      46.834  26.944  35.657  1.00  0.00     0.000 A 
ENDBRANCH  64  77
ENDBRANCH  38  39
ENDBRANCH  30  33
ENDBRANCH  28  29
ENDBRANCH  27  28
ENDBRANCH  26  27
ENDBRANCH  25  26
ENDBRANCH   1  25
TORSDOF 17
ENDMDL
MODEL 2
REMARK VINA RESULT:     -10.2      3.817      5.646
REMARK SMILES C[N@H+]1CCO[C@@H](C[N@H+]2CCCC[C@@H]2CCC(=O)NCCCCCCNC(=O)c2ccc(-c3c4nc(c(-c5ccccc5)c5ccc([nH]5)c(-c5ccccc5)c5nc(c(-c6ccccc6)c6ccc3[nH]6)C=C5)C=C4)cc2)C1
REMARK SMILES IDX 20 1 19 2 18 3 16 4 17 5 15 7 14 8 13 9 8 10 9 11 10 13
REMARK SMILES IDX 12 14 11 15 7 16 6 17 1 18 2 19 3 20 76 21 4 23 5 24 21 25
REMARK SMILES IDX 22 26 23 27 24 28 25 29 26 30 27 32 28 33 29 34 75 35 30 36
REMARK SMILES IDX 74 37 31 38 32 39 33 40 68 41 34 42 73 43 67 44 69 45 35 46
REMARK SMILES IDX 72 47 66 48 65 49 36 51 58 52 43 53 57 54 44 55 47 56 56 57
REMARK SMILES IDX 70 58 45 59 46 60 55 62 71 63 48 64 37 65 38 66 42 67 39 68
REMARK SMILES IDX 41 69 40 70 59 71 60 72 64 73 61 74 63 75 62 76 49 77 50 78
REMARK SMILES IDX 54 79 51 80 53 81 52 82
REMARK H PARENT 18 6 8 12 2 22 25 31 69 50 47 61
REMARK Flexibility Score: inf
ROOT
ATOM      1  C   UNL A   1      31.417  28.320  26.909  1.00  0.00     0.021 C 
ENDROOT
BRANCH   1   2
ATOM      2  C   UNL A   1      31.549  27.099  25.996  1.00  0.00     0.116 C 
BRANCH   2   3
ATOM      3  N   UNL A   1      31.251  25.880  26.723  1.00  0.00    -0.356 N 
ATOM      4  C   UNL A   1      31.845  24.655  26.659  1.00  0.00     0.220 C 
ATOM      5  O   UNL A   1      31.340  23.728  27.296  1.00  0.00    -0.275 OA
ATOM      6  H   UNL A   1      30.505  25.947  27.363  1.00  0.00     0.163 HD
BRANCH   4   7
ATOM      7  C   UNL A   1      33.093  24.436  25.823  1.00  0.00     0.106 C 
BRANCH   7   8
ATOM      8  C   UNL A   1      33.760  23.088  26.122  1.00  0.00     0.075 C 
BRANCH   8   9
ATOM      9  C   UNL A   1      33.986  22.203  24.870  1.00  0.00     0.184 C 
ATOM     10  N   UNL A   1      34.834  21.068  25.249  1.00  0.00    -0.330 N 
ATOM     11  C   UNL A   1      36.258  21.344  25.340  1.00  0.00     0.262 C 
ATOM     12  H   UNL A   1      34.605  20.955  26.236  1.00  0.00     0.348 HD
ATOM     13  C   UNL A   1      36.822  22.077  24.124  1.00  0.00     0.062 C 
ATOM     14  C   UNL A   1      34.539  22.991  23.668  1.00  0.00     0.065 C 
ATOM     15  C   UNL A   1      36.018  23.328  23.802  1.00  0.00     0.012 C 
BRANCH  10  16
ATOM     16  C   UNL A   1      34.420  19.742  24.784  1.00  0.00     0.300 C 
BRANCH  16  17
ATOM     17  C   UNL A   1      32.921  19.371  24.665  1.00  0.00     0.228 C 
ATOM     18  C   UNL A   1      34.116  16.741  23.059  1.00  0.00     0.332 C 
ATOM     19  N   UNL A   1      32.748  17.113  23.399  1.00  0.00    -0.333 N 
ATOM     20  C   UNL A   1      32.325  16.546  24.687  1.00  0.00     0.290 C 
ATOM     21  C   UNL A   1      32.505  18.568  23.402  1.00  0.00     0.300 C 
ATOM     22  H   UNL A   1      32.184  16.712  22.650  1.00  0.00     0.348 HD
ATOM     23  C   UNL A   1      32.888  17.312  25.888  1.00  0.00     0.222 C 
ATOM     24  O   UNL A   1      32.479  18.686  25.868  1.00  0.00    -0.361 OA
ENDBRANCH  16  17
ENDBRANCH  10  16
ENDBRANCH   8   9
ENDBRANCH   7   8
ENDBRANCH   4   7
ENDBRANCH   2   3
ENDBRANCH   1   2
BRANCH   1  25
ATOM     25  C   UNL A   1      32.120  29.579  26.405  1.00  0.00     0.002 C 
BRANCH  25  26
ATOM     26  C   UNL A   1      31.192  30.632  25.790  1.00  0.00     0.002 C 
BRANCH  26  27
ATOM     27  C   UNL A   1      31.197  32.012  26.462  1.00  0.00     0.021 C 
BRANCH  27  28
ATOM     28  C   UNL A   1      32.535  32.451  27.055  1.00  0.00     0.116 C 
BRANCH  28  29
ATOM     29  N   UNL A   1      32.458  33.769  27.667  1.00  0.00    -0.352 N 
ATOM     30  C   UNL A   1      33.242  34.370  28.620  1.00  0.00     0.251 C 
ATOM     31  H   UNL A   1      31.714  34.326  27.341  1.00  0.00     0.163 HD
ATOM     32  O   UNL A   1      32.857  35.413  29.142  1.00  0.00    -0.269 OA
BRANCH  30  33
ATOM     33  C   UNL A   1      34.543  33.794  29.037  1.00  0.00     0.039 A 
ATOM     34  C   UNL A   1      34.564  32.861  30.079  1.00  0.00     0.014 A 
ATOM     35  C   UNL A   1      35.750  34.220  28.478  1.00  0.00     0.014 A 
ATOM     36  C   UNL A   1      35.779  32.325  30.518  1.00  0.00     0.010 A 
ATOM     37  C   UNL A   1      36.958  33.643  28.871  1.00  0.00     0.010 A 
ATOM     38  C   UNL A   1      36.985  32.694  29.900  1.00  0.00    -0.014 A 
BRANCH  38  39
ATOM     39  C   UNL A   1      38.272  32.074  30.307  1.00  0.00     0.031 A 
ATOM     40  C   UNL A   1      39.161  32.728  31.330  1.00  0.00     0.074 A 
ATOM     41  C   UNL A   1      38.668  30.935  29.709  1.00  0.00     0.049 A 
ATOM     42  N   UNL A   1      40.299  32.307  31.822  1.00  0.00    -0.248 NA
ATOM     43  C   UNL A   1      38.727  34.033  31.852  1.00  0.00     0.031 C 
ATOM     44  C   UNL A   1      37.928  30.229  28.660  1.00  0.00     0.029 A 
ATOM     45  N   UNL A   1      39.789  30.167  29.901  1.00  0.00    -0.354 N 
ATOM     46  C   UNL A   1      40.723  33.298  32.698  1.00  0.00     0.074 A 
ATOM     47  C   UNL A   1      39.744  34.361  32.637  1.00  0.00     0.031 C 
ATOM     48  C   UNL A   1      38.593  29.109  28.334  1.00  0.00     0.029 A 
ATOM     49  C   UNL A   1      39.816  29.034  29.126  1.00  0.00     0.049 A 
ATOM     50  H   UNL A   1      40.505  30.406  30.534  1.00  0.00     0.167 HD
ATOM     51  C   UNL A   1      41.819  33.315  33.497  1.00  0.00     0.031 A 
ATOM     52  C   UNL A   1      40.718  28.037  29.069  1.00  0.00     0.031 A 
ATOM     53  C   UNL A   1      42.792  32.257  33.565  1.00  0.00     0.049 A 
ATOM     54  C   UNL A   1      41.921  28.075  29.967  1.00  0.00     0.074 A 
ATOM     55  C   UNL A   1      43.892  32.146  34.398  1.00  0.00     0.029 A 
ATOM     56  N   UNL A   1      42.786  31.127  32.761  1.00  0.00    -0.354 N 
ATOM     57  N   UNL A   1      42.256  28.974  30.861  1.00  0.00    -0.248 NA
ATOM     58  C   UNL A   1      42.860  26.951  29.856  1.00  0.00     0.031 C 
ATOM     59  C   UNL A   1      44.580  30.975  34.064  1.00  0.00     0.029 A 
ATOM     60  C   UNL A   1      43.880  30.329  33.058  1.00  0.00     0.049 A 
ATOM     61  H   UNL A   1      42.106  30.923  32.080  1.00  0.00     0.167 HD
ATOM     62  C   UNL A   1      43.430  28.509  31.438  1.00  0.00     0.074 A 
ATOM     63  C   UNL A   1      43.739  27.244  30.804  1.00  0.00     0.031 C 
ATOM     64  C   UNL A   1      44.182  29.079  32.412  1.00  0.00     0.031 A 
BRANCH  51  65
ATOM     65  C   UNL A   1      42.027  34.532  34.357  1.00  0.00    -0.014 A 
ATOM     66  C   UNL A   1      42.724  35.652  33.877  1.00  0.00     0.009 A 
ATOM     67  C   UNL A   1      41.496  34.570  35.656  1.00  0.00     0.009 A 
ATOM     68  C   UNL A   1      42.920  36.769  34.694  1.00  0.00     0.001 A 
ATOM     69  C   UNL A   1      41.669  35.698  36.461  1.00  0.00     0.001 A 
ATOM     70  C   UNL A   1      42.390  36.791  35.983  1.00  0.00     0.000 A 
ENDBRANCH  51  65
BRANCH  52  71
ATOM     71  C   UNL A   1      40.489  26.884  28.161  1.00  0.00    -0.014 A 
ATOM     72  C   UNL A   1      39.778  25.762  28.612  1.00  0.00     0.009 A 
ATOM     73  C   UNL A   1      40.969  26.901  26.843  1.00  0.00     0.009 A 
ATOM     74  C   UNL A   1      39.573  24.668  27.770  1.00  0.00     0.001 A 
ATOM     75  C   UNL A   1      40.740  25.816  25.994  1.00  0.00     0.001 A 
ATOM     76  C   UNL A   1      40.048  24.699  26.461  1.00  0.00     0.000 A 
ENDBRANCH  52  71
BRANCH  64  77
ATOM     77  C   UNL A   1      45.397  28.319  32.865  1.00  0.00    -0.014 A 
ATOM     78  C   UNL A   1      45.322  27.377  33.903  1.00  0.00     0.009 A 
ATOM     79  C   UNL A   1      46.631  28.542  32.237  1.00  0.00     0.009 A 
ATOM     80  C   UNL A   1      46.468  26.703  34.329  1.00  0.00     0.001 A 
ATOM     81  C   UNL A   1      47.770  27.846  32.645  1.00  0.00     0.001 A 
ATOM     82  C   UNL A   1      47.690  26.936  33.698  1.00  0.00     0.000 A 
ENDBRANCH  64  77
ENDBRANCH  38  39
ENDBRANCH  30  33
ENDBRANCH  28  29
ENDBRANCH  27  28
ENDBRANCH  26  27
ENDBRANCH  25  26
ENDBRANCH   1  25
TORSDOF 17
ENDMDL
MODEL 3
REMARK VINA RESULT:     -10.1      3.702      7.935
REMARK SMILES C[N@H+]1CCO[C@@H](C[N@H+]2CCCC[C@@H]2CCC(=O)NCCCCCCNC(=O)c2ccc(-c3c4nc(c(-c5ccccc5)c5ccc([nH]5)c(-c5ccccc5)c5nc(c(-c6ccccc6)c6ccc3[nH]6)C=C5)C=C4)cc2)C1
REMARK SMILES IDX 20 1 19 2 18 3 16 4 17 5 15 7 14 8 13 9 8 10 9 11 10 13
REMARK SMILES IDX 12 14 11 15 7 16 6 17 1 18 2 19 3 20 76 21 4 23 5 24 21 25
REMARK SMILES IDX 22 26 23 27 24 28 25 29 26 30 27 32 28 33 29 34 75 35 30 36
REMARK SMILES IDX 74 37 31 38 32 39 33 40 68 41 34 42 73 43 67 44 69 45 35 46
REMARK SMILES IDX 72 47 66 48 65 49 36 51 58 52 43 53 57 54 44 55 47 56 56 57
REMARK SMILES IDX 70 58 45 59 46 60 55 62 71 63 48 64 37 65 38 66 42 67 39 68
REMARK SMILES IDX 41 69 40 70 59 71 60 72 64 73 61 74 63 75 62 76 49 77 50 78
REMARK SMILES IDX 54 79 51 80 53 81 52 82
REMARK H PARENT 18 6 8 12 2 22 25 31 69 50 47 61
REMARK Flexibility Score: inf
ROOT
ATOM      1  C   UNL A   1      31.416  28.311  26.939  1.00  0.00     0.021 C 
ENDROOT
BRANCH   1   2
ATOM      2  C   UNL A   1      31.578  27.097  26.021  1.00  0.00     0.116 C 
BRANCH   2   3
ATOM      3  N   UNL A   1      31.249  25.873  26.726  1.00  0.00    -0.356 N 
ATOM      4  C   UNL A   1      31.833  24.644  26.665  1.00  0.00     0.220 C 
ATOM      5  O   UNL A   1      31.303  23.714  27.276  1.00  0.00    -0.275 OA
ATOM      6  H   UNL A   1      30.486  25.940  27.345  1.00  0.00     0.163 HD
BRANCH   4   7
ATOM      7  C   UNL A   1      33.104  24.423  25.863  1.00  0.00     0.106 C 
BRANCH   7   8
ATOM      8  C   UNL A   1      33.751  23.067  26.168  1.00  0.00     0.075 C 
BRANCH   8   9
ATOM      9  C   UNL A   1      33.991  22.185  24.916  1.00  0.00     0.184 C 
ATOM     10  N   UNL A   1      34.832  21.047  25.303  1.00  0.00    -0.330 N 
ATOM     11  C   UNL A   1      36.256  21.321  25.411  1.00  0.00     0.262 C 
ATOM     12  H   UNL A   1      34.591  20.933  26.287  1.00  0.00     0.348 HD
ATOM     13  C   UNL A   1      36.835  22.055  24.203  1.00  0.00     0.062 C 
ATOM     14  C   UNL A   1      34.559  22.974  23.723  1.00  0.00     0.065 C 
ATOM     15  C   UNL A   1      36.038  23.309  23.875  1.00  0.00     0.012 C 
BRANCH  10  16
ATOM     16  C   UNL A   1      34.421  19.723  24.830  1.00  0.00     0.300 C 
BRANCH  16  17
ATOM     17  C   UNL A   1      32.923  19.345  24.720  1.00  0.00     0.228 C 
ATOM     18  C   UNL A   1      34.112  16.779  23.009  1.00  0.00     0.332 C 
ATOM     19  N   UNL A   1      32.747  17.129  23.382  1.00  0.00    -0.333 N 
ATOM     20  C   UNL A   1      32.347  16.516  24.657  1.00  0.00     0.290 C 
ATOM     21  C   UNL A   1      32.494  18.582  23.438  1.00  0.00     0.300 C 
ATOM     22  H   UNL A   1      32.175  16.749  22.629  1.00  0.00     0.348 HD
ATOM     23  C   UNL A   1      32.923  17.246  25.874  1.00  0.00     0.222 C 
ATOM     24  O   UNL A   1      32.504  18.617  25.906  1.00  0.00    -0.361 OA
ENDBRANCH  16  17
ENDBRANCH  10  16
ENDBRANCH   8   9
ENDBRANCH   7   8
ENDBRANCH   4   7
ENDBRANCH   2   3
ENDBRANCH   1   2
BRANCH   1  25
ATOM     25  C   UNL A   1      32.131  29.575  26.467  1.00  0.00     0.002 C 
BRANCH  25  26
ATOM     26  C   UNL A   1      31.221  30.624  25.816  1.00  0.00     0.002 C 
BRANCH  26  27
ATOM     27  C   UNL A   1      31.204  32.008  26.480  1.00  0.00     0.021 C 
BRANCH  27  28
ATOM     28  C   UNL A   1      32.521  32.449  27.118  1.00  0.00     0.116 C 
BRANCH  28  29
ATOM     29  N   UNL A   1      32.460  33.816  27.614  1.00  0.00    -0.352 N 
ATOM     30  C   UNL A   1      33.230  34.476  28.538  1.00  0.00     0.251 C 
ATOM     31  H   UNL A   1      31.742  34.360  27.217  1.00  0.00     0.163 HD
ATOM     32  O   UNL A   1      32.857  35.569  28.956  1.00  0.00    -0.269 OA
BRANCH  30  33
ATOM     33  C   UNL A   1      34.502  33.907  29.044  1.00  0.00     0.039 A 
ATOM     34  C   UNL A   1      34.480  33.155  30.224  1.00  0.00     0.014 A 
ATOM     35  C   UNL A   1      35.725  34.171  28.426  1.00  0.00     0.014 A 
ATOM     36  C   UNL A   1      35.669  32.634  30.746  1.00  0.00     0.010 A 
ATOM     37  C   UNL A   1      36.904  33.602  28.909  1.00  0.00     0.010 A 
ATOM     38  C   UNL A   1      36.888  32.833  30.079  1.00  0.00    -0.014 A 
BRANCH  38  39
ATOM     39  C   UNL A   1      38.143  32.220  30.583  1.00  0.00     0.031 A 
ATOM     40  C   UNL A   1      38.681  30.948  29.987  1.00  0.00     0.074 A 
ATOM     41  C   UNL A   1      38.777  32.789  31.626  1.00  0.00     0.049 A 
ATOM     42  N   UNL A   1      39.778  30.297  30.286  1.00  0.00    -0.248 NA
ATOM     43  C   UNL A   1      37.874  30.312  28.934  1.00  0.00     0.031 C 
ATOM     44  C   UNL A   1      38.330  33.991  32.334  1.00  0.00     0.029 A 
ATOM     45  N   UNL A   1      39.936  32.435  32.269  1.00  0.00    -0.354 N 
ATOM     46  C   UNL A   1      39.786  29.172  29.470  1.00  0.00     0.074 A 
ATOM     47  C   UNL A   1      38.563  29.205  28.697  1.00  0.00     0.031 C 
ATOM     48  C   UNL A   1      39.228  34.298  33.283  1.00  0.00     0.029 A 
ATOM     49  C   UNL A   1      40.294  33.303  33.271  1.00  0.00     0.049 A 
ATOM     50  H   UNL A   1      40.460  31.635  32.035  1.00  0.00     0.167 HD
ATOM     51  C   UNL A   1      40.733  28.208  29.361  1.00  0.00     0.031 A 
ATOM     52  C   UNL A   1      41.368  33.306  34.081  1.00  0.00     0.031 A 
ATOM     53  C   UNL A   1      41.953  28.176  30.124  1.00  0.00     0.049 A 
ATOM     54  C   UNL A   1      42.406  32.231  33.937  1.00  0.00     0.074 A 
ATOM     55  C   UNL A   1      43.009  27.285  30.028  1.00  0.00     0.029 A 
ATOM     56  N   UNL A   1      42.276  29.072  31.131  1.00  0.00    -0.354 N 
ATOM     57  N   UNL A   1      42.446  31.228  33.093  1.00  0.00    -0.248 NA
ATOM     58  C   UNL A   1      43.556  32.300  34.849  1.00  0.00     0.031 C 
ATOM     59  C   UNL A   1      43.948  27.612  31.012  1.00  0.00     0.029 A 
ATOM     60  C   UNL A   1      43.502  28.737  31.685  1.00  0.00     0.049 A 
ATOM     61  H   UNL A   1      41.718  29.832  31.411  1.00  0.00     0.167 HD
ATOM     62  C   UNL A   1      43.636  30.564  33.354  1.00  0.00     0.074 A 
ATOM     63  C   UNL A   1      44.296  31.286  34.423  1.00  0.00     0.031 C 
ATOM     64  C   UNL A   1      44.141  29.457  32.756  1.00  0.00     0.031 A 
BRANCH  51  65
ATOM     65  C   UNL A   1      40.475  27.096  28.379  1.00  0.00    -0.014 A 
ATOM     66  C   UNL A   1      39.771  25.942  28.756  1.00  0.00     0.009 A 
ATOM     67  C   UNL A   1      40.920  27.217  27.053  1.00  0.00     0.009 A 
ATOM     68  C   UNL A   1      39.553  24.913  27.836  1.00  0.00     0.001 A 
ATOM     69  C   UNL A   1      40.676  26.200  26.128  1.00  0.00     0.001 A 
ATOM     70  C   UNL A   1      40.003  25.044  26.523  1.00  0.00     0.000 A 
ENDBRANCH  51  65
BRANCH  52  71
ATOM     71  C   UNL A   1      41.545  34.400  35.069  1.00  0.00    -0.014 A 
ATOM     72  C   UNL A   1      42.282  35.545  34.729  1.00  0.00     0.009 A 
ATOM     73  C   UNL A   1      40.977  34.311  36.349  1.00  0.00     0.009 A 
ATOM     74  C   UNL A   1      42.466  36.570  35.659  1.00  0.00     0.001 A 
ATOM     75  C   UNL A   1      41.142  35.350  37.268  1.00  0.00     0.001 A 
ATOM     76  C   UNL A   1      41.891  36.474  36.924  1.00  0.00     0.000 A 
ENDBRANCH  52  71
BRANCH  64  77
ATOM     77  C   UNL A   1      45.485  28.980  33.232  1.00  0.00    -0.014 A 
ATOM     78  C   UNL A   1      46.673  29.454  32.656  1.00  0.00     0.009 A 
ATOM     79  C   UNL A   1      45.560  28.049  34.280  1.00  0.00     0.009 A 
ATOM     80  C   UNL A   1      47.910  28.976  33.093  1.00  0.00     0.001 A 
ATOM     81  C   UNL A   1      46.799  27.593  34.734  1.00  0.00     0.001 A 
ATOM     82  C   UNL A   1      47.971  28.048  34.133  1.00  0.00     0.000 A 
ENDBRANCH  64  77
ENDBRANCH  38  39
ENDBRANCH  30  33
ENDBRANCH  28  29
ENDBRANCH  27  28
ENDBRANCH  26  27
ENDBRANCH  25  26
ENDBRANCH   1  25
TORSDOF 17
ENDMDL
