MODEL 1
REMARK VINA RESULT:      -9.3      0.000      0.000
REMARK SMILES CNc1nccc(-c2cc(C(=O)NCCCCCCNC(=O)c3ccc(-c4c5nc(c(-c6ccccc6)c6ccc([nH]6)c(-c6ccccc6)c6nc(c(-c7ccccc7)c7ccc4[nH]7)C=C6)C=C5)cc3)ccn2)n1
REMARK SMILES IDX 16 1 15 2 14 3 13 4 11 5 12 6 10 8 8 9 9 10 73 11 72 12
REMARK SMILES IDX 71 13 7 14 3 15 4 16 74 17 5 18 6 19 2 20 1 21 17 23 18 24
REMARK SMILES IDX 19 25 20 26 21 27 22 29 23 30 24 31 70 32 25 33 69 34 26 35
REMARK SMILES IDX 27 36 28 37 63 38 29 39 68 40 62 41 64 42 30 43 67 44 61 45
REMARK SMILES IDX 60 46 31 48 53 49 38 50 52 51 39 52 42 53 51 54 65 55 40 56
REMARK SMILES IDX 41 57 50 59 66 60 43 61 32 62 33 63 37 64 34 65 36 66 35 67
REMARK SMILES IDX 54 68 55 69 59 70 56 71 58 72 57 73 44 74 45 75 49 76 46 77
REMARK SMILES IDX 48 78 47 79
REMARK H PARENT 13 7 2 22 20 28 64 47 42 58
REMARK Flexibility Score: inf
ROOT
ATOM      1  C   UNL A   1      34.896  35.675  32.745  1.00  0.00     0.002 C 
ENDROOT
BRANCH   1   2
ATOM      2  C   UNL A   1      34.785  34.714  33.938  1.00  0.00     0.021 C 
BRANCH   2   3
ATOM      3  C   UNL A   1      35.870  33.635  33.935  1.00  0.00     0.116 C 
BRANCH   3   4
ATOM      4  N   UNL A   1      36.650  33.719  35.154  1.00  0.00    -0.352 N 
ATOM      5  C   UNL A   1      37.660  32.957  35.681  1.00  0.00     0.251 C 
ATOM      6  O   UNL A   1      38.101  33.287  36.783  1.00  0.00    -0.269 OA
ATOM      7  H   UNL A   1      36.402  34.483  35.724  1.00  0.00     0.163 HD
BRANCH   5   8
ATOM      8  C   UNL A   1      38.301  31.821  34.964  1.00  0.00     0.043 A 
ATOM      9  C   UNL A   1      39.924  30.079  34.685  1.00  0.00     0.090 A 
ATOM     10  C   UNL A   1      39.537  31.273  35.288  1.00  0.00     0.044 A 
ATOM     11  N   UNL A   1      39.200  29.495  33.698  1.00  0.00    -0.255 NA
ATOM     12  C   UNL A   1      38.072  30.119  33.302  1.00  0.00     0.112 A 
ATOM     13  C   UNL A   1      37.575  31.253  33.915  1.00  0.00     0.034 A 
BRANCH   9  14
ATOM     14  C   UNL A   1      41.031  29.293  35.244  1.00  0.00     0.094 A 
ATOM     15  C   UNL A   1      42.156  27.298  35.372  1.00  0.00     0.222 A 
ATOM     16  N   UNL A   1      43.082  27.806  36.197  1.00  0.00    -0.222 NA
ATOM     17  N   UNL A   1      41.134  28.001  34.865  1.00  0.00    -0.211 NA
ATOM     18  C   UNL A   1      42.972  29.102  36.521  1.00  0.00     0.117 A 
ATOM     19  C   UNL A   1      41.958  29.902  36.069  1.00  0.00     0.051 A 
BRANCH  15  20
ATOM     20  N   UNL A   1      42.365  26.001  35.002  1.00  0.00    -0.357 N 
ATOM     21  C   UNL A   1      41.762  24.911  35.710  1.00  0.00     0.143 C 
ATOM     22  H   UNL A   1      42.945  25.809  34.231  1.00  0.00     0.163 HD
ENDBRANCH  15  20
ENDBRANCH   9  14
ENDBRANCH   5   8
ENDBRANCH   3   4
ENDBRANCH   2   3
ENDBRANCH   1   2
BRANCH   1  23
ATOM     23  C   UNL A   1      33.772  36.715  32.654  1.00  0.00     0.002 C 
BRANCH  23  24
ATOM     24  C   UNL A   1      32.789  36.501  31.501  1.00  0.00     0.021 C 
BRANCH  24  25
ATOM     25  C   UNL A   1      33.454  36.346  30.137  1.00  0.00     0.116 C 
BRANCH  25  26
ATOM     26  N   UNL A   1      32.678  35.482  29.260  1.00  0.00    -0.352 N 
ATOM     27  C   UNL A   1      33.070  34.351  28.587  1.00  0.00     0.251 C 
ATOM     28  H   UNL A   1      31.739  35.745  29.131  1.00  0.00     0.163 HD
ATOM     29  O   UNL A   1      32.365  33.881  27.702  1.00  0.00    -0.269 OA
BRANCH  27  30
ATOM     30  C   UNL A   1      34.356  33.709  28.928  1.00  0.00     0.039 A 
ATOM     31  C   UNL A   1      35.460  33.919  28.099  1.00  0.00     0.014 A 
ATOM     32  C   UNL A   1      34.466  32.896  30.060  1.00  0.00     0.014 A 
ATOM     33  C   UNL A   1      36.694  33.364  28.442  1.00  0.00     0.010 A 
ATOM     34  C   UNL A   1      35.711  32.405  30.438  1.00  0.00     0.010 A 
ATOM     35  C   UNL A   1      36.836  32.632  29.633  1.00  0.00    -0.014 A 
BRANCH  35  36
ATOM     36  C   UNL A   1      38.156  32.109  30.062  1.00  0.00     0.031 A 
ATOM     37  C   UNL A   1      38.651  30.786  29.548  1.00  0.00     0.074 A 
ATOM     38  C   UNL A   1      38.875  32.793  30.975  1.00  0.00     0.049 A 
ATOM     39  N   UNL A   1      39.743  30.136  29.862  1.00  0.00    -0.248 NA
ATOM     40  C   UNL A   1      37.798  30.092  28.571  1.00  0.00     0.031 C 
ATOM     41  C   UNL A   1      38.486  34.069  31.578  1.00  0.00     0.029 A 
ATOM     42  N   UNL A   1      40.082  32.503  31.560  1.00  0.00    -0.354 N 
ATOM     43  C   UNL A   1      39.698  28.952  29.139  1.00  0.00     0.074 A 
ATOM     44  C   UNL A   1      38.450  28.951  28.406  1.00  0.00     0.031 C 
ATOM     45  C   UNL A   1      39.444  34.462  32.431  1.00  0.00     0.029 A 
ATOM     46  C   UNL A   1      40.492  33.447  32.469  1.00  0.00     0.049 A 
ATOM     47  H   UNL A   1      40.604  31.695  31.349  1.00  0.00     0.167 HD
ATOM     48  C   UNL A   1      40.619  27.961  29.076  1.00  0.00     0.031 A 
ATOM     49  C   UNL A   1      41.585  33.487  33.256  1.00  0.00     0.031 A 
ATOM     50  C   UNL A   1      41.861  27.966  29.802  1.00  0.00     0.049 A 
ATOM     51  C   UNL A   1      42.579  32.363  33.188  1.00  0.00     0.074 A 
ATOM     52  C   UNL A   1      42.888  27.040  29.757  1.00  0.00     0.029 A 
ATOM     53  N   UNL A   1      42.240  28.942  30.711  1.00  0.00    -0.354 N 
ATOM     54  N   UNL A   1      42.559  31.287  32.439  1.00  0.00    -0.248 NA
ATOM     55  C   UNL A   1      43.753  32.463  34.066  1.00  0.00     0.031 C 
ATOM     56  C   UNL A   1      43.862  27.423  30.686  1.00  0.00     0.029 A 
ATOM     57  C   UNL A   1      43.471  28.622  31.259  1.00  0.00     0.049 A 
ATOM     58  H   UNL A   1      41.713  29.743  30.932  1.00  0.00     0.167 HD
ATOM     59  C   UNL A   1      43.726  30.595  32.738  1.00  0.00     0.074 A 
ATOM     60  C   UNL A   1      44.439  31.384  33.721  1.00  0.00     0.031 C 
ATOM     61  C   UNL A   1      44.166  29.413  32.242  1.00  0.00     0.031 A 
BRANCH  48  62
ATOM     62  C   UNL A   1      40.308  26.778  28.201  1.00  0.00    -0.014 A 
ATOM     63  C   UNL A   1      39.487  25.731  28.650  1.00  0.00     0.009 A 
ATOM     64  C   UNL A   1      40.814  26.727  26.892  1.00  0.00     0.009 A 
ATOM     65  C   UNL A   1      39.211  24.641  27.822  1.00  0.00     0.001 A 
ATOM     66  C   UNL A   1      40.511  25.651  26.055  1.00  0.00     0.001 A 
ATOM     67  C   UNL A   1      39.719  24.605  26.524  1.00  0.00     0.000 A 
ENDBRANCH  48  62
BRANCH  49  68
ATOM     68  C   UNL A   1      41.795  34.635  34.177  1.00  0.00    -0.014 A 
ATOM     69  C   UNL A   1      41.308  34.594  35.492  1.00  0.00     0.009 A 
ATOM     70  C   UNL A   1      42.482  35.781  33.744  1.00  0.00     0.009 A 
ATOM     71  C   UNL A   1      41.481  35.686  36.346  1.00  0.00     0.001 A 
ATOM     72  C   UNL A   1      42.682  36.858  34.609  1.00  0.00     0.001 A 
ATOM     73  C   UNL A   1      42.172  36.814  35.906  1.00  0.00     0.000 A 
ENDBRANCH  49  68
BRANCH  61  74
ATOM     74  C   UNL A   1      45.495  28.912  32.733  1.00  0.00    -0.014 A 
ATOM     75  C   UNL A   1      46.696  29.316  32.130  1.00  0.00     0.009 A 
ATOM     76  C   UNL A   1      45.546  28.060  33.848  1.00  0.00     0.009 A 
ATOM     77  C   UNL A   1      47.920  28.852  32.615  1.00  0.00     0.001 A 
ATOM     78  C   UNL A   1      46.772  27.623  34.350  1.00  0.00     0.001 A 
ATOM     79  C   UNL A   1      47.958  28.012  33.728  1.00  0.00     0.000 A 
ENDBRANCH  61  74
ENDBRANCH  35  36
ENDBRANCH  27  30
ENDBRANCH  25  26
ENDBRANCH  24  25
ENDBRANCH  23  24
ENDBRANCH   1  23
TORSDOF 15
ENDMDL
MODEL 2
REMARK VINA RESULT:      -9.2      6.851     12.388
REMARK SMILES CNc1nccc(-c2cc(C(=O)NCCCCCCNC(=O)c3ccc(-c4c5nc(c(-c6ccccc6)c6ccc([nH]6)c(-c6ccccc6)c6nc(c(-c7ccccc7)c7ccc4[nH]7)C=C6)C=C5)cc3)ccn2)n1
REMARK SMILES IDX 16 1 15 2 14 3 13 4 11 5 12 6 10 8 8 9 9 10 73 11 72 12
REMARK SMILES IDX 71 13 7 14 3 15 4 16 74 17 5 18 6 19 2 20 1 21 17 23 18 24
REMARK SMILES IDX 19 25 20 26 21 27 22 29 23 30 24 31 70 32 25 33 69 34 26 35
REMARK SMILES IDX 27 36 28 37 63 38 29 39 68 40 62 41 64 42 30 43 67 44 61 45
REMARK SMILES IDX 60 46 31 48 53 49 38 50 52 51 39 52 42 53 51 54 65 55 40 56
REMARK SMILES IDX 41 57 50 59 66 60 43 61 32 62 33 63 37 64 34 65 36 66 35 67
REMARK SMILES IDX 54 68 55 69 59 70 56 71 58 72 57 73 44 74 45 75 49 76 46 77
REMARK SMILES IDX 48 78 47 79
REMARK H PARENT 13 7 2 22 20 28 64 47 42 58
REMARK Flexibility Score: inf
ROOT
ATOM      1  C   UNL A   1      36.695  22.025  24.120  1.00  0.00     0.002 C 
ENDROOT
BRANCH   1   2
ATOM      2  C   UNL A   1      37.039  23.325  24.862  1.00  0.00     0.021 C 
BRANCH   2   3
ATOM      3  C   UNL A   1      35.812  23.997  25.483  1.00  0.00     0.116 C 
BRANCH   3   4
ATOM      4  N   UNL A   1      35.010  24.613  24.444  1.00  0.00    -0.352 N 
ATOM      5  C   UNL A   1      33.798  24.305  23.882  1.00  0.00     0.251 C 
ATOM      6  O   UNL A   1      33.397  25.032  22.972  1.00  0.00    -0.269 OA
ATOM      7  H   UNL A   1      35.421  25.422  24.062  1.00  0.00     0.163 HD
BRANCH   5   8
ATOM      8  C   UNL A   1      32.917  23.207  24.363  1.00  0.00     0.043 A 
ATOM      9  C   UNL A   1      32.216  20.923  24.556  1.00  0.00     0.090 A 
ATOM     10  C   UNL A   1      32.931  21.905  23.875  1.00  0.00     0.044 A 
ATOM     11  N   UNL A   1      31.402  21.209  25.602  1.00  0.00    -0.255 NA
ATOM     12  C   UNL A   1      31.296  22.502  25.972  1.00  0.00     0.112 A 
ATOM     13  C   UNL A   1      32.044  23.518  25.409  1.00  0.00     0.034 A 
BRANCH   9  14
ATOM     14  C   UNL A   1      32.480  19.503  24.295  1.00  0.00     0.094 A 
ATOM     15  C   UNL A   1      32.795  17.381  25.109  1.00  0.00     0.222 A 
ATOM     16  N   UNL A   1      32.911  16.863  23.878  1.00  0.00    -0.222 NA
ATOM     17  N   UNL A   1      32.566  18.677  25.361  1.00  0.00    -0.211 NA
ATOM     18  C   UNL A   1      32.780  17.704  22.843  1.00  0.00     0.117 A 
ATOM     19  C   UNL A   1      32.562  19.046  22.993  1.00  0.00     0.051 A 
BRANCH  15  20
ATOM     20  N   UNL A   1      32.844  16.469  26.123  1.00  0.00    -0.357 N 
ATOM     21  C   UNL A   1      32.488  15.096  25.917  1.00  0.00     0.143 C 
ATOM     22  H   UNL A   1      33.130  16.761  27.018  1.00  0.00     0.163 HD
ENDBRANCH  15  20
ENDBRANCH   9  14
ENDBRANCH   5   8
ENDBRANCH   3   4
ENDBRANCH   2   3
ENDBRANCH   1   2
BRANCH   1  23
ATOM     23  C   UNL A   1      36.555  20.792  25.021  1.00  0.00     0.002 C 
BRANCH  23  24
ATOM     24  C   UNL A   1      37.733  19.817  24.966  1.00  0.00     0.021 C 
BRANCH  24  25
ATOM     25  C   UNL A   1      38.953  20.268  25.761  1.00  0.00     0.116 C 
BRANCH  25  26
ATOM     26  N   UNL A   1      39.937  19.203  25.881  1.00  0.00    -0.352 N 
ATOM     27  C   UNL A   1      41.297  19.292  26.041  1.00  0.00     0.251 C 
ATOM     28  H   UNL A   1      39.575  18.288  25.841  1.00  0.00     0.163 HD
ATOM     29  O   UNL A   1      42.006  18.305  25.881  1.00  0.00    -0.269 OA
BRANCH  27  30
ATOM     30  C   UNL A   1      41.906  20.589  26.399  1.00  0.00     0.039 A 
ATOM     31  C   UNL A   1      42.266  21.473  25.378  1.00  0.00     0.014 A 
ATOM     32  C   UNL A   1      42.126  20.927  27.736  1.00  0.00     0.014 A 
ATOM     33  C   UNL A   1      42.789  22.725  25.705  1.00  0.00     0.010 A 
ATOM     34  C   UNL A   1      42.580  22.201  28.061  1.00  0.00     0.010 A 
ATOM     35  C   UNL A   1      42.917  23.111  27.049  1.00  0.00    -0.014 A 
BRANCH  35  36
ATOM     36  C   UNL A   1      43.386  24.469  27.419  1.00  0.00     0.031 A 
ATOM     37  C   UNL A   1      42.401  25.522  27.843  1.00  0.00     0.074 A 
ATOM     38  C   UNL A   1      44.694  24.774  27.302  1.00  0.00     0.049 A 
ATOM     39  N   UNL A   1      42.613  26.781  28.135  1.00  0.00    -0.248 NA
ATOM     40  C   UNL A   1      40.989  25.116  27.925  1.00  0.00     0.031 C 
ATOM     41  C   UNL A   1      45.744  23.852  26.865  1.00  0.00     0.029 A 
ATOM     42  N   UNL A   1      45.360  25.952  27.531  1.00  0.00    -0.354 N 
ATOM     43  C   UNL A   1      41.364  27.318  28.417  1.00  0.00     0.074 A 
ATOM     44  C   UNL A   1      40.394  26.263  28.215  1.00  0.00     0.031 C 
ATOM     45  C   UNL A   1      46.924  24.491  26.879  1.00  0.00     0.029 A 
ATOM     46  C   UNL A   1      46.709  25.877  27.281  1.00  0.00     0.049 A 
ATOM     47  H   UNL A   1      44.915  26.771  27.845  1.00  0.00     0.167 HD
ATOM     48  C   UNL A   1      41.054  28.572  28.823  1.00  0.00     0.031 A 
ATOM     49  C   UNL A   1      47.666  26.822  27.355  1.00  0.00     0.031 A 
ATOM     50  C   UNL A   1      42.020  29.617  29.028  1.00  0.00     0.049 A 
ATOM     51  C   UNL A   1      47.292  28.213  27.783  1.00  0.00     0.074 A 
ATOM     52  C   UNL A   1      41.812  30.902  29.498  1.00  0.00     0.029 A 
ATOM     53  N   UNL A   1      43.376  29.501  28.766  1.00  0.00    -0.354 N 
ATOM     54  N   UNL A   1      46.116  28.684  28.121  1.00  0.00    -0.248 NA
ATOM     55  C   UNL A   1      48.378  29.200  27.848  1.00  0.00     0.031 C 
ATOM     56  C   UNL A   1      43.034  31.583  29.462  1.00  0.00     0.029 A 
ATOM     57  C   UNL A   1      44.013  30.702  29.032  1.00  0.00     0.049 A 
ATOM     58  H   UNL A   1      43.821  28.686  28.439  1.00  0.00     0.167 HD
ATOM     59  C   UNL A   1      46.325  30.014  28.463  1.00  0.00     0.074 A 
ATOM     60  C   UNL A   1      47.743  30.267  28.309  1.00  0.00     0.031 C 
ATOM     61  C   UNL A   1      45.423  30.942  28.868  1.00  0.00     0.031 A 
BRANCH  48  62
ATOM     62  C   UNL A   1      39.602  28.885  29.059  1.00  0.00    -0.014 A 
ATOM     63  C   UNL A   1      38.775  29.347  28.022  1.00  0.00     0.009 A 
ATOM     64  C   UNL A   1      39.041  28.680  30.330  1.00  0.00     0.009 A 
ATOM     65  C   UNL A   1      37.429  29.633  28.262  1.00  0.00     0.001 A 
ATOM     66  C   UNL A   1      37.688  28.938  30.560  1.00  0.00     0.001 A 
ATOM     67  C   UNL A   1      36.886  29.423  29.529  1.00  0.00     0.000 A 
ENDBRANCH  48  62
BRANCH  49  68
ATOM     68  C   UNL A   1      49.073  26.483  27.016  1.00  0.00    -0.014 A 
ATOM     69  C   UNL A   1      49.541  26.610  25.699  1.00  0.00     0.009 A 
ATOM     70  C   UNL A   1      49.955  26.025  28.007  1.00  0.00     0.009 A 
ATOM     71  C   UNL A   1      50.855  26.262  25.378  1.00  0.00     0.001 A 
ATOM     72  C   UNL A   1      51.278  25.708  27.689  1.00  0.00     0.001 A 
ATOM     73  C   UNL A   1      51.723  25.817  26.373  1.00  0.00     0.000 A 
ENDBRANCH  49  68
BRANCH  61  74
ATOM     74  C   UNL A   1      45.946  32.311  29.201  1.00  0.00    -0.014 A 
ATOM     75  C   UNL A   1      46.482  32.600  30.464  1.00  0.00     0.009 A 
ATOM     76  C   UNL A   1      45.943  33.313  28.216  1.00  0.00     0.009 A 
ATOM     77  C   UNL A   1      46.978  33.875  30.745  1.00  0.00     0.001 A 
ATOM     78  C   UNL A   1      46.468  34.575  28.490  1.00  0.00     0.001 A 
ATOM     79  C   UNL A   1      46.977  34.858  29.757  1.00  0.00     0.000 A 
ENDBRANCH  61  74
ENDBRANCH  35  36
ENDBRANCH  27  30
ENDBRANCH  25  26
ENDBRANCH  24  25
ENDBRANCH  23  24
ENDBRANCH   1  23
TORSDOF 15
ENDMDL
MODEL 3
REMARK VINA RESULT:      -9.0      6.316     11.925
REMARK SMILES CNc1nccc(-c2cc(C(=O)NCCCCCCNC(=O)c3ccc(-c4c5nc(c(-c6ccccc6)c6ccc([nH]6)c(-c6ccccc6)c6nc(c(-c7ccccc7)c7ccc4[nH]7)C=C6)C=C5)cc3)ccn2)n1
REMARK SMILES IDX 16 1 15 2 14 3 13 4 11 5 12 6 10 8 8 9 9 10 73 11 72 12
REMARK SMILES IDX 71 13 7 14 3 15 4 16 74 17 5 18 6 19 2 20 1 21 17 23 18 24
REMARK SMILES IDX 19 25 20 26 21 27 22 29 23 30 24 31 70 32 25 33 69 34 26 35
REMARK SMILES IDX 27 36 28 37 63 38 29 39 68 40 62 41 64 42 30 43 67 44 61 45
REMARK SMILES IDX 60 46 31 48 53 49 38 50 52 51 39 52 42 53 51 54 65 55 40 56
REMARK SMILES IDX 41 57 50 59 66 60 43 61 32 62 33 63 37 64 34 65 36 66 35 67
REMARK SMILES IDX 54 68 55 69 59 70 56 71 58 72 57 73 44 74 45 75 49 76 46 77
REMARK SMILES IDX 48 78 47 79
REMARK H PARENT 13 7 2 22 20 28 64 47 42 58
REMARK Flexibility Score: inf
ROOT
ATOM      1  C   UNL A   1      36.893  22.250  24.291  1.00  0.00     0.002 C 
ENDROOT
BRANCH   1   2
ATOM      2  C   UNL A   1      37.089  23.359  25.335  1.00  0.00     0.021 C 
BRANCH   2   3
ATOM      3  C   UNL A   1      35.796  24.112  25.652  1.00  0.00     0.116 C 
BRANCH   3   4
ATOM      4  N   UNL A   1      35.195  24.597  24.424  1.00  0.00    -0.352 N 
ATOM      5  C   UNL A   1      34.091  24.223  23.704  1.00  0.00     0.251 C 
ATOM      6  O   UNL A   1      33.866  24.834  22.658  1.00  0.00    -0.269 OA
ATOM      7  H   UNL A   1      35.683  25.354  24.025  1.00  0.00     0.163 HD
BRANCH   5   8
ATOM      8  C   UNL A   1      33.118  23.192  24.155  1.00  0.00     0.043 A 
ATOM      9  C   UNL A   1      32.283  20.955  24.376  1.00  0.00     0.090 A 
ATOM     10  C   UNL A   1      33.099  21.872  23.717  1.00  0.00     0.044 A 
ATOM     11  N   UNL A   1      31.408  21.325  25.344  1.00  0.00    -0.255 NA
ATOM     12  C   UNL A   1      31.343  22.635  25.656  1.00  0.00     0.112 A 
ATOM     13  C   UNL A   1      32.185  23.588  25.116  1.00  0.00     0.034 A 
BRANCH   9  14
ATOM     14  C   UNL A   1      32.490  19.514  24.190  1.00  0.00     0.094 A 
ATOM     15  C   UNL A   1      32.674  17.421  25.109  1.00  0.00     0.222 A 
ATOM     16  N   UNL A   1      32.812  16.841  23.907  1.00  0.00    -0.222 NA
ATOM     17  N   UNL A   1      32.497  18.736  25.293  1.00  0.00    -0.211 NA
ATOM     18  C   UNL A   1      32.761  17.638  22.831  1.00  0.00     0.117 A 
ATOM     19  C   UNL A   1      32.599  18.994  22.913  1.00  0.00     0.051 A 
BRANCH  15  20
ATOM     20  N   UNL A   1      32.643  16.555  26.164  1.00  0.00    -0.357 N 
ATOM     21  C   UNL A   1      32.482  15.144  25.973  1.00  0.00     0.143 C 
ATOM     22  H   UNL A   1      32.732  16.908  27.078  1.00  0.00     0.163 HD
ENDBRANCH  15  20
ENDBRANCH   9  14
ENDBRANCH   5   8
ENDBRANCH   3   4
ENDBRANCH   2   3
ENDBRANCH   1   2
BRANCH   1  23
ATOM     23  C   UNL A   1      36.741  20.840  24.877  1.00  0.00     0.002 C 
BRANCH  23  24
ATOM     24  C   UNL A   1      38.005  19.978  24.817  1.00  0.00     0.021 C 
BRANCH  24  25
ATOM     25  C   UNL A   1      38.997  20.249  25.943  1.00  0.00     0.116 C 
BRANCH  25  26
ATOM     26  N   UNL A   1      40.135  19.345  25.881  1.00  0.00    -0.352 N 
ATOM     27  C   UNL A   1      41.472  19.622  26.018  1.00  0.00     0.251 C 
ATOM     28  H   UNL A   1      39.915  18.400  25.717  1.00  0.00     0.163 HD
ATOM     29  O   UNL A   1      42.314  18.791  25.697  1.00  0.00    -0.269 OA
BRANCH  27  30
ATOM     30  C   UNL A   1      41.894  20.936  26.546  1.00  0.00     0.039 A 
ATOM     31  C   UNL A   1      42.339  21.914  25.653  1.00  0.00     0.014 A 
ATOM     32  C   UNL A   1      41.856  21.197  27.918  1.00  0.00     0.014 A 
ATOM     33  C   UNL A   1      42.686  23.178  26.133  1.00  0.00     0.010 A 
ATOM     34  C   UNL A   1      42.132  22.477  28.386  1.00  0.00     0.010 A 
ATOM     35  C   UNL A   1      42.551  23.479  27.499  1.00  0.00    -0.014 A 
BRANCH  35  36
ATOM     36  C   UNL A   1      42.828  24.841  28.018  1.00  0.00     0.031 A 
ATOM     37  C   UNL A   1      44.213  25.213  28.470  1.00  0.00     0.074 A 
ATOM     38  C   UNL A   1      41.814  25.719  28.152  1.00  0.00     0.049 A 
ATOM     39  N   UNL A   1      44.631  26.328  29.015  1.00  0.00    -0.248 NA
ATOM     40  C   UNL A   1      45.260  24.192  28.311  1.00  0.00     0.031 C 
ATOM     41  C   UNL A   1      40.419  25.465  27.785  1.00  0.00     0.029 A 
ATOM     42  N   UNL A   1      41.801  27.000  28.642  1.00  0.00    -0.354 N 
ATOM     43  C   UNL A   1      45.980  26.135  29.280  1.00  0.00     0.074 A 
ATOM     44  C   UNL A   1      46.301  24.781  28.880  1.00  0.00     0.031 C 
ATOM     45  C   UNL A   1      39.690  26.562  28.043  1.00  0.00     0.029 A 
ATOM     46  C   UNL A   1      40.555  27.579  28.633  1.00  0.00     0.049 A 
ATOM     47  H   UNL A   1      42.606  27.461  28.969  1.00  0.00     0.167 HD
ATOM     48  C   UNL A   1      46.876  27.010  29.794  1.00  0.00     0.031 A 
ATOM     49  C   UNL A   1      40.150  28.789  29.064  1.00  0.00     0.031 A 
ATOM     50  C   UNL A   1      46.556  28.356  30.186  1.00  0.00     0.049 A 
ATOM     51  C   UNL A   1      41.158  29.733  29.655  1.00  0.00     0.074 A 
ATOM     52  C   UNL A   1      47.407  29.340  30.659  1.00  0.00     0.029 A 
ATOM     53  N   UNL A   1      45.283  28.905  30.159  1.00  0.00    -0.354 N 
ATOM     54  N   UNL A   1      42.447  29.563  29.826  1.00  0.00    -0.248 NA
ATOM     55  C   UNL A   1      40.659  31.040  30.104  1.00  0.00     0.031 C 
ATOM     56  C   UNL A   1      46.637  30.465  30.977  1.00  0.00     0.029 A 
ATOM     57  C   UNL A   1      45.320  30.204  30.641  1.00  0.00     0.049 A 
ATOM     58  H   UNL A   1      44.475  28.441  29.846  1.00  0.00     0.167 HD
ATOM     59  C   UNL A   1      42.916  30.748  30.380  1.00  0.00     0.074 A 
ATOM     60  C   UNL A   1      41.776  31.634  30.496  1.00  0.00     0.031 C 
ATOM     61  C   UNL A   1      44.176  31.072  30.756  1.00  0.00     0.031 A 
BRANCH  48  62
ATOM     62  C   UNL A   1      48.290  26.530  29.976  1.00  0.00    -0.014 A 
ATOM     63  C   UNL A   1      48.750  26.065  31.219  1.00  0.00     0.009 A 
ATOM     64  C   UNL A   1      49.165  26.507  28.879  1.00  0.00     0.009 A 
ATOM     65  C   UNL A   1      50.067  25.624  31.368  1.00  0.00     0.001 A 
ATOM     66  C   UNL A   1      50.472  26.037  29.023  1.00  0.00     0.001 A 
ATOM     67  C   UNL A   1      50.924  25.606  30.269  1.00  0.00     0.000 A 
ENDBRANCH  48  62
BRANCH  49  68
ATOM     68  C   UNL A   1      38.719  29.178  28.949  1.00  0.00    -0.014 A 
ATOM     69  C   UNL A   1      37.846  29.011  30.034  1.00  0.00     0.009 A 
ATOM     70  C   UNL A   1      38.219  29.714  27.752  1.00  0.00     0.009 A 
ATOM     71  C   UNL A   1      36.496  29.349  29.915  1.00  0.00     0.001 A 
ATOM     72  C   UNL A   1      36.876  30.081  27.645  1.00  0.00     0.001 A 
ATOM     73  C   UNL A   1      36.013  29.888  28.723  1.00  0.00     0.000 A 
ENDBRANCH  49  68
BRANCH  61  74
ATOM     74  C   UNL A   1      44.397  32.454  31.305  1.00  0.00    -0.014 A 
ATOM     75  C   UNL A   1      44.677  33.538  30.461  1.00  0.00     0.009 A 
ATOM     76  C   UNL A   1      44.277  32.679  32.686  1.00  0.00     0.009 A 
ATOM     77  C   UNL A   1      44.862  34.816  30.992  1.00  0.00     0.001 A 
ATOM     78  C   UNL A   1      44.429  33.962  33.210  1.00  0.00     0.001 A 
ATOM     79  C   UNL A   1      44.731  35.029  32.364  1.00  0.00     0.000 A 
ENDBRANCH  61  74
ENDBRANCH  35  36
ENDBRANCH  27  30
ENDBRANCH  25  26
ENDBRANCH  24  25
ENDBRANCH  23  24
ENDBRANCH   1  23
TORSDOF 15
ENDMDL
