MODEL 1
REMARK VINA RESULT:     -11.0      0.000      0.000
REMARK SMILES O=C(Cc1ccc(-c2ccn(C(F)F)c(=O)c2)cc1)NCCCCCCNC(=O)c1ccc(-c2c3nc(c(-c4ccccc4)c4ccc([nH]4)c(-c4ccccc4)c4nc(c(-c5ccccc5)c5ccc2[nH]5)C=C4)C=C3)cc1
REMARK SMILES IDX 23 1 22 2 21 3 20 4 1 5 2 6 3 8 4 9 5 10 19 11 6 12 18 13
REMARK SMILES IDX 7 14 8 15 9 16 17 17 10 18 15 19 11 20 16 21 12 22 13 23
REMARK SMILES IDX 14 24 24 25 25 26 26 27 27 28 28 29 29 31 30 32 31 33 77 34
REMARK SMILES IDX 32 35 76 36 33 37 34 38 35 39 70 40 36 41 75 42 69 43 71 44
REMARK SMILES IDX 37 45 74 46 68 47 67 48 38 50 60 51 45 52 59 53 46 54 49 55
REMARK SMILES IDX 58 56 72 57 47 58 48 59 57 61 73 62 50 63 39 64 40 65 44 66
REMARK SMILES IDX 41 67 43 68 42 69 61 70 62 71 66 72 63 73 65 74 64 75 51 76
REMARK SMILES IDX 52 77 56 78 53 79 55 80 54 81
REMARK H PARENT 20 7 27 30 71 49 49 60
REMARK Flexibility Score: inf
ROOT
ATOM      1  C   UNL A   1      34.386  26.101  25.402  1.00  0.00     0.002 C 
ENDROOT
BRANCH   1   2
ATOM      2  C   UNL A   1      33.771  27.305  26.128  1.00  0.00     0.021 C 
BRANCH   2   3
ATOM      3  C   UNL A   1      32.593  27.952  25.404  1.00  0.00     0.116 C 
BRANCH   3   4
ATOM      4  N   UNL A   1      32.087  27.109  24.342  1.00  0.00    -0.356 N 
ATOM      5  O   UNL A   1      32.196  28.689  22.678  1.00  0.00    -0.275 OA
ATOM      6  C   UNL A   1      31.960  27.540  23.039  1.00  0.00     0.224 C 
ATOM      7  H   UNL A   1      31.822  26.187  24.560  1.00  0.00     0.163 HD
BRANCH   6   8
ATOM      8  C   UNL A   1      31.474  26.471  22.076  1.00  0.00     0.135 C 
BRANCH   8   9
ATOM      9  C   UNL A   1      31.724  25.035  22.494  1.00  0.00    -0.039 A 
ATOM     10  C   UNL A   1      30.808  24.289  23.249  1.00  0.00     0.005 A 
ATOM     11  C   UNL A   1      32.938  24.432  22.132  1.00  0.00     0.005 A 
ATOM     12  C   UNL A   1      31.068  22.955  23.573  1.00  0.00     0.009 A 
ATOM     13  C   UNL A   1      33.207  23.101  22.470  1.00  0.00     0.009 A 
ATOM     14  C   UNL A   1      32.263  22.348  23.174  1.00  0.00    -0.018 A 
BRANCH  14  15
ATOM     15  C   UNL A   1      32.519  20.931  23.486  1.00  0.00    -0.011 A 
ATOM     16  C   UNL A   1      33.102  20.489  24.738  1.00  0.00     0.027 A 
ATOM     17  C   UNL A   1      32.199  20.017  22.554  1.00  0.00     0.080 A 
ATOM     18  C   UNL A   1      33.318  19.188  24.961  1.00  0.00     0.095 A 
ATOM     19  C   UNL A   1      32.431  18.567  22.789  1.00  0.00     0.255 A 
ATOM     20  N   UNL A   1      32.992  18.236  24.013  1.00  0.00    -0.258 N 
ATOM     21  O   UNL A   1      32.117  17.774  21.907  1.00  0.00    -0.269 OA
BRANCH  20  22
ATOM     22  C   UNL A   1      33.240  16.839  24.257  1.00  0.00     0.451 C 
ATOM     23  F   UNL A   1      34.370  16.426  23.633  1.00  0.00    -0.185 F 
ATOM     24  F   UNL A   1      33.379  16.597  25.584  1.00  0.00    -0.185 F 
ENDBRANCH  20  22
ENDBRANCH  14  15
ENDBRANCH   8   9
ENDBRANCH   6   8
ENDBRANCH   3   4
ENDBRANCH   2   3
ENDBRANCH   1   2
BRANCH   1  25
ATOM     25  C   UNL A   1      33.952  24.726  25.920  1.00  0.00     0.002 C 
BRANCH  25  26
ATOM     26  C   UNL A   1      34.993  23.615  25.778  1.00  0.00     0.021 C 
BRANCH  26  27
ATOM     27  C   UNL A   1      36.439  24.093  25.710  1.00  0.00     0.116 C 
BRANCH  27  28
ATOM     28  N   UNL A   1      37.395  22.997  25.739  1.00  0.00    -0.352 N 
ATOM     29  C   UNL A   1      38.700  22.999  26.169  1.00  0.00     0.251 C 
ATOM     30  H   UNL A   1      37.061  22.134  25.403  1.00  0.00     0.163 HD
ATOM     31  O   UNL A   1      39.419  22.021  25.989  1.00  0.00    -0.269 OA
BRANCH  29  32
ATOM     32  C   UNL A   1      39.248  24.205  26.829  1.00  0.00     0.039 A 
ATOM     33  C   UNL A   1      40.000  25.108  26.075  1.00  0.00     0.014 A 
ATOM     34  C   UNL A   1      39.000  24.450  28.181  1.00  0.00     0.014 A 
ATOM     35  C   UNL A   1      40.445  26.296  26.662  1.00  0.00     0.010 A 
ATOM     36  C   UNL A   1      39.380  25.664  28.744  1.00  0.00     0.010 A 
ATOM     37  C   UNL A   1      40.105  26.603  27.990  1.00  0.00    -0.014 A 
BRANCH  37  38
ATOM     38  C   UNL A   1      40.492  27.893  28.617  1.00  0.00     0.031 A 
ATOM     39  C   UNL A   1      41.865  28.058  29.211  1.00  0.00     0.074 A 
ATOM     40  C   UNL A   1      39.586  28.884  28.728  1.00  0.00     0.049 A 
ATOM     41  N   UNL A   1      42.353  29.060  29.898  1.00  0.00    -0.248 NA
ATOM     42  C   UNL A   1      42.806  26.938  29.033  1.00  0.00     0.031 C 
ATOM     43  C   UNL A   1      38.212  28.843  28.222  1.00  0.00     0.029 A 
ATOM     44  N   UNL A   1      39.681  30.119  29.323  1.00  0.00    -0.354 N 
ATOM     45  C   UNL A   1      43.640  28.680  30.258  1.00  0.00     0.074 A 
ATOM     46  C   UNL A   1      43.848  27.345  29.745  1.00  0.00     0.031 C 
ATOM     47  C   UNL A   1      37.601  30.004  28.511  1.00  0.00     0.029 A 
ATOM     48  C   UNL A   1      38.518  30.852  29.264  1.00  0.00     0.049 A 
ATOM     49  H   UNL A   1      40.503  30.449  29.751  1.00  0.00     0.167 HD
ATOM     50  C   UNL A   1      44.569  29.385  30.944  1.00  0.00     0.031 A 
ATOM     51  C   UNL A   1      38.220  32.062  29.775  1.00  0.00     0.031 A 
ATOM     52  C   UNL A   1      44.375  30.725  31.428  1.00  0.00     0.049 A 
ATOM     53  C   UNL A   1      39.271  32.813  30.548  1.00  0.00     0.074 A 
ATOM     54  C   UNL A   1      45.286  31.549  32.067  1.00  0.00     0.029 A 
ATOM     55  N   UNL A   1      43.190  31.436  31.332  1.00  0.00    -0.354 N 
ATOM     56  N   UNL A   1      40.509  32.472  30.810  1.00  0.00    -0.248 NA
ATOM     57  C   UNL A   1      38.882  34.124  31.093  1.00  0.00     0.031 C 
ATOM     58  C   UNL A   1      44.635  32.737  32.408  1.00  0.00     0.029 A 
ATOM     59  C   UNL A   1      43.338  32.676  31.927  1.00  0.00     0.049 A 
ATOM     60  H   UNL A   1      42.366  31.107  30.904  1.00  0.00     0.167 HD
ATOM     61  C   UNL A   1      41.056  33.539  31.509  1.00  0.00     0.074 A 
ATOM     62  C   UNL A   1      40.021  34.544  31.624  1.00  0.00     0.031 C 
ATOM     63  C   UNL A   1      42.307  33.675  32.013  1.00  0.00     0.031 A 
BRANCH  50  64
ATOM     64  C   UNL A   1      45.889  28.724  31.226  1.00  0.00    -0.014 A 
ATOM     65  C   UNL A   1      46.979  28.867  30.353  1.00  0.00     0.009 A 
ATOM     66  C   UNL A   1      46.068  28.016  32.425  1.00  0.00     0.009 A 
ATOM     67  C   UNL A   1      48.214  28.294  30.666  1.00  0.00     0.001 A 
ATOM     68  C   UNL A   1      47.309  27.468  32.748  1.00  0.00     0.001 A 
ATOM     69  C   UNL A   1      48.381  27.604  31.865  1.00  0.00     0.000 A 
ENDBRANCH  50  64
BRANCH  51  70
ATOM     70  C   UNL A   1      36.867  32.653  29.586  1.00  0.00    -0.014 A 
ATOM     71  C   UNL A   1      35.879  32.500  30.572  1.00  0.00     0.009 A 
ATOM     72  C   UNL A   1      36.538  33.323  28.398  1.00  0.00     0.009 A 
ATOM     73  C   UNL A   1      34.581  32.966  30.354  1.00  0.00     0.001 A 
ATOM     74  C   UNL A   1      35.248  33.819  28.197  1.00  0.00     0.001 A 
ATOM     75  C   UNL A   1      34.266  33.627  29.167  1.00  0.00     0.000 A 
ENDBRANCH  51  70
BRANCH  63  76
ATOM     76  C   UNL A   1      42.650  34.979  32.678  1.00  0.00    -0.014 A 
ATOM     77  C   UNL A   1      43.346  35.988  31.997  1.00  0.00     0.009 A 
ATOM     78  C   UNL A   1      42.217  35.217  33.992  1.00  0.00     0.009 A 
ATOM     79  C   UNL A   1      43.626  37.201  32.631  1.00  0.00     0.001 A 
ATOM     80  C   UNL A   1      42.470  36.442  34.611  1.00  0.00     0.001 A 
ATOM     81  C   UNL A   1      43.182  37.428  33.933  1.00  0.00     0.000 A 
ENDBRANCH  63  76
ENDBRANCH  37  38
ENDBRANCH  29  32
ENDBRANCH  27  28
ENDBRANCH  26  27
ENDBRANCH  25  26
ENDBRANCH   1  25
TORSDOF 16
ENDMDL
MODEL 2
REMARK VINA RESULT:     -10.5      4.574      9.347
REMARK SMILES O=C(Cc1ccc(-c2ccn(C(F)F)c(=O)c2)cc1)NCCCCCCNC(=O)c1ccc(-c2c3nc(c(-c4ccccc4)c4ccc([nH]4)c(-c4ccccc4)c4nc(c(-c5ccccc5)c5ccc2[nH]5)C=C4)C=C3)cc1
REMARK SMILES IDX 23 1 22 2 21 3 20 4 1 5 2 6 3 8 4 9 5 10 19 11 6 12 18 13
REMARK SMILES IDX 7 14 8 15 9 16 17 17 10 18 15 19 11 20 16 21 12 22 13 23
REMARK SMILES IDX 14 24 24 25 25 26 26 27 27 28 28 29 29 31 30 32 31 33 77 34
REMARK SMILES IDX 32 35 76 36 33 37 34 38 35 39 70 40 36 41 75 42 69 43 71 44
REMARK SMILES IDX 37 45 74 46 68 47 67 48 38 50 60 51 45 52 59 53 46 54 49 55
REMARK SMILES IDX 58 56 72 57 47 58 48 59 57 61 73 62 50 63 39 64 40 65 44 66
REMARK SMILES IDX 41 67 43 68 42 69 61 70 62 71 66 72 63 73 65 74 64 75 51 76
REMARK SMILES IDX 52 77 56 78 53 79 55 80 54 81
REMARK H PARENT 20 7 27 30 71 49 49 60
REMARK Flexibility Score: inf
ROOT
ATOM      1  C   UNL A   1      37.616  22.595  25.205  1.00  0.00     0.002 C 
ENDROOT
BRANCH   1   2
ATOM      2  C   UNL A   1      36.513  23.635  25.440  1.00  0.00     0.021 C 
BRANCH   2   3
ATOM      3  C   UNL A   1      35.103  23.155  25.107  1.00  0.00     0.116 C 
BRANCH   3   4
ATOM      4  N   UNL A   1      34.095  23.919  25.811  1.00  0.00    -0.356 N 
ATOM      5  O   UNL A   1      33.314  25.072  23.983  1.00  0.00    -0.275 OA
ATOM      6  C   UNL A   1      33.246  24.803  25.178  1.00  0.00     0.224 C 
ATOM      7  H   UNL A   1      34.012  23.803  26.785  1.00  0.00     0.163 HD
BRANCH   6   8
ATOM      8  C   UNL A   1      32.222  25.446  26.098  1.00  0.00     0.135 C 
BRANCH   8   9
ATOM      9  C   UNL A   1      32.436  26.914  26.409  1.00  0.00    -0.039 A 
ATOM     10  C   UNL A   1      31.458  27.718  27.012  1.00  0.00     0.005 A 
ATOM     11  C   UNL A   1      33.659  27.504  26.055  1.00  0.00     0.005 A 
ATOM     12  C   UNL A   1      31.721  29.055  27.317  1.00  0.00     0.009 A 
ATOM     13  C   UNL A   1      33.917  28.849  26.344  1.00  0.00     0.009 A 
ATOM     14  C   UNL A   1      32.957  29.627  26.997  1.00  0.00    -0.018 A 
BRANCH  14  15
ATOM     15  C   UNL A   1      33.243  31.028  27.351  1.00  0.00    -0.011 A 
ATOM     16  C   UNL A   1      32.246  32.077  27.297  1.00  0.00     0.027 A 
ATOM     17  C   UNL A   1      34.495  31.332  27.733  1.00  0.00     0.080 A 
ATOM     18  C   UNL A   1      32.568  33.335  27.624  1.00  0.00     0.095 A 
ATOM     19  C   UNL A   1      34.868  32.725  28.103  1.00  0.00     0.255 A 
ATOM     20  N   UNL A   1      33.851  33.663  28.021  1.00  0.00    -0.258 N 
ATOM     21  O   UNL A   1      36.023  32.948  28.449  1.00  0.00    -0.269 OA
BRANCH  20  22
ATOM     22  C   UNL A   1      34.191  35.021  28.358  1.00  0.00     0.451 C 
ATOM     23  F   UNL A   1      34.740  35.665  27.299  1.00  0.00    -0.185 F 
ATOM     24  F   UNL A   1      33.092  35.713  28.747  1.00  0.00    -0.185 F 
ENDBRANCH  20  22
ENDBRANCH  14  15
ENDBRANCH   8   9
ENDBRANCH   6   8
ENDBRANCH   3   4
ENDBRANCH   2   3
ENDBRANCH   1   2
BRANCH   1  25
ATOM     25  C   UNL A   1      37.153  21.271  24.587  1.00  0.00     0.002 C 
BRANCH  25  26
ATOM     26  C   UNL A   1      37.953  20.038  25.009  1.00  0.00     0.021 C 
BRANCH  26  27
ATOM     27  C   UNL A   1      39.169  20.326  25.882  1.00  0.00     0.116 C 
BRANCH  27  28
ATOM     28  N   UNL A   1      40.143  19.245  25.864  1.00  0.00    -0.352 N 
ATOM     29  C   UNL A   1      41.503  19.304  26.056  1.00  0.00     0.251 C 
ATOM     30  H   UNL A   1      39.777  18.348  25.692  1.00  0.00     0.163 HD
ATOM     31  O   UNL A   1      42.203  18.316  25.863  1.00  0.00    -0.269 OA
BRANCH  29  32
ATOM     32  C   UNL A   1      42.126  20.581  26.469  1.00  0.00     0.039 A 
ATOM     33  C   UNL A   1      42.601  21.453  25.488  1.00  0.00     0.014 A 
ATOM     34  C   UNL A   1      42.220  20.921  27.820  1.00  0.00     0.014 A 
ATOM     35  C   UNL A   1      43.108  22.702  25.859  1.00  0.00     0.010 A 
ATOM     36  C   UNL A   1      42.657  22.191  28.183  1.00  0.00     0.010 A 
ATOM     37  C   UNL A   1      43.104  23.097  27.207  1.00  0.00    -0.014 A 
BRANCH  37  38
ATOM     38  C   UNL A   1      43.559  24.449  27.625  1.00  0.00     0.031 A 
ATOM     39  C   UNL A   1      42.548  25.498  28.001  1.00  0.00     0.074 A 
ATOM     40  C   UNL A   1      44.870  24.758  27.583  1.00  0.00     0.049 A 
ATOM     41  N   UNL A   1      42.737  26.763  28.283  1.00  0.00    -0.248 NA
ATOM     42  C   UNL A   1      41.136  25.080  28.041  1.00  0.00     0.031 C 
ATOM     43  C   UNL A   1      45.950  23.843  27.209  1.00  0.00     0.029 A 
ATOM     44  N   UNL A   1      45.517  25.941  27.845  1.00  0.00    -0.354 N 
ATOM     45  C   UNL A   1      41.472  27.294  28.502  1.00  0.00     0.074 A 
ATOM     46  C   UNL A   1      40.521  26.227  28.288  1.00  0.00     0.031 C 
ATOM     47  C   UNL A   1      47.124  24.492  27.282  1.00  0.00     0.029 A 
ATOM     48  C   UNL A   1      46.878  25.879  27.660  1.00  0.00     0.049 A 
ATOM     49  H   UNL A   1      45.050  26.757  28.138  1.00  0.00     0.167 HD
ATOM     50  C   UNL A   1      41.134  28.554  28.861  1.00  0.00     0.031 A 
ATOM     51  C   UNL A   1      47.820  26.837  27.766  1.00  0.00     0.031 A 
ATOM     52  C   UNL A   1      42.082  29.609  29.104  1.00  0.00     0.049 A 
ATOM     53  C   UNL A   1      47.409  28.233  28.150  1.00  0.00     0.074 A 
ATOM     54  C   UNL A   1      41.838  30.897  29.546  1.00  0.00     0.029 A 
ATOM     55  N   UNL A   1      43.450  29.498  28.922  1.00  0.00    -0.354 N 
ATOM     56  N   UNL A   1      46.217  28.698  28.432  1.00  0.00    -0.248 NA
ATOM     57  C   UNL A   1      48.480  29.239  28.236  1.00  0.00     0.031 C 
ATOM     58  C   UNL A   1      43.053  31.585  29.577  1.00  0.00     0.029 A 
ATOM     59  C   UNL A   1      44.061  30.706  29.214  1.00  0.00     0.049 A 
ATOM     60  H   UNL A   1      43.919  28.683  28.629  1.00  0.00     0.167 HD
ATOM     61  C   UNL A   1      46.400  30.033  28.768  1.00  0.00     0.074 A 
ATOM     62  C   UNL A   1      47.818  30.302  28.666  1.00  0.00     0.031 C 
ATOM     63  C   UNL A   1      45.475  30.954  29.130  1.00  0.00     0.031 A 
BRANCH  50  64
ATOM     64  C   UNL A   1      39.674  28.879  29.009  1.00  0.00    -0.014 A 
ATOM     65  C   UNL A   1      38.912  29.327  27.918  1.00  0.00     0.009 A 
ATOM     66  C   UNL A   1      39.035  28.655  30.239  1.00  0.00     0.009 A 
ATOM     67  C   UNL A   1      37.544  29.564  28.064  1.00  0.00     0.001 A 
ATOM     68  C   UNL A   1      37.663  28.867  30.375  1.00  0.00     0.001 A 
ATOM     69  C   UNL A   1      36.919  29.327  29.288  1.00  0.00     0.000 A 
ENDBRANCH  50  64
BRANCH  51  70
ATOM     70  C   UNL A   1      49.251  26.526  27.501  1.00  0.00    -0.014 A 
ATOM     71  C   UNL A   1      49.732  26.450  26.185  1.00  0.00     0.009 A 
ATOM     72  C   UNL A   1      50.131  26.248  28.559  1.00  0.00     0.009 A 
ATOM     73  C   UNL A   1      51.049  26.060  25.931  1.00  0.00     0.001 A 
ATOM     74  C   UNL A   1      51.458  25.892  28.304  1.00  0.00     0.001 A 
ATOM     75  C   UNL A   1      51.911  25.783  26.991  1.00  0.00     0.000 A 
ENDBRANCH  51  70
BRANCH  63  76
ATOM     76  C   UNL A   1      45.967  32.323  29.505  1.00  0.00    -0.014 A 
ATOM     77  C   UNL A   1      46.367  32.625  30.816  1.00  0.00     0.009 A 
ATOM     78  C   UNL A   1      46.086  33.309  28.513  1.00  0.00     0.009 A 
ATOM     79  C   UNL A   1      46.849  33.898  31.130  1.00  0.00     0.001 A 
ATOM     80  C   UNL A   1      46.597  34.570  28.823  1.00  0.00     0.001 A 
ATOM     81  C   UNL A   1      46.970  34.865  30.132  1.00  0.00     0.000 A 
ENDBRANCH  63  76
ENDBRANCH  37  38
ENDBRANCH  29  32
ENDBRANCH  27  28
ENDBRANCH  26  27
ENDBRANCH  25  26
ENDBRANCH   1  25
TORSDOF 16
ENDMDL
MODEL 3
REMARK VINA RESULT:     -10.5      4.470      7.262
REMARK SMILES O=C(Cc1ccc(-c2ccn(C(F)F)c(=O)c2)cc1)NCCCCCCNC(=O)c1ccc(-c2c3nc(c(-c4ccccc4)c4ccc([nH]4)c(-c4ccccc4)c4nc(c(-c5ccccc5)c5ccc2[nH]5)C=C4)C=C3)cc1
REMARK SMILES IDX 23 1 22 2 21 3 20 4 1 5 2 6 3 8 4 9 5 10 19 11 6 12 18 13
REMARK SMILES IDX 7 14 8 15 9 16 17 17 10 18 15 19 11 20 16 21 12 22 13 23
REMARK SMILES IDX 14 24 24 25 25 26 26 27 27 28 28 29 29 31 30 32 31 33 77 34
REMARK SMILES IDX 32 35 76 36 33 37 34 38 35 39 70 40 36 41 75 42 69 43 71 44
REMARK SMILES IDX 37 45 74 46 68 47 67 48 38 50 60 51 45 52 59 53 46 54 49 55
REMARK SMILES IDX 58 56 72 57 47 58 48 59 57 61 73 62 50 63 39 64 40 65 44 66
REMARK SMILES IDX 41 67 43 68 42 69 61 70 62 71 66 72 63 73 65 74 64 75 51 76
REMARK SMILES IDX 52 77 56 78 53 79 55 80 54 81
REMARK H PARENT 20 7 27 30 71 49 49 60
REMARK Flexibility Score: inf
ROOT
ATOM      1  C   UNL A   1      37.355  22.034  24.817  1.00  0.00     0.002 C 
ENDROOT
BRANCH   1   2
ATOM      2  C   UNL A   1      36.459  22.974  23.999  1.00  0.00     0.021 C 
BRANCH   2   3
ATOM      3  C   UNL A   1      35.015  22.502  23.844  1.00  0.00     0.116 C 
BRANCH   3   4
ATOM      4  N   UNL A   1      34.134  23.149  24.793  1.00  0.00    -0.356 N 
ATOM      5  O   UNL A   1      33.293  24.721  23.344  1.00  0.00    -0.275 OA
ATOM      6  C   UNL A   1      33.306  24.198  24.454  1.00  0.00     0.224 C 
ATOM      7  H   UNL A   1      34.125  22.825  25.723  1.00  0.00     0.163 HD
BRANCH   6   8
ATOM      8  C   UNL A   1      32.418  24.679  25.589  1.00  0.00     0.135 C 
BRANCH   8   9
ATOM      9  C   UNL A   1      32.591  26.127  26.002  1.00  0.00    -0.039 A 
ATOM     10  C   UNL A   1      33.824  26.793  25.954  1.00  0.00     0.005 A 
ATOM     11  C   UNL A   1      31.473  26.828  26.479  1.00  0.00     0.005 A 
ATOM     12  C   UNL A   1      33.922  28.141  26.305  1.00  0.00     0.009 A 
ATOM     13  C   UNL A   1      31.573  28.174  26.847  1.00  0.00     0.009 A 
ATOM     14  C   UNL A   1      32.795  28.845  26.742  1.00  0.00    -0.018 A 
BRANCH  14  15
ATOM     15  C   UNL A   1      32.895  30.276  27.079  1.00  0.00    -0.011 A 
ATOM     16  C   UNL A   1      31.848  31.233  26.781  1.00  0.00     0.027 A 
ATOM     17  C   UNL A   1      34.019  30.700  27.683  1.00  0.00     0.080 A 
ATOM     18  C   UNL A   1      31.999  32.523  27.105  1.00  0.00     0.095 A 
ATOM     19  C   UNL A   1      34.199  32.130  28.051  1.00  0.00     0.255 A 
ATOM     20  N   UNL A   1      33.148  32.973  27.729  1.00  0.00    -0.258 N 
ATOM     21  O   UNL A   1      35.242  32.463  28.605  1.00  0.00    -0.269 OA
BRANCH  20  22
ATOM     22  C   UNL A   1      33.307  34.365  28.061  1.00  0.00     0.451 C 
ATOM     23  F   UNL A   1      33.390  34.542  29.402  1.00  0.00    -0.185 F 
ATOM     24  F   UNL A   1      34.431  34.873  27.498  1.00  0.00    -0.185 F 
ENDBRANCH  20  22
ENDBRANCH  14  15
ENDBRANCH   8   9
ENDBRANCH   6   8
ENDBRANCH   3   4
ENDBRANCH   2   3
ENDBRANCH   1   2
BRANCH   1  25
ATOM     25  C   UNL A   1      36.895  20.574  24.880  1.00  0.00     0.002 C 
BRANCH  25  26
ATOM     26  C   UNL A   1      38.014  19.541  25.020  1.00  0.00     0.021 C 
BRANCH  26  27
ATOM     27  C   UNL A   1      39.243  20.022  25.783  1.00  0.00     0.116 C 
BRANCH  27  28
ATOM     28  N   UNL A   1      40.282  19.008  25.872  1.00  0.00    -0.352 N 
ATOM     29  C   UNL A   1      41.633  19.169  26.070  1.00  0.00     0.251 C 
ATOM     30  H   UNL A   1      39.976  18.077  25.777  1.00  0.00     0.163 HD
ATOM     31  O   UNL A   1      42.396  18.214  25.973  1.00  0.00    -0.269 OA
BRANCH  29  32
ATOM     32  C   UNL A   1      42.169  20.514  26.373  1.00  0.00     0.039 A 
ATOM     33  C   UNL A   1      42.632  21.312  25.324  1.00  0.00     0.014 A 
ATOM     34  C   UNL A   1      42.195  20.990  27.685  1.00  0.00     0.014 A 
ATOM     35  C   UNL A   1      43.055  22.619  25.584  1.00  0.00     0.010 A 
ATOM     36  C   UNL A   1      42.548  22.314  27.932  1.00  0.00     0.010 A 
ATOM     37  C   UNL A   1      42.979  23.144  26.884  1.00  0.00    -0.014 A 
BRANCH  37  38
ATOM     38  C   UNL A   1      43.344  24.554  27.179  1.00  0.00     0.031 A 
ATOM     39  C   UNL A   1      44.787  24.980  27.144  1.00  0.00     0.074 A 
ATOM     40  C   UNL A   1      42.391  25.428  27.560  1.00  0.00     0.049 A 
ATOM     41  N   UNL A   1      45.317  26.129  27.478  1.00  0.00    -0.248 NA
ATOM     42  C   UNL A   1      45.768  23.974  26.700  1.00  0.00     0.031 C 
ATOM     43  C   UNL A   1      40.960  25.137  27.663  1.00  0.00     0.029 A 
ATOM     44  N   UNL A   1      42.489  26.741  27.949  1.00  0.00    -0.354 N 
ATOM     45  C   UNL A   1      46.688  25.974  27.316  1.00  0.00     0.074 A 
ATOM     46  C   UNL A   1      46.914  24.613  26.886  1.00  0.00     0.031 C 
ATOM     47  C   UNL A   1      40.313  26.242  28.069  1.00  0.00     0.029 A 
ATOM     48  C   UNL A   1      41.285  27.304  28.303  1.00  0.00     0.049 A 
ATOM     49  H   UNL A   1      43.340  27.235  27.973  1.00  0.00     0.167 HD
ATOM     50  C   UNL A   1      47.670  26.888  27.496  1.00  0.00     0.031 A 
ATOM     51  C   UNL A   1      40.999  28.532  28.778  1.00  0.00     0.031 A 
ATOM     52  C   UNL A   1      47.444  28.252  27.894  1.00  0.00     0.049 A 
ATOM     53  C   UNL A   1      42.116  29.519  28.985  1.00  0.00     0.074 A 
ATOM     54  C   UNL A   1      48.370  29.272  28.028  1.00  0.00     0.029 A 
ATOM     55  N   UNL A   1      46.209  28.784  28.224  1.00  0.00    -0.354 N 
ATOM     56  N   UNL A   1      43.397  29.381  28.749  1.00  0.00    -0.248 NA
ATOM     57  C   UNL A   1      41.743  30.839  29.520  1.00  0.00     0.031 C 
ATOM     58  C   UNL A   1      47.703  30.407  28.495  1.00  0.00     0.029 A 
ATOM     59  C   UNL A   1      46.353  30.110  28.593  1.00  0.00     0.049 A 
ATOM     60  H   UNL A   1      45.355  28.292  28.201  1.00  0.00     0.167 HD
ATOM     61  C   UNL A   1      43.975  30.604  29.065  1.00  0.00     0.074 A 
ATOM     62  C   UNL A   1      42.904  31.476  29.499  1.00  0.00     0.031 C 
ATOM     63  C   UNL A   1      45.277  30.973  29.001  1.00  0.00     0.031 A 
BRANCH  50  64
ATOM     64  C   UNL A   1      49.090  26.451  27.275  1.00  0.00    -0.014 A 
ATOM     65  C   UNL A   1      49.667  26.463  25.995  1.00  0.00     0.009 A 
ATOM     66  C   UNL A   1      49.887  26.098  28.375  1.00  0.00     0.009 A 
ATOM     67  C   UNL A   1      51.007  26.110  25.821  1.00  0.00     0.001 A 
ATOM     68  C   UNL A   1      51.232  25.773  28.203  1.00  0.00     0.001 A 
ATOM     69  C   UNL A   1      51.790  25.774  26.925  1.00  0.00     0.000 A 
ENDBRANCH  50  64
BRANCH  51  70
ATOM     70  C   UNL A   1      39.597  28.911  29.105  1.00  0.00    -0.014 A 
ATOM     71  C   UNL A   1      39.086  28.709  30.397  1.00  0.00     0.009 A 
ATOM     72  C   UNL A   1      38.745  29.425  28.115  1.00  0.00     0.009 A 
ATOM     73  C   UNL A   1      37.743  28.970  30.679  1.00  0.00     0.001 A 
ATOM     74  C   UNL A   1      37.411  29.718  28.408  1.00  0.00     0.001 A 
ATOM     75  C   UNL A   1      36.908  29.476  29.685  1.00  0.00     0.000 A 
ENDBRANCH  51  70
BRANCH  63  76
ATOM     76  C   UNL A   1      45.614  32.396  29.347  1.00  0.00    -0.014 A 
ATOM     77  C   UNL A   1      45.924  32.776  30.661  1.00  0.00     0.009 A 
ATOM     78  C   UNL A   1      45.678  33.357  28.326  1.00  0.00     0.009 A 
ATOM     79  C   UNL A   1      46.263  34.101  30.949  1.00  0.00     0.001 A 
ATOM     80  C   UNL A   1      46.048  34.672  28.611  1.00  0.00     0.001 A 
ATOM     81  C   UNL A   1      46.331  35.044  29.924  1.00  0.00     0.000 A 
ENDBRANCH  63  76
ENDBRANCH  37  38
ENDBRANCH  29  32
ENDBRANCH  27  28
ENDBRANCH  26  27
ENDBRANCH  25  26
ENDBRANCH   1  25
TORSDOF 16
ENDMDL
