MODEL 1
REMARK VINA RESULT:     -12.4      0.000      0.000
REMARK SMILES CCn1ncc(NC(=O)[C@@H]2CCCC[C@@H]2C(=O)NCCCCCCNC(=O)c2ccc(-c3c4nc(c(-c5ccccc5)c5ccc([nH]5)c(-c5ccccc5)c5nc(c(-c6ccccc6)c6ccc3[nH]6)C=C5)C=C4)cc2)c1C(=O)Nc1cnn(C)c1C
REMARK SMILES IDX 20 1 19 2 18 3 16 4 17 5 15 7 10 8 11 9 12 10 14 11 13 12
REMARK SMILES IDX 8 13 7 14 9 16 6 17 3 18 4 19 76 20 5 21 2 22 1 23 77 24
REMARK SMILES IDX 78 25 79 26 80 28 81 29 85 30 82 31 83 32 86 33 84 34 21 35
REMARK SMILES IDX 22 36 23 37 24 38 25 39 26 40 27 42 28 43 29 44 75 45 30 46
REMARK SMILES IDX 74 47 31 48 32 49 33 50 68 51 34 52 73 53 67 54 69 55 35 56
REMARK SMILES IDX 72 57 66 58 65 59 36 61 58 62 43 63 57 64 44 65 47 66 56 67
REMARK SMILES IDX 70 68 45 69 46 70 55 72 71 73 48 74 37 75 38 76 42 77 39 78
REMARK SMILES IDX 41 79 40 80 59 81 60 82 64 83 61 84 63 85 62 86 49 87 50 88
REMARK SMILES IDX 54 89 51 90 53 91 52 92
REMARK H PARENT 18 6 7 15 79 27 25 41 69 60 47 71
REMARK Flexibility Score: inf
ROOT
ATOM      1  C   UNL A   1      38.514  21.988  25.752  1.00  0.00     0.021 C 
ENDROOT
BRANCH   1   2
ATOM      2  C   UNL A   1      37.265  22.862  25.848  1.00  0.00     0.116 C 
BRANCH   2   3
ATOM      3  N   UNL A   1      36.103  22.080  26.168  1.00  0.00    -0.356 N 
ATOM      4  C   UNL A   1      34.784  22.367  26.120  1.00  0.00     0.223 C 
ATOM      5  O   UNL A   1      34.048  21.397  26.335  1.00  0.00    -0.275 OA
ATOM      6  H   UNL A   1      36.305  21.168  26.478  1.00  0.00     0.163 HD
BRANCH   4   7
ATOM      7  C   UNL A   1      34.201  23.757  25.757  1.00  0.00     0.091 C 
ATOM      8  C   UNL A   1      32.698  23.901  25.407  1.00  0.00     0.091 C 
ATOM      9  C   UNL A   1      32.304  22.839  24.381  1.00  0.00     0.014 C 
ATOM     10  C   UNL A   1      33.088  23.052  23.075  1.00  0.00     0.001 C 
ATOM     11  C   UNL A   1      34.934  24.240  24.477  1.00  0.00     0.014 C 
ATOM     12  C   UNL A   1      34.578  23.383  23.247  1.00  0.00     0.001 C 
BRANCH   8  13
ATOM     13  C   UNL A   1      31.793  24.240  26.599  1.00  0.00     0.228 C 
ATOM     14  N   UNL A   1      30.949  25.306  26.572  1.00  0.00    -0.322 N 
ATOM     15  H   UNL A   1      29.989  25.092  26.617  1.00  0.00     0.170 HD
ATOM     16  O   UNL A   1      31.789  23.557  27.627  1.00  0.00    -0.274 OA
BRANCH  14  17
ATOM     17  C   UNL A   1      31.263  26.656  26.490  1.00  0.00     0.092 A 
ATOM     18  N   UNL A   1      31.685  28.751  25.994  1.00  0.00    -0.258 N 
ATOM     19  N   UNL A   1      32.025  28.650  27.296  1.00  0.00    -0.178 NA
ATOM     20  C   UNL A   1      31.296  27.549  25.424  1.00  0.00     0.150 A 
ATOM     21  C   UNL A   1      31.790  27.378  27.585  1.00  0.00     0.162 A 
BRANCH  18  22
ATOM     22  C   UNL A   1      31.805  30.071  25.405  1.00  0.00     0.142 C 
ATOM     23  C   UNL A   1      31.669  31.198  26.412  1.00  0.00     0.029 C 
ENDBRANCH  18  22
BRANCH  20  24
ATOM     24  C   UNL A   1      31.126  27.286  24.010  1.00  0.00     0.276 C 
ATOM     25  O   UNL A   1      32.013  26.828  23.295  1.00  0.00    -0.267 OA
ATOM     26  N   UNL A   1      29.836  27.402  23.550  1.00  0.00    -0.318 N 
ATOM     27  H   UNL A   1      29.179  26.695  23.750  1.00  0.00     0.170 HD
BRANCH  26  28
ATOM     28  C   UNL A   1      29.456  28.501  22.811  1.00  0.00     0.082 A 
ATOM     29  C   UNL A   1      30.238  29.367  22.029  1.00  0.00     0.161 A 
ATOM     30  C   UNL A   1      28.190  29.045  22.821  1.00  0.00     0.059 A 
ATOM     31  N   UNL A   1      29.578  30.487  21.734  1.00  0.00    -0.179 NA
ATOM     32  N   UNL A   1      28.383  30.319  22.334  1.00  0.00    -0.271 N 
ATOM     33  C   UNL A   1      26.908  28.577  23.405  1.00  0.00     0.068 C 
ATOM     34  C   UNL A   1      27.633  31.502  22.694  1.00  0.00     0.174 C 
ENDBRANCH  26  28
ENDBRANCH  20  24
ENDBRANCH  14  17
ENDBRANCH   8  13
ENDBRANCH   4   7
ENDBRANCH   2   3
ENDBRANCH   1   2
BRANCH   1  35
ATOM     35  C   UNL A   1      39.660  22.505  26.622  1.00  0.00     0.002 C 
BRANCH  35  36
ATOM     36  C   UNL A   1      40.532  21.400  27.238  1.00  0.00     0.002 C 
BRANCH  36  37
ATOM     37  C   UNL A   1      41.145  20.409  26.236  1.00  0.00     0.021 C 
BRANCH  37  38
ATOM     38  C   UNL A   1      42.356  19.690  26.802  1.00  0.00     0.116 C 
BRANCH  38  39
ATOM     39  N   UNL A   1      43.435  19.622  25.814  1.00  0.00    -0.352 N 
ATOM     40  C   UNL A   1      44.035  20.637  25.111  1.00  0.00     0.251 C 
ATOM     41  H   UNL A   1      43.778  18.719  25.627  1.00  0.00     0.163 HD
ATOM     42  O   UNL A   1      44.680  20.404  24.088  1.00  0.00    -0.269 OA
BRANCH  40  43
ATOM     43  C   UNL A   1      43.911  22.009  25.608  1.00  0.00     0.039 A 
ATOM     44  C   UNL A   1      43.095  22.946  24.969  1.00  0.00     0.014 A 
ATOM     45  C   UNL A   1      44.631  22.345  26.753  1.00  0.00     0.014 A 
ATOM     46  C   UNL A   1      42.971  24.211  25.529  1.00  0.00     0.010 A 
ATOM     47  C   UNL A   1      44.368  23.519  27.399  1.00  0.00     0.010 A 
ATOM     48  C   UNL A   1      43.608  24.482  26.750  1.00  0.00    -0.014 A 
BRANCH  48  49
ATOM     49  C   UNL A   1      43.418  25.744  27.440  1.00  0.00     0.031 A 
ATOM     50  C   UNL A   1      44.392  26.794  27.048  1.00  0.00     0.074 A 
ATOM     51  C   UNL A   1      42.314  26.001  28.173  1.00  0.00     0.049 A 
ATOM     52  N   UNL A   1      45.339  27.291  27.768  1.00  0.00    -0.248 NA
ATOM     53  C   UNL A   1      44.424  27.225  25.639  1.00  0.00     0.031 C 
ATOM     54  C   UNL A   1      41.121  25.160  28.351  1.00  0.00     0.029 A 
ATOM     55  N   UNL A   1      41.964  27.142  28.818  1.00  0.00    -0.354 N 
ATOM     56  C   UNL A   1      45.951  28.259  26.979  1.00  0.00     0.074 A 
ATOM     57  C   UNL A   1      45.489  28.029  25.634  1.00  0.00     0.031 C 
ATOM     58  C   UNL A   1      40.104  25.911  28.832  1.00  0.00     0.029 A 
ATOM     59  C   UNL A   1      40.618  27.228  29.159  1.00  0.00     0.049 A 
ATOM     60  H   UNL A   1      42.611  27.853  29.029  1.00  0.00     0.167 HD
ATOM     61  C   UNL A   1      46.561  29.339  27.541  1.00  0.00     0.031 A 
ATOM     62  C   UNL A   1      39.973  28.318  29.643  1.00  0.00     0.031 A 
ATOM     63  C   UNL A   1      46.749  29.152  28.959  1.00  0.00     0.049 A 
ATOM     64  C   UNL A   1      41.008  29.242  30.164  1.00  0.00     0.074 A 
ATOM     65  C   UNL A   1      47.424  28.234  29.738  1.00  0.00     0.029 A 
ATOM     66  N   UNL A   1      45.826  29.751  29.784  1.00  0.00    -0.354 N 
ATOM     67  N   UNL A   1      41.751  28.969  31.199  1.00  0.00    -0.248 NA
ATOM     68  C   UNL A   1      41.549  30.237  29.251  1.00  0.00     0.031 C 
ATOM     69  C   UNL A   1      46.558  27.990  30.843  1.00  0.00     0.029 A 
ATOM     70  C   UNL A   1      45.451  28.835  30.731  1.00  0.00     0.049 A 
ATOM     71  H   UNL A   1      45.494  30.675  29.710  1.00  0.00     0.167 HD
ATOM     72  C   UNL A   1      43.021  29.399  30.842  1.00  0.00     0.074 A 
ATOM     73  C   UNL A   1      42.817  30.257  29.674  1.00  0.00     0.031 C 
ATOM     74  C   UNL A   1      44.137  28.786  31.336  1.00  0.00     0.031 A 
BRANCH  61  75
ATOM     75  C   UNL A   1      46.565  30.718  26.927  1.00  0.00    -0.014 A 
ATOM     76  C   UNL A   1      47.744  31.481  27.011  1.00  0.00     0.009 A 
ATOM     77  C   UNL A   1      45.398  31.404  26.540  1.00  0.00     0.009 A 
ATOM     78  C   UNL A   1      47.734  32.867  26.817  1.00  0.00     0.001 A 
ATOM     79  C   UNL A   1      45.392  32.781  26.304  1.00  0.00     0.001 A 
ATOM     80  C   UNL A   1      46.554  33.517  26.475  1.00  0.00     0.000 A 
ENDBRANCH  61  75
BRANCH  62  81
ATOM     81  C   UNL A   1      38.568  28.736  29.440  1.00  0.00    -0.014 A 
ATOM     82  C   UNL A   1      37.721  28.991  30.531  1.00  0.00     0.009 A 
ATOM     83  C   UNL A   1      38.134  29.152  28.168  1.00  0.00     0.009 A 
ATOM     84  C   UNL A   1      36.501  29.662  30.357  1.00  0.00     0.001 A 
ATOM     85  C   UNL A   1      36.918  29.824  27.994  1.00  0.00     0.001 A 
ATOM     86  C   UNL A   1      36.107  30.091  29.092  1.00  0.00     0.000 A 
ENDBRANCH  62  81
BRANCH  74  87
ATOM     87  C   UNL A   1      43.970  27.788  32.457  1.00  0.00    -0.014 A 
ATOM     88  C   UNL A   1      43.972  26.396  32.264  1.00  0.00     0.009 A 
ATOM     89  C   UNL A   1      44.007  28.278  33.770  1.00  0.00     0.009 A 
ATOM     90  C   UNL A   1      44.000  25.523  33.358  1.00  0.00     0.001 A 
ATOM     91  C   UNL A   1      44.057  27.408  34.861  1.00  0.00     0.001 A 
ATOM     92  C   UNL A   1      44.052  26.031  34.655  1.00  0.00     0.000 A 
ENDBRANCH  74  87
ENDBRANCH  48  49
ENDBRANCH  40  43
ENDBRANCH  38  39
ENDBRANCH  37  38
ENDBRANCH  36  37
ENDBRANCH  35  36
ENDBRANCH   1  35
TORSDOF 18
ENDMDL
MODEL 2
REMARK VINA RESULT:     -11.9      2.005      2.807
REMARK SMILES CCn1ncc(NC(=O)[C@@H]2CCCC[C@@H]2C(=O)NCCCCCCNC(=O)c2ccc(-c3c4nc(c(-c5ccccc5)c5ccc([nH]5)c(-c5ccccc5)c5nc(c(-c6ccccc6)c6ccc3[nH]6)C=C5)C=C4)cc2)c1C(=O)Nc1cnn(C)c1C
REMARK SMILES IDX 20 1 19 2 18 3 16 4 17 5 15 7 10 8 11 9 12 10 14 11 13 12
REMARK SMILES IDX 8 13 7 14 9 16 6 17 3 18 4 19 76 20 5 21 2 22 1 23 77 24
REMARK SMILES IDX 78 25 79 26 80 28 81 29 85 30 82 31 83 32 86 33 84 34 21 35
REMARK SMILES IDX 22 36 23 37 24 38 25 39 26 40 27 42 28 43 29 44 75 45 30 46
REMARK SMILES IDX 74 47 31 48 32 49 33 50 68 51 34 52 73 53 67 54 69 55 35 56
REMARK SMILES IDX 72 57 66 58 65 59 36 61 58 62 43 63 57 64 44 65 47 66 56 67
REMARK SMILES IDX 70 68 45 69 46 70 55 72 71 73 48 74 37 75 38 76 42 77 39 78
REMARK SMILES IDX 41 79 40 80 59 81 60 82 64 83 61 84 63 85 62 86 49 87 50 88
REMARK SMILES IDX 54 89 51 90 53 91 52 92
REMARK H PARENT 18 6 7 15 79 27 25 41 69 60 47 71
REMARK Flexibility Score: inf
ROOT
ATOM      1  C   UNL A   1      38.504  23.435  26.246  1.00  0.00     0.021 C 
ENDROOT
BRANCH   1   2
ATOM      2  C   UNL A   1      37.081  23.944  26.029  1.00  0.00     0.116 C 
BRANCH   2   3
ATOM      3  N   UNL A   1      36.108  22.958  26.409  1.00  0.00    -0.356 N 
ATOM      4  C   UNL A   1      34.768  22.905  26.248  1.00  0.00     0.223 C 
ATOM      5  O   UNL A   1      34.261  21.826  26.578  1.00  0.00    -0.275 OA
ATOM      6  H   UNL A   1      36.489  22.176  26.871  1.00  0.00     0.163 HD
BRANCH   4   7
ATOM      7  C   UNL A   1      33.912  24.044  25.638  1.00  0.00     0.091 C 
ATOM      8  C   UNL A   1      32.399  23.828  25.381  1.00  0.00     0.091 C 
ATOM      9  C   UNL A   1      32.186  22.506  24.645  1.00  0.00     0.014 C 
ATOM     10  C   UNL A   1      32.868  22.554  23.267  1.00  0.00     0.001 C 
ATOM     11  C   UNL A   1      34.493  24.348  24.230  1.00  0.00     0.014 C 
ATOM     12  C   UNL A   1      34.269  23.182  23.247  1.00  0.00     0.001 C 
BRANCH   8  13
ATOM     13  C   UNL A   1      31.487  24.258  26.537  1.00  0.00     0.228 C 
ATOM     14  N   UNL A   1      30.751  25.401  26.476  1.00  0.00    -0.322 N 
ATOM     15  H   UNL A   1      29.774  25.281  26.485  1.00  0.00     0.170 HD
ATOM     16  O   UNL A   1      31.377  23.584  27.566  1.00  0.00    -0.274 OA
BRANCH  14  17
ATOM     17  C   UNL A   1      31.198  26.713  26.405  1.00  0.00     0.092 A 
ATOM     18  N   UNL A   1      31.827  28.759  25.924  1.00  0.00    -0.258 N 
ATOM     19  N   UNL A   1      32.148  28.618  27.227  1.00  0.00    -0.178 NA
ATOM     20  C   UNL A   1      31.324  27.605  25.345  1.00  0.00     0.150 A 
ATOM     21  C   UNL A   1      31.787  27.374  27.507  1.00  0.00     0.162 A 
BRANCH  18  22
ATOM     22  C   UNL A   1      32.079  30.065  25.344  1.00  0.00     0.142 C 
ATOM     23  C   UNL A   1      30.904  31.017  25.462  1.00  0.00     0.029 C 
ENDBRANCH  18  22
BRANCH  20  24
ATOM     24  C   UNL A   1      31.137  27.368  23.928  1.00  0.00     0.276 C 
ATOM     25  O   UNL A   1      32.012  26.916  23.196  1.00  0.00    -0.267 OA
ATOM     26  N   UNL A   1      29.843  27.504  23.484  1.00  0.00    -0.318 N 
ATOM     27  H   UNL A   1      29.182  26.800  23.679  1.00  0.00     0.170 HD
BRANCH  26  28
ATOM     28  C   UNL A   1      29.465  28.619  22.769  1.00  0.00     0.082 A 
ATOM     29  C   UNL A   1      30.250  29.502  22.006  1.00  0.00     0.161 A 
ATOM     30  C   UNL A   1      28.200  29.164  22.788  1.00  0.00     0.059 A 
ATOM     31  N   UNL A   1      29.592  30.628  21.735  1.00  0.00    -0.179 NA
ATOM     32  N   UNL A   1      28.396  30.449  22.329  1.00  0.00    -0.271 N 
ATOM     33  C   UNL A   1      26.917  28.686  23.360  1.00  0.00     0.068 C 
ATOM     34  C   UNL A   1      27.647  31.624  22.713  1.00  0.00     0.174 C 
ENDBRANCH  26  28
ENDBRANCH  20  24
ENDBRANCH  14  17
ENDBRANCH   8  13
ENDBRANCH   4   7
ENDBRANCH   2   3
ENDBRANCH   1   2
BRANCH   1  35
ATOM     35  C   UNL A   1      39.384  24.449  26.978  1.00  0.00     0.002 C 
BRANCH  35  36
ATOM     36  C   UNL A   1      40.629  23.841  27.640  1.00  0.00     0.002 C 
BRANCH  36  37
ATOM     37  C   UNL A   1      41.414  22.842  26.776  1.00  0.00     0.021 C 
BRANCH  37  38
ATOM     38  C   UNL A   1      42.844  22.664  27.254  1.00  0.00     0.116 C 
BRANCH  38  39
ATOM     39  N   UNL A   1      43.796  22.920  26.172  1.00  0.00    -0.352 N 
ATOM     40  C   UNL A   1      44.021  24.077  25.468  1.00  0.00     0.251 C 
ATOM     41  H   UNL A   1      44.354  22.152  25.911  1.00  0.00     0.163 HD
ATOM     42  O   UNL A   1      44.600  24.055  24.381  1.00  0.00    -0.269 OA
BRANCH  40  43
ATOM     43  C   UNL A   1      43.574  25.349  26.040  1.00  0.00     0.039 A 
ATOM     44  C   UNL A   1      42.589  26.123  25.421  1.00  0.00     0.014 A 
ATOM     45  C   UNL A   1      44.162  25.756  27.237  1.00  0.00     0.014 A 
ATOM     46  C   UNL A   1      42.164  27.286  26.049  1.00  0.00     0.010 A 
ATOM     47  C   UNL A   1      43.620  26.795  27.938  1.00  0.00     0.010 A 
ATOM     48  C   UNL A   1      42.684  27.606  27.313  1.00  0.00    -0.014 A 
BRANCH  48  49
ATOM     49  C   UNL A   1      42.192  28.744  28.069  1.00  0.00     0.031 A 
ATOM     50  C   UNL A   1      43.055  29.948  27.970  1.00  0.00     0.074 A 
ATOM     51  C   UNL A   1      40.949  28.770  28.597  1.00  0.00     0.049 A 
ATOM     52  N   UNL A   1      43.776  30.472  28.902  1.00  0.00    -0.248 NA
ATOM     53  C   UNL A   1      43.272  30.544  26.640  1.00  0.00     0.031 C 
ATOM     54  C   UNL A   1      39.880  27.769  28.464  1.00  0.00     0.029 A 
ATOM     55  N   UNL A   1      40.327  29.773  29.266  1.00  0.00    -0.354 N 
ATOM     56  C   UNL A   1      44.369  31.596  28.338  1.00  0.00     0.074 A 
ATOM     57  C   UNL A   1      44.192  31.471  26.914  1.00  0.00     0.031 C 
ATOM     58  C   UNL A   1      38.695  28.323  28.808  1.00  0.00     0.029 A 
ATOM     59  C   UNL A   1      38.944  29.646  29.349  1.00  0.00     0.049 A 
ATOM     60  H   UNL A   1      40.815  30.530  29.662  1.00  0.00     0.167 HD
ATOM     61  C   UNL A   1      44.705  32.671  29.105  1.00  0.00     0.031 A 
ATOM     62  C   UNL A   1      38.071  30.580  29.799  1.00  0.00     0.031 A 
ATOM     63  C   UNL A   1      44.664  32.342  30.509  1.00  0.00     0.049 A 
ATOM     64  C   UNL A   1      38.850  31.560  30.593  1.00  0.00     0.074 A 
ATOM     65  C   UNL A   1      45.318  31.431  31.314  1.00  0.00     0.029 A 
ATOM     66  N   UNL A   1      43.532  32.717  31.194  1.00  0.00    -0.354 N 
ATOM     67  N   UNL A   1      39.430  31.262  31.721  1.00  0.00    -0.248 NA
ATOM     68  C   UNL A   1      39.392  32.717  29.897  1.00  0.00     0.031 C 
ATOM     69  C   UNL A   1      44.315  30.950  32.205  1.00  0.00     0.029 A 
ATOM     70  C   UNL A   1      43.133  31.655  31.961  1.00  0.00     0.049 A 
ATOM     71  H   UNL A   1      43.087  33.594  31.143  1.00  0.00     0.167 HD
ATOM     72  C   UNL A   1      40.667  31.889  31.656  1.00  0.00     0.074 A 
ATOM     73  C   UNL A   1      40.548  32.847  30.556  1.00  0.00     0.031 C 
ATOM     74  C   UNL A   1      41.755  31.368  32.295  1.00  0.00     0.031 A 
BRANCH  61  75
ATOM     75  C   UNL A   1      44.615  34.102  28.633  1.00  0.00    -0.014 A 
ATOM     76  C   UNL A   1      43.351  34.606  28.274  1.00  0.00     0.009 A 
ATOM     77  C   UNL A   1      45.730  34.869  28.249  1.00  0.00     0.009 A 
ATOM     78  C   UNL A   1      43.219  35.758  27.490  1.00  0.00     0.001 A 
ATOM     79  C   UNL A   1      45.602  36.042  27.502  1.00  0.00     0.001 A 
ATOM     80  C   UNL A   1      44.347  36.469  27.095  1.00  0.00     0.000 A 
ENDBRANCH  61  75
BRANCH  62  81
ATOM     81  C   UNL A   1      36.678  30.838  29.371  1.00  0.00    -0.014 A 
ATOM     82  C   UNL A   1      35.881  31.789  30.028  1.00  0.00     0.009 A 
ATOM     83  C   UNL A   1      36.218  30.342  28.137  1.00  0.00     0.009 A 
ATOM     84  C   UNL A   1      34.683  32.247  29.456  1.00  0.00     0.001 A 
ATOM     85  C   UNL A   1      35.025  30.800  27.564  1.00  0.00     0.001 A 
ATOM     86  C   UNL A   1      34.264  31.763  28.218  1.00  0.00     0.000 A 
ENDBRANCH  62  81
BRANCH  74  87
ATOM     87  C   UNL A   1      41.540  30.232  33.266  1.00  0.00    -0.014 A 
ATOM     88  C   UNL A   1      41.486  28.881  32.880  1.00  0.00     0.009 A 
ATOM     89  C   UNL A   1      41.589  30.532  34.635  1.00  0.00     0.009 A 
ATOM     90  C   UNL A   1      41.471  27.863  33.841  1.00  0.00     0.001 A 
ATOM     91  C   UNL A   1      41.596  29.517  35.593  1.00  0.00     0.001 A 
ATOM     92  C   UNL A   1      41.536  28.183  35.197  1.00  0.00     0.000 A 
ENDBRANCH  74  87
ENDBRANCH  48  49
ENDBRANCH  40  43
ENDBRANCH  38  39
ENDBRANCH  37  38
ENDBRANCH  36  37
ENDBRANCH  35  36
ENDBRANCH   1  35
TORSDOF 18
ENDMDL
MODEL 3
REMARK VINA RESULT:     -10.9      5.516      9.215
REMARK SMILES CCn1ncc(NC(=O)[C@@H]2CCCC[C@@H]2C(=O)NCCCCCCNC(=O)c2ccc(-c3c4nc(c(-c5ccccc5)c5ccc([nH]5)c(-c5ccccc5)c5nc(c(-c6ccccc6)c6ccc3[nH]6)C=C5)C=C4)cc2)c1C(=O)Nc1cnn(C)c1C
REMARK SMILES IDX 20 1 19 2 18 3 16 4 17 5 15 7 10 8 11 9 12 10 14 11 13 12
REMARK SMILES IDX 8 13 7 14 9 16 6 17 3 18 4 19 76 20 5 21 2 22 1 23 77 24
REMARK SMILES IDX 78 25 79 26 80 28 81 29 85 30 82 31 83 32 86 33 84 34 21 35
REMARK SMILES IDX 22 36 23 37 24 38 25 39 26 40 27 42 28 43 29 44 75 45 30 46
REMARK SMILES IDX 74 47 31 48 32 49 33 50 68 51 34 52 73 53 67 54 69 55 35 56
REMARK SMILES IDX 72 57 66 58 65 59 36 61 58 62 43 63 57 64 44 65 47 66 56 67
REMARK SMILES IDX 70 68 45 69 46 70 55 72 71 73 48 74 37 75 38 76 42 77 39 78
REMARK SMILES IDX 41 79 40 80 59 81 60 82 64 83 61 84 63 85 62 86 49 87 50 88
REMARK SMILES IDX 54 89 51 90 53 91 52 92
REMARK H PARENT 18 6 7 15 79 27 25 41 69 60 47 71
REMARK Flexibility Score: inf
ROOT
ATOM      1  C   UNL A   1      41.740  28.229  33.564  1.00  0.00     0.021 C 
ENDROOT
BRANCH   1   2
ATOM      2  C   UNL A   1      40.458  28.579  32.811  1.00  0.00     0.116 C 
BRANCH   2   3
ATOM      3  N   UNL A   1      40.737  28.967  31.456  1.00  0.00    -0.356 N 
ATOM      4  C   UNL A   1      40.165  29.885  30.646  1.00  0.00     0.223 C 
ATOM      5  O   UNL A   1      40.759  30.054  29.575  1.00  0.00    -0.275 OA
ATOM      6  H   UNL A   1      41.482  28.475  31.042  1.00  0.00     0.163 HD
BRANCH   4   7
ATOM      7  C   UNL A   1      38.918  30.727  31.019  1.00  0.00     0.091 C 
ATOM      8  C   UNL A   1      37.572  30.026  31.332  1.00  0.00     0.091 C 
ATOM      9  C   UNL A   1      37.257  29.006  30.239  1.00  0.00     0.014 C 
ATOM     10  C   UNL A   1      37.083  29.718  28.887  1.00  0.00     0.001 C 
ATOM     11  C   UNL A   1      38.597  31.632  29.798  1.00  0.00     0.014 C 
ATOM     12  C   UNL A   1      38.113  30.816  28.584  1.00  0.00     0.001 C 
BRANCH   8  13
ATOM     13  C   UNL A   1      37.347  29.709  32.816  1.00  0.00     0.228 C 
ATOM     14  N   UNL A   1      37.067  30.686  33.719  1.00  0.00    -0.322 N 
ATOM     15  H   UNL A   1      36.181  30.633  34.146  1.00  0.00     0.170 HD
ATOM     16  O   UNL A   1      37.403  28.554  33.250  1.00  0.00    -0.274 OA
BRANCH  14  17
ATOM     17  C   UNL A   1      37.866  31.749  34.119  1.00  0.00     0.092 A 
ATOM     18  N   UNL A   1      38.807  33.621  34.770  1.00  0.00    -0.258 N 
ATOM     19  N   UNL A   1      39.851  32.803  34.518  1.00  0.00    -0.178 NA
ATOM     20  C   UNL A   1      37.576  33.064  34.463  1.00  0.00     0.150 A 
ATOM     21  C   UNL A   1      39.278  31.682  34.103  1.00  0.00     0.162 A 
BRANCH  18  22
ATOM     22  C   UNL A   1      39.139  34.935  35.287  1.00  0.00     0.142 C 
ATOM     23  C   UNL A   1      39.862  34.896  36.620  1.00  0.00     0.029 C 
ENDBRANCH  18  22
BRANCH  20  24
ATOM     24  C   UNL A   1      36.314  33.771  34.378  1.00  0.00     0.276 C 
ATOM     25  O   UNL A   1      35.513  33.840  35.305  1.00  0.00    -0.267 OA
ATOM     26  N   UNL A   1      36.150  34.531  33.244  1.00  0.00    -0.318 N 
ATOM     27  H   UNL A   1      36.625  35.389  33.157  1.00  0.00     0.170 HD
BRANCH  26  28
ATOM     28  C   UNL A   1      35.326  34.098  32.228  1.00  0.00     0.082 A 
ATOM     29  C   UNL A   1      35.443  32.968  31.401  1.00  0.00     0.161 A 
ATOM     30  C   UNL A   1      34.256  34.812  31.737  1.00  0.00     0.059 A 
ATOM     31  N   UNL A   1      34.645  33.057  30.338  1.00  0.00    -0.179 NA
ATOM     32  N   UNL A   1      34.029  34.245  30.502  1.00  0.00    -0.271 N 
ATOM     33  C   UNL A   1      33.585  36.051  32.204  1.00  0.00     0.068 C 
ATOM     34  C   UNL A   1      33.527  34.917  29.324  1.00  0.00     0.174 C 
ENDBRANCH  26  28
ENDBRANCH  20  24
ENDBRANCH  14  17
ENDBRANCH   8  13
ENDBRANCH   4   7
ENDBRANCH   2   3
ENDBRANCH   1   2
BRANCH   1  35
ATOM     35  C   UNL A   1      41.550  27.062  34.533  1.00  0.00     0.002 C 
BRANCH  35  36
ATOM     36  C   UNL A   1      41.981  27.364  35.976  1.00  0.00     0.002 C 
BRANCH  36  37
ATOM     37  C   UNL A   1      41.726  26.238  36.990  1.00  0.00     0.021 C 
BRANCH  37  38
ATOM     38  C   UNL A   1      42.074  24.869  36.435  1.00  0.00     0.116 C 
BRANCH  38  39
ATOM     39  N   UNL A   1      43.407  24.449  36.872  1.00  0.00    -0.352 N 
ATOM     40  C   UNL A   1      44.485  24.056  36.118  1.00  0.00     0.251 C 
ATOM     41  H   UNL A   1      43.550  24.448  37.846  1.00  0.00     0.163 HD
ATOM     42  O   UNL A   1      45.412  23.419  36.621  1.00  0.00    -0.269 OA
BRANCH  40  43
ATOM     43  C   UNL A   1      44.526  24.423  34.701  1.00  0.00     0.039 A 
ATOM     44  C   UNL A   1      44.817  25.726  34.291  1.00  0.00     0.014 A 
ATOM     45  C   UNL A   1      44.272  23.416  33.770  1.00  0.00     0.014 A 
ATOM     46  C   UNL A   1      44.904  25.992  32.930  1.00  0.00     0.010 A 
ATOM     47  C   UNL A   1      44.534  23.634  32.448  1.00  0.00     0.010 A 
ATOM     48  C   UNL A   1      44.768  24.933  32.019  1.00  0.00    -0.014 A 
BRANCH  48  49
ATOM     49  C   UNL A   1      44.965  25.129  30.594  1.00  0.00     0.031 A 
ATOM     50  C   UNL A   1      46.119  26.001  30.264  1.00  0.00     0.074 A 
ATOM     51  C   UNL A   1      44.315  24.387  29.673  1.00  0.00     0.049 A 
ATOM     52  N   UNL A   1      46.084  27.188  29.758  1.00  0.00    -0.248 NA
ATOM     53  C   UNL A   1      47.463  25.577  30.697  1.00  0.00     0.031 C 
ATOM     54  C   UNL A   1      43.401  23.255  29.891  1.00  0.00     0.029 A 
ATOM     55  N   UNL A   1      44.438  24.405  28.322  1.00  0.00    -0.354 N 
ATOM     56  C   UNL A   1      47.410  27.575  29.601  1.00  0.00     0.074 A 
ATOM     57  C   UNL A   1      48.194  26.647  30.377  1.00  0.00     0.031 C 
ATOM     58  C   UNL A   1      43.263  22.555  28.742  1.00  0.00     0.029 A 
ATOM     59  C   UNL A   1      43.929  23.282  27.677  1.00  0.00     0.049 A 
ATOM     60  H   UNL A   1      44.854  25.153  27.836  1.00  0.00     0.167 HD
ATOM     61  C   UNL A   1      47.774  28.450  28.623  1.00  0.00     0.031 A 
ATOM     62  C   UNL A   1      44.076  22.964  26.368  1.00  0.00     0.031 A 
ATOM     63  C   UNL A   1      46.621  29.107  28.057  1.00  0.00     0.049 A 
ATOM     64  C   UNL A   1      44.472  24.204  25.658  1.00  0.00     0.074 A 
ATOM     65  C   UNL A   1      45.622  29.918  28.556  1.00  0.00     0.029 A 
ATOM     66  N   UNL A   1      46.149  28.602  26.869  1.00  0.00    -0.354 N 
ATOM     67  N   UNL A   1      43.683  25.233  25.530  1.00  0.00    -0.248 NA
ATOM     68  C   UNL A   1      45.893  24.485  25.526  1.00  0.00     0.031 C 
ATOM     69  C   UNL A   1      44.437  29.479  27.896  1.00  0.00     0.029 A 
ATOM     70  C   UNL A   1      44.788  28.495  26.969  1.00  0.00     0.049 A 
ATOM     71  H   UNL A   1      46.693  28.360  26.084  1.00  0.00     0.167 HD
ATOM     72  C   UNL A   1      44.501  26.332  25.755  1.00  0.00     0.074 A 
ATOM     73  C   UNL A   1      45.866  25.815  25.652  1.00  0.00     0.031 C 
ATOM     74  C   UNL A   1      44.002  27.482  26.296  1.00  0.00     0.031 A 
BRANCH  61  75
ATOM     75  C   UNL A   1      49.081  28.375  27.870  1.00  0.00    -0.014 A 
ATOM     76  C   UNL A   1      49.241  27.354  26.915  1.00  0.00     0.009 A 
ATOM     77  C   UNL A   1      50.246  29.062  28.259  1.00  0.00     0.009 A 
ATOM     78  C   UNL A   1      50.507  26.978  26.453  1.00  0.00     0.001 A 
ATOM     79  C   UNL A   1      51.508  28.717  27.769  1.00  0.00     0.001 A 
ATOM     80  C   UNL A   1      51.642  27.653  26.890  1.00  0.00     0.000 A 
ENDBRANCH  61  75
BRANCH  62  81
ATOM     81  C   UNL A   1      44.170  21.628  25.737  1.00  0.00    -0.014 A 
ATOM     82  C   UNL A   1      45.411  21.088  25.362  1.00  0.00     0.009 A 
ATOM     83  C   UNL A   1      43.060  20.763  25.752  1.00  0.00     0.009 A 
ATOM     84  C   UNL A   1      45.539  19.727  25.043  1.00  0.00     0.001 A 
ATOM     85  C   UNL A   1      43.188  19.405  25.436  1.00  0.00     0.001 A 
ATOM     86  C   UNL A   1      44.431  18.884  25.095  1.00  0.00     0.000 A 
ENDBRANCH  62  81
BRANCH  74  87
ATOM     87  C   UNL A   1      42.505  27.622  26.426  1.00  0.00    -0.014 A 
ATOM     88  C   UNL A   1      41.724  26.842  27.297  1.00  0.00     0.009 A 
ATOM     89  C   UNL A   1      41.898  28.713  25.786  1.00  0.00     0.009 A 
ATOM     90  C   UNL A   1      40.374  27.142  27.510  1.00  0.00     0.001 A 
ATOM     91  C   UNL A   1      40.558  29.026  26.015  1.00  0.00     0.001 A 
ATOM     92  C   UNL A   1      39.795  28.240  26.876  1.00  0.00     0.000 A 
ENDBRANCH  74  87
ENDBRANCH  48  49
ENDBRANCH  40  43
ENDBRANCH  38  39
ENDBRANCH  37  38
ENDBRANCH  36  37
ENDBRANCH  35  36
ENDBRANCH   1  35
TORSDOF 18
ENDMDL
