MODEL 1
REMARK VINA RESULT:     -10.3      0.000      0.000
REMARK SMILES CC(=O)N(C)n1cnn(CC(=O)NCCCCCCNC(=O)c2ccc(-c3c4nc(c(-c5ccccc5)c5ccc([nH]5)c(-c5ccccc5)c5nc(c(-c6ccccc6)c6ccc3[nH]6)C=C5)C=C4)cc2)c1=S
REMARK SMILES IDX 16 1 15 2 14 3 13 4 11 5 12 6 10 8 9 9 6 10 7 11 71 12 8 13
REMARK SMILES IDX 72 14 4 15 5 16 2 17 1 18 3 19 17 20 18 21 19 22 20 23 21 24
REMARK SMILES IDX 22 26 23 27 24 28 70 29 25 30 69 31 26 32 27 33 28 34 63 35
REMARK SMILES IDX 29 36 68 37 62 38 64 39 30 40 67 41 61 42 60 43 31 45 53 46
REMARK SMILES IDX 38 47 52 48 39 49 42 50 51 51 65 52 40 53 41 54 50 56 66 57
REMARK SMILES IDX 43 58 32 59 33 60 37 61 34 62 36 63 35 64 54 65 55 66 59 67
REMARK SMILES IDX 56 68 58 69 57 70 44 71 45 72 49 73 46 74 48 75 47 76
REMARK H PARENT 13 7 20 25 64 44 42 55
REMARK Flexibility Score: inf
ROOT
ATOM      1  C   UNL A   1      40.576  21.828  26.889  1.00  0.00     0.002 C 
ENDROOT
BRANCH   1   2
ATOM      2  C   UNL A   1      39.138  21.698  26.375  1.00  0.00     0.021 C 
BRANCH   2   3
ATOM      3  C   UNL A   1      38.439  23.040  26.176  1.00  0.00     0.116 C 
BRANCH   3   4
ATOM      4  N   UNL A   1      37.941  23.194  24.829  1.00  0.00    -0.354 N 
ATOM      5  C   UNL A   1      36.720  22.880  24.308  1.00  0.00     0.241 C 
ATOM      6  O   UNL A   1      36.501  23.243  23.147  1.00  0.00    -0.273 OA
ATOM      7  H   UNL A   1      38.580  23.588  24.191  1.00  0.00     0.163 HD
BRANCH   5   8
ATOM      8  C   UNL A   1      35.592  22.310  25.173  1.00  0.00     0.247 C 
BRANCH   8   9
ATOM      9  N   UNL A   1      35.284  20.894  24.992  1.00  0.00    -0.227 N 
ATOM     10  N   UNL A   1      34.371  18.912  24.615  1.00  0.00    -0.211 N 
ATOM     11  C   UNL A   1      35.715  18.832  24.752  1.00  0.00     0.247 A 
ATOM     12  C   UNL A   1      34.045  20.255  24.750  1.00  0.00     0.217 A 
ATOM     13  N   UNL A   1      36.308  19.963  24.966  1.00  0.00    -0.158 NA
ATOM     14  S   UNL A   1      32.551  20.991  24.635  1.00  0.00    -0.037 S 
BRANCH  10  15
ATOM     15  N   UNL A   1      33.529  17.798  24.441  1.00  0.00    -0.250 N 
ATOM     16  C   UNL A   1      32.884  17.307  25.649  1.00  0.00     0.176 C 
BRANCH  15  17
ATOM     17  C   UNL A   1      33.391  17.268  23.165  1.00  0.00     0.238 C 
ATOM     18  C   UNL A   1      32.424  17.972  22.244  1.00  0.00     0.116 C 
ATOM     19  O   UNL A   1      34.020  16.287  22.765  1.00  0.00    -0.273 OA
ENDBRANCH  15  17
ENDBRANCH  10  15
ENDBRANCH   8   9
ENDBRANCH   5   8
ENDBRANCH   3   4
ENDBRANCH   2   3
ENDBRANCH   1   2
BRANCH   1  20
ATOM     20  C   UNL A   1      41.121  20.613  27.660  1.00  0.00     0.002 C 
BRANCH  20  21
ATOM     21  C   UNL A   1      41.876  19.565  26.829  1.00  0.00     0.021 C 
BRANCH  21  22
ATOM     22  C   UNL A   1      42.280  20.061  25.451  1.00  0.00     0.116 C 
BRANCH  22  23
ATOM     23  N   UNL A   1      43.644  19.682  25.090  1.00  0.00    -0.352 N 
ATOM     24  C   UNL A   1      44.710  20.512  24.794  1.00  0.00     0.251 C 
ATOM     25  H   UNL A   1      43.829  18.715  25.055  1.00  0.00     0.163 HD
ATOM     26  O   UNL A   1      45.680  20.106  24.178  1.00  0.00    -0.269 OA
BRANCH  24  27
ATOM     27  C   UNL A   1      44.644  21.916  25.244  1.00  0.00     0.039 A 
ATOM     28  C   UNL A   1      43.968  22.887  24.502  1.00  0.00     0.014 A 
ATOM     29  C   UNL A   1      45.244  22.236  26.458  1.00  0.00     0.014 A 
ATOM     30  C   UNL A   1      43.829  24.163  25.046  1.00  0.00     0.010 A 
ATOM     31  C   UNL A   1      44.960  23.433  27.063  1.00  0.00     0.010 A 
ATOM     32  C   UNL A   1      44.302  24.422  26.344  1.00  0.00    -0.014 A 
BRANCH  32  33
ATOM     33  C   UNL A   1      44.004  25.683  27.017  1.00  0.00     0.031 A 
ATOM     34  C   UNL A   1      44.922  26.795  26.659  1.00  0.00     0.074 A 
ATOM     35  C   UNL A   1      42.896  25.895  27.760  1.00  0.00     0.049 A 
ATOM     36  N   UNL A   1      45.809  27.334  27.426  1.00  0.00    -0.248 NA
ATOM     37  C   UNL A   1      44.969  27.269  25.267  1.00  0.00     0.031 C 
ATOM     38  C   UNL A   1      41.773  24.975  27.998  1.00  0.00     0.029 A 
ATOM     39  N   UNL A   1      42.485  27.029  28.396  1.00  0.00    -0.354 N 
ATOM     40  C   UNL A   1      46.390  28.356  26.686  1.00  0.00     0.074 A 
ATOM     41  C   UNL A   1      45.956  28.169  25.325  1.00  0.00     0.031 C 
ATOM     42  C   UNL A   1      40.723  25.653  28.512  1.00  0.00     0.029 A 
ATOM     43  C   UNL A   1      41.161  27.000  28.822  1.00  0.00     0.049 A 
ATOM     44  H   UNL A   1      43.075  27.804  28.540  1.00  0.00     0.167 HD
ATOM     45  C   UNL A   1      46.961  29.423  27.312  1.00  0.00     0.031 A 
ATOM     46  C   UNL A   1      40.473  27.997  29.425  1.00  0.00     0.031 A 
ATOM     47  C   UNL A   1      47.119  29.172  28.723  1.00  0.00     0.049 A 
ATOM     48  C   UNL A   1      41.467  28.878  30.065  1.00  0.00     0.074 A 
ATOM     49  C   UNL A   1      47.909  28.366  29.511  1.00  0.00     0.029 A 
ATOM     50  N   UNL A   1      46.039  29.551  29.480  1.00  0.00    -0.354 N 
ATOM     51  N   UNL A   1      42.212  28.492  31.060  1.00  0.00    -0.248 NA
ATOM     52  C   UNL A   1      41.918  30.075  29.373  1.00  0.00     0.031 C 
ATOM     53  C   UNL A   1      47.108  28.038  30.647  1.00  0.00     0.029 A 
ATOM     54  C   UNL A   1      45.882  28.698  30.539  1.00  0.00     0.049 A 
ATOM     55  H   UNL A   1      45.461  30.326  29.290  1.00  0.00     0.167 HD
ATOM     56  C   UNL A   1      43.433  29.096  30.824  1.00  0.00     0.074 A 
ATOM     57  C   UNL A   1      43.141  30.188  29.902  1.00  0.00     0.031 C 
ATOM     58  C   UNL A   1      44.596  28.465  31.162  1.00  0.00     0.031 A 
BRANCH  45  59
ATOM     59  C   UNL A   1      46.892  30.839  26.790  1.00  0.00    -0.014 A 
ATOM     60  C   UNL A   1      48.037  31.651  26.904  1.00  0.00     0.009 A 
ATOM     61  C   UNL A   1      45.681  31.494  26.497  1.00  0.00     0.009 A 
ATOM     62  C   UNL A   1      47.959  33.045  26.802  1.00  0.00     0.001 A 
ATOM     63  C   UNL A   1      45.606  32.884  26.360  1.00  0.00     0.001 A 
ATOM     64  C   UNL A   1      46.741  33.662  26.539  1.00  0.00     0.000 A 
ENDBRANCH  45  59
BRANCH  46  65
ATOM     65  C   UNL A   1      39.039  28.338  29.365  1.00  0.00    -0.014 A 
ATOM     66  C   UNL A   1      38.279  28.501  30.533  1.00  0.00     0.009 A 
ATOM     67  C   UNL A   1      38.491  28.796  28.153  1.00  0.00     0.009 A 
ATOM     68  C   UNL A   1      37.034  29.145  30.497  1.00  0.00     0.001 A 
ATOM     69  C   UNL A   1      37.251  29.444  28.118  1.00  0.00     0.001 A 
ATOM     70  C   UNL A   1      36.530  29.632  29.293  1.00  0.00     0.000 A 
ENDBRANCH  46  65
BRANCH  58  71
ATOM     71  C   UNL A   1      44.492  27.297  32.109  1.00  0.00    -0.014 A 
ATOM     72  C   UNL A   1      44.322  27.437  33.497  1.00  0.00     0.009 A 
ATOM     73  C   UNL A   1      44.469  26.008  31.561  1.00  0.00     0.009 A 
ATOM     74  C   UNL A   1      44.160  26.312  34.315  1.00  0.00     0.001 A 
ATOM     75  C   UNL A   1      44.286  24.888  32.375  1.00  0.00     0.001 A 
ATOM     76  C   UNL A   1      44.138  25.039  33.750  1.00  0.00     0.000 A 
ENDBRANCH  58  71
ENDBRANCH  32  33
ENDBRANCH  24  27
ENDBRANCH  22  23
ENDBRANCH  21  22
ENDBRANCH  20  21
ENDBRANCH   1  20
TORSDOF 16
ENDMDL
MODEL 2
REMARK VINA RESULT:     -10.0      4.749      9.966
REMARK SMILES CC(=O)N(C)n1cnn(CC(=O)NCCCCCCNC(=O)c2ccc(-c3c4nc(c(-c5ccccc5)c5ccc([nH]5)c(-c5ccccc5)c5nc(c(-c6ccccc6)c6ccc3[nH]6)C=C5)C=C4)cc2)c1=S
REMARK SMILES IDX 16 1 15 2 14 3 13 4 11 5 12 6 10 8 9 9 6 10 7 11 71 12 8 13
REMARK SMILES IDX 72 14 4 15 5 16 2 17 1 18 3 19 17 20 18 21 19 22 20 23 21 24
REMARK SMILES IDX 22 26 23 27 24 28 70 29 25 30 69 31 26 32 27 33 28 34 63 35
REMARK SMILES IDX 29 36 68 37 62 38 64 39 30 40 67 41 61 42 60 43 31 45 53 46
REMARK SMILES IDX 38 47 52 48 39 49 42 50 51 51 65 52 40 53 41 54 50 56 66 57
REMARK SMILES IDX 43 58 32 59 33 60 37 61 34 62 36 63 35 64 54 65 55 66 59 67
REMARK SMILES IDX 56 68 58 69 57 70 44 71 45 72 49 73 46 74 48 75 47 76
REMARK H PARENT 13 7 20 25 64 44 42 55
REMARK Flexibility Score: inf
ROOT
ATOM      1  C   UNL A   1      34.492  32.218  28.342  1.00  0.00     0.002 C 
ENDROOT
BRANCH   1   2
ATOM      2  C   UNL A   1      33.495  31.651  27.324  1.00  0.00     0.021 C 
BRANCH   2   3
ATOM      3  C   UNL A   1      33.709  30.172  27.020  1.00  0.00     0.116 C 
BRANCH   3   4
ATOM      4  N   UNL A   1      32.787  29.333  27.749  1.00  0.00    -0.354 N 
ATOM      5  C   UNL A   1      31.816  28.493  27.286  1.00  0.00     0.241 C 
ATOM      6  O   UNL A   1      31.252  27.779  28.123  1.00  0.00    -0.273 OA
ATOM      7  H   UNL A   1      32.873  29.370  28.730  1.00  0.00     0.163 HD
BRANCH   5   8
ATOM      8  C   UNL A   1      31.582  28.273  25.788  1.00  0.00     0.247 C 
BRANCH   8   9
ATOM      9  N   UNL A   1      32.386  27.234  25.150  1.00  0.00    -0.227 N 
ATOM     10  N   UNL A   1      33.264  25.360  24.361  1.00  0.00    -0.211 N 
ATOM     11  C   UNL A   1      33.890  26.457  23.873  1.00  0.00     0.247 A 
ATOM     12  C   UNL A   1      32.256  25.826  25.194  1.00  0.00     0.217 A 
ATOM     13  N   UNL A   1      33.414  27.585  24.293  1.00  0.00    -0.158 NA
ATOM     14  S   UNL A   1      31.115  24.958  26.051  1.00  0.00    -0.037 S 
BRANCH  10  15
ATOM     15  N   UNL A   1      33.660  24.038  24.084  1.00  0.00    -0.250 N 
ATOM     16  C   UNL A   1      34.555  23.438  25.060  1.00  0.00     0.176 C 
BRANCH  15  17
ATOM     17  C   UNL A   1      33.182  23.434  22.929  1.00  0.00     0.238 C 
ATOM     18  C   UNL A   1      31.853  22.727  23.039  1.00  0.00     0.116 C 
ATOM     19  O   UNL A   1      33.775  23.467  21.849  1.00  0.00    -0.273 OA
ENDBRANCH  15  17
ENDBRANCH  10  15
ENDBRANCH   8   9
ENDBRANCH   5   8
ENDBRANCH   3   4
ENDBRANCH   2   3
ENDBRANCH   1   2
BRANCH   1  20
ATOM     20  C   UNL A   1      35.103  33.584  27.987  1.00  0.00     0.002 C 
BRANCH  20  21
ATOM     21  C   UNL A   1      34.601  34.784  28.802  1.00  0.00     0.021 C 
BRANCH  21  22
ATOM     22  C   UNL A   1      33.229  34.566  29.418  1.00  0.00     0.116 C 
BRANCH  22  23
ATOM     23  N   UNL A   1      33.013  35.371  30.619  1.00  0.00    -0.352 N 
ATOM     24  C   UNL A   1      33.488  35.140  31.897  1.00  0.00     0.251 C 
ATOM     25  H   UNL A   1      32.461  36.179  30.504  1.00  0.00     0.163 HD
ATOM     26  O   UNL A   1      32.973  35.662  32.870  1.00  0.00    -0.269 OA
BRANCH  24  27
ATOM     27  C   UNL A   1      34.645  34.238  32.056  1.00  0.00     0.039 A 
ATOM     28  C   UNL A   1      34.497  32.850  32.011  1.00  0.00     0.014 A 
ATOM     29  C   UNL A   1      35.901  34.816  32.212  1.00  0.00     0.014 A 
ATOM     30  C   UNL A   1      35.642  32.057  32.035  1.00  0.00     0.010 A 
ATOM     31  C   UNL A   1      37.027  34.048  32.063  1.00  0.00     0.010 A 
ATOM     32  C   UNL A   1      36.910  32.665  32.030  1.00  0.00    -0.014 A 
BRANCH  32  33
ATOM     33  C   UNL A   1      38.125  31.872  31.860  1.00  0.00     0.031 A 
ATOM     34  C   UNL A   1      38.819  31.543  33.132  1.00  0.00     0.074 A 
ATOM     35  C   UNL A   1      38.507  31.325  30.685  1.00  0.00     0.049 A 
ATOM     36  N   UNL A   1      39.950  32.016  33.533  1.00  0.00    -0.248 NA
ATOM     37  C   UNL A   1      38.128  30.715  34.133  1.00  0.00     0.031 C 
ATOM     38  C   UNL A   1      37.796  31.351  29.399  1.00  0.00     0.029 A 
ATOM     39  N   UNL A   1      39.584  30.536  30.410  1.00  0.00    -0.354 N 
ATOM     40  C   UNL A   1      40.221  31.392  34.745  1.00  0.00     0.074 A 
ATOM     41  C   UNL A   1      39.004  30.731  35.143  1.00  0.00     0.031 C 
ATOM     42  C   UNL A   1      38.325  30.432  28.561  1.00  0.00     0.029 A 
ATOM     43  C   UNL A   1      39.526  29.898  29.175  1.00  0.00     0.049 A 
ATOM     44  H   UNL A   1      40.338  30.425  31.032  1.00  0.00     0.167 HD
ATOM     45  C   UNL A   1      41.505  31.254  35.177  1.00  0.00     0.031 A 
ATOM     46  C   UNL A   1      40.419  29.019  28.664  1.00  0.00     0.031 A 
ATOM     47  C   UNL A   1      42.406  32.063  34.395  1.00  0.00     0.049 A 
ATOM     48  C   UNL A   1      41.706  29.276  29.337  1.00  0.00     0.074 A 
ATOM     49  C   UNL A   1      42.668  33.406  34.245  1.00  0.00     0.029 A 
ATOM     50  N   UNL A   1      42.913  31.423  33.291  1.00  0.00    -0.354 N 
ATOM     51  N   UNL A   1      42.373  30.382  29.181  1.00  0.00    -0.248 NA
ATOM     52  C   UNL A   1      42.089  28.469  30.486  1.00  0.00     0.031 C 
ATOM     53  C   UNL A   1      43.067  33.568  32.883  1.00  0.00     0.029 A 
ATOM     54  C   UNL A   1      43.090  32.316  32.269  1.00  0.00     0.049 A 
ATOM     55  H   UNL A   1      43.119  30.461  33.242  1.00  0.00     0.167 HD
ATOM     56  C   UNL A   1      42.909  30.634  30.431  1.00  0.00     0.074 A 
ATOM     57  C   UNL A   1      42.865  29.352  31.125  1.00  0.00     0.031 C 
ATOM     58  C   UNL A   1      43.054  31.916  30.877  1.00  0.00     0.031 A 
BRANCH  45  59
ATOM     59  C   UNL A   1      42.016  30.040  35.919  1.00  0.00    -0.014 A 
ATOM     60  C   UNL A   1      43.243  30.142  36.604  1.00  0.00     0.009 A 
ATOM     61  C   UNL A   1      41.518  28.741  35.707  1.00  0.00     0.009 A 
ATOM     62  C   UNL A   1      43.962  29.004  36.988  1.00  0.00     0.001 A 
ATOM     63  C   UNL A   1      42.218  27.603  36.121  1.00  0.00     0.001 A 
ATOM     64  C   UNL A   1      43.454  27.734  36.738  1.00  0.00     0.000 A 
ENDBRANCH  45  59
BRANCH  46  65
ATOM     65  C   UNL A   1      40.218  27.874  27.756  1.00  0.00    -0.014 A 
ATOM     66  C   UNL A   1      41.022  27.694  26.620  1.00  0.00     0.009 A 
ATOM     67  C   UNL A   1      39.422  26.793  28.178  1.00  0.00     0.009 A 
ATOM     68  C   UNL A   1      41.065  26.459  25.958  1.00  0.00     0.001 A 
ATOM     69  C   UNL A   1      39.470  25.559  27.521  1.00  0.00     0.001 A 
ATOM     70  C   UNL A   1      40.304  25.388  26.420  1.00  0.00     0.000 A 
ENDBRANCH  46  65
BRANCH  58  71
ATOM     71  C   UNL A   1      42.964  33.015  29.849  1.00  0.00    -0.014 A 
ATOM     72  C   UNL A   1      41.872  33.894  29.747  1.00  0.00     0.009 A 
ATOM     73  C   UNL A   1      44.071  33.227  29.016  1.00  0.00     0.009 A 
ATOM     74  C   UNL A   1      41.880  34.941  28.817  1.00  0.00     0.001 A 
ATOM     75  C   UNL A   1      44.087  34.283  28.103  1.00  0.00     0.001 A 
ATOM     76  C   UNL A   1      42.991  35.135  27.999  1.00  0.00     0.000 A 
ENDBRANCH  58  71
ENDBRANCH  32  33
ENDBRANCH  24  27
ENDBRANCH  22  23
ENDBRANCH  21  22
ENDBRANCH  20  21
ENDBRANCH   1  20
TORSDOF 16
ENDMDL
MODEL 3
REMARK VINA RESULT:      -9.7      4.902      9.886
REMARK SMILES CC(=O)N(C)n1cnn(CC(=O)NCCCCCCNC(=O)c2ccc(-c3c4nc(c(-c5ccccc5)c5ccc([nH]5)c(-c5ccccc5)c5nc(c(-c6ccccc6)c6ccc3[nH]6)C=C5)C=C4)cc2)c1=S
REMARK SMILES IDX 16 1 15 2 14 3 13 4 11 5 12 6 10 8 9 9 6 10 7 11 71 12 8 13
REMARK SMILES IDX 72 14 4 15 5 16 2 17 1 18 3 19 17 20 18 21 19 22 20 23 21 24
REMARK SMILES IDX 22 26 23 27 24 28 70 29 25 30 69 31 26 32 27 33 28 34 63 35
REMARK SMILES IDX 29 36 68 37 62 38 64 39 30 40 67 41 61 42 60 43 31 45 53 46
REMARK SMILES IDX 38 47 52 48 39 49 42 50 51 51 65 52 40 53 41 54 50 56 66 57
REMARK SMILES IDX 43 58 32 59 33 60 37 61 34 62 36 63 35 64 54 65 55 66 59 67
REMARK SMILES IDX 56 68 58 69 57 70 44 71 45 72 49 73 46 74 48 75 47 76
REMARK H PARENT 13 7 20 25 64 44 42 55
REMARK Flexibility Score: inf
ROOT
ATOM      1  C   UNL A   1      36.154  33.300  33.355  1.00  0.00     0.002 C 
ENDROOT
BRANCH   1   2
ATOM      2  C   UNL A   1      34.781  33.114  32.701  1.00  0.00     0.021 C 
BRANCH   2   3
ATOM      3  C   UNL A   1      34.808  33.242  31.181  1.00  0.00     0.116 C 
BRANCH   3   4
ATOM      4  N   UNL A   1      33.875  34.238  30.707  1.00  0.00    -0.354 N 
ATOM      5  C   UNL A   1      33.517  34.562  29.430  1.00  0.00     0.241 C 
ATOM      6  O   UNL A   1      32.587  35.365  29.301  1.00  0.00    -0.273 OA
ATOM      7  H   UNL A   1      33.429  34.762  31.412  1.00  0.00     0.163 HD
BRANCH   5   8
ATOM      8  C   UNL A   1      34.074  33.810  28.217  1.00  0.00     0.247 C 
BRANCH   8   9
ATOM      9  N   UNL A   1      33.212  32.786  27.635  1.00  0.00    -0.227 N 
ATOM     10  N   UNL A   1      32.266  30.932  26.877  1.00  0.00    -0.211 N 
ATOM     11  C   UNL A   1      31.413  31.982  26.850  1.00  0.00     0.247 A 
ATOM     12  C   UNL A   1      33.459  31.411  27.402  1.00  0.00     0.217 A 
ATOM     13  N   UNL A   1      31.908  33.095  27.290  1.00  0.00    -0.158 NA
ATOM     14  S   UNL A   1      34.874  30.586  27.725  1.00  0.00    -0.037 S 
BRANCH  10  15
ATOM     15  N   UNL A   1      31.954  29.649  26.388  1.00  0.00    -0.250 N 
ATOM     16  C   UNL A   1      31.724  28.633  27.403  1.00  0.00     0.176 C 
BRANCH  15  17
ATOM     17  C   UNL A   1      31.899  29.462  25.014  1.00  0.00     0.238 C 
ATOM     18  C   UNL A   1      33.135  28.891  24.362  1.00  0.00     0.116 C 
ATOM     19  O   UNL A   1      30.906  29.720  24.331  1.00  0.00    -0.273 OA
ENDBRANCH  15  17
ENDBRANCH  10  15
ENDBRANCH   8   9
ENDBRANCH   5   8
ENDBRANCH   3   4
ENDBRANCH   2   3
ENDBRANCH   1   2
BRANCH   1  20
ATOM     20  C   UNL A   1      37.350  32.740  32.566  1.00  0.00     0.002 C 
BRANCH  20  21
ATOM     21  C   UNL A   1      38.587  32.355  33.390  1.00  0.00     0.021 C 
BRANCH  21  22
ATOM     22  C   UNL A   1      39.817  33.185  33.060  1.00  0.00     0.116 C 
BRANCH  22  23
ATOM     23  N   UNL A   1      39.633  34.022  31.876  1.00  0.00    -0.352 N 
ATOM     24  C   UNL A   1      40.159  33.835  30.610  1.00  0.00     0.251 C 
ATOM     25  H   UNL A   1      39.064  34.817  31.993  1.00  0.00     0.163 HD
ATOM     26  O   UNL A   1      40.234  34.752  29.811  1.00  0.00    -0.269 OA
BRANCH  24  27
ATOM     27  C   UNL A   1      40.634  32.486  30.247  1.00  0.00     0.039 A 
ATOM     28  C   UNL A   1      41.995  32.173  30.227  1.00  0.00     0.014 A 
ATOM     29  C   UNL A   1      39.677  31.517  29.962  1.00  0.00     0.014 A 
ATOM     30  C   UNL A   1      42.372  30.850  30.006  1.00  0.00     0.010 A 
ATOM     31  C   UNL A   1      40.038  30.195  29.916  1.00  0.00     0.010 A 
ATOM     32  C   UNL A   1      41.384  29.857  29.881  1.00  0.00    -0.014 A 
BRANCH  32  33
ATOM     33  C   UNL A   1      41.740  28.441  29.842  1.00  0.00     0.031 A 
ATOM     34  C   UNL A   1      42.393  27.944  31.080  1.00  0.00     0.074 A 
ATOM     35  C   UNL A   1      41.363  27.598  28.856  1.00  0.00     0.049 A 
ATOM     36  N   UNL A   1      43.629  27.594  31.209  1.00  0.00    -0.248 NA
ATOM     37  C   UNL A   1      41.644  27.969  32.347  1.00  0.00     0.031 C 
ATOM     38  C   UNL A   1      40.504  27.884  27.697  1.00  0.00     0.029 A 
ATOM     39  N   UNL A   1      41.591  26.260  28.729  1.00  0.00    -0.354 N 
ATOM     40  C   UNL A   1      43.772  27.157  32.520  1.00  0.00     0.074 A 
ATOM     41  C   UNL A   1      42.575  27.558  33.215  1.00  0.00     0.031 C 
ATOM     42  C   UNL A   1      40.097  26.728  27.129  1.00  0.00     0.029 A 
ATOM     43  C   UNL A   1      40.817  25.637  27.756  1.00  0.00     0.049 A 
ATOM     44  H   UNL A   1      42.247  25.775  29.280  1.00  0.00     0.167 HD
ATOM     45  C   UNL A   1      44.749  26.266  32.848  1.00  0.00     0.031 A 
ATOM     46  C   UNL A   1      40.790  24.318  27.450  1.00  0.00     0.031 A 
ATOM     47  C   UNL A   1      45.700  26.122  31.774  1.00  0.00     0.049 A 
ATOM     48  C   UNL A   1      42.080  23.751  27.887  1.00  0.00     0.074 A 
ATOM     49  C   UNL A   1      46.684  26.895  31.201  1.00  0.00     0.029 A 
ATOM     50  N   UNL A   1      45.376  25.140  30.871  1.00  0.00    -0.354 N 
ATOM     51  N   UNL A   1      43.214  24.080  27.340  1.00  0.00    -0.248 NA
ATOM     52  C   UNL A   1      42.175  23.097  29.182  1.00  0.00     0.031 C 
ATOM     53  C   UNL A   1      46.708  26.524  29.822  1.00  0.00     0.029 A 
ATOM     54  C   UNL A   1      45.781  25.502  29.615  1.00  0.00     0.049 A 
ATOM     55  H   UNL A   1      44.918  24.297  31.095  1.00  0.00     0.167 HD
ATOM     56  C   UNL A   1      44.105  24.107  28.397  1.00  0.00     0.074 A 
ATOM     57  C   UNL A   1      43.467  23.320  29.447  1.00  0.00     0.031 C 
ATOM     58  C   UNL A   1      45.128  25.011  28.419  1.00  0.00     0.031 A 
BRANCH  45  59
ATOM     59  C   UNL A   1      44.575  25.165  33.868  1.00  0.00    -0.014 A 
ATOM     60  C   UNL A   1      45.453  25.128  34.968  1.00  0.00     0.009 A 
ATOM     61  C   UNL A   1      43.815  24.005  33.628  1.00  0.00     0.009 A 
ATOM     62  C   UNL A   1      45.612  23.969  35.738  1.00  0.00     0.001 A 
ATOM     63  C   UNL A   1      43.947  22.858  34.417  1.00  0.00     0.001 A 
ATOM     64  C   UNL A   1      44.866  22.832  35.456  1.00  0.00     0.000 A 
ENDBRANCH  45  59
BRANCH  46  65
ATOM     65  C   UNL A   1      39.685  23.476  26.955  1.00  0.00    -0.014 A 
ATOM     66  C   UNL A   1      38.451  24.035  26.587  1.00  0.00     0.009 A 
ATOM     67  C   UNL A   1      39.951  22.152  26.564  1.00  0.00     0.009 A 
ATOM     68  C   UNL A   1      37.536  23.310  25.812  1.00  0.00     0.001 A 
ATOM     69  C   UNL A   1      39.039  21.430  25.785  1.00  0.00     0.001 A 
ATOM     70  C   UNL A   1      37.838  22.015  25.397  1.00  0.00     0.000 A 
ENDBRANCH  46  65
BRANCH  58  71
ATOM     71  C   UNL A   1      45.462  25.700  27.121  1.00  0.00    -0.014 A 
ATOM     72  C   UNL A   1      44.740  26.795  26.616  1.00  0.00     0.009 A 
ATOM     73  C   UNL A   1      46.610  25.285  26.434  1.00  0.00     0.009 A 
ATOM     74  C   UNL A   1      45.145  27.439  25.440  1.00  0.00     0.001 A 
ATOM     75  C   UNL A   1      47.025  25.939  25.273  1.00  0.00     0.001 A 
ATOM     76  C   UNL A   1      46.291  27.011  24.773  1.00  0.00     0.000 A 
ENDBRANCH  58  71
ENDBRANCH  32  33
ENDBRANCH  24  27
ENDBRANCH  22  23
ENDBRANCH  21  22
ENDBRANCH  20  21
ENDBRANCH   1  20
TORSDOF 16
ENDMDL
