MODEL 1
REMARK VINA RESULT:     -11.3      0.000      0.000
REMARK SMILES Cn1cc([C@@H]2CC(NCCCCCCNC(=O)c3ccc(-c4c5nc(c(-c6ccccc6)c6ccc([nH]6)c(-c6ccccc6)c6nc(c(-c7ccccc7)c7ccc4[nH]7)C=C6)C=C5)cc3)=[NH+]c3c2sc(C(=O)[O-])c3-c2ccc(Cl)cc2)cn1
REMARK SMILES IDX 12 1 11 2 10 3 9 4 8 5 5 6 6 7 68 8 7 9 67 10 69 11 66 12
REMARK SMILES IDX 74 13 70 14 4 17 1 18 2 19 3 20 83 21 82 22 75 23 76 24
REMARK SMILES IDX 81 25 77 26 80 27 78 28 79 29 71 30 72 31 73 32 13 33 14 34
REMARK SMILES IDX 15 35 16 36 17 38 18 39 19 40 65 41 20 42 64 43 21 44 22 45
REMARK SMILES IDX 23 46 58 47 24 48 63 49 57 50 59 51 25 52 62 53 56 54 55 55
REMARK SMILES IDX 26 57 48 58 33 59 47 60 34 61 37 62 46 63 60 64 35 65 36 66
REMARK SMILES IDX 45 68 61 69 38 70 27 71 28 72 32 73 29 74 31 75 30 76 49 77
REMARK SMILES IDX 50 78 54 79 51 80 53 81 52 82 39 83 40 84 44 85 41 86 43 87
REMARK SMILES IDX 42 88
REMARK H PARENT 8 15 66 16 15 37 59 56 37 67
REMARK Flexibility Score: inf
ROOT
ATOM      1  C   UNL A   1      35.835  32.544  28.015  1.00  0.00     0.002 C 
ENDROOT
BRANCH   1   2
ATOM      2  C   UNL A   1      35.050  31.228  27.932  1.00  0.00     0.004 C 
BRANCH   2   3
ATOM      3  C   UNL A   1      35.802  30.025  27.354  1.00  0.00     0.046 C 
BRANCH   3   4
ATOM      4  C   UNL A   1      34.997  28.728  27.296  1.00  0.00     0.233 C 
BRANCH   4   5
ATOM      5  N   UNL A   1      33.634  28.993  26.876  1.00  0.00    -0.278 N 
ATOM      6  C   UNL A   1      30.640  27.718  24.839  1.00  0.00     0.079 C 
ATOM      7  C   UNL A   1      31.476  28.616  25.760  1.00  0.00     0.142 C 
ATOM      8  C   UNL A   1      31.363  26.451  24.538  1.00  0.00     0.061 A 
ATOM      9  C   UNL A   1      32.892  28.138  26.089  1.00  0.00     0.248 C 
ATOM     10  C   UNL A   1      32.630  26.157  24.942  1.00  0.00     0.147 A 
ATOM     11  S   UNL A   1      30.689  25.172  23.647  1.00  0.00    -0.133 S 
ATOM     12  N   UNL A   1      33.418  27.010  25.708  1.00  0.00    -0.243 N 
ATOM     13  C   UNL A   1      33.102  24.877  24.511  1.00  0.00     0.049 A 
ATOM     14  C   UNL A   1      32.128  24.216  23.767  1.00  0.00     0.062 A 
ATOM     15  H   UNL A   1      33.214  29.834  27.169  1.00  0.00     0.304 HD
ATOM     16  H   UNL A   1      34.340  26.771  25.954  1.00  0.00     0.312 HD
BRANCH   6  17
ATOM     17  C   UNL A   1      30.217  28.429  23.582  1.00  0.00    -0.001 A 
ATOM     18  C   UNL A   1      28.093  30.235  21.298  1.00  0.00     0.173 C 
ATOM     19  N   UNL A   1      29.110  29.522  22.031  1.00  0.00    -0.276 N 
ATOM     20  C   UNL A   1      28.954  28.835  23.197  1.00  0.00     0.112 A 
ATOM     21  N   UNL A   1      30.379  29.534  21.584  1.00  0.00    -0.182 NA
ATOM     22  C   UNL A   1      31.053  28.890  22.538  1.00  0.00     0.139 A 
ENDBRANCH   6  17
BRANCH  13  23
ATOM     23  C   UNL A   1      34.409  24.312  24.844  1.00  0.00    -0.012 A 
ATOM     24  C   UNL A   1      35.408  24.166  23.874  1.00  0.00     0.010 A 
ATOM     25  C   UNL A   1      34.678  23.937  26.169  1.00  0.00     0.010 A 
ATOM     26  C   UNL A   1      36.638  23.594  24.214  1.00  0.00     0.021 A 
ATOM     27  C   UNL A   1      35.910  23.379  26.511  1.00  0.00     0.021 A 
ATOM     28  C   UNL A   1      36.880  23.198  25.527  1.00  0.00     0.041 A 
ATOM     29  Cl  UNL A   1      38.388  22.478  25.940  1.00  0.00    -0.084 Cl
ENDBRANCH  13  23
BRANCH  14  30
ATOM     30  C   UNL A   1      32.081  22.919  23.115  1.00  0.00     0.082 C 
ATOM     31  O   UNL A   1      32.454  22.619  21.999  1.00  0.00    -0.544 OA
ATOM     32  O   UNL A   1      31.532  21.957  23.894  1.00  0.00    -0.544 OA
ENDBRANCH  14  30
ENDBRANCH   4   5
ENDBRANCH   3   4
ENDBRANCH   2   3
ENDBRANCH   1   2
BRANCH   1  33
ATOM     33  C   UNL A   1      35.020  33.829  28.214  1.00  0.00     0.021 C 
BRANCH  33  34
ATOM     34  C   UNL A   1      33.669  33.626  28.883  1.00  0.00     0.116 C 
BRANCH  34  35
ATOM     35  N   UNL A   1      33.428  34.562  29.983  1.00  0.00    -0.352 N 
ATOM     36  C   UNL A   1      33.887  34.491  31.287  1.00  0.00     0.251 C 
ATOM     37  H   UNL A   1      32.868  35.343  29.768  1.00  0.00     0.163 HD
ATOM     38  O   UNL A   1      33.326  35.097  32.191  1.00  0.00    -0.269 OA
BRANCH  36  39
ATOM     39  C   UNL A   1      35.079  33.674  31.568  1.00  0.00     0.039 A 
ATOM     40  C   UNL A   1      35.019  32.283  31.684  1.00  0.00     0.014 A 
ATOM     41  C   UNL A   1      36.291  34.344  31.676  1.00  0.00     0.014 A 
ATOM     42  C   UNL A   1      36.210  31.571  31.820  1.00  0.00     0.010 A 
ATOM     43  C   UNL A   1      37.461  33.639  31.610  1.00  0.00     0.010 A 
ATOM     44  C   UNL A   1      37.433  32.260  31.760  1.00  0.00    -0.014 A 
BRANCH  44  45
ATOM     45  C   UNL A   1      38.709  31.554  31.742  1.00  0.00     0.031 A 
ATOM     46  C   UNL A   1      39.283  31.315  33.088  1.00  0.00     0.074 A 
ATOM     47  C   UNL A   1      39.196  30.941  30.639  1.00  0.00     0.049 A 
ATOM     48  N   UNL A   1      40.305  31.898  33.620  1.00  0.00    -0.248 NA
ATOM     49  C   UNL A   1      38.549  30.435  34.014  1.00  0.00     0.031 C 
ATOM     50  C   UNL A   1      38.532  30.796  29.334  1.00  0.00     0.029 A 
ATOM     51  N   UNL A   1      40.329  30.201  30.476  1.00  0.00    -0.354 N 
ATOM     52  C   UNL A   1      40.502  31.255  34.839  1.00  0.00     0.074 A 
ATOM     53  C   UNL A   1      39.277  30.558  35.127  1.00  0.00     0.031 C 
ATOM     54  C   UNL A   1      39.133  29.820  28.622  1.00  0.00     0.029 A 
ATOM     55  C   UNL A   1      40.340  29.425  29.320  1.00  0.00     0.049 A 
ATOM     56  H   UNL A   1      41.074  30.214  31.119  1.00  0.00     0.167 HD
ATOM     57  C   UNL A   1      41.766  31.048  35.306  1.00  0.00     0.031 A 
ATOM     58  C   UNL A   1      41.277  28.523  28.949  1.00  0.00     0.031 A 
ATOM     59  C   UNL A   1      42.726  31.802  34.538  1.00  0.00     0.049 A 
ATOM     60  C   UNL A   1      42.524  28.858  29.662  1.00  0.00     0.074 A 
ATOM     61  C   UNL A   1      43.144  33.107  34.424  1.00  0.00     0.029 A 
ATOM     62  N   UNL A   1      43.147  31.138  33.415  1.00  0.00    -0.354 N 
ATOM     63  N   UNL A   1      43.188  29.959  29.454  1.00  0.00    -0.248 NA
ATOM     64  C   UNL A   1      42.881  28.127  30.872  1.00  0.00     0.031 C 
ATOM     65  C   UNL A   1      43.704  33.235  33.115  1.00  0.00     0.029 A 
ATOM     66  C   UNL A   1      43.656  31.996  32.480  1.00  0.00     0.049 A 
ATOM     67  H   UNL A   1      43.090  30.163  33.296  1.00  0.00     0.167 HD
ATOM     68  C   UNL A   1      43.696  30.281  30.696  1.00  0.00     0.074 A 
ATOM     69  C   UNL A   1      43.646  29.045  31.468  1.00  0.00     0.031 C 
ATOM     70  C   UNL A   1      43.784  31.581  31.101  1.00  0.00     0.031 A 
BRANCH  57  71
ATOM     71  C   UNL A   1      42.211  29.782  36.019  1.00  0.00    -0.014 A 
ATOM     72  C   UNL A   1      43.444  29.810  36.701  1.00  0.00     0.009 A 
ATOM     73  C   UNL A   1      41.651  28.511  35.797  1.00  0.00     0.009 A 
ATOM     74  C   UNL A   1      44.113  28.633  37.063  1.00  0.00     0.001 A 
ATOM     75  C   UNL A   1      42.299  27.333  36.185  1.00  0.00     0.001 A 
ATOM     76  C   UNL A   1      43.544  27.394  36.793  1.00  0.00     0.000 A 
ENDBRANCH  57  71
BRANCH  58  77
ATOM     77  C   UNL A   1      41.141  27.285  28.159  1.00  0.00    -0.014 A 
ATOM     78  C   UNL A   1      40.164  26.332  28.489  1.00  0.00     0.009 A 
ATOM     79  C   UNL A   1      41.764  27.184  26.902  1.00  0.00     0.009 A 
ATOM     80  C   UNL A   1      39.777  25.351  27.566  1.00  0.00     0.001 A 
ATOM     81  C   UNL A   1      41.377  26.203  25.982  1.00  0.00     0.001 A 
ATOM     82  C   UNL A   1      40.369  25.301  26.307  1.00  0.00     0.000 A 
ENDBRANCH  58  77
BRANCH  70  83
ATOM     83  C   UNL A   1      43.839  32.640  30.041  1.00  0.00    -0.014 A 
ATOM     84  C   UNL A   1      42.746  33.445  29.680  1.00  0.00     0.009 A 
ATOM     85  C   UNL A   1      45.077  32.872  29.425  1.00  0.00     0.009 A 
ATOM     86  C   UNL A   1      42.891  34.443  28.708  1.00  0.00     0.001 A 
ATOM     87  C   UNL A   1      45.225  33.879  28.471  1.00  0.00     0.001 A 
ATOM     88  C   UNL A   1      44.130  34.660  28.108  1.00  0.00     0.000 A 
ENDBRANCH  70  83
ENDBRANCH  44  45
ENDBRANCH  36  39
ENDBRANCH  34  35
ENDBRANCH  33  34
ENDBRANCH   1  33
TORSDOF 15
ENDMDL
MODEL 2
REMARK VINA RESULT:     -11.0      2.240      3.263
REMARK SMILES Cn1cc([C@@H]2CC(NCCCCCCNC(=O)c3ccc(-c4c5nc(c(-c6ccccc6)c6ccc([nH]6)c(-c6ccccc6)c6nc(c(-c7ccccc7)c7ccc4[nH]7)C=C6)C=C5)cc3)=[NH+]c3c2sc(C(=O)[O-])c3-c2ccc(Cl)cc2)cn1
REMARK SMILES IDX 12 1 11 2 10 3 9 4 8 5 5 6 6 7 68 8 7 9 67 10 69 11 66 12
REMARK SMILES IDX 74 13 70 14 4 17 1 18 2 19 3 20 83 21 82 22 75 23 76 24
REMARK SMILES IDX 81 25 77 26 80 27 78 28 79 29 71 30 72 31 73 32 13 33 14 34
REMARK SMILES IDX 15 35 16 36 17 38 18 39 19 40 65 41 20 42 64 43 21 44 22 45
REMARK SMILES IDX 23 46 58 47 24 48 63 49 57 50 59 51 25 52 62 53 56 54 55 55
REMARK SMILES IDX 26 57 48 58 33 59 47 60 34 61 37 62 46 63 60 64 35 65 36 66
REMARK SMILES IDX 45 68 61 69 38 70 27 71 28 72 32 73 29 74 31 75 30 76 49 77
REMARK SMILES IDX 50 78 54 79 51 80 53 81 52 82 39 83 40 84 44 85 41 86 43 87
REMARK SMILES IDX 42 88
REMARK H PARENT 8 15 66 16 15 37 59 56 37 67
REMARK Flexibility Score: inf
ROOT
ATOM      1  C   UNL A   1      34.799  32.263  28.076  1.00  0.00     0.002 C 
ENDROOT
BRANCH   1   2
ATOM      2  C   UNL A   1      35.902  31.220  27.842  1.00  0.00     0.004 C 
BRANCH   2   3
ATOM      3  C   UNL A   1      35.569  29.780  28.243  1.00  0.00     0.046 C 
BRANCH   3   4
ATOM      4  C   UNL A   1      35.115  28.879  27.096  1.00  0.00     0.233 C 
BRANCH   4   5
ATOM      5  N   UNL A   1      33.755  29.199  26.706  1.00  0.00    -0.278 N 
ATOM      6  C   UNL A   1      30.634  28.000  24.820  1.00  0.00     0.079 C 
ATOM      7  C   UNL A   1      31.545  28.890  25.675  1.00  0.00     0.142 C 
ATOM      8  C   UNL A   1      31.280  26.684  24.554  1.00  0.00     0.061 A 
ATOM      9  C   UNL A   1      32.945  28.352  25.981  1.00  0.00     0.248 C 
ATOM     10  C   UNL A   1      32.543  26.340  24.931  1.00  0.00     0.147 A 
ATOM     11  S   UNL A   1      30.511  25.405  23.741  1.00  0.00    -0.133 S 
ATOM     12  N   UNL A   1      33.398  27.182  25.635  1.00  0.00    -0.243 N 
ATOM     13  C   UNL A   1      32.933  25.020  24.543  1.00  0.00     0.049 A 
ATOM     14  C   UNL A   1      31.902  24.380  23.859  1.00  0.00     0.062 A 
ATOM     15  H   UNL A   1      33.389  30.072  26.974  1.00  0.00     0.304 HD
ATOM     16  H   UNL A   1      34.314  26.904  25.862  1.00  0.00     0.312 HD
BRANCH   6  17
ATOM     17  C   UNL A   1      30.207  28.677  23.546  1.00  0.00    -0.001 A 
ATOM     18  C   UNL A   1      28.079  30.432  21.226  1.00  0.00     0.173 C 
ATOM     19  N   UNL A   1      29.097  29.733  21.972  1.00  0.00    -0.276 N 
ATOM     20  C   UNL A   1      28.944  29.080  23.158  1.00  0.00     0.112 A 
ATOM     21  N   UNL A   1      30.363  29.726  21.518  1.00  0.00    -0.182 NA
ATOM     22  C   UNL A   1      31.040  29.104  22.485  1.00  0.00     0.139 A 
ENDBRANCH   6  17
BRANCH  13  23
ATOM     23  C   UNL A   1      34.219  24.401  24.861  1.00  0.00    -0.012 A 
ATOM     24  C   UNL A   1      34.475  23.863  26.128  1.00  0.00     0.010 A 
ATOM     25  C   UNL A   1      35.206  24.318  23.866  1.00  0.00     0.010 A 
ATOM     26  C   UNL A   1      35.725  23.305  26.414  1.00  0.00     0.021 A 
ATOM     27  C   UNL A   1      36.449  23.749  24.148  1.00  0.00     0.021 A 
ATOM     28  C   UNL A   1      36.707  23.257  25.426  1.00  0.00     0.041 A 
ATOM     29  Cl  UNL A   1      38.250  22.586  25.785  1.00  0.00    -0.084 Cl
ENDBRANCH  13  23
BRANCH  14  30
ATOM     30  C   UNL A   1      31.766  23.061  23.267  1.00  0.00     0.082 C 
ATOM     31  O   UNL A   1      31.023  22.158  23.595  1.00  0.00    -0.544 OA
ATOM     32  O   UNL A   1      32.606  22.862  22.225  1.00  0.00    -0.544 OA
ENDBRANCH  14  30
ENDBRANCH   4   5
ENDBRANCH   3   4
ENDBRANCH   2   3
ENDBRANCH   1   2
BRANCH   1  33
ATOM     33  C   UNL A   1      35.252  33.678  28.459  1.00  0.00     0.021 C 
BRANCH  33  34
ATOM     34  C   UNL A   1      36.447  33.732  29.398  1.00  0.00     0.116 C 
BRANCH  34  35
ATOM     35  N   UNL A   1      36.086  33.495  30.798  1.00  0.00    -0.352 N 
ATOM     36  C   UNL A   1      36.382  32.397  31.586  1.00  0.00     0.251 C 
ATOM     37  H   UNL A   1      35.565  34.208  31.234  1.00  0.00     0.163 HD
ATOM     38  O   UNL A   1      35.723  32.137  32.585  1.00  0.00    -0.269 OA
BRANCH  36  39
ATOM     39  C   UNL A   1      37.522  31.546  31.207  1.00  0.00     0.039 A 
ATOM     40  C   UNL A   1      38.787  32.073  30.933  1.00  0.00     0.014 A 
ATOM     41  C   UNL A   1      37.301  30.175  31.170  1.00  0.00     0.014 A 
ATOM     42  C   UNL A   1      39.844  31.192  30.710  1.00  0.00     0.010 A 
ATOM     43  C   UNL A   1      38.367  29.319  31.149  1.00  0.00     0.010 A 
ATOM     44  C   UNL A   1      39.628  29.811  30.842  1.00  0.00    -0.014 A 
BRANCH  44  45
ATOM     45  C   UNL A   1      40.726  28.854  30.772  1.00  0.00     0.031 A 
ATOM     46  C   UNL A   1      41.397  28.612  32.072  1.00  0.00     0.074 A 
ATOM     47  C   UNL A   1      40.946  28.062  29.697  1.00  0.00     0.049 A 
ATOM     48  N   UNL A   1      42.570  29.009  32.434  1.00  0.00    -0.248 NA
ATOM     49  C   UNL A   1      40.617  27.986  33.154  1.00  0.00     0.031 C 
ATOM     50  C   UNL A   1      40.115  27.952  28.488  1.00  0.00     0.029 A 
ATOM     51  N   UNL A   1      41.880  27.089  29.502  1.00  0.00    -0.354 N 
ATOM     52  C   UNL A   1      42.779  28.443  33.689  1.00  0.00     0.074 A 
ATOM     53  C   UNL A   1      41.482  28.045  34.170  1.00  0.00     0.031 C 
ATOM     54  C   UNL A   1      40.420  26.815  27.827  1.00  0.00     0.029 A 
ATOM     55  C   UNL A   1      41.598  26.235  28.440  1.00  0.00     0.049 A 
ATOM     56  H   UNL A   1      42.684  26.999  30.062  1.00  0.00     0.167 HD
ATOM     57  C   UNL A   1      44.022  28.015  34.048  1.00  0.00     0.031 A 
ATOM     58  C   UNL A   1      42.285  25.129  28.074  1.00  0.00     0.031 A 
ATOM     59  C   UNL A   1      45.016  28.483  33.112  1.00  0.00     0.049 A 
ATOM     60  C   UNL A   1      43.650  25.252  28.620  1.00  0.00     0.074 A 
ATOM     61  C   UNL A   1      45.668  29.657  32.820  1.00  0.00     0.029 A 
ATOM     62  N   UNL A   1      45.158  27.655  32.030  1.00  0.00    -0.354 N 
ATOM     63  N   UNL A   1      44.491  26.167  28.232  1.00  0.00    -0.248 NA
ATOM     64  C   UNL A   1      43.995  24.565  29.859  1.00  0.00     0.031 C 
ATOM     65  C   UNL A   1      46.083  29.555  31.455  1.00  0.00     0.029 A 
ATOM     66  C   UNL A   1      45.713  28.306  30.963  1.00  0.00     0.049 A 
ATOM     67  H   UNL A   1      44.894  26.707  32.021  1.00  0.00     0.167 HD
ATOM     68  C   UNL A   1      45.197  26.478  29.376  1.00  0.00     0.074 A 
ATOM     69  C   UNL A   1      44.993  25.349  30.275  1.00  0.00     0.031 C 
ATOM     70  C   UNL A   1      45.590  27.759  29.630  1.00  0.00     0.031 A 
BRANCH  57  71
ATOM     71  C   UNL A   1      44.288  26.747  34.843  1.00  0.00    -0.014 A 
ATOM     72  C   UNL A   1      44.046  25.511  34.210  1.00  0.00     0.009 A 
ATOM     73  C   UNL A   1      44.456  26.710  36.240  1.00  0.00     0.009 A 
ATOM     74  C   UNL A   1      43.898  24.326  34.943  1.00  0.00     0.001 A 
ATOM     75  C   UNL A   1      44.343  25.524  36.972  1.00  0.00     0.001 A 
ATOM     76  C   UNL A   1      44.035  24.335  36.326  1.00  0.00     0.000 A 
ENDBRANCH  57  71
BRANCH  58  77
ATOM     77  C   UNL A   1      41.811  23.885  27.437  1.00  0.00    -0.014 A 
ATOM     78  C   UNL A   1      42.298  23.498  26.179  1.00  0.00     0.009 A 
ATOM     79  C   UNL A   1      41.116  22.929  28.199  1.00  0.00     0.009 A 
ATOM     80  C   UNL A   1      42.152  22.180  25.727  1.00  0.00     0.001 A 
ATOM     81  C   UNL A   1      40.970  21.613  27.746  1.00  0.00     0.001 A 
ATOM     82  C   UNL A   1      41.507  21.234  26.520  1.00  0.00     0.000 A 
ENDBRANCH  58  77
BRANCH  70  83
ATOM     83  C   UNL A   1      45.729  28.691  28.463  1.00  0.00    -0.014 A 
ATOM     84  C   UNL A   1      44.711  29.552  28.023  1.00  0.00     0.009 A 
ATOM     85  C   UNL A   1      46.975  28.741  27.822  1.00  0.00     0.009 A 
ATOM     86  C   UNL A   1      44.935  30.424  26.951  1.00  0.00     0.001 A 
ATOM     87  C   UNL A   1      47.203  29.623  26.767  1.00  0.00     0.001 A 
ATOM     88  C   UNL A   1      46.181  30.460  26.327  1.00  0.00     0.000 A 
ENDBRANCH  70  83
ENDBRANCH  44  45
ENDBRANCH  36  39
ENDBRANCH  34  35
ENDBRANCH  33  34
ENDBRANCH   1  33
TORSDOF 15
ENDMDL
MODEL 3
REMARK VINA RESULT:     -10.8      5.837     11.113
REMARK SMILES Cn1cc([C@@H]2CC(NCCCCCCNC(=O)c3ccc(-c4c5nc(c(-c6ccccc6)c6ccc([nH]6)c(-c6ccccc6)c6nc(c(-c7ccccc7)c7ccc4[nH]7)C=C6)C=C5)cc3)=[NH+]c3c2sc(C(=O)[O-])c3-c2ccc(Cl)cc2)cn1
REMARK SMILES IDX 12 1 11 2 10 3 9 4 8 5 5 6 6 7 68 8 7 9 67 10 69 11 66 12
REMARK SMILES IDX 74 13 70 14 4 17 1 18 2 19 3 20 83 21 82 22 75 23 76 24
REMARK SMILES IDX 81 25 77 26 80 27 78 28 79 29 71 30 72 31 73 32 13 33 14 34
REMARK SMILES IDX 15 35 16 36 17 38 18 39 19 40 65 41 20 42 64 43 21 44 22 45
REMARK SMILES IDX 23 46 58 47 24 48 63 49 57 50 59 51 25 52 62 53 56 54 55 55
REMARK SMILES IDX 26 57 48 58 33 59 47 60 34 61 37 62 46 63 60 64 35 65 36 66
REMARK SMILES IDX 45 68 61 69 38 70 27 71 28 72 32 73 29 74 31 75 30 76 49 77
REMARK SMILES IDX 50 78 54 79 51 80 53 81 52 82 39 83 40 84 44 85 41 86 43 87
REMARK SMILES IDX 42 88
REMARK H PARENT 8 15 66 16 15 37 59 56 37 67
REMARK Flexibility Score: inf
ROOT
ATOM      1  C   UNL A   1      41.822  26.463  34.492  1.00  0.00     0.002 C 
ENDROOT
BRANCH   1   2
ATOM      2  C   UNL A   1      41.323  27.891  34.231  1.00  0.00     0.004 C 
BRANCH   2   3
ATOM      3  C   UNL A   1      41.353  28.365  32.775  1.00  0.00     0.046 C 
BRANCH   3   4
ATOM      4  C   UNL A   1      41.024  29.842  32.570  1.00  0.00     0.233 C 
BRANCH   4   5
ATOM      5  N   UNL A   1      40.818  30.499  33.846  1.00  0.00    -0.278 N 
ATOM      6  C   UNL A   1      38.537  32.819  35.884  1.00  0.00     0.079 C 
ATOM      7  C   UNL A   1      39.708  31.889  35.544  1.00  0.00     0.142 C 
ATOM      8  C   UNL A   1      37.547  32.852  34.770  1.00  0.00     0.061 A 
ATOM      9  C   UNL A   1      39.725  31.288  34.136  1.00  0.00     0.248 C 
ATOM     10  C   UNL A   1      37.696  32.223  33.572  1.00  0.00     0.147 A 
ATOM     11  S   UNL A   1      36.068  33.683  34.850  1.00  0.00    -0.133 S 
ATOM     12  N   UNL A   1      38.800  31.447  33.235  1.00  0.00    -0.243 N 
ATOM     13  C   UNL A   1      36.607  32.422  32.665  1.00  0.00     0.049 A 
ATOM     14  C   UNL A   1      35.627  33.227  33.239  1.00  0.00     0.062 A 
ATOM     15  H   UNL A   1      41.498  30.376  34.546  1.00  0.00     0.304 HD
ATOM     16  H   UNL A   1      38.881  31.033  32.345  1.00  0.00     0.312 HD
BRANCH   6  17
ATOM     17  C   UNL A   1      38.997  34.201  36.260  1.00  0.00    -0.001 A 
ATOM     18  C   UNL A   1      40.198  36.892  38.336  1.00  0.00     0.173 C 
ATOM     19  N   UNL A   1      39.716  35.983  37.324  1.00  0.00    -0.276 N 
ATOM     20  C   UNL A   1      39.204  34.736  37.518  1.00  0.00     0.112 A 
ATOM     21  N   UNL A   1      39.794  36.334  36.028  1.00  0.00    -0.182 NA
ATOM     22  C   UNL A   1      39.378  35.243  35.383  1.00  0.00     0.139 A 
ENDBRANCH   6  17
BRANCH  13  23
ATOM     23  C   UNL A   1      36.508  31.824  31.335  1.00  0.00    -0.012 A 
ATOM     24  C   UNL A   1      36.329  30.445  31.167  1.00  0.00     0.010 A 
ATOM     25  C   UNL A   1      36.563  32.652  30.203  1.00  0.00     0.010 A 
ATOM     26  C   UNL A   1      36.267  29.896  29.883  1.00  0.00     0.021 A 
ATOM     27  C   UNL A   1      36.489  32.105  28.921  1.00  0.00     0.021 A 
ATOM     28  C   UNL A   1      36.355  30.727  28.768  1.00  0.00     0.041 A 
ATOM     29  Cl  UNL A   1      36.297  30.048  27.187  1.00  0.00    -0.084 Cl
ENDBRANCH  13  23
BRANCH  14  30
ATOM     30  C   UNL A   1      34.344  33.723  32.772  1.00  0.00     0.082 C 
ATOM     31  O   UNL A   1      34.116  34.685  32.066  1.00  0.00    -0.544 OA
ATOM     32  O   UNL A   1      33.300  32.985  33.216  1.00  0.00    -0.544 OA
ENDBRANCH  14  30
ENDBRANCH   4   5
ENDBRANCH   3   4
ENDBRANCH   2   3
ENDBRANCH   1   2
BRANCH   1  33
ATOM     33  C   UNL A   1      41.404  25.812  35.818  1.00  0.00     0.021 C 
BRANCH  33  34
ATOM     34  C   UNL A   1      42.133  24.519  36.148  1.00  0.00     0.116 C 
BRANCH  34  35
ATOM     35  N   UNL A   1      43.373  24.735  36.896  1.00  0.00    -0.352 N 
ATOM     36  C   UNL A   1      44.677  24.597  36.454  1.00  0.00     0.251 C 
ATOM     37  H   UNL A   1      43.266  25.014  37.834  1.00  0.00     0.163 HD
ATOM     38  O   UNL A   1      45.600  24.429  37.241  1.00  0.00    -0.269 OA
BRANCH  36  39
ATOM     39  C   UNL A   1      44.940  24.668  35.007  1.00  0.00     0.039 A 
ATOM     40  C   UNL A   1      44.937  23.533  34.192  1.00  0.00     0.014 A 
ATOM     41  C   UNL A   1      45.153  25.930  34.465  1.00  0.00     0.014 A 
ATOM     42  C   UNL A   1      45.063  23.699  32.813  1.00  0.00     0.010 A 
ATOM     43  C   UNL A   1      45.078  26.106  33.112  1.00  0.00     0.010 A 
ATOM     44  C   UNL A   1      45.112  24.997  32.279  1.00  0.00    -0.014 A 
BRANCH  44  45
ATOM     45  C   UNL A   1      45.089  25.233  30.840  1.00  0.00     0.031 A 
ATOM     46  C   UNL A   1      46.200  26.085  30.353  1.00  0.00     0.074 A 
ATOM     47  C   UNL A   1      44.298  24.537  29.991  1.00  0.00     0.049 A 
ATOM     48  N   UNL A   1      46.130  27.306  29.941  1.00  0.00    -0.248 NA
ATOM     49  C   UNL A   1      47.577  25.575  30.477  1.00  0.00     0.031 C 
ATOM     50  C   UNL A   1      43.418  23.405  30.321  1.00  0.00     0.029 A 
ATOM     51  N   UNL A   1      44.203  24.597  28.633  1.00  0.00    -0.354 N 
ATOM     52  C   UNL A   1      47.412  27.619  29.497  1.00  0.00     0.074 A 
ATOM     53  C   UNL A   1      48.287  26.629  30.068  1.00  0.00     0.031 C 
ATOM     54  C   UNL A   1      43.096  22.734  29.195  1.00  0.00     0.029 A 
ATOM     55  C   UNL A   1      43.563  23.502  28.059  1.00  0.00     0.049 A 
ATOM     56  H   UNL A   1      44.556  25.348  28.105  1.00  0.00     0.167 HD
ATOM     57  C   UNL A   1      47.582  28.424  28.410  1.00  0.00     0.031 A 
ATOM     58  C   UNL A   1      43.412  23.241  26.741  1.00  0.00     0.031 A 
ATOM     59  C   UNL A   1      46.339  29.057  28.042  1.00  0.00     0.049 A 
ATOM     60  C   UNL A   1      43.552  24.518  26.015  1.00  0.00     0.074 A 
ATOM     61  C   UNL A   1      45.545  30.086  28.493  1.00  0.00     0.029 A 
ATOM     62  N   UNL A   1      45.571  28.281  27.215  1.00  0.00    -0.354 N 
ATOM     63  N   UNL A   1      42.707  25.502  26.139  1.00  0.00    -0.248 NA
ATOM     64  C   UNL A   1      44.825  24.857  25.391  1.00  0.00     0.031 C 
ATOM     65  C   UNL A   1      44.225  29.810  28.019  1.00  0.00     0.029 A 
ATOM     66  C   UNL A   1      44.254  28.647  27.253  1.00  0.00     0.049 A 
ATOM     67  H   UNL A   1      45.924  27.549  26.659  1.00  0.00     0.167 HD
ATOM     68  C   UNL A   1      43.494  26.631  26.035  1.00  0.00     0.074 A 
ATOM     69  C   UNL A   1      44.724  26.189  25.391  1.00  0.00     0.031 C 
ATOM     70  C   UNL A   1      43.230  27.739  26.786  1.00  0.00     0.031 A 
BRANCH  57  71
ATOM     71  C   UNL A   1      48.649  28.207  27.350  1.00  0.00    -0.014 A 
ATOM     72  C   UNL A   1      48.477  27.132  26.454  1.00  0.00     0.009 A 
ATOM     73  C   UNL A   1      49.928  28.791  27.384  1.00  0.00     0.009 A 
ATOM     74  C   UNL A   1      49.545  26.622  25.703  1.00  0.00     0.001 A 
ATOM     75  C   UNL A   1      50.989  28.307  26.611  1.00  0.00     0.001 A 
ATOM     76  C   UNL A   1      50.804  27.203  25.792  1.00  0.00     0.000 A 
ENDBRANCH  57  71
BRANCH  58  77
ATOM     77  C   UNL A   1      43.331  21.949  26.033  1.00  0.00    -0.014 A 
ATOM     78  C   UNL A   1      44.469  21.397  25.424  1.00  0.00     0.009 A 
ATOM     79  C   UNL A   1      42.212  21.118  26.220  1.00  0.00     0.009 A 
ATOM     80  C   UNL A   1      44.509  20.041  25.075  1.00  0.00     0.001 A 
ATOM     81  C   UNL A   1      42.253  19.764  25.869  1.00  0.00     0.001 A 
ATOM     82  C   UNL A   1      43.409  19.221  25.316  1.00  0.00     0.000 A 
ENDBRANCH  58  77
BRANCH  70  83
ATOM     83  C   UNL A   1      41.832  27.921  27.296  1.00  0.00    -0.014 A 
ATOM     84  C   UNL A   1      40.880  28.758  26.691  1.00  0.00     0.009 A 
ATOM     85  C   UNL A   1      41.445  27.157  28.406  1.00  0.00     0.009 A 
ATOM     86  C   UNL A   1      39.580  28.840  27.204  1.00  0.00     0.001 A 
ATOM     87  C   UNL A   1      40.145  27.225  28.905  1.00  0.00     0.001 A 
ATOM     88  C   UNL A   1      39.214  28.071  28.308  1.00  0.00     0.000 A 
ENDBRANCH  70  83
ENDBRANCH  44  45
ENDBRANCH  36  39
ENDBRANCH  34  35
ENDBRANCH  33  34
ENDBRANCH   1  33
TORSDOF 15
ENDMDL
