MODEL 1
REMARK VINA RESULT:     -12.1      0.000      0.000
REMARK SMILES O=C(NCCCCCCNC(=O)c1ccc(N2C(=O)N=C(O)/C(=C\c3cccs3)C2=O)cc1)c1ccc(-c2c3nc(c(-c4ccccc4)c4ccc([nH]4)c(-c4ccccc4)c4nc(c(-c5ccccc5)c5ccc2[nH]5)C=C4)C=C3)cc1
REMARK SMILES IDX 6 1 5 2 4 3 3 4 1 5 2 6 34 8 35 9 81 10 36 11 80 12 37 13
REMARK SMILES IDX 38 14 39 15 74 16 40 17 79 18 73 19 75 20 41 21 78 22 72 23
REMARK SMILES IDX 71 24 42 26 64 27 49 28 63 29 50 30 53 31 62 32 76 33 51 34
REMARK SMILES IDX 52 35 61 37 77 38 54 39 43 40 44 41 48 42 45 43 47 44 46 45
REMARK SMILES IDX 65 46 66 47 70 48 67 49 69 50 68 51 55 52 56 53 60 54 57 55
REMARK SMILES IDX 59 56 58 57 7 58 8 59 9 60 10 61 11 62 12 64 13 65 14 66
REMARK SMILES IDX 33 67 15 68 32 69 16 70 17 71 18 72 30 73 19 74 20 75 23 76
REMARK SMILES IDX 31 77 21 78 24 79 22 80 25 82 26 83 29 84 27 85 28 86
REMARK H PARENT 3 7 75 25 53 36 10 63 22 81
REMARK Flexibility Score: inf
ROOT
ATOM      1  C   UNL A   1      36.499  20.342  24.994  1.00  0.00     0.002 C 
ENDROOT
BRANCH   1   2
ATOM      2  C   UNL A   1      37.808  19.570  24.860  1.00  0.00     0.021 C 
BRANCH   2   3
ATOM      3  C   UNL A   1      38.941  20.074  25.740  1.00  0.00     0.116 C 
BRANCH   3   4
ATOM      4  N   UNL A   1      40.116  19.216  25.707  1.00  0.00    -0.352 N 
ATOM      5  O   UNL A   1      42.322  18.724  25.807  1.00  0.00    -0.269 OA
ATOM      6  C   UNL A   1      41.420  19.529  26.014  1.00  0.00     0.251 C 
ATOM      7  H   UNL A   1      39.956  18.286  25.427  1.00  0.00     0.163 HD
BRANCH   6   8
ATOM      8  C   UNL A   1      41.732  20.864  26.570  1.00  0.00     0.039 A 
ATOM      9  C   UNL A   1      41.907  21.954  25.717  1.00  0.00     0.014 A 
ATOM     10  C   UNL A   1      41.880  21.021  27.950  1.00  0.00     0.014 A 
ATOM     11  C   UNL A   1      42.397  23.149  26.222  1.00  0.00     0.010 A 
ATOM     12  C   UNL A   1      42.265  22.262  28.470  1.00  0.00     0.010 A 
ATOM     13  C   UNL A   1      42.559  23.328  27.607  1.00  0.00    -0.014 A 
BRANCH  13  14
ATOM     14  C   UNL A   1      42.953  24.672  28.102  1.00  0.00     0.031 A 
ATOM     15  C   UNL A   1      44.394  25.090  28.208  1.00  0.00     0.074 A 
ATOM     16  C   UNL A   1      41.972  25.551  28.387  1.00  0.00     0.049 A 
ATOM     17  N   UNL A   1      44.883  26.263  28.529  1.00  0.00    -0.248 NA
ATOM     18  C   UNL A   1      45.416  24.070  27.929  1.00  0.00     0.031 C 
ATOM     19  C   UNL A   1      40.536  25.254  28.339  1.00  0.00     0.029 A 
ATOM     20  N   UNL A   1      42.022  26.877  28.730  1.00  0.00    -0.354 N 
ATOM     21  C   UNL A   1      46.265  26.121  28.498  1.00  0.00     0.074 A 
ATOM     22  C   UNL A   1      46.538  24.741  28.159  1.00  0.00     0.031 C 
ATOM     23  C   UNL A   1      39.845  26.379  28.565  1.00  0.00     0.029 A 
ATOM     24  C   UNL A   1      40.783  27.457  28.850  1.00  0.00     0.049 A 
ATOM     25  H   UNL A   1      42.865  27.366  28.878  1.00  0.00     0.167 HD
ATOM     26  C   UNL A   1      47.218  27.059  28.726  1.00  0.00     0.031 A 
ATOM     27  C   UNL A   1      40.431  28.715  29.167  1.00  0.00     0.031 A 
ATOM     28  C   UNL A   1      46.943  28.430  29.077  1.00  0.00     0.049 A 
ATOM     29  C   UNL A   1      41.508  29.723  29.433  1.00  0.00     0.074 A 
ATOM     30  C   UNL A   1      47.841  29.455  29.322  1.00  0.00     0.029 A 
ATOM     31  N   UNL A   1      45.674  28.967  29.233  1.00  0.00    -0.354 N 
ATOM     32  N   UNL A   1      42.809  29.575  29.372  1.00  0.00    -0.248 NA
ATOM     33  C   UNL A   1      41.067  31.072  29.808  1.00  0.00     0.031 C 
ATOM     34  C   UNL A   1      47.116  30.599  29.674  1.00  0.00     0.029 A 
ATOM     35  C   UNL A   1      45.766  30.303  29.590  1.00  0.00     0.049 A 
ATOM     36  H   UNL A   1      44.832  28.472  29.111  1.00  0.00     0.167 HD
ATOM     37  C   UNL A   1      43.343  30.814  29.698  1.00  0.00     0.074 A 
ATOM     38  C   UNL A   1      42.224  31.709  29.913  1.00  0.00     0.031 C 
ATOM     39  C   UNL A   1      44.643  31.176  29.817  1.00  0.00     0.031 A 
BRANCH  26  40
ATOM     40  C   UNL A   1      48.658  26.633  28.619  1.00  0.00    -0.014 A 
ATOM     41  C   UNL A   1      49.367  26.765  27.414  1.00  0.00     0.009 A 
ATOM     42  C   UNL A   1      49.333  26.155  29.753  1.00  0.00     0.009 A 
ATOM     43  C   UNL A   1      50.714  26.404  27.342  1.00  0.00     0.001 A 
ATOM     44  C   UNL A   1      50.688  25.819  29.685  1.00  0.00     0.001 A 
ATOM     45  C   UNL A   1      51.375  25.937  28.478  1.00  0.00     0.000 A 
ENDBRANCH  26  40
BRANCH  27  46
ATOM     46  C   UNL A   1      38.994  29.076  29.280  1.00  0.00    -0.014 A 
ATOM     47  C   UNL A   1      38.265  29.501  28.159  1.00  0.00     0.009 A 
ATOM     48  C   UNL A   1      38.342  28.993  30.521  1.00  0.00     0.009 A 
ATOM     49  C   UNL A   1      36.921  29.862  28.287  1.00  0.00     0.001 A 
ATOM     50  C   UNL A   1      36.991  29.318  30.638  1.00  0.00     0.001 A 
ATOM     51  C   UNL A   1      36.284  29.764  29.523  1.00  0.00     0.000 A 
ENDBRANCH  27  46
BRANCH  39  52
ATOM     52  C   UNL A   1      44.911  32.607  30.183  1.00  0.00    -0.014 A 
ATOM     53  C   UNL A   1      45.097  33.589  29.195  1.00  0.00     0.009 A 
ATOM     54  C   UNL A   1      44.986  32.979  31.534  1.00  0.00     0.009 A 
ATOM     55  C   UNL A   1      45.400  34.903  29.555  1.00  0.00     0.001 A 
ATOM     56  C   UNL A   1      45.257  34.301  31.890  1.00  0.00     0.001 A 
ATOM     57  C   UNL A   1      45.477  35.258  30.900  1.00  0.00     0.000 A 
ENDBRANCH  39  52
ENDBRANCH  13  14
ENDBRANCH   6   8
ENDBRANCH   3   4
ENDBRANCH   2   3
ENDBRANCH   1   2
BRANCH   1  58
ATOM     58  C   UNL A   1      36.613  21.714  25.664  1.00  0.00     0.002 C 
BRANCH  58  59
ATOM     59  C   UNL A   1      35.297  22.324  26.159  1.00  0.00     0.021 C 
BRANCH  59  60
ATOM     60  C   UNL A   1      34.445  21.405  27.033  1.00  0.00     0.116 C 
BRANCH  60  61
ATOM     61  N   UNL A   1      33.605  20.528  26.237  1.00  0.00    -0.352 N 
ATOM     62  C   UNL A   1      32.520  20.846  25.463  1.00  0.00     0.251 C 
ATOM     63  H   UNL A   1      33.849  19.574  26.257  1.00  0.00     0.163 HD
ATOM     64  O   UNL A   1      31.804  19.969  24.994  1.00  0.00    -0.269 OA
BRANCH  62  65
ATOM     65  C   UNL A   1      32.211  22.263  25.206  1.00  0.00     0.039 A 
ATOM     66  C   UNL A   1      31.574  23.005  26.198  1.00  0.00     0.016 A 
ATOM     67  C   UNL A   1      32.542  22.851  23.982  1.00  0.00     0.016 A 
ATOM     68  C   UNL A   1      31.328  24.364  25.989  1.00  0.00     0.028 A 
ATOM     69  C   UNL A   1      32.276  24.207  23.772  1.00  0.00     0.028 A 
ATOM     70  C   UNL A   1      31.683  24.986  24.779  1.00  0.00     0.054 A 
BRANCH  70  71
ATOM     71  N   UNL A   1      31.445  26.392  24.590  1.00  0.00    -0.226 N 
ATOM     72  C   UNL A   1      32.475  27.285  24.925  1.00  0.00     0.358 C 
ATOM     73  C   UNL A   1      30.241  26.798  24.018  1.00  0.00     0.272 C 
ATOM     74  O   UNL A   1      33.617  26.893  25.193  1.00  0.00    -0.245 OA
ATOM     75  N   UNL A   1      32.234  28.625  24.924  1.00  0.00    -0.156 NA
ATOM     76  C   UNL A   1      30.075  28.274  23.853  1.00  0.00     0.104 C 
ATOM     77  O   UNL A   1      29.333  26.040  23.678  1.00  0.00    -0.268 OA
ATOM     78  C   UNL A   1      31.142  29.088  24.439  1.00  0.00     0.228 C 
ATOM     79  C   UNL A   1      28.968  28.651  23.180  1.00  0.00     0.038 C 
BRANCH  78  80
ATOM     80  O   UNL A   1      30.988  30.414  24.536  1.00  0.00    -0.493 OA
ATOM     81  H   UNL A   1      31.693  30.946  24.849  1.00  0.00     0.295 HD
ENDBRANCH  78  80
BRANCH  79  82
ATOM     82  C   UNL A   1      28.631  29.986  22.848  1.00  0.00     0.028 A 
ATOM     83  C   UNL A   1      27.877  30.901  23.558  1.00  0.00     0.020 A 
ATOM     84  S   UNL A   1      29.180  30.658  21.365  1.00  0.00    -0.144 S 
ATOM     85  C   UNL A   1      27.708  32.131  22.859  1.00  0.00     0.012 A 
ATOM     86  C   UNL A   1      28.362  32.130  21.648  1.00  0.00     0.065 A 
ENDBRANCH  79  82
ENDBRANCH  70  71
ENDBRANCH  62  65
ENDBRANCH  60  61
ENDBRANCH  59  60
ENDBRANCH  58  59
ENDBRANCH   1  58
TORSDOF 16
ENDMDL
MODEL 2
REMARK VINA RESULT:     -11.9      0.549      5.727
REMARK SMILES O=C(NCCCCCCNC(=O)c1ccc(N2C(=O)N=C(O)/C(=C\c3cccs3)C2=O)cc1)c1ccc(-c2c3nc(c(-c4ccccc4)c4ccc([nH]4)c(-c4ccccc4)c4nc(c(-c5ccccc5)c5ccc2[nH]5)C=C4)C=C3)cc1
REMARK SMILES IDX 6 1 5 2 4 3 3 4 1 5 2 6 34 8 35 9 81 10 36 11 80 12 37 13
REMARK SMILES IDX 38 14 39 15 74 16 40 17 79 18 73 19 75 20 41 21 78 22 72 23
REMARK SMILES IDX 71 24 42 26 64 27 49 28 63 29 50 30 53 31 62 32 76 33 51 34
REMARK SMILES IDX 52 35 61 37 77 38 54 39 43 40 44 41 48 42 45 43 47 44 46 45
REMARK SMILES IDX 65 46 66 47 70 48 67 49 69 50 68 51 55 52 56 53 60 54 57 55
REMARK SMILES IDX 59 56 58 57 7 58 8 59 9 60 10 61 11 62 12 64 13 65 14 66
REMARK SMILES IDX 33 67 15 68 32 69 16 70 17 71 18 72 30 73 19 74 20 75 23 76
REMARK SMILES IDX 31 77 21 78 24 79 22 80 25 82 26 83 29 84 27 85 28 86
REMARK H PARENT 3 7 75 25 53 36 10 63 22 81
REMARK Flexibility Score: inf
ROOT
ATOM      1  C   UNL A   1      37.368  19.769  24.702  1.00  0.00     0.002 C 
ENDROOT
BRANCH   1   2
ATOM      2  C   UNL A   1      38.478  18.982  25.391  1.00  0.00     0.021 C 
BRANCH   2   3
ATOM      3  C   UNL A   1      39.662  19.818  25.854  1.00  0.00     0.116 C 
BRANCH   3   4
ATOM      4  N   UNL A   1      40.882  19.041  26.013  1.00  0.00    -0.352 N 
ATOM      5  O   UNL A   1      43.097  18.710  26.335  1.00  0.00    -0.269 OA
ATOM      6  C   UNL A   1      42.137  19.474  26.373  1.00  0.00     0.251 C 
ATOM      7  H   UNL A   1      40.797  18.076  25.840  1.00  0.00     0.163 HD
BRANCH   6   8
ATOM      8  C   UNL A   1      42.328  20.883  26.780  1.00  0.00     0.039 A 
ATOM      9  C   UNL A   1      42.674  21.845  25.831  1.00  0.00     0.014 A 
ATOM     10  C   UNL A   1      42.190  21.240  28.124  1.00  0.00     0.014 A 
ATOM     11  C   UNL A   1      43.049  23.114  26.246  1.00  0.00     0.010 A 
ATOM     12  C   UNL A   1      42.459  22.553  28.525  1.00  0.00     0.010 A 
ATOM     13  C   UNL A   1      42.923  23.494  27.594  1.00  0.00    -0.014 A 
BRANCH  13  14
ATOM     14  C   UNL A   1      43.207  24.906  27.957  1.00  0.00     0.031 A 
ATOM     15  C   UNL A   1      42.107  25.902  28.198  1.00  0.00     0.074 A 
ATOM     16  C   UNL A   1      44.494  25.261  28.145  1.00  0.00     0.049 A 
ATOM     17  N   UNL A   1      42.202  27.140  28.617  1.00  0.00    -0.248 NA
ATOM     18  C   UNL A   1      40.728  25.464  27.931  1.00  0.00     0.031 C 
ATOM     19  C   UNL A   1      45.650  24.385  27.923  1.00  0.00     0.029 A 
ATOM     20  N   UNL A   1      45.047  26.429  28.601  1.00  0.00    -0.354 N 
ATOM     21  C   UNL A   1      40.903  27.631  28.656  1.00  0.00     0.074 A 
ATOM     22  C   UNL A   1      40.038  26.569  28.188  1.00  0.00     0.031 C 
ATOM     23  C   UNL A   1      46.763  25.018  28.316  1.00  0.00     0.029 A 
ATOM     24  C   UNL A   1      46.412  26.367  28.742  1.00  0.00     0.049 A 
ATOM     25  H   UNL A   1      44.519  27.234  28.807  1.00  0.00     0.167 HD
ATOM     26  C   UNL A   1      40.470  28.854  29.053  1.00  0.00     0.031 A 
ATOM     27  C   UNL A   1      47.294  27.294  29.156  1.00  0.00     0.031 A 
ATOM     28  C   UNL A   1      41.336  29.915  29.506  1.00  0.00     0.049 A 
ATOM     29  C   UNL A   1      46.787  28.642  29.567  1.00  0.00     0.074 A 
ATOM     30  C   UNL A   1      40.991  31.186  29.933  1.00  0.00     0.029 A 
ATOM     31  N   UNL A   1      42.717  29.827  29.591  1.00  0.00    -0.354 N 
ATOM     32  N   UNL A   1      45.552  29.077  29.622  1.00  0.00    -0.248 NA
ATOM     33  C   UNL A   1      47.796  29.626  29.978  1.00  0.00     0.031 C 
ATOM     34  C   UNL A   1      42.168  31.884  30.230  1.00  0.00     0.029 A 
ATOM     35  C   UNL A   1      43.241  31.028  30.044  1.00  0.00     0.049 A 
ATOM     36  H   UNL A   1      43.248  29.031  29.361  1.00  0.00     0.167 HD
ATOM     37  C   UNL A   1      45.635  30.385  30.077  1.00  0.00     0.074 A 
ATOM     38  C   UNL A   1      47.037  30.656  30.323  1.00  0.00     0.031 C 
ATOM     39  C   UNL A   1      44.640  31.286  30.267  1.00  0.00     0.031 A 
BRANCH  26  40
ATOM     40  C   UNL A   1      38.991  29.124  29.001  1.00  0.00    -0.014 A 
ATOM     41  C   UNL A   1      38.180  28.945  30.133  1.00  0.00     0.009 A 
ATOM     42  C   UNL A   1      38.411  29.625  27.825  1.00  0.00     0.009 A 
ATOM     43  C   UNL A   1      36.815  29.239  30.080  1.00  0.00     0.001 A 
ATOM     44  C   UNL A   1      37.052  29.944  27.782  1.00  0.00     0.001 A 
ATOM     45  C   UNL A   1      36.253  29.744  28.907  1.00  0.00     0.000 A 
ENDBRANCH  26  40
BRANCH  27  46
ATOM     46  C   UNL A   1      48.747  26.981  29.167  1.00  0.00    -0.014 A 
ATOM     47  C   UNL A   1      49.535  27.169  28.021  1.00  0.00     0.009 A 
ATOM     48  C   UNL A   1      49.354  26.493  30.335  1.00  0.00     0.009 A 
ATOM     49  C   UNL A   1      50.894  26.845  28.039  1.00  0.00     0.001 A 
ATOM     50  C   UNL A   1      50.719  26.206  30.361  1.00  0.00     0.001 A 
ATOM     51  C   UNL A   1      51.486  26.371  29.209  1.00  0.00     0.000 A 
ENDBRANCH  27  46
BRANCH  39  52
ATOM     52  C   UNL A   1      45.046  32.639  30.777  1.00  0.00    -0.014 A 
ATOM     53  C   UNL A   1      45.371  33.682  29.894  1.00  0.00     0.009 A 
ATOM     54  C   UNL A   1      45.111  32.871  32.159  1.00  0.00     0.009 A 
ATOM     55  C   UNL A   1      45.800  34.916  30.388  1.00  0.00     0.001 A 
ATOM     56  C   UNL A   1      45.509  34.117  32.649  1.00  0.00     0.001 A 
ATOM     57  C   UNL A   1      45.866  35.132  31.763  1.00  0.00     0.000 A 
ENDBRANCH  39  52
ENDBRANCH  13  14
ENDBRANCH   6   8
ENDBRANCH   3   4
ENDBRANCH   2   3
ENDBRANCH   1   2
BRANCH   1  58
ATOM     58  C   UNL A   1      37.401  21.284  24.926  1.00  0.00     0.002 C 
BRANCH  58  59
ATOM     59  C   UNL A   1      36.041  21.955  25.144  1.00  0.00     0.021 C 
BRANCH  59  60
ATOM     60  C   UNL A   1      35.186  21.341  26.252  1.00  0.00     0.116 C 
BRANCH  60  61
ATOM     61  N   UNL A   1      34.088  20.558  25.715  1.00  0.00    -0.352 N 
ATOM     62  C   UNL A   1      32.853  20.981  25.298  1.00  0.00     0.251 C 
ATOM     63  H   UNL A   1      34.252  19.590  25.641  1.00  0.00     0.163 HD
ATOM     64  O   UNL A   1      31.966  20.176  25.039  1.00  0.00    -0.269 OA
BRANCH  62  65
ATOM     65  C   UNL A   1      32.593  22.427  25.175  1.00  0.00     0.039 A 
ATOM     66  C   UNL A   1      32.871  23.061  23.965  1.00  0.00     0.016 A 
ATOM     67  C   UNL A   1      32.088  23.152  26.256  1.00  0.00     0.016 A 
ATOM     68  C   UNL A   1      32.575  24.417  23.816  1.00  0.00     0.028 A 
ATOM     69  C   UNL A   1      31.811  24.513  26.108  1.00  0.00     0.028 A 
ATOM     70  C   UNL A   1      32.032  25.160  24.881  1.00  0.00     0.054 A 
BRANCH  70  71
ATOM     71  N   UNL A   1      31.711  26.550  24.702  1.00  0.00    -0.226 N 
ATOM     72  C   UNL A   1      32.668  27.502  25.086  1.00  0.00     0.358 C 
ATOM     73  C   UNL A   1      30.504  26.888  24.093  1.00  0.00     0.272 C 
ATOM     74  O   UNL A   1      33.822  27.181  25.389  1.00  0.00    -0.245 OA
ATOM     75  N   UNL A   1      32.340  28.825  25.094  1.00  0.00    -0.156 NA
ATOM     76  C   UNL A   1      30.248  28.352  23.941  1.00  0.00     0.104 C 
ATOM     77  O   UNL A   1      29.659  26.078  23.711  1.00  0.00    -0.268 OA
ATOM     78  C   UNL A   1      31.239  29.224  24.576  1.00  0.00     0.228 C 
ATOM     79  C   UNL A   1      29.143  28.668  23.234  1.00  0.00     0.038 C 
BRANCH  78  80
ATOM     80  O   UNL A   1      30.996  30.536  24.685  1.00  0.00    -0.493 OA
ATOM     81  H   UNL A   1      30.896  31.059  23.914  1.00  0.00     0.295 HD
ENDBRANCH  78  80
BRANCH  79  82
ATOM     82  C   UNL A   1      28.733  29.983  22.908  1.00  0.00     0.028 A 
ATOM     83  C   UNL A   1      27.950  30.861  23.634  1.00  0.00     0.020 A 
ATOM     84  S   UNL A   1      29.212  30.677  21.411  1.00  0.00    -0.144 S 
ATOM     85  C   UNL A   1      27.703  32.079  22.937  1.00  0.00     0.012 A 
ATOM     86  C   UNL A   1      28.328  32.107  21.711  1.00  0.00     0.065 A 
ENDBRANCH  79  82
ENDBRANCH  70  71
ENDBRANCH  62  65
ENDBRANCH  60  61
ENDBRANCH  59  60
ENDBRANCH  58  59
ENDBRANCH   1  58
TORSDOF 16
ENDMDL
MODEL 3
REMARK VINA RESULT:     -11.8      4.210      9.737
REMARK SMILES O=C(NCCCCCCNC(=O)c1ccc(N2C(=O)N=C(O)/C(=C\c3cccs3)C2=O)cc1)c1ccc(-c2c3nc(c(-c4ccccc4)c4ccc([nH]4)c(-c4ccccc4)c4nc(c(-c5ccccc5)c5ccc2[nH]5)C=C4)C=C3)cc1
REMARK SMILES IDX 6 1 5 2 4 3 3 4 1 5 2 6 34 8 35 9 81 10 36 11 80 12 37 13
REMARK SMILES IDX 38 14 39 15 74 16 40 17 79 18 73 19 75 20 41 21 78 22 72 23
REMARK SMILES IDX 71 24 42 26 64 27 49 28 63 29 50 30 53 31 62 32 76 33 51 34
REMARK SMILES IDX 52 35 61 37 77 38 54 39 43 40 44 41 48 42 45 43 47 44 46 45
REMARK SMILES IDX 65 46 66 47 70 48 67 49 69 50 68 51 55 52 56 53 60 54 57 55
REMARK SMILES IDX 59 56 58 57 7 58 8 59 9 60 10 61 11 62 12 64 13 65 14 66
REMARK SMILES IDX 33 67 15 68 32 69 16 70 17 71 18 72 30 73 19 74 20 75 23 76
REMARK SMILES IDX 31 77 21 78 24 79 22 80 25 82 26 83 29 84 27 85 28 86
REMARK H PARENT 3 7 75 25 53 36 10 63 22 81
REMARK Flexibility Score: inf
ROOT
ATOM      1  C   UNL A   1      35.480  31.954  28.219  1.00  0.00     0.002 C 
ENDROOT
BRANCH   1   2
ATOM      2  C   UNL A   1      34.166  32.661  28.536  1.00  0.00     0.021 C 
BRANCH   2   3
ATOM      3  C   UNL A   1      34.291  34.155  28.799  1.00  0.00     0.116 C 
BRANCH   3   4
ATOM      4  N   UNL A   1      33.640  34.574  30.031  1.00  0.00    -0.352 N 
ATOM      5  O   UNL A   1      33.274  34.628  32.263  1.00  0.00    -0.269 OA
ATOM      6  C   UNL A   1      34.005  34.310  31.331  1.00  0.00     0.251 C 
ATOM      7  H   UNL A   1      32.830  35.122  29.919  1.00  0.00     0.163 HD
BRANCH   6   8
ATOM      8  C   UNL A   1      35.280  33.608  31.596  1.00  0.00     0.039 A 
ATOM      9  C   UNL A   1      36.494  34.217  31.277  1.00  0.00     0.014 A 
ATOM     10  C   UNL A   1      35.261  32.320  32.138  1.00  0.00     0.014 A 
ATOM     11  C   UNL A   1      37.668  33.480  31.336  1.00  0.00     0.010 A 
ATOM     12  C   UNL A   1      36.461  31.619  32.304  1.00  0.00     0.010 A 
ATOM     13  C   UNL A   1      37.672  32.181  31.874  1.00  0.00    -0.014 A 
BRANCH  13  14
ATOM     14  C   UNL A   1      38.977  31.493  32.042  1.00  0.00     0.031 A 
ATOM     15  C   UNL A   1      39.870  31.758  33.222  1.00  0.00     0.074 A 
ATOM     16  C   UNL A   1      39.314  30.552  31.137  1.00  0.00     0.049 A 
ATOM     17  N   UNL A   1      40.990  31.160  33.551  1.00  0.00    -0.248 NA
ATOM     18  C   UNL A   1      39.469  32.828  34.146  1.00  0.00     0.031 C 
ATOM     19  C   UNL A   1      38.534  30.219  29.939  1.00  0.00     0.029 A 
ATOM     20  N   UNL A   1      40.367  29.676  31.099  1.00  0.00    -0.354 N 
ATOM     21  C   UNL A   1      41.430  31.784  34.711  1.00  0.00     0.074 A 
ATOM     22  C   UNL A   1      40.475  32.829  35.013  1.00  0.00     0.031 C 
ATOM     23  C   UNL A   1      39.093  29.166  29.329  1.00  0.00     0.029 A 
ATOM     24  C   UNL A   1      40.307  28.798  30.044  1.00  0.00     0.049 A 
ATOM     25  H   UNL A   1      41.095  29.676  31.762  1.00  0.00     0.167 HD
ATOM     26  C   UNL A   1      42.526  31.507  35.459  1.00  0.00     0.031 A 
ATOM     27  C   UNL A   1      41.142  27.809  29.678  1.00  0.00     0.031 A 
ATOM     28  C   UNL A   1      43.483  30.474  35.147  1.00  0.00     0.049 A 
ATOM     29  C   UNL A   1      42.357  27.542  30.514  1.00  0.00     0.074 A 
ATOM     30  C   UNL A   1      44.623  30.114  35.847  1.00  0.00     0.029 A 
ATOM     31  N   UNL A   1      43.412  29.636  34.045  1.00  0.00    -0.354 N 
ATOM     32  N   UNL A   1      42.740  28.126  31.623  1.00  0.00    -0.248 NA
ATOM     33  C   UNL A   1      43.251  26.474  30.050  1.00  0.00     0.031 C 
ATOM     34  C   UNL A   1      45.266  29.091  35.142  1.00  0.00     0.029 A 
ATOM     35  C   UNL A   1      44.497  28.774  34.035  1.00  0.00     0.049 A 
ATOM     36  H   UNL A   1      42.697  29.652  33.368  1.00  0.00     0.167 HD
ATOM     37  C   UNL A   1      43.919  27.495  31.992  1.00  0.00     0.074 A 
ATOM     38  C   UNL A   1      44.163  26.456  31.011  1.00  0.00     0.031 C 
ATOM     39  C   UNL A   1      44.733  27.757  33.042  1.00  0.00     0.031 A 
BRANCH  26  40
ATOM     40  C   UNL A   1      42.766  32.344  36.687  1.00  0.00    -0.014 A 
ATOM     41  C   UNL A   1      42.272  31.952  37.941  1.00  0.00     0.009 A 
ATOM     42  C   UNL A   1      43.550  33.505  36.600  1.00  0.00     0.009 A 
ATOM     43  C   UNL A   1      42.538  32.719  39.078  1.00  0.00     0.001 A 
ATOM     44  C   UNL A   1      43.837  34.256  37.743  1.00  0.00     0.001 A 
ATOM     45  C   UNL A   1      43.325  33.866  38.980  1.00  0.00     0.000 A 
ENDBRANCH  26  40
BRANCH  27  46
ATOM     46  C   UNL A   1      40.869  27.028  28.444  1.00  0.00    -0.014 A 
ATOM     47  C   UNL A   1      41.460  27.378  27.221  1.00  0.00     0.009 A 
ATOM     48  C   UNL A   1      40.012  25.917  28.489  1.00  0.00     0.009 A 
ATOM     49  C   UNL A   1      41.173  26.650  26.064  1.00  0.00     0.001 A 
ATOM     50  C   UNL A   1      39.756  25.168  27.340  1.00  0.00     0.001 A 
ATOM     51  C   UNL A   1      40.327  25.543  26.125  1.00  0.00     0.000 A 
ENDBRANCH  27  46
BRANCH  39  52
ATOM     52  C   UNL A   1      45.952  26.890  33.182  1.00  0.00    -0.014 A 
ATOM     53  C   UNL A   1      47.172  27.247  32.583  1.00  0.00     0.009 A 
ATOM     54  C   UNL A   1      45.878  25.697  33.917  1.00  0.00     0.009 A 
ATOM     55  C   UNL A   1      48.278  26.401  32.678  1.00  0.00     0.001 A 
ATOM     56  C   UNL A   1      46.996  24.870  34.037  1.00  0.00     0.001 A 
ATOM     57  C   UNL A   1      48.190  25.216  33.405  1.00  0.00     0.000 A 
ENDBRANCH  39  52
ENDBRANCH  13  14
ENDBRANCH   6   8
ENDBRANCH   3   4
ENDBRANCH   2   3
ENDBRANCH   1   2
BRANCH   1  58
ATOM     58  C   UNL A   1      35.471  30.435  28.414  1.00  0.00     0.002 C 
BRANCH  58  59
ATOM     59  C   UNL A   1      34.989  29.613  27.215  1.00  0.00     0.021 C 
BRANCH  59  60
ATOM     60  C   UNL A   1      33.593  29.011  27.360  1.00  0.00     0.116 C 
BRANCH  60  61
ATOM     61  N   UNL A   1      32.738  29.351  26.237  1.00  0.00    -0.352 N 
ATOM     62  C   UNL A   1      32.404  28.588  25.149  1.00  0.00     0.251 C 
ATOM     63  H   UNL A   1      32.343  30.253  26.261  1.00  0.00     0.163 HD
ATOM     64  O   UNL A   1      31.815  29.080  24.193  1.00  0.00    -0.269 OA
BRANCH  62  65
ATOM     65  C   UNL A   1      32.772  27.161  25.131  1.00  0.00     0.039 A 
ATOM     66  C   UNL A   1      33.626  26.698  24.132  1.00  0.00     0.016 A 
ATOM     67  C   UNL A   1      32.263  26.285  26.093  1.00  0.00     0.016 A 
ATOM     68  C   UNL A   1      34.029  25.361  24.138  1.00  0.00     0.028 A 
ATOM     69  C   UNL A   1      32.655  24.944  26.083  1.00  0.00     0.028 A 
ATOM     70  C   UNL A   1      33.558  24.467  25.118  1.00  0.00     0.054 A 
BRANCH  70  71
ATOM     71  N   UNL A   1      34.002  23.100  25.124  1.00  0.00    -0.226 N 
ATOM     72  C   UNL A   1      35.228  22.809  25.742  1.00  0.00     0.358 C 
ATOM     73  C   UNL A   1      33.169  22.121  24.586  1.00  0.00     0.272 C 
ATOM     74  O   UNL A   1      35.828  23.644  26.428  1.00  0.00    -0.245 OA
ATOM     75  N   UNL A   1      35.766  21.563  25.623  1.00  0.00    -0.156 NA
ATOM     76  C   UNL A   1      33.703  20.726  24.635  1.00  0.00     0.104 C 
ATOM     77  O   UNL A   1      32.073  22.336  24.070  1.00  0.00    -0.268 OA
ATOM     78  C   UNL A   1      35.081  20.606  25.118  1.00  0.00     0.228 C 
ATOM     79  C   UNL A   1      32.839  19.770  24.235  1.00  0.00     0.038 C 
BRANCH  78  80
ATOM     80  O   UNL A   1      35.725  19.438  25.001  1.00  0.00    -0.493 OA
ATOM     81  H   UNL A   1      35.482  18.834  24.327  1.00  0.00     0.295 HD
ENDBRANCH  78  80
BRANCH  79  82
ATOM     82  C   UNL A   1      33.098  18.378  24.253  1.00  0.00     0.028 A 
ATOM     83  C   UNL A   1      33.659  17.579  23.275  1.00  0.00     0.020 A 
ATOM     84  S   UNL A   1      32.681  17.454  25.641  1.00  0.00    -0.144 S 
ATOM     85  C   UNL A   1      33.695  16.203  23.646  1.00  0.00     0.012 A 
ATOM     86  C   UNL A   1      33.188  15.997  24.908  1.00  0.00     0.065 A 
ENDBRANCH  79  82
ENDBRANCH  70  71
ENDBRANCH  62  65
ENDBRANCH  60  61
ENDBRANCH  59  60
ENDBRANCH  58  59
ENDBRANCH   1  58
TORSDOF 16
ENDMDL
