MODEL 1
REMARK VINA RESULT:     -11.2      0.000      0.000
REMARK SMILES CC(C)(CCc1ccc(Cl)c2ccccc12)C(=O)NCCCCCCNC(=O)c1ccc(-c2c3nc(c(-c4ccccc4)c4ccc([nH]4)c(-c4ccccc4)c4nc(c(-c5ccccc5)c5ccc2[nH]5)C=C4)C=C3)cc1
REMARK SMILES IDX 22 1 21 2 20 3 19 4 17 5 18 6 2 8 1 9 3 10 4 11 5 12 6 13
REMARK SMILES IDX 7 14 16 15 8 16 11 17 15 18 9 19 12 20 14 21 10 22 13 23
REMARK SMILES IDX 23 24 24 25 25 26 26 27 27 28 28 30 29 31 30 32 76 33 31 34
REMARK SMILES IDX 75 35 32 36 33 37 34 38 69 39 35 40 74 41 68 42 70 43 36 44
REMARK SMILES IDX 73 45 67 46 66 47 37 49 59 50 44 51 58 52 45 53 48 54 57 55
REMARK SMILES IDX 71 56 46 57 47 58 56 60 72 61 49 62 38 63 39 64 43 65 40 66
REMARK SMILES IDX 42 67 41 68 60 69 61 70 65 71 62 72 64 73 63 74 50 75 51 76
REMARK SMILES IDX 55 77 52 78 54 79 53 80
REMARK H PARENT 19 7 26 29 70 48 48 59
REMARK Flexibility Score: inf
ROOT
ATOM      1  C   UNL A   1      36.565  22.428  25.701  1.00  0.00     0.002 C 
ENDROOT
BRANCH   1   2
ATOM      2  C   UNL A   1      36.166  23.878  25.411  1.00  0.00     0.021 C 
BRANCH   2   3
ATOM      3  C   UNL A   1      34.803  24.216  24.780  1.00  0.00     0.116 C 
BRANCH   3   4
ATOM      4  N   UNL A   1      34.539  23.868  23.388  1.00  0.00    -0.356 N 
ATOM      5  C   UNL A   1      33.583  23.170  22.703  1.00  0.00     0.225 C 
ATOM      6  O   UNL A   1      33.581  23.357  21.480  1.00  0.00    -0.275 OA
ATOM      7  H   UNL A   1      35.228  24.230  22.785  1.00  0.00     0.163 HD
BRANCH   5   8
ATOM      8  C   UNL A   1      32.574  22.193  23.346  1.00  0.00     0.044 C 
ATOM      9  C   UNL A   1      33.314  21.245  24.320  1.00  0.00     0.021 C 
ATOM     10  C   UNL A   1      32.034  21.281  22.220  1.00  0.00     0.021 C 
BRANCH   8  11
ATOM     11  C   UNL A   1      31.413  22.919  24.085  1.00  0.00     0.021 C 
BRANCH  11  12
ATOM     12  C   UNL A   1      31.037  24.398  23.786  1.00  0.00     0.037 C 
BRANCH  12  13
ATOM     13  C   UNL A   1      31.464  25.708  24.460  1.00  0.00    -0.040 A 
ATOM     14  C   UNL A   1      30.918  25.867  25.752  1.00  0.00     0.006 A 
ATOM     15  C   UNL A   1      32.255  26.781  23.959  1.00  0.00    -0.014 A 
ATOM     16  C   UNL A   1      31.147  27.006  26.519  1.00  0.00     0.021 A 
ATOM     17  C   UNL A   1      32.532  27.938  24.750  1.00  0.00     0.001 A 
ATOM     18  C   UNL A   1      32.799  26.785  22.679  1.00  0.00     0.009 A 
ATOM     19  C   UNL A   1      31.948  28.029  26.027  1.00  0.00     0.048 A 
ATOM     20  C   UNL A   1      33.371  28.962  24.228  1.00  0.00     0.010 A 
ATOM     21  C   UNL A   1      33.671  27.768  22.199  1.00  0.00     0.001 A 
ATOM     22  Cl  UNL A   1      32.167  29.410  27.055  1.00  0.00    -0.084 Cl
ATOM     23  C   UNL A   1      33.957  28.868  22.973  1.00  0.00     0.001 A 
ENDBRANCH  12  13
ENDBRANCH  11  12
ENDBRANCH   8  11
ENDBRANCH   5   8
ENDBRANCH   3   4
ENDBRANCH   2   3
ENDBRANCH   1   2
BRANCH   1  24
ATOM     24  C   UNL A   1      37.109  21.597  24.540  1.00  0.00     0.002 C 
BRANCH  24  25
ATOM     25  C   UNL A   1      37.806  20.308  24.954  1.00  0.00     0.021 C 
BRANCH  25  26
ATOM     26  C   UNL A   1      39.060  20.515  25.791  1.00  0.00     0.116 C 
BRANCH  26  27
ATOM     27  N   UNL A   1      40.016  19.416  25.729  1.00  0.00    -0.352 N 
ATOM     28  C   UNL A   1      41.351  19.477  26.064  1.00  0.00     0.251 C 
ATOM     29  H   UNL A   1      39.675  18.547  25.417  1.00  0.00     0.163 HD
ATOM     30  O   UNL A   1      42.107  18.526  25.911  1.00  0.00    -0.269 OA
BRANCH  28  31
ATOM     31  C   UNL A   1      41.858  20.763  26.583  1.00  0.00     0.039 A 
ATOM     32  C   UNL A   1      42.283  21.743  25.685  1.00  0.00     0.014 A 
ATOM     33  C   UNL A   1      41.749  21.035  27.949  1.00  0.00     0.014 A 
ATOM     34  C   UNL A   1      42.541  23.031  26.157  1.00  0.00     0.010 A 
ATOM     35  C   UNL A   1      41.919  22.337  28.398  1.00  0.00     0.010 A 
ATOM     36  C   UNL A   1      42.328  23.345  27.510  1.00  0.00    -0.014 A 
BRANCH  36  37
ATOM     37  C   UNL A   1      42.581  24.708  28.037  1.00  0.00     0.031 A 
ATOM     38  C   UNL A   1      43.980  25.091  28.438  1.00  0.00     0.074 A 
ATOM     39  C   UNL A   1      41.563  25.573  28.212  1.00  0.00     0.049 A 
ATOM     40  N   UNL A   1      44.411  26.198  28.984  1.00  0.00    -0.248 NA
ATOM     41  C   UNL A   1      45.028  24.076  28.230  1.00  0.00     0.031 C 
ATOM     42  C   UNL A   1      40.154  25.308  27.908  1.00  0.00     0.029 A 
ATOM     43  N   UNL A   1      41.561  26.859  28.691  1.00  0.00    -0.354 N 
ATOM     44  C   UNL A   1      45.767  25.999  29.209  1.00  0.00     0.074 A 
ATOM     45  C   UNL A   1      46.075  24.647  28.804  1.00  0.00     0.031 C 
ATOM     46  C   UNL A   1      39.433  26.411  28.172  1.00  0.00     0.029 A 
ATOM     47  C   UNL A   1      40.319  27.448  28.691  1.00  0.00     0.049 A 
ATOM     48  H   UNL A   1      42.374  27.317  29.006  1.00  0.00     0.167 HD
ATOM     49  C   UNL A   1      46.688  26.873  29.679  1.00  0.00     0.031 A 
ATOM     50  C   UNL A   1      39.944  28.688  29.060  1.00  0.00     0.031 A 
ATOM     51  C   UNL A   1      46.391  28.230  30.045  1.00  0.00     0.049 A 
ATOM     52  C   UNL A   1      40.989  29.651  29.554  1.00  0.00     0.074 A 
ATOM     53  C   UNL A   1      47.258  29.214  30.485  1.00  0.00     0.029 A 
ATOM     54  N   UNL A   1      45.127  28.795  29.996  1.00  0.00    -0.354 N 
ATOM     55  N   UNL A   1      42.279  29.465  29.708  1.00  0.00    -0.248 NA
ATOM     56  C   UNL A   1      40.529  31.001  29.907  1.00  0.00     0.031 C 
ATOM     57  C   UNL A   1      46.510  30.372  30.730  1.00  0.00     0.029 A 
ATOM     58  C   UNL A   1      45.188  30.116  30.399  1.00  0.00     0.049 A 
ATOM     59  H   UNL A   1      44.308  28.326  29.717  1.00  0.00     0.167 HD
ATOM     60  C   UNL A   1      42.787  30.684  30.139  1.00  0.00     0.074 A 
ATOM     61  C   UNL A   1      41.670  31.603  30.213  1.00  0.00     0.031 C 
ATOM     62  C   UNL A   1      44.065  31.015  30.447  1.00  0.00     0.031 A 
BRANCH  49  63
ATOM     63  C   UNL A   1      48.101  26.378  29.805  1.00  0.00    -0.014 A 
ATOM     64  C   UNL A   1      48.562  25.801  31.001  1.00  0.00     0.009 A 
ATOM     65  C   UNL A   1      48.981  26.485  28.719  1.00  0.00     0.009 A 
ATOM     66  C   UNL A   1      49.889  25.385  31.120  1.00  0.00     0.001 A 
ATOM     67  C   UNL A   1      50.300  26.039  28.830  1.00  0.00     0.001 A 
ATOM     68  C   UNL A   1      50.755  25.501  30.035  1.00  0.00     0.000 A 
ENDBRANCH  49  63
BRANCH  50  69
ATOM     69  C   UNL A   1      38.526  29.114  28.934  1.00  0.00    -0.014 A 
ATOM     70  C   UNL A   1      38.039  29.604  27.711  1.00  0.00     0.009 A 
ATOM     71  C   UNL A   1      37.657  29.057  30.033  1.00  0.00     0.009 A 
ATOM     72  C   UNL A   1      36.724  30.060  27.601  1.00  0.00     0.001 A 
ATOM     73  C   UNL A   1      36.333  29.489  29.914  1.00  0.00     0.001 A 
ATOM     74  C   UNL A   1      35.870  30.000  28.701  1.00  0.00     0.000 A 
ENDBRANCH  50  69
BRANCH  62  75
ATOM     75  C   UNL A   1      44.331  32.440  30.836  1.00  0.00    -0.014 A 
ATOM     76  C   UNL A   1      44.295  32.849  32.177  1.00  0.00     0.009 A 
ATOM     77  C   UNL A   1      44.671  33.374  29.844  1.00  0.00     0.009 A 
ATOM     78  C   UNL A   1      44.566  34.177  32.513  1.00  0.00     0.001 A 
ATOM     79  C   UNL A   1      44.967  34.693  30.186  1.00  0.00     0.001 A 
ATOM     80  C   UNL A   1      44.905  35.096  31.520  1.00  0.00     0.000 A 
ENDBRANCH  62  75
ENDBRANCH  36  37
ENDBRANCH  28  31
ENDBRANCH  26  27
ENDBRANCH  25  26
ENDBRANCH  24  25
ENDBRANCH   1  24
TORSDOF 16
ENDMDL
MODEL 2
REMARK VINA RESULT:     -11.0      5.324     10.179
REMARK SMILES CC(C)(CCc1ccc(Cl)c2ccccc12)C(=O)NCCCCCCNC(=O)c1ccc(-c2c3nc(c(-c4ccccc4)c4ccc([nH]4)c(-c4ccccc4)c4nc(c(-c5ccccc5)c5ccc2[nH]5)C=C4)C=C3)cc1
REMARK SMILES IDX 22 1 21 2 20 3 19 4 17 5 18 6 2 8 1 9 3 10 4 11 5 12 6 13
REMARK SMILES IDX 7 14 16 15 8 16 11 17 15 18 9 19 12 20 14 21 10 22 13 23
REMARK SMILES IDX 23 24 24 25 25 26 26 27 27 28 28 30 29 31 30 32 76 33 31 34
REMARK SMILES IDX 75 35 32 36 33 37 34 38 69 39 35 40 74 41 68 42 70 43 36 44
REMARK SMILES IDX 73 45 67 46 66 47 37 49 59 50 44 51 58 52 45 53 48 54 57 55
REMARK SMILES IDX 71 56 46 57 47 58 56 60 72 61 49 62 38 63 39 64 43 65 40 66
REMARK SMILES IDX 42 67 41 68 60 69 61 70 65 71 62 72 64 73 63 74 50 75 51 76
REMARK SMILES IDX 55 77 52 78 54 79 53 80
REMARK H PARENT 19 7 26 29 70 48 48 59
REMARK Flexibility Score: inf
ROOT
ATOM      1  C   UNL A   1      34.001  32.012  28.003  1.00  0.00     0.002 C 
ENDROOT
BRANCH   1   2
ATOM      2  C   UNL A   1      35.099  30.954  27.863  1.00  0.00     0.021 C 
BRANCH   2   3
ATOM      3  C   UNL A   1      34.751  29.479  27.587  1.00  0.00     0.116 C 
BRANCH   3   4
ATOM      4  N   UNL A   1      33.421  28.973  27.911  1.00  0.00    -0.356 N 
ATOM      5  C   UNL A   1      32.421  28.316  27.250  1.00  0.00     0.225 C 
ATOM      6  O   UNL A   1      31.558  27.815  27.981  1.00  0.00    -0.275 OA
ATOM      7  H   UNL A   1      33.183  29.150  28.850  1.00  0.00     0.163 HD
BRANCH   5   8
ATOM      8  C   UNL A   1      32.310  28.196  25.713  1.00  0.00     0.044 C 
ATOM      9  C   UNL A   1      32.146  29.603  25.091  1.00  0.00     0.021 C 
ATOM     10  C   UNL A   1      30.987  27.457  25.404  1.00  0.00     0.021 C 
BRANCH   8  11
ATOM     11  C   UNL A   1      33.524  27.465  25.073  1.00  0.00     0.021 C 
BRANCH  11  12
ATOM     12  C   UNL A   1      34.138  26.178  25.692  1.00  0.00     0.037 C 
BRANCH  12  13
ATOM     13  C   UNL A   1      34.049  24.707  25.267  1.00  0.00    -0.040 A 
ATOM     14  C   UNL A   1      32.739  24.310  24.921  1.00  0.00     0.006 A 
ATOM     15  C   UNL A   1      35.056  23.700  25.232  1.00  0.00    -0.014 A 
ATOM     16  C   UNL A   1      32.433  23.005  24.547  1.00  0.00     0.021 A 
ATOM     17  C   UNL A   1      34.765  22.366  24.812  1.00  0.00     0.001 A 
ATOM     18  C   UNL A   1      36.374  23.937  25.610  1.00  0.00     0.009 A 
ATOM     19  C   UNL A   1      33.434  22.043  24.488  1.00  0.00     0.048 A 
ATOM     20  C   UNL A   1      35.814  21.407  24.743  1.00  0.00     0.010 A 
ATOM     21  C   UNL A   1      37.407  23.003  25.480  1.00  0.00     0.001 A 
ATOM     22  Cl  UNL A   1      32.952  20.444  24.019  1.00  0.00    -0.084 Cl
ATOM     23  C   UNL A   1      37.129  21.727  25.050  1.00  0.00     0.001 A 
ENDBRANCH  12  13
ENDBRANCH  11  12
ENDBRANCH   8  11
ENDBRANCH   5   8
ENDBRANCH   3   4
ENDBRANCH   2   3
ENDBRANCH   1   2
BRANCH   1  24
ATOM     24  C   UNL A   1      34.323  33.263  28.819  1.00  0.00     0.002 C 
BRANCH  24  25
ATOM     25  C   UNL A   1      33.256  34.348  28.765  1.00  0.00     0.021 C 
BRANCH  25  26
ATOM     26  C   UNL A   1      33.619  35.620  29.519  1.00  0.00     0.116 C 
BRANCH  26  27
ATOM     27  N   UNL A   1      32.621  36.052  30.490  1.00  0.00    -0.352 N 
ATOM     28  C   UNL A   1      32.640  35.802  31.845  1.00  0.00     0.251 C 
ATOM     29  H   UNL A   1      31.859  36.571  30.144  1.00  0.00     0.163 HD
ATOM     30  O   UNL A   1      31.721  36.135  32.583  1.00  0.00    -0.269 OA
BRANCH  28  31
ATOM     31  C   UNL A   1      33.806  35.070  32.379  1.00  0.00     0.039 A 
ATOM     32  C   UNL A   1      33.670  33.724  32.718  1.00  0.00     0.014 A 
ATOM     33  C   UNL A   1      35.056  35.693  32.381  1.00  0.00     0.014 A 
ATOM     34  C   UNL A   1      34.815  32.976  33.001  1.00  0.00     0.010 A 
ATOM     35  C   UNL A   1      36.197  34.926  32.574  1.00  0.00     0.010 A 
ATOM     36  C   UNL A   1      36.087  33.564  32.897  1.00  0.00    -0.014 A 
BRANCH  36  37
ATOM     37  C   UNL A   1      37.322  32.791  33.178  1.00  0.00     0.031 A 
ATOM     38  C   UNL A   1      38.054  33.025  34.472  1.00  0.00     0.074 A 
ATOM     39  C   UNL A   1      37.815  31.934  32.264  1.00  0.00     0.049 A 
ATOM     40  N   UNL A   1      39.184  32.514  34.888  1.00  0.00    -0.248 NA
ATOM     41  C   UNL A   1      37.454  33.994  35.406  1.00  0.00     0.031 C 
ATOM     42  C   UNL A   1      37.227  31.652  30.951  1.00  0.00     0.029 A 
ATOM     43  N   UNL A   1      38.932  31.137  32.302  1.00  0.00    -0.354 N 
ATOM     44  C   UNL A   1      39.438  33.120  36.112  1.00  0.00     0.074 A 
ATOM     45  C   UNL A   1      38.385  34.081  36.341  1.00  0.00     0.031 C 
ATOM     46  C   UNL A   1      37.967  30.719  30.329  1.00  0.00     0.029 A 
ATOM     47  C   UNL A   1      39.096  30.360  31.180  1.00  0.00     0.049 A 
ATOM     48  H   UNL A   1      39.558  31.124  33.062  1.00  0.00     0.167 HD
ATOM     49  C   UNL A   1      40.440  32.875  36.989  1.00  0.00     0.031 A 
ATOM     50  C   UNL A   1      40.047  29.453  30.882  1.00  0.00     0.031 A 
ATOM     51  C   UNL A   1      41.465  31.890  36.781  1.00  0.00     0.049 A 
ATOM     52  C   UNL A   1      41.136  29.179  31.884  1.00  0.00     0.074 A 
ATOM     53  C   UNL A   1      42.497  31.527  37.626  1.00  0.00     0.029 A 
ATOM     54  N   UNL A   1      41.574  31.101  35.647  1.00  0.00    -0.354 N 
ATOM     55  N   UNL A   1      41.331  29.721  33.062  1.00  0.00    -0.248 NA
ATOM     56  C   UNL A   1      42.124  28.154  31.520  1.00  0.00     0.031 C 
ATOM     57  C   UNL A   1      43.250  30.534  36.990  1.00  0.00     0.029 A 
ATOM     58  C   UNL A   1      42.657  30.251  35.769  1.00  0.00     0.049 A 
ATOM     59  H   UNL A   1      40.970  31.140  34.871  1.00  0.00     0.167 HD
ATOM     60  C   UNL A   1      42.441  29.076  33.595  1.00  0.00     0.074 A 
ATOM     61  C   UNL A   1      42.868  28.098  32.616  1.00  0.00     0.031 C 
ATOM     62  C   UNL A   1      43.051  29.275  34.788  1.00  0.00     0.031 A 
BRANCH  49  63
ATOM     63  C   UNL A   1      40.454  33.683  38.255  1.00  0.00    -0.014 A 
ATOM     64  C   UNL A   1      39.760  33.251  39.398  1.00  0.00     0.009 A 
ATOM     65  C   UNL A   1      41.171  34.888  38.311  1.00  0.00     0.009 A 
ATOM     66  C   UNL A   1      39.745  34.033  40.554  1.00  0.00     0.001 A 
ATOM     67  C   UNL A   1      41.180  35.653  39.479  1.00  0.00     0.001 A 
ATOM     68  C   UNL A   1      40.457  35.231  40.595  1.00  0.00     0.000 A 
ENDBRANCH  49  63
BRANCH  50  69
ATOM     69  C   UNL A   1      39.993  28.700  29.602  1.00  0.00    -0.014 A 
ATOM     70  C   UNL A   1      39.389  27.432  29.551  1.00  0.00     0.009 A 
ATOM     71  C   UNL A   1      40.561  29.226  28.433  1.00  0.00     0.009 A 
ATOM     72  C   UNL A   1      39.386  26.694  28.366  1.00  0.00     0.001 A 
ATOM     73  C   UNL A   1      40.532  28.497  27.240  1.00  0.00     0.001 A 
ATOM     74  C   UNL A   1      39.955  27.228  27.210  1.00  0.00     0.000 A 
ENDBRANCH  50  69
BRANCH  62  75
ATOM     75  C   UNL A   1      44.211  28.382  35.124  1.00  0.00    -0.014 A 
ATOM     76  C   UNL A   1      45.528  28.748  34.813  1.00  0.00     0.009 A 
ATOM     77  C   UNL A   1      43.978  27.177  35.807  1.00  0.00     0.009 A 
ATOM     78  C   UNL A   1      46.590  27.908  35.154  1.00  0.00     0.001 A 
ATOM     79  C   UNL A   1      45.043  26.353  36.169  1.00  0.00     0.001 A 
ATOM     80  C   UNL A   1      46.347  26.714  35.835  1.00  0.00     0.000 A 
ENDBRANCH  62  75
ENDBRANCH  36  37
ENDBRANCH  28  31
ENDBRANCH  26  27
ENDBRANCH  25  26
ENDBRANCH  24  25
ENDBRANCH   1  24
TORSDOF 16
ENDMDL
MODEL 3
REMARK VINA RESULT:     -11.0      1.417      1.927
REMARK SMILES CC(C)(CCc1ccc(Cl)c2ccccc12)C(=O)NCCCCCCNC(=O)c1ccc(-c2c3nc(c(-c4ccccc4)c4ccc([nH]4)c(-c4ccccc4)c4nc(c(-c5ccccc5)c5ccc2[nH]5)C=C4)C=C3)cc1
REMARK SMILES IDX 22 1 21 2 20 3 19 4 17 5 18 6 2 8 1 9 3 10 4 11 5 12 6 13
REMARK SMILES IDX 7 14 16 15 8 16 11 17 15 18 9 19 12 20 14 21 10 22 13 23
REMARK SMILES IDX 23 24 24 25 25 26 26 27 27 28 28 30 29 31 30 32 76 33 31 34
REMARK SMILES IDX 75 35 32 36 33 37 34 38 69 39 35 40 74 41 68 42 70 43 36 44
REMARK SMILES IDX 73 45 67 46 66 47 37 49 59 50 44 51 58 52 45 53 48 54 57 55
REMARK SMILES IDX 71 56 46 57 47 58 56 60 72 61 49 62 38 63 39 64 43 65 40 66
REMARK SMILES IDX 42 67 41 68 60 69 61 70 65 71 62 72 64 73 63 74 50 75 51 76
REMARK SMILES IDX 55 77 52 78 54 79 53 80
REMARK H PARENT 19 7 26 29 70 48 48 59
REMARK Flexibility Score: inf
ROOT
ATOM      1  C   UNL A   1      37.054  22.989  25.763  1.00  0.00     0.002 C 
ENDROOT
BRANCH   1   2
ATOM      2  C   UNL A   1      36.252  22.026  24.882  1.00  0.00     0.021 C 
BRANCH   2   3
ATOM      3  C   UNL A   1      35.037  21.262  25.441  1.00  0.00     0.116 C 
BRANCH   3   4
ATOM      4  N   UNL A   1      34.394  21.718  26.670  1.00  0.00    -0.356 N 
ATOM      5  C   UNL A   1      33.445  22.641  27.010  1.00  0.00     0.225 C 
ATOM      6  O   UNL A   1      32.978  22.510  28.147  1.00  0.00    -0.275 OA
ATOM      7  H   UNL A   1      34.730  21.234  27.458  1.00  0.00     0.163 HD
BRANCH   5   8
ATOM      8  C   UNL A   1      32.971  23.796  26.097  1.00  0.00     0.044 C 
ATOM      9  C   UNL A   1      31.724  24.471  26.716  1.00  0.00     0.021 C 
ATOM     10  C   UNL A   1      32.479  23.164  24.774  1.00  0.00     0.021 C 
BRANCH   8  11
ATOM     11  C   UNL A   1      34.079  24.856  25.836  1.00  0.00     0.021 C 
BRANCH  11  12
ATOM     12  C   UNL A   1      33.868  26.055  24.869  1.00  0.00     0.037 C 
BRANCH  12  13
ATOM     13  C   UNL A   1      33.140  27.391  25.055  1.00  0.00    -0.040 A 
ATOM     14  C   UNL A   1      33.684  28.176  26.095  1.00  0.00     0.006 A 
ATOM     15  C   UNL A   1      31.991  27.910  24.392  1.00  0.00    -0.014 A 
ATOM     16  C   UNL A   1      33.144  29.407  26.456  1.00  0.00     0.021 A 
ATOM     17  C   UNL A   1      31.449  29.189  24.724  1.00  0.00     0.001 A 
ATOM     18  C   UNL A   1      31.316  27.213  23.395  1.00  0.00     0.009 A 
ATOM     19  C   UNL A   1      32.042  29.912  25.776  1.00  0.00     0.048 A 
ATOM     20  C   UNL A   1      30.332  29.689  23.999  1.00  0.00     0.010 A 
ATOM     21  C   UNL A   1      30.257  27.740  22.648  1.00  0.00     0.001 A 
ATOM     22  Cl  UNL A   1      31.438  31.450  26.305  1.00  0.00    -0.084 Cl
ATOM     23  C   UNL A   1      29.755  28.983  22.953  1.00  0.00     0.001 A 
ENDBRANCH  12  13
ENDBRANCH  11  12
ENDBRANCH   8  11
ENDBRANCH   5   8
ENDBRANCH   3   4
ENDBRANCH   2   3
ENDBRANCH   1   2
BRANCH   1  24
ATOM     24  C   UNL A   1      38.500  22.615  26.085  1.00  0.00     0.002 C 
BRANCH  24  25
ATOM     25  C   UNL A   1      38.962  21.293  25.486  1.00  0.00     0.021 C 
BRANCH  25  26
ATOM     26  C   UNL A   1      39.495  20.296  26.506  1.00  0.00     0.116 C 
BRANCH  26  27
ATOM     27  N   UNL A   1      40.524  19.401  25.994  1.00  0.00    -0.352 N 
ATOM     28  C   UNL A   1      41.874  19.668  25.920  1.00  0.00     0.251 C 
ATOM     29  H   UNL A   1      40.227  18.520  25.668  1.00  0.00     0.163 HD
ATOM     30  O   UNL A   1      42.667  18.890  25.404  1.00  0.00    -0.269 OA
BRANCH  28  31
ATOM     31  C   UNL A   1      42.335  20.965  26.455  1.00  0.00     0.039 A 
ATOM     32  C   UNL A   1      42.609  22.010  25.572  1.00  0.00     0.014 A 
ATOM     33  C   UNL A   1      42.329  21.171  27.836  1.00  0.00     0.014 A 
ATOM     34  C   UNL A   1      42.818  23.293  26.081  1.00  0.00     0.010 A 
ATOM     35  C   UNL A   1      42.448  22.462  28.332  1.00  0.00     0.010 A 
ATOM     36  C   UNL A   1      42.705  23.533  27.461  1.00  0.00    -0.014 A 
BRANCH  36  37
ATOM     37  C   UNL A   1      42.908  24.888  28.030  1.00  0.00     0.031 A 
ATOM     38  C   UNL A   1      44.291  25.306  28.452  1.00  0.00     0.074 A 
ATOM     39  C   UNL A   1      41.861  25.713  28.223  1.00  0.00     0.049 A 
ATOM     40  N   UNL A   1      44.682  26.410  29.033  1.00  0.00    -0.248 NA
ATOM     41  C   UNL A   1      45.374  24.333  28.222  1.00  0.00     0.031 C 
ATOM     42  C   UNL A   1      40.464  25.410  27.901  1.00  0.00     0.029 A 
ATOM     43  N   UNL A   1      41.813  26.984  28.739  1.00  0.00    -0.354 N 
ATOM     44  C   UNL A   1      46.042  26.250  29.262  1.00  0.00     0.074 A 
ATOM     45  C   UNL A   1      46.398  24.922  28.819  1.00  0.00     0.031 C 
ATOM     46  C   UNL A   1      39.704  26.480  28.191  1.00  0.00     0.029 A 
ATOM     47  C   UNL A   1      40.551  27.530  28.747  1.00  0.00     0.049 A 
ATOM     48  H   UNL A   1      42.608  27.460  29.073  1.00  0.00     0.167 HD
ATOM     49  C   UNL A   1      46.930  27.140  29.764  1.00  0.00     0.031 A 
ATOM     50  C   UNL A   1      40.133  28.745  29.149  1.00  0.00     0.031 A 
ATOM     51  C   UNL A   1      46.586  28.475  30.167  1.00  0.00     0.049 A 
ATOM     52  C   UNL A   1      41.142  29.728  29.679  1.00  0.00     0.074 A 
ATOM     53  C   UNL A   1      47.415  29.474  30.641  1.00  0.00     0.029 A 
ATOM     54  N   UNL A   1      45.304  28.999  30.126  1.00  0.00    -0.354 N 
ATOM     55  N   UNL A   1      42.436  29.581  29.837  1.00  0.00    -0.248 NA
ATOM     56  C   UNL A   1      40.634  31.051  30.068  1.00  0.00     0.031 C 
ATOM     57  C   UNL A   1      46.628  30.598  30.915  1.00  0.00     0.029 A 
ATOM     58  C   UNL A   1      45.317  30.309  30.568  1.00  0.00     0.049 A 
ATOM     59  H   UNL A   1      44.503  28.511  29.827  1.00  0.00     0.167 HD
ATOM     60  C   UNL A   1      42.900  30.803  30.307  1.00  0.00     0.074 A 
ATOM     61  C   UNL A   1      41.752  31.682  30.399  1.00  0.00     0.031 C 
ATOM     62  C   UNL A   1      44.164  31.167  30.633  1.00  0.00     0.031 A 
BRANCH  49  63
ATOM     63  C   UNL A   1      48.358  26.689  29.885  1.00  0.00    -0.014 A 
ATOM     64  C   UNL A   1      48.810  26.020  31.036  1.00  0.00     0.009 A 
ATOM     65  C   UNL A   1      49.262  26.930  28.841  1.00  0.00     0.009 A 
ATOM     66  C   UNL A   1      50.150  25.646  31.155  1.00  0.00     0.001 A 
ATOM     67  C   UNL A   1      50.594  26.526  28.949  1.00  0.00     0.001 A 
ATOM     68  C   UNL A   1      51.039  25.896  30.112  1.00  0.00     0.000 A 
ENDBRANCH  49  63
BRANCH  50  69
ATOM     69  C   UNL A   1      38.702  29.127  29.026  1.00  0.00    -0.014 A 
ATOM     70  C   UNL A   1      38.206  29.635  27.814  1.00  0.00     0.009 A 
ATOM     71  C   UNL A   1      37.829  29.011  30.117  1.00  0.00     0.009 A 
ATOM     72  C   UNL A   1      36.877  30.050  27.708  1.00  0.00     0.001 A 
ATOM     73  C   UNL A   1      36.492  29.401  30.001  1.00  0.00     0.001 A 
ATOM     74  C   UNL A   1      36.020  29.930  28.800  1.00  0.00     0.000 A 
ENDBRANCH  50  69
BRANCH  62  75
ATOM     75  C   UNL A   1      44.380  32.589  31.066  1.00  0.00    -0.014 A 
ATOM     76  C   UNL A   1      44.641  33.604  30.134  1.00  0.00     0.009 A 
ATOM     77  C   UNL A   1      44.269  32.920  32.426  1.00  0.00     0.009 A 
ATOM     78  C   UNL A   1      44.818  34.921  30.562  1.00  0.00     0.001 A 
ATOM     79  C   UNL A   1      44.420  34.241  32.847  1.00  0.00     0.001 A 
ATOM     80  C   UNL A   1      44.703  35.239  31.915  1.00  0.00     0.000 A 
ENDBRANCH  62  75
ENDBRANCH  36  37
ENDBRANCH  28  31
ENDBRANCH  26  27
ENDBRANCH  25  26
ENDBRANCH  24  25
ENDBRANCH   1  24
TORSDOF 16
ENDMDL
