MODEL 1
REMARK VINA RESULT:     -12.6      0.000      0.000
REMARK SMILES CC1=C(C(=O)NCCCCCCNC(=O)c2ccc(-c3c4nc(c(-c5ccccc5)c5ccc([nH]5)c(-c5ccccc5)c5nc(c(-c6ccccc6)c6ccc3[nH]6)C=C5)C=C4)cc2)[C@H](c2ccc(Cl)cc2)n2ncnc2N1
REMARK SMILES IDX 10 1 9 2 8 3 7 4 6 5 4 6 5 7 3 9 1 10 2 11 77 12 64 13 76 14
REMARK SMILES IDX 72 16 75 17 73 18 74 19 65 20 66 21 71 22 67 23 70 24 68 25
REMARK SMILES IDX 69 26 11 27 12 28 13 29 14 30 15 32 16 33 17 34 63 35 18 36
REMARK SMILES IDX 62 37 19 38 20 39 21 40 56 41 22 42 61 43 55 44 57 45 23 46
REMARK SMILES IDX 60 47 54 48 53 49 24 51 46 52 31 53 45 54 32 55 35 56 44 57
REMARK SMILES IDX 58 58 33 59 34 60 43 62 59 63 36 64 25 65 26 66 30 67 27 68
REMARK SMILES IDX 29 69 28 70 47 71 48 72 52 73 49 74 51 75 50 76 37 77 38 78
REMARK SMILES IDX 42 79 39 80 41 81 40 82
REMARK H PARENT 6 8 77 15 13 31 57 50 35 61
REMARK Flexibility Score: inf
ROOT
ATOM      1  C   UNL A   1      32.366  29.133  27.221  1.00  0.00     0.002 C 
ENDROOT
BRANCH   1   2
ATOM      2  C   UNL A   1      33.498  28.193  26.785  1.00  0.00     0.002 C 
BRANCH   2   3
ATOM      3  C   UNL A   1      33.026  26.872  26.176  1.00  0.00     0.021 C 
BRANCH   3   4
ATOM      4  C   UNL A   1      31.509  26.663  26.288  1.00  0.00     0.116 C 
BRANCH   4   5
ATOM      5  N   UNL A   1      31.254  25.384  26.892  1.00  0.00    -0.352 N 
ATOM      6  C   UNL A   1      31.115  24.128  26.433  1.00  0.00     0.251 C 
ATOM      7  O   UNL A   1      30.659  23.339  27.268  1.00  0.00    -0.270 OA
ATOM      8  H   UNL A   1      31.160  25.441  27.870  1.00  0.00     0.163 HD
BRANCH   6   9
ATOM      9  C   UNL A   1      31.550  23.586  25.100  1.00  0.00     0.065 C 
ATOM     10  C   UNL A   1      30.379  25.034  23.306  1.00  0.00     0.065 C 
ATOM     11  C   UNL A   1      31.233  23.904  23.809  1.00  0.00     0.026 C 
ATOM     12  N   UNL A   1      31.603  23.038  22.773  1.00  0.00    -0.328 N 
ATOM     13  C   UNL A   1      32.432  22.318  25.348  1.00  0.00     0.179 C 
ATOM     14  C   UNL A   1      31.921  21.752  22.985  1.00  0.00     0.226 A 
ATOM     15  H   UNL A   1      31.630  23.387  21.852  1.00  0.00     0.169 HD
ATOM     16  N   UNL A   1      32.237  21.364  24.252  1.00  0.00    -0.219 N 
ATOM     17  N   UNL A   1      31.956  20.718  22.187  1.00  0.00    -0.200 NA
ATOM     18  N   UNL A   1      32.428  20.031  24.328  1.00  0.00    -0.157 NA
ATOM     19  C   UNL A   1      32.247  19.687  23.047  1.00  0.00     0.248 A 
BRANCH  13  20
ATOM     20  C   UNL A   1      33.928  22.665  25.544  1.00  0.00    -0.018 A 
ATOM     21  C   UNL A   1      34.457  23.941  25.262  1.00  0.00     0.008 A 
ATOM     22  C   UNL A   1      34.828  21.676  25.987  1.00  0.00     0.008 A 
ATOM     23  C   UNL A   1      35.820  24.215  25.405  1.00  0.00     0.021 A 
ATOM     24  C   UNL A   1      36.191  21.955  26.150  1.00  0.00     0.021 A 
ATOM     25  C   UNL A   1      36.682  23.222  25.851  1.00  0.00     0.041 A 
ATOM     26  Cl  UNL A   1      38.359  23.559  26.022  1.00  0.00    -0.084 Cl
ENDBRANCH  13  20
ENDBRANCH   6   9
ENDBRANCH   4   5
ENDBRANCH   3   4
ENDBRANCH   2   3
ENDBRANCH   1   2
BRANCH   1  27
ATOM     27  C   UNL A   1      32.621  30.633  27.003  1.00  0.00     0.021 C 
BRANCH  27  28
ATOM     28  C   UNL A   1      34.028  31.057  27.387  1.00  0.00     0.116 C 
BRANCH  28  29
ATOM     29  N   UNL A   1      34.019  31.945  28.548  1.00  0.00    -0.352 N 
ATOM     30  C   UNL A   1      34.855  31.957  29.646  1.00  0.00     0.251 C 
ATOM     31  H   UNL A   1      33.315  32.633  28.548  1.00  0.00     0.163 HD
ATOM     32  O   UNL A   1      34.529  32.506  30.683  1.00  0.00    -0.269 OA
BRANCH  30  33
ATOM     33  C   UNL A   1      36.166  31.298  29.528  1.00  0.00     0.039 A 
ATOM     34  C   UNL A   1      37.356  32.026  29.590  1.00  0.00     0.014 A 
ATOM     35  C   UNL A   1      36.177  29.916  29.372  1.00  0.00     0.014 A 
ATOM     36  C   UNL A   1      38.561  31.331  29.559  1.00  0.00     0.010 A 
ATOM     37  C   UNL A   1      37.346  29.224  29.528  1.00  0.00     0.010 A 
ATOM     38  C   UNL A   1      38.542  29.926  29.542  1.00  0.00    -0.014 A 
BRANCH  38  39
ATOM     39  C   UNL A   1      39.764  29.150  29.664  1.00  0.00     0.031 A 
ATOM     40  C   UNL A   1      40.061  28.723  31.054  1.00  0.00     0.074 A 
ATOM     41  C   UNL A   1      40.437  28.665  28.598  1.00  0.00     0.049 A 
ATOM     42  N   UNL A   1      40.995  29.171  31.822  1.00  0.00    -0.248 NA
ATOM     43  C   UNL A   1      39.113  27.819  31.730  1.00  0.00     0.031 C 
ATOM     44  C   UNL A   1      40.079  28.728  27.175  1.00  0.00     0.029 A 
ATOM     45  N   UNL A   1      41.559  27.900  28.580  1.00  0.00    -0.354 N 
ATOM     46  C   UNL A   1      40.898  28.445  33.004  1.00  0.00     0.074 A 
ATOM     47  C   UNL A   1      39.616  27.788  32.966  1.00  0.00     0.031 C 
ATOM     48  C   UNL A   1      40.824  27.838  26.477  1.00  0.00     0.029 A 
ATOM     49  C   UNL A   1      41.825  27.276  27.365  1.00  0.00     0.049 A 
ATOM     50  H   UNL A   1      42.140  27.793  29.368  1.00  0.00     0.167 HD
ATOM     51  C   UNL A   1      41.998  28.222  33.776  1.00  0.00     0.031 A 
ATOM     52  C   UNL A   1      42.790  26.353  27.127  1.00  0.00     0.031 A 
ATOM     53  C   UNL A   1      43.089  29.089  33.395  1.00  0.00     0.049 A 
ATOM     54  C   UNL A   1      43.784  26.478  28.219  1.00  0.00     0.074 A 
ATOM     55  C   UNL A   1      43.267  30.457  33.323  1.00  0.00     0.029 A 
ATOM     56  N   UNL A   1      44.065  28.540  32.596  1.00  0.00    -0.354 N 
ATOM     57  N   UNL A   1      44.546  27.521  28.372  1.00  0.00    -0.248 NA
ATOM     58  C   UNL A   1      43.595  25.659  29.405  1.00  0.00     0.031 C 
ATOM     59  C   UNL A   1      44.000  30.666  32.116  1.00  0.00     0.029 A 
ATOM     60  C   UNL A   1      44.309  29.418  31.572  1.00  0.00     0.049 A 
ATOM     61  H   UNL A   1      44.509  27.673  32.735  1.00  0.00     0.167 HD
ATOM     62  C   UNL A   1      44.553  27.750  29.739  1.00  0.00     0.074 A 
ATOM     63  C   UNL A   1      44.029  26.517  30.332  1.00  0.00     0.031 C 
ATOM     64  C   UNL A   1      44.698  29.012  30.240  1.00  0.00     0.031 A 
BRANCH  51  65
ATOM     65  C   UNL A   1      42.237  26.939  34.536  1.00  0.00    -0.014 A 
ATOM     66  C   UNL A   1      43.301  26.113  34.129  1.00  0.00     0.009 A 
ATOM     67  C   UNL A   1      41.303  26.371  35.422  1.00  0.00     0.009 A 
ATOM     68  C   UNL A   1      43.368  24.768  34.510  1.00  0.00     0.001 A 
ATOM     69  C   UNL A   1      41.390  25.040  35.838  1.00  0.00     0.001 A 
ATOM     70  C   UNL A   1      42.404  24.228  35.356  1.00  0.00     0.000 A 
ENDBRANCH  51  65
BRANCH  52  71
ATOM     71  C   UNL A   1      42.808  25.193  26.208  1.00  0.00    -0.014 A 
ATOM     72  C   UNL A   1      43.791  25.099  25.206  1.00  0.00     0.009 A 
ATOM     73  C   UNL A   1      42.073  24.034  26.511  1.00  0.00     0.009 A 
ATOM     74  C   UNL A   1      44.072  23.876  24.580  1.00  0.00     0.001 A 
ATOM     75  C   UNL A   1      42.352  22.813  25.883  1.00  0.00     0.001 A 
ATOM     76  C   UNL A   1      43.367  22.730  24.934  1.00  0.00     0.000 A 
ENDBRANCH  52  71
BRANCH  64  77
ATOM     77  C   UNL A   1      45.072  30.117  29.280  1.00  0.00    -0.014 A 
ATOM     78  C   UNL A   1      46.396  30.527  29.040  1.00  0.00     0.009 A 
ATOM     79  C   UNL A   1      44.056  30.659  28.480  1.00  0.00     0.009 A 
ATOM     80  C   UNL A   1      46.686  31.472  28.047  1.00  0.00     0.001 A 
ATOM     81  C   UNL A   1      44.346  31.585  27.477  1.00  0.00     0.001 A 
ATOM     82  C   UNL A   1      45.660  31.996  27.264  1.00  0.00     0.000 A 
ENDBRANCH  64  77
ENDBRANCH  38  39
ENDBRANCH  30  33
ENDBRANCH  28  29
ENDBRANCH  27  28
ENDBRANCH   1  27
TORSDOF 14
ENDMDL
MODEL 2
REMARK VINA RESULT:     -12.4      1.745      2.606
REMARK SMILES CC1=C(C(=O)NCCCCCCNC(=O)c2ccc(-c3c4nc(c(-c5ccccc5)c5ccc([nH]5)c(-c5ccccc5)c5nc(c(-c6ccccc6)c6ccc3[nH]6)C=C5)C=C4)cc2)[C@H](c2ccc(Cl)cc2)n2ncnc2N1
REMARK SMILES IDX 10 1 9 2 8 3 7 4 6 5 4 6 5 7 3 9 1 10 2 11 77 12 64 13 76 14
REMARK SMILES IDX 72 16 75 17 73 18 74 19 65 20 66 21 71 22 67 23 70 24 68 25
REMARK SMILES IDX 69 26 11 27 12 28 13 29 14 30 15 32 16 33 17 34 63 35 18 36
REMARK SMILES IDX 62 37 19 38 20 39 21 40 56 41 22 42 61 43 55 44 57 45 23 46
REMARK SMILES IDX 60 47 54 48 53 49 24 51 46 52 31 53 45 54 32 55 35 56 44 57
REMARK SMILES IDX 58 58 33 59 34 60 43 62 59 63 36 64 25 65 26 66 30 67 27 68
REMARK SMILES IDX 29 69 28 70 47 71 48 72 52 73 49 74 51 75 50 76 37 77 38 78
REMARK SMILES IDX 42 79 39 80 41 81 40 82
REMARK H PARENT 6 8 77 15 13 31 57 50 35 61
REMARK Flexibility Score: inf
ROOT
ATOM      1  C   UNL A   1      31.348  28.362  27.626  1.00  0.00     0.002 C 
ENDROOT
BRANCH   1   2
ATOM      2  C   UNL A   1      31.561  26.955  27.049  1.00  0.00     0.002 C 
BRANCH   2   3
ATOM      3  C   UNL A   1      30.649  26.609  25.870  1.00  0.00     0.021 C 
BRANCH   3   4
ATOM      4  C   UNL A   1      30.481  25.098  25.660  1.00  0.00     0.116 C 
BRANCH   4   5
ATOM      5  N   UNL A   1      31.093  24.400  26.757  1.00  0.00    -0.352 N 
ATOM      6  C   UNL A   1      32.033  23.445  26.868  1.00  0.00     0.251 C 
ATOM      7  O   UNL A   1      32.103  22.942  27.996  1.00  0.00    -0.270 OA
ATOM      8  H   UNL A   1      30.743  24.689  27.630  1.00  0.00     0.163 HD
BRANCH   6   9
ATOM      9  C   UNL A   1      33.044  23.029  25.837  1.00  0.00     0.065 C 
ATOM     10  C   UNL A   1      32.154  20.839  24.786  1.00  0.00     0.065 C 
ATOM     11  C   UNL A   1      33.145  21.949  25.004  1.00  0.00     0.026 C 
ATOM     12  N   UNL A   1      34.349  21.702  24.334  1.00  0.00    -0.328 N 
ATOM     13  C   UNL A   1      34.253  24.020  25.902  1.00  0.00     0.179 C 
ATOM     14  C   UNL A   1      35.517  22.234  24.727  1.00  0.00     0.226 A 
ATOM     15  H   UNL A   1      34.338  21.115  23.543  1.00  0.00     0.169 HD
ATOM     16  N   UNL A   1      35.489  23.307  25.566  1.00  0.00    -0.219 N 
ATOM     17  N   UNL A   1      36.756  21.893  24.489  1.00  0.00    -0.200 NA
ATOM     18  N   UNL A   1      36.730  23.662  25.957  1.00  0.00    -0.157 NA
ATOM     19  C   UNL A   1      37.462  22.773  25.272  1.00  0.00     0.248 A 
BRANCH  13  20
ATOM     20  C   UNL A   1      34.049  25.264  25.005  1.00  0.00    -0.018 A 
ATOM     21  C   UNL A   1      34.337  26.573  25.440  1.00  0.00     0.008 A 
ATOM     22  C   UNL A   1      33.519  25.117  23.707  1.00  0.00     0.008 A 
ATOM     23  C   UNL A   1      34.100  27.683  24.625  1.00  0.00     0.021 A 
ATOM     24  C   UNL A   1      33.300  26.227  22.882  1.00  0.00     0.021 A 
ATOM     25  C   UNL A   1      33.585  27.506  23.348  1.00  0.00     0.041 A 
ATOM     26  Cl  UNL A   1      33.290  28.874  22.348  1.00  0.00    -0.084 Cl
ENDBRANCH  13  20
ENDBRANCH   6   9
ENDBRANCH   4   5
ENDBRANCH   3   4
ENDBRANCH   2   3
ENDBRANCH   1   2
BRANCH   1  27
ATOM     27  C   UNL A   1      32.114  29.495  26.925  1.00  0.00     0.021 C 
BRANCH  27  28
ATOM     28  C   UNL A   1      33.454  29.796  27.574  1.00  0.00     0.116 C 
BRANCH  28  29
ATOM     29  N   UNL A   1      33.904  31.151  27.262  1.00  0.00    -0.352 N 
ATOM     30  C   UNL A   1      35.050  31.805  27.665  1.00  0.00     0.251 C 
ATOM     31  H   UNL A   1      33.304  31.671  26.680  1.00  0.00     0.163 HD
ATOM     32  O   UNL A   1      35.131  33.021  27.624  1.00  0.00    -0.269 OA
BRANCH  30  33
ATOM     33  C   UNL A   1      36.185  30.996  28.134  1.00  0.00     0.039 A 
ATOM     34  C   UNL A   1      36.371  29.681  27.703  1.00  0.00     0.014 A 
ATOM     35  C   UNL A   1      37.082  31.596  29.012  1.00  0.00     0.014 A 
ATOM     36  C   UNL A   1      37.512  29.001  28.117  1.00  0.00     0.010 A 
ATOM     37  C   UNL A   1      38.285  31.000  29.268  1.00  0.00     0.010 A 
ATOM     38  C   UNL A   1      38.470  29.678  28.891  1.00  0.00    -0.014 A 
BRANCH  38  39
ATOM     39  C   UNL A   1      39.747  29.068  29.221  1.00  0.00     0.031 A 
ATOM     40  C   UNL A   1      39.980  28.931  30.680  1.00  0.00     0.074 A 
ATOM     41  C   UNL A   1      40.539  28.474  28.302  1.00  0.00     0.049 A 
ATOM     42  N   UNL A   1      40.810  29.604  31.402  1.00  0.00    -0.248 NA
ATOM     43  C   UNL A   1      39.074  28.068  31.460  1.00  0.00     0.031 C 
ATOM     44  C   UNL A   1      40.281  28.243  26.875  1.00  0.00     0.029 A 
ATOM     45  N   UNL A   1      41.725  27.839  28.488  1.00  0.00    -0.354 N 
ATOM     46  C   UNL A   1      40.695  29.096  32.691  1.00  0.00     0.074 A 
ATOM     47  C   UNL A   1      39.486  28.311  32.705  1.00  0.00     0.031 C 
ATOM     48  C   UNL A   1      41.154  27.326  26.396  1.00  0.00     0.029 A 
ATOM     49  C   UNL A   1      42.136  27.040  27.426  1.00  0.00     0.049 A 
ATOM     50  H   UNL A   1      42.254  27.937  29.312  1.00  0.00     0.167 HD
ATOM     51  C   UNL A   1      41.752  29.131  33.550  1.00  0.00     0.031 A 
ATOM     52  C   UNL A   1      43.198  26.195  27.417  1.00  0.00     0.031 A 
ATOM     53  C   UNL A   1      42.782  30.025  33.075  1.00  0.00     0.049 A 
ATOM     54  C   UNL A   1      44.093  26.617  28.519  1.00  0.00     0.074 A 
ATOM     55  C   UNL A   1      42.837  31.369  32.761  1.00  0.00     0.029 A 
ATOM     56  N   UNL A   1      43.861  29.448  32.446  1.00  0.00    -0.354 N 
ATOM     57  N   UNL A   1      44.742  27.745  28.517  1.00  0.00    -0.248 NA
ATOM     58  C   UNL A   1      43.894  26.008  29.824  1.00  0.00     0.031 C 
ATOM     59  C   UNL A   1      43.633  31.435  31.578  1.00  0.00     0.029 A 
ATOM     60  C   UNL A   1      44.096  30.149  31.293  1.00  0.00     0.049 A 
ATOM     61  H   UNL A   1      44.372  28.671  32.768  1.00  0.00     0.167 HD
ATOM     62  C   UNL A   1      44.627  28.214  29.817  1.00  0.00     0.074 A 
ATOM     63  C   UNL A   1      44.178  27.060  30.598  1.00  0.00     0.031 C 
ATOM     64  C   UNL A   1      44.617  29.554  30.082  1.00  0.00     0.031 A 
BRANCH  51  65
ATOM     65  C   UNL A   1      42.053  28.037  34.546  1.00  0.00    -0.014 A 
ATOM     66  C   UNL A   1      42.627  26.843  34.071  1.00  0.00     0.009 A 
ATOM     67  C   UNL A   1      41.536  28.008  35.855  1.00  0.00     0.009 A 
ATOM     68  C   UNL A   1      42.594  25.666  34.827  1.00  0.00     0.001 A 
ATOM     69  C   UNL A   1      41.538  26.845  36.628  1.00  0.00     0.001 A 
ATOM     70  C   UNL A   1      42.038  25.664  36.102  1.00  0.00     0.000 A 
ENDBRANCH  51  65
BRANCH  52  71
ATOM     71  C   UNL A   1      43.391  24.898  26.731  1.00  0.00    -0.014 A 
ATOM     72  C   UNL A   1      42.702  23.754  27.174  1.00  0.00     0.009 A 
ATOM     73  C   UNL A   1      43.990  24.848  25.461  1.00  0.00     0.009 A 
ATOM     74  C   UNL A   1      42.563  22.628  26.349  1.00  0.00     0.001 A 
ATOM     75  C   UNL A   1      43.854  23.722  24.639  1.00  0.00     0.001 A 
ATOM     76  C   UNL A   1      43.121  22.621  25.074  1.00  0.00     0.000 A 
ENDBRANCH  52  71
BRANCH  64  77
ATOM     77  C   UNL A   1      44.956  30.502  28.956  1.00  0.00    -0.014 A 
ATOM     78  C   UNL A   1      44.014  30.973  28.022  1.00  0.00     0.009 A 
ATOM     79  C   UNL A   1      46.246  31.053  28.931  1.00  0.00     0.009 A 
ATOM     80  C   UNL A   1      44.365  31.946  27.077  1.00  0.00     0.001 A 
ATOM     81  C   UNL A   1      46.590  32.036  28.002  1.00  0.00     0.001 A 
ATOM     82  C   UNL A   1      45.652  32.479  27.072  1.00  0.00     0.000 A 
ENDBRANCH  64  77
ENDBRANCH  38  39
ENDBRANCH  30  33
ENDBRANCH  28  29
ENDBRANCH  27  28
ENDBRANCH   1  27
TORSDOF 14
ENDMDL
MODEL 3
REMARK VINA RESULT:     -12.2      1.986      5.475
REMARK SMILES CC1=C(C(=O)NCCCCCCNC(=O)c2ccc(-c3c4nc(c(-c5ccccc5)c5ccc([nH]5)c(-c5ccccc5)c5nc(c(-c6ccccc6)c6ccc3[nH]6)C=C5)C=C4)cc2)[C@H](c2ccc(Cl)cc2)n2ncnc2N1
REMARK SMILES IDX 10 1 9 2 8 3 7 4 6 5 4 6 5 7 3 9 1 10 2 11 77 12 64 13 76 14
REMARK SMILES IDX 72 16 75 17 73 18 74 19 65 20 66 21 71 22 67 23 70 24 68 25
REMARK SMILES IDX 69 26 11 27 12 28 13 29 14 30 15 32 16 33 17 34 63 35 18 36
REMARK SMILES IDX 62 37 19 38 20 39 21 40 56 41 22 42 61 43 55 44 57 45 23 46
REMARK SMILES IDX 60 47 54 48 53 49 24 51 46 52 31 53 45 54 32 55 35 56 44 57
REMARK SMILES IDX 58 58 33 59 34 60 43 62 59 63 36 64 25 65 26 66 30 67 27 68
REMARK SMILES IDX 29 69 28 70 47 71 48 72 52 73 49 74 51 75 50 76 37 77 38 78
REMARK SMILES IDX 42 79 39 80 41 81 40 82
REMARK H PARENT 6 8 77 15 13 31 57 50 35 61
REMARK Flexibility Score: inf
ROOT
ATOM      1  C   UNL A   1      33.313  29.181  26.569  1.00  0.00     0.002 C 
ENDROOT
BRANCH   1   2
ATOM      2  C   UNL A   1      32.022  28.611  27.173  1.00  0.00     0.002 C 
BRANCH   2   3
ATOM      3  C   UNL A   1      31.343  27.538  26.319  1.00  0.00     0.021 C 
BRANCH   3   4
ATOM      4  C   UNL A   1      32.252  26.337  26.023  1.00  0.00     0.116 C 
BRANCH   4   5
ATOM      5  N   UNL A   1      31.747  25.183  26.716  1.00  0.00    -0.352 N 
ATOM      6  C   UNL A   1      31.412  23.931  26.356  1.00  0.00     0.251 C 
ATOM      7  O   UNL A   1      30.783  23.314  27.223  1.00  0.00    -0.270 OA
ATOM      8  H   UNL A   1      31.615  25.348  27.677  1.00  0.00     0.163 HD
BRANCH   6   9
ATOM      9  C   UNL A   1      31.813  23.198  25.106  1.00  0.00     0.065 C 
ATOM     10  C   UNL A   1      30.737  24.480  23.134  1.00  0.00     0.065 C 
ATOM     11  C   UNL A   1      31.517  23.370  23.783  1.00  0.00     0.026 C 
ATOM     12  N   UNL A   1      31.831  22.359  22.867  1.00  0.00    -0.328 N 
ATOM     13  C   UNL A   1      32.612  21.918  25.519  1.00  0.00     0.179 C 
ATOM     14  C   UNL A   1      32.066  21.092  23.242  1.00  0.00     0.226 A 
ATOM     15  H   UNL A   1      31.881  22.586  21.910  1.00  0.00     0.169 HD
ATOM     16  N   UNL A   1      32.356  20.848  24.551  1.00  0.00    -0.219 N 
ATOM     17  N   UNL A   1      32.035  19.965  22.581  1.00  0.00    -0.200 NA
ATOM     18  N   UNL A   1      32.462  19.526  24.796  1.00  0.00    -0.157 NA
ATOM     19  C   UNL A   1      32.260  19.035  23.566  1.00  0.00     0.248 A 
BRANCH  13  20
ATOM     20  C   UNL A   1      34.126  22.192  25.682  1.00  0.00    -0.018 A 
ATOM     21  C   UNL A   1      34.647  23.482  25.914  1.00  0.00     0.008 A 
ATOM     22  C   UNL A   1      35.050  21.135  25.564  1.00  0.00     0.008 A 
ATOM     23  C   UNL A   1      36.022  23.708  26.012  1.00  0.00     0.021 A 
ATOM     24  C   UNL A   1      36.427  21.357  25.681  1.00  0.00     0.021 A 
ATOM     25  C   UNL A   1      36.908  22.645  25.898  1.00  0.00     0.041 A 
ATOM     26  Cl  UNL A   1      38.600  22.926  26.015  1.00  0.00    -0.084 Cl
ENDBRANCH  13  20
ENDBRANCH   6   9
ENDBRANCH   4   5
ENDBRANCH   3   4
ENDBRANCH   2   3
ENDBRANCH   1   2
BRANCH   1  27
ATOM     27  C   UNL A   1      34.617  28.774  27.274  1.00  0.00     0.021 C 
BRANCH  27  28
ATOM     28  C   UNL A   1      35.510  29.959  27.600  1.00  0.00     0.116 C 
BRANCH  28  29
ATOM     29  N   UNL A   1      35.594  30.181  29.042  1.00  0.00    -0.352 N 
ATOM     30  C   UNL A   1      36.500  29.677  29.952  1.00  0.00     0.251 C 
ATOM     31  H   UNL A   1      34.906  30.776  29.418  1.00  0.00     0.163 HD
ATOM     32  O   UNL A   1      36.254  29.658  31.146  1.00  0.00    -0.269 OA
BRANCH  30  33
ATOM     33  C   UNL A   1      37.787  29.173  29.447  1.00  0.00     0.039 A 
ATOM     34  C   UNL A   1      38.405  29.741  28.331  1.00  0.00     0.014 A 
ATOM     35  C   UNL A   1      38.377  28.118  30.135  1.00  0.00     0.014 A 
ATOM     36  C   UNL A   1      39.662  29.273  27.959  1.00  0.00     0.010 A 
ATOM     37  C   UNL A   1      39.680  27.788  29.886  1.00  0.00     0.010 A 
ATOM     38  C   UNL A   1      40.296  28.304  28.755  1.00  0.00    -0.014 A 
BRANCH  38  39
ATOM     39  C   UNL A   1      41.667  27.892  28.501  1.00  0.00     0.031 A 
ATOM     40  C   UNL A   1      41.776  26.596  27.788  1.00  0.00     0.074 A 
ATOM     41  C   UNL A   1      42.726  28.711  28.684  1.00  0.00     0.049 A 
ATOM     42  N   UNL A   1      42.176  25.471  28.275  1.00  0.00    -0.248 NA
ATOM     43  C   UNL A   1      41.221  26.493  26.426  1.00  0.00     0.031 C 
ATOM     44  C   UNL A   1      42.740  30.127  29.070  1.00  0.00     0.029 A 
ATOM     45  N   UNL A   1      44.040  28.462  28.449  1.00  0.00    -0.354 N 
ATOM     46  C   UNL A   1      42.140  24.564  27.223  1.00  0.00     0.074 A 
ATOM     47  C   UNL A   1      41.361  25.189  26.183  1.00  0.00     0.031 C 
ATOM     48  C   UNL A   1      43.957  30.660  28.808  1.00  0.00     0.029 A 
ATOM     49  C   UNL A   1      44.853  29.590  28.407  1.00  0.00     0.049 A 
ATOM     50  H   UNL A   1      44.390  27.552  28.317  1.00  0.00     0.167 HD
ATOM     51  C   UNL A   1      42.991  23.501  27.190  1.00  0.00     0.031 A 
ATOM     52  C   UNL A   1      46.161  29.628  28.048  1.00  0.00     0.031 A 
ATOM     53  C   UNL A   1      43.612  23.289  28.476  1.00  0.00     0.049 A 
ATOM     54  C   UNL A   1      46.681  28.247  28.172  1.00  0.00     0.074 A 
ATOM     55  C   UNL A   1      43.149  23.034  29.752  1.00  0.00     0.029 A 
ATOM     56  N   UNL A   1      44.894  23.765  28.631  1.00  0.00    -0.354 N 
ATOM     57  N   UNL A   1      46.811  27.635  29.313  1.00  0.00    -0.248 NA
ATOM     58  C   UNL A   1      46.608  27.387  27.003  1.00  0.00     0.031 C 
ATOM     59  C   UNL A   1      43.972  23.829  30.605  1.00  0.00     0.029 A 
ATOM     60  C   UNL A   1      44.946  24.446  29.818  1.00  0.00     0.049 A 
ATOM     61  H   UNL A   1      45.639  23.639  28.000  1.00  0.00     0.167 HD
ATOM     62  C   UNL A   1      46.376  26.342  29.066  1.00  0.00     0.074 A 
ATOM     63  C   UNL A   1      46.354  26.222  27.606  1.00  0.00     0.031 C 
ATOM     64  C   UNL A   1      45.792  25.596  30.050  1.00  0.00     0.031 A 
BRANCH  51  65
ATOM     65  C   UNL A   1      43.602  22.961  25.919  1.00  0.00    -0.014 A 
ATOM     66  C   UNL A   1      43.653  21.565  25.746  1.00  0.00     0.009 A 
ATOM     67  C   UNL A   1      44.382  23.733  25.038  1.00  0.00     0.009 A 
ATOM     68  C   UNL A   1      44.512  20.977  24.810  1.00  0.00     0.001 A 
ATOM     69  C   UNL A   1      45.209  23.150  24.075  1.00  0.00     0.001 A 
ATOM     70  C   UNL A   1      45.300  21.771  23.983  1.00  0.00     0.000 A 
ENDBRANCH  51  65
BRANCH  52  71
ATOM     71  C   UNL A   1      46.938  30.677  27.351  1.00  0.00    -0.014 A 
ATOM     72  C   UNL A   1      46.282  31.781  26.777  1.00  0.00     0.009 A 
ATOM     73  C   UNL A   1      48.330  30.764  27.525  1.00  0.00     0.009 A 
ATOM     74  C   UNL A   1      46.983  32.952  26.452  1.00  0.00     0.001 A 
ATOM     75  C   UNL A   1      49.030  31.932  27.197  1.00  0.00     0.001 A 
ATOM     76  C   UNL A   1      48.353  33.034  26.682  1.00  0.00     0.000 A 
ENDBRANCH  52  71
BRANCH  64  77
ATOM     77  C   UNL A   1      45.835  26.129  31.462  1.00  0.00    -0.014 A 
ATOM     78  C   UNL A   1      44.846  26.965  32.012  1.00  0.00     0.009 A 
ATOM     79  C   UNL A   1      46.839  25.645  32.314  1.00  0.00     0.009 A 
ATOM     80  C   UNL A   1      44.880  27.326  33.365  1.00  0.00     0.001 A 
ATOM     81  C   UNL A   1      46.863  25.987  33.667  1.00  0.00     0.001 A 
ATOM     82  C   UNL A   1      45.887  26.831  34.191  1.00  0.00     0.000 A 
ENDBRANCH  64  77
ENDBRANCH  38  39
ENDBRANCH  30  33
ENDBRANCH  28  29
ENDBRANCH  27  28
ENDBRANCH   1  27
TORSDOF 14
ENDMDL
