MODEL 1
REMARK VINA RESULT:     -10.7      0.000      0.000
REMARK SMILES CC[C@@](C)(NC(=O)c1cccc(Br)c1C)C(=O)NCCCCCCNC(=O)c1ccc(-c2c3nc(c(-c4ccccc4)c4ccc([nH]4)c(-c4ccccc4)c4nc(c(-c5ccccc5)c5ccc2[nH]5)C=C4)C=C3)cc1
REMARK SMILES IDX 21 1 20 2 19 3 18 4 16 5 17 6 3 8 4 9 2 10 1 11 5 12 6 13
REMARK SMILES IDX 7 15 8 16 9 17 14 18 10 19 12 20 15 21 11 22 13 23 22 24
REMARK SMILES IDX 23 25 24 26 25 27 26 28 27 30 28 31 29 32 75 33 30 34 74 35
REMARK SMILES IDX 31 36 32 37 33 38 68 39 34 40 73 41 67 42 69 43 35 44 72 45
REMARK SMILES IDX 66 46 65 47 36 49 58 50 43 51 57 52 44 53 47 54 56 55 70 56
REMARK SMILES IDX 45 57 46 58 55 60 71 61 48 62 37 63 38 64 42 65 39 66 41 67
REMARK SMILES IDX 40 68 59 69 60 70 64 71 61 72 63 73 62 74 49 75 50 76 54 77
REMARK SMILES IDX 51 78 53 79 52 80
REMARK H PARENT 18 7 5 14 25 29 69 48 47 59
REMARK Flexibility Score: inf
ROOT
ATOM      1  C   UNL A   1      37.014  22.221  23.978  1.00  0.00     0.002 C 
ENDROOT
BRANCH   1   2
ATOM      2  C   UNL A   1      35.857  23.057  23.407  1.00  0.00     0.021 C 
BRANCH   2   3
ATOM      3  C   UNL A   1      34.912  24.064  24.143  1.00  0.00     0.116 C 
BRANCH   3   4
ATOM      4  N   UNL A   1      34.329  23.704  25.480  1.00  0.00    -0.354 N 
ATOM      5  C   UNL A   1      33.249  23.590  26.309  1.00  0.00     0.245 C 
ATOM      6  O   UNL A   1      33.618  22.993  27.343  1.00  0.00    -0.272 OA
ATOM      7  H   UNL A   1      35.096  23.406  26.020  1.00  0.00     0.163 HD
BRANCH   5   8
ATOM      8  C   UNL A   1      31.632  23.873  26.198  1.00  0.00     0.116 C 
ATOM      9  C   UNL A   1      31.284  23.466  24.748  1.00  0.00     0.045 C 
BRANCH   8  10
ATOM     10  C   UNL A   1      30.853  22.921  27.198  1.00  0.00     0.035 C 
ATOM     11  C   UNL A   1      29.329  22.875  27.196  1.00  0.00     0.007 C 
ENDBRANCH   8  10
BRANCH   8  12
ATOM     12  N   UNL A   1      30.884  25.188  26.412  1.00  0.00    -0.338 N 
ATOM     13  C   UNL A   1      31.331  26.508  26.368  1.00  0.00     0.252 C 
ATOM     14  H   UNL A   1      29.925  25.087  26.615  1.00  0.00     0.164 HD
ATOM     15  O   UNL A   1      30.914  27.339  27.170  1.00  0.00    -0.269 OA
BRANCH  13  16
ATOM     16  C   UNL A   1      32.156  26.946  25.222  1.00  0.00     0.043 A 
ATOM     17  C   UNL A   1      33.372  27.628  25.339  1.00  0.00     0.014 A 
ATOM     18  C   UNL A   1      31.539  26.928  23.986  1.00  0.00    -0.024 A 
ATOM     19  C   UNL A   1      34.068  28.039  24.193  1.00  0.00     0.002 A 
ATOM     20  C   UNL A   1      32.380  27.009  22.854  1.00  0.00     0.021 A 
ATOM     21  C   UNL A   1      30.066  27.387  24.091  1.00  0.00     0.046 C 
ATOM     22  C   UNL A   1      33.607  27.654  22.948  1.00  0.00     0.016 A 
ATOM     23  Br  UNL A   1      32.614  25.530  21.615  1.00  0.00    -0.051 Br
ENDBRANCH  13  16
ENDBRANCH   8  12
ENDBRANCH   5   8
ENDBRANCH   3   4
ENDBRANCH   2   3
ENDBRANCH   1   2
BRANCH   1  24
ATOM     24  C   UNL A   1      36.669  21.005  24.805  1.00  0.00     0.002 C 
BRANCH  24  25
ATOM     25  C   UNL A   1      37.806  20.000  24.929  1.00  0.00     0.021 C 
BRANCH  25  26
ATOM     26  C   UNL A   1      39.014  20.500  25.722  1.00  0.00     0.116 C 
BRANCH  26  27
ATOM     27  N   UNL A   1      40.010  19.449  25.896  1.00  0.00    -0.352 N 
ATOM     28  C   UNL A   1      41.356  19.611  26.085  1.00  0.00     0.251 C 
ATOM     29  H   UNL A   1      39.677  18.523  25.875  1.00  0.00     0.163 HD
ATOM     30  O   UNL A   1      42.155  18.699  25.867  1.00  0.00    -0.269 OA
BRANCH  28  31
ATOM     31  C   UNL A   1      41.825  20.914  26.578  1.00  0.00     0.039 A 
ATOM     32  C   UNL A   1      42.242  21.896  25.680  1.00  0.00     0.014 A 
ATOM     33  C   UNL A   1      41.779  21.164  27.955  1.00  0.00     0.014 A 
ATOM     34  C   UNL A   1      42.588  23.155  26.169  1.00  0.00     0.010 A 
ATOM     35  C   UNL A   1      42.037  22.440  28.425  1.00  0.00     0.010 A 
ATOM     36  C   UNL A   1      42.470  23.439  27.541  1.00  0.00    -0.014 A 
BRANCH  36  37
ATOM     37  C   UNL A   1      42.850  24.759  28.093  1.00  0.00     0.031 A 
ATOM     38  C   UNL A   1      41.781  25.795  28.312  1.00  0.00     0.074 A 
ATOM     39  C   UNL A   1      44.144  25.043  28.333  1.00  0.00     0.049 A 
ATOM     40  N   UNL A   1      41.903  27.035  28.710  1.00  0.00    -0.248 NA
ATOM     41  C   UNL A   1      40.394  25.396  28.014  1.00  0.00     0.031 C 
ATOM     42  C   UNL A   1      45.269  24.128  28.122  1.00  0.00     0.029 A 
ATOM     43  N   UNL A   1      44.732  26.189  28.801  1.00  0.00    -0.354 N 
ATOM     44  C   UNL A   1      40.618  27.564  28.687  1.00  0.00     0.074 A 
ATOM     45  C   UNL A   1      39.740  26.535  28.181  1.00  0.00     0.031 C 
ATOM     46  C   UNL A   1      46.407  24.740  28.488  1.00  0.00     0.029 A 
ATOM     47  C   UNL A   1      46.098  26.101  28.914  1.00  0.00     0.049 A 
ATOM     48  H   UNL A   1      44.224  26.999  29.034  1.00  0.00     0.167 HD
ATOM     49  C   UNL A   1      40.204  28.791  29.076  1.00  0.00     0.031 A 
ATOM     50  C   UNL A   1      46.999  27.021  29.310  1.00  0.00     0.031 A 
ATOM     51  C   UNL A   1      41.080  29.802  29.598  1.00  0.00     0.049 A 
ATOM     52  C   UNL A   1      46.510  28.383  29.721  1.00  0.00     0.074 A 
ATOM     53  C   UNL A   1      40.756  31.058  30.077  1.00  0.00     0.029 A 
ATOM     54  N   UNL A   1      42.456  29.669  29.709  1.00  0.00    -0.354 N 
ATOM     55  N   UNL A   1      45.282  28.845  29.763  1.00  0.00    -0.248 NA
ATOM     56  C   UNL A   1      47.530  29.349  30.154  1.00  0.00     0.031 C 
ATOM     57  C   UNL A   1      41.944  31.709  30.423  1.00  0.00     0.029 A 
ATOM     58  C   UNL A   1      42.999  30.830  30.227  1.00  0.00     0.049 A 
ATOM     59  H   UNL A   1      42.968  28.867  29.458  1.00  0.00     0.167 HD
ATOM     60  C   UNL A   1      45.380  30.137  30.263  1.00  0.00     0.074 A 
ATOM     61  C   UNL A   1      46.784  30.381  30.522  1.00  0.00     0.031 C 
ATOM     62  C   UNL A   1      44.397  31.043  30.490  1.00  0.00     0.031 A 
BRANCH  49  63
ATOM     63  C   UNL A   1      38.739  29.108  28.950  1.00  0.00    -0.014 A 
ATOM     64  C   UNL A   1      37.867  28.973  30.042  1.00  0.00     0.009 A 
ATOM     65  C   UNL A   1      38.235  29.596  27.735  1.00  0.00     0.009 A 
ATOM     66  C   UNL A   1      36.514  29.294  29.910  1.00  0.00     0.001 A 
ATOM     67  C   UNL A   1      36.890  29.946  27.615  1.00  0.00     0.001 A 
ATOM     68  C   UNL A   1      36.029  29.787  28.699  1.00  0.00     0.000 A 
ENDBRANCH  49  63
BRANCH  50  69
ATOM     69  C   UNL A   1      48.450  26.693  29.343  1.00  0.00    -0.014 A 
ATOM     70  C   UNL A   1      49.274  26.979  28.244  1.00  0.00     0.009 A 
ATOM     71  C   UNL A   1      49.013  26.059  30.462  1.00  0.00     0.009 A 
ATOM     72  C   UNL A   1      50.619  26.599  28.246  1.00  0.00     0.001 A 
ATOM     73  C   UNL A   1      50.366  25.712  30.476  1.00  0.00     0.001 A 
ATOM     74  C   UNL A   1      51.164  25.969  29.364  1.00  0.00     0.000 A 
ENDBRANCH  50  69
BRANCH  62  75
ATOM     75  C   UNL A   1      44.795  32.356  31.102  1.00  0.00    -0.014 A 
ATOM     76  C   UNL A   1      44.874  32.524  32.492  1.00  0.00     0.009 A 
ATOM     77  C   UNL A   1      45.154  33.423  30.264  1.00  0.00     0.009 A 
ATOM     78  C   UNL A   1      45.274  33.749  33.032  1.00  0.00     0.001 A 
ATOM     79  C   UNL A   1      45.587  34.634  30.804  1.00  0.00     0.001 A 
ATOM     80  C   UNL A   1      45.637  34.799  32.187  1.00  0.00     0.000 A 
ENDBRANCH  62  75
ENDBRANCH  36  37
ENDBRANCH  28  31
ENDBRANCH  26  27
ENDBRANCH  25  26
ENDBRANCH  24  25
ENDBRANCH   1  24
TORSDOF 16
ENDMDL
MODEL 2
REMARK VINA RESULT:     -10.7      1.234      6.110
REMARK SMILES CC[C@@](C)(NC(=O)c1cccc(Br)c1C)C(=O)NCCCCCCNC(=O)c1ccc(-c2c3nc(c(-c4ccccc4)c4ccc([nH]4)c(-c4ccccc4)c4nc(c(-c5ccccc5)c5ccc2[nH]5)C=C4)C=C3)cc1
REMARK SMILES IDX 21 1 20 2 19 3 18 4 16 5 17 6 3 8 4 9 2 10 1 11 5 12 6 13
REMARK SMILES IDX 7 15 8 16 9 17 14 18 10 19 12 20 15 21 11 22 13 23 22 24
REMARK SMILES IDX 23 25 24 26 25 27 26 28 27 30 28 31 29 32 75 33 30 34 74 35
REMARK SMILES IDX 31 36 32 37 33 38 68 39 34 40 73 41 67 42 69 43 35 44 72 45
REMARK SMILES IDX 66 46 65 47 36 49 58 50 43 51 57 52 44 53 47 54 56 55 70 56
REMARK SMILES IDX 45 57 46 58 55 60 71 61 48 62 37 63 38 64 42 65 39 66 41 67
REMARK SMILES IDX 40 68 59 69 60 70 64 71 61 72 63 73 62 74 49 75 50 76 54 77
REMARK SMILES IDX 51 78 53 79 52 80
REMARK H PARENT 18 7 5 14 25 29 69 48 47 59
REMARK Flexibility Score: inf
ROOT
ATOM      1  C   UNL A   1      37.818  22.214  24.997  1.00  0.00     0.002 C 
ENDROOT
BRANCH   1   2
ATOM      2  C   UNL A   1      36.847  23.174  25.703  1.00  0.00     0.021 C 
BRANCH   2   3
ATOM      3  C   UNL A   1      35.765  24.117  25.079  1.00  0.00     0.116 C 
BRANCH   3   4
ATOM      4  N   UNL A   1      35.037  23.700  23.833  1.00  0.00    -0.354 N 
ATOM      5  C   UNL A   1      33.990  23.061  23.232  1.00  0.00     0.245 C 
ATOM      6  O   UNL A   1      34.020  23.336  22.012  1.00  0.00    -0.272 OA
ATOM      7  H   UNL A   1      35.573  24.062  23.091  1.00  0.00     0.163 HD
BRANCH   5   8
ATOM      8  C   UNL A   1      32.672  22.213  23.731  1.00  0.00     0.116 C 
ATOM      9  C   UNL A   1      32.081  21.642  22.422  1.00  0.00     0.045 C 
BRANCH   8  10
ATOM     10  C   UNL A   1      33.130  21.009  24.655  1.00  0.00     0.035 C 
ATOM     11  C   UNL A   1      33.671  21.269  26.057  1.00  0.00     0.007 C 
ENDBRANCH   8  10
BRANCH   8  12
ATOM     12  N   UNL A   1      31.455  22.721  24.505  1.00  0.00    -0.338 N 
ATOM     13  C   UNL A   1      31.351  23.682  25.510  1.00  0.00     0.252 C 
ATOM     14  H   UNL A   1      30.602  22.299  24.252  1.00  0.00     0.164 HD
ATOM     15  O   UNL A   1      30.591  23.518  26.458  1.00  0.00    -0.269 OA
BRANCH  13  16
ATOM     16  C   UNL A   1      32.014  24.990  25.319  1.00  0.00     0.043 A 
ATOM     17  C   UNL A   1      32.806  25.623  26.282  1.00  0.00     0.014 A 
ATOM     18  C   UNL A   1      31.580  25.740  24.242  1.00  0.00    -0.024 A 
ATOM     19  C   UNL A   1      33.363  26.884  26.027  1.00  0.00     0.002 A 
ATOM     20  C   UNL A   1      32.406  26.813  23.840  1.00  0.00     0.021 A 
ATOM     21  C   UNL A   1      30.048  25.621  24.060  1.00  0.00     0.046 C 
ATOM     22  C   UNL A   1      33.227  27.441  24.769  1.00  0.00     0.016 A 
ATOM     23  Br  UNL A   1      33.361  26.821  22.147  1.00  0.00    -0.051 Br
ENDBRANCH  13  16
ENDBRANCH   8  12
ENDBRANCH   5   8
ENDBRANCH   3   4
ENDBRANCH   2   3
ENDBRANCH   1   2
BRANCH   1  24
ATOM     24  C   UNL A   1      37.312  20.838  24.631  1.00  0.00     0.002 C 
BRANCH  24  25
ATOM     25  C   UNL A   1      38.277  19.713  24.980  1.00  0.00     0.021 C 
BRANCH  25  26
ATOM     26  C   UNL A   1      39.302  20.064  26.058  1.00  0.00     0.116 C 
BRANCH  26  27
ATOM     27  N   UNL A   1      40.461  19.182  26.000  1.00  0.00    -0.352 N 
ATOM     28  C   UNL A   1      41.778  19.552  25.964  1.00  0.00     0.251 C 
ATOM     29  H   UNL A   1      40.276  18.215  25.983  1.00  0.00     0.163 HD
ATOM     30  O   UNL A   1      42.655  18.787  25.561  1.00  0.00    -0.269 OA
BRANCH  28  31
ATOM     31  C   UNL A   1      42.123  20.898  26.442  1.00  0.00     0.039 A 
ATOM     32  C   UNL A   1      42.419  21.912  25.531  1.00  0.00     0.014 A 
ATOM     33  C   UNL A   1      42.082  21.151  27.818  1.00  0.00     0.014 A 
ATOM     34  C   UNL A   1      42.646  23.203  26.007  1.00  0.00     0.010 A 
ATOM     35  C   UNL A   1      42.219  22.449  28.278  1.00  0.00     0.010 A 
ATOM     36  C   UNL A   1      42.530  23.482  27.381  1.00  0.00    -0.014 A 
BRANCH  36  37
ATOM     37  C   UNL A   1      42.785  24.836  27.919  1.00  0.00     0.031 A 
ATOM     38  C   UNL A   1      44.184  25.207  28.334  1.00  0.00     0.074 A 
ATOM     39  C   UNL A   1      41.765  25.697  28.092  1.00  0.00     0.049 A 
ATOM     40  N   UNL A   1      44.613  26.306  28.899  1.00  0.00    -0.248 NA
ATOM     41  C   UNL A   1      45.234  24.196  28.114  1.00  0.00     0.031 C 
ATOM     42  C   UNL A   1      40.363  25.433  27.760  1.00  0.00     0.029 A 
ATOM     43  N   UNL A   1      41.751  26.972  28.598  1.00  0.00    -0.354 N 
ATOM     44  C   UNL A   1      45.971  26.107  29.119  1.00  0.00     0.074 A 
ATOM     45  C   UNL A   1      46.284  24.765  28.685  1.00  0.00     0.031 C 
ATOM     46  C   UNL A   1      39.631  26.522  28.044  1.00  0.00     0.029 A 
ATOM     47  C   UNL A   1      40.502  27.542  28.619  1.00  0.00     0.049 A 
ATOM     48  H   UNL A   1      42.559  27.434  28.916  1.00  0.00     0.167 HD
ATOM     49  C   UNL A   1      46.881  26.974  29.618  1.00  0.00     0.031 A 
ATOM     50  C   UNL A   1      40.105  28.751  29.063  1.00  0.00     0.031 A 
ATOM     51  C   UNL A   1      46.565  28.314  30.028  1.00  0.00     0.049 A 
ATOM     52  C   UNL A   1      41.138  29.689  29.627  1.00  0.00     0.074 A 
ATOM     53  C   UNL A   1      47.421  29.296  30.491  1.00  0.00     0.029 A 
ATOM     54  N   UNL A   1      45.290  28.859  30.021  1.00  0.00    -0.354 N 
ATOM     55  N   UNL A   1      42.431  29.514  29.763  1.00  0.00    -0.248 NA
ATOM     56  C   UNL A   1      40.658  31.000  30.089  1.00  0.00     0.031 C 
ATOM     57  C   UNL A   1      46.655  30.417  30.823  1.00  0.00     0.029 A 
ATOM     58  C   UNL A   1      45.332  30.157  30.497  1.00  0.00     0.049 A 
ATOM     59  H   UNL A   1      44.477  28.391  29.723  1.00  0.00     0.167 HD
ATOM     60  C   UNL A   1      42.922  30.702  30.286  1.00  0.00     0.074 A 
ATOM     61  C   UNL A   1      41.791  31.595  30.431  1.00  0.00     0.031 C 
ATOM     62  C   UNL A   1      44.195  31.030  30.617  1.00  0.00     0.031 A 
BRANCH  49  63
ATOM     63  C   UNL A   1      48.302  26.501  29.749  1.00  0.00    -0.014 A 
ATOM     64  C   UNL A   1      49.240  26.718  28.727  1.00  0.00     0.009 A 
ATOM     65  C   UNL A   1      48.720  25.874  30.932  1.00  0.00     0.009 A 
ATOM     66  C   UNL A   1      50.561  26.289  28.877  1.00  0.00     0.001 A 
ATOM     67  C   UNL A   1      50.048  25.476  31.093  1.00  0.00     0.001 A 
ATOM     68  C   UNL A   1      50.965  25.676  30.063  1.00  0.00     0.000 A 
ENDBRANCH  49  63
BRANCH  50  69
ATOM     69  C   UNL A   1      38.675  29.151  28.990  1.00  0.00    -0.014 A 
ATOM     70  C   UNL A   1      38.160  29.761  27.835  1.00  0.00     0.009 A 
ATOM     71  C   UNL A   1      37.822  28.957  30.088  1.00  0.00     0.009 A 
ATOM     72  C   UNL A   1      36.836  30.208  27.797  1.00  0.00     0.001 A 
ATOM     73  C   UNL A   1      36.489  29.373  30.035  1.00  0.00     0.001 A 
ATOM     74  C   UNL A   1      36.002  30.010  28.896  1.00  0.00     0.000 A 
ENDBRANCH  50  69
BRANCH  62  75
ATOM     75  C   UNL A   1      44.444  32.428  31.109  1.00  0.00    -0.014 A 
ATOM     76  C   UNL A   1      44.425  32.739  32.476  1.00  0.00     0.009 A 
ATOM     77  C   UNL A   1      44.762  33.435  30.184  1.00  0.00     0.009 A 
ATOM     78  C   UNL A   1      44.687  34.043  32.905  1.00  0.00     0.001 A 
ATOM     79  C   UNL A   1      45.057  34.727  30.616  1.00  0.00     0.001 A 
ATOM     80  C   UNL A   1      45.010  35.032  31.975  1.00  0.00     0.000 A 
ENDBRANCH  62  75
ENDBRANCH  36  37
ENDBRANCH  28  31
ENDBRANCH  26  27
ENDBRANCH  25  26
ENDBRANCH  24  25
ENDBRANCH   1  24
TORSDOF 16
ENDMDL
MODEL 3
REMARK VINA RESULT:     -10.6      3.248      8.483
REMARK SMILES CC[C@@](C)(NC(=O)c1cccc(Br)c1C)C(=O)NCCCCCCNC(=O)c1ccc(-c2c3nc(c(-c4ccccc4)c4ccc([nH]4)c(-c4ccccc4)c4nc(c(-c5ccccc5)c5ccc2[nH]5)C=C4)C=C3)cc1
REMARK SMILES IDX 21 1 20 2 19 3 18 4 16 5 17 6 3 8 4 9 2 10 1 11 5 12 6 13
REMARK SMILES IDX 7 15 8 16 9 17 14 18 10 19 12 20 15 21 11 22 13 23 22 24
REMARK SMILES IDX 23 25 24 26 25 27 26 28 27 30 28 31 29 32 75 33 30 34 74 35
REMARK SMILES IDX 31 36 32 37 33 38 68 39 34 40 73 41 67 42 69 43 35 44 72 45
REMARK SMILES IDX 66 46 65 47 36 49 58 50 43 51 57 52 44 53 47 54 56 55 70 56
REMARK SMILES IDX 45 57 46 58 55 60 71 61 48 62 37 63 38 64 42 65 39 66 41 67
REMARK SMILES IDX 40 68 59 69 60 70 64 71 61 72 63 73 62 74 49 75 50 76 54 77
REMARK SMILES IDX 51 78 53 79 52 80
REMARK H PARENT 18 7 5 14 25 29 69 48 47 59
REMARK Flexibility Score: inf
ROOT
ATOM      1  C   UNL A   1      32.474  29.741  27.236  1.00  0.00     0.002 C 
ENDROOT
BRANCH   1   2
ATOM      2  C   UNL A   1      32.173  28.253  27.475  1.00  0.00     0.021 C 
BRANCH   2   3
ATOM      3  C   UNL A   1      31.339  27.263  26.596  1.00  0.00     0.116 C 
BRANCH   3   4
ATOM      4  N   UNL A   1      31.363  25.791  26.898  1.00  0.00    -0.354 N 
ATOM      5  C   UNL A   1      31.857  24.541  26.656  1.00  0.00     0.245 C 
ATOM      6  O   UNL A   1      31.427  23.777  27.547  1.00  0.00    -0.272 OA
ATOM      7  H   UNL A   1      30.704  25.668  27.620  1.00  0.00     0.163 HD
BRANCH   5   8
ATOM      8  C   UNL A   1      32.964  23.879  25.635  1.00  0.00     0.116 C 
ATOM      9  C   UNL A   1      34.144  24.877  25.671  1.00  0.00     0.045 C 
BRANCH   8  10
ATOM     10  C   UNL A   1      33.455  22.485  26.210  1.00  0.00     0.035 C 
ATOM     11  C   UNL A   1      34.889  22.310  26.697  1.00  0.00     0.007 C 
ENDBRANCH   8  10
BRANCH   8  12
ATOM     12  N   UNL A   1      32.803  23.537  24.154  1.00  0.00    -0.338 N 
ATOM     13  C   UNL A   1      31.796  23.866  23.248  1.00  0.00     0.252 C 
ATOM     14  H   UNL A   1      33.532  22.993  23.776  1.00  0.00     0.164 HD
ATOM     15  O   UNL A   1      31.412  23.053  22.413  1.00  0.00    -0.269 OA
BRANCH  13  16
ATOM     16  C   UNL A   1      31.336  25.270  23.169  1.00  0.00     0.043 A 
ATOM     17  C   UNL A   1      30.051  25.701  23.514  1.00  0.00     0.014 A 
ATOM     18  C   UNL A   1      32.136  26.132  22.444  1.00  0.00    -0.024 A 
ATOM     19  C   UNL A   1      29.692  27.049  23.368  1.00  0.00     0.002 A 
ATOM     20  C   UNL A   1      31.915  27.514  22.629  1.00  0.00     0.021 A 
ATOM     21  C   UNL A   1      32.706  25.438  21.184  1.00  0.00     0.046 C 
ATOM     22  C   UNL A   1      30.655  27.970  23.002  1.00  0.00     0.016 A 
ATOM     23  Br  UNL A   1      33.212  28.676  23.493  1.00  0.00    -0.051 Br
ENDBRANCH  13  16
ENDBRANCH   8  12
ENDBRANCH   5   8
ENDBRANCH   3   4
ENDBRANCH   2   3
ENDBRANCH   1   2
BRANCH   1  24
ATOM     24  C   UNL A   1      31.545  30.515  26.332  1.00  0.00     0.002 C 
BRANCH  24  25
ATOM     25  C   UNL A   1      31.476  32.004  26.645  1.00  0.00     0.021 C 
BRANCH  25  26
ATOM     26  C   UNL A   1      32.782  32.606  27.164  1.00  0.00     0.116 C 
BRANCH  26  27
ATOM     27  N   UNL A   1      32.578  33.953  27.684  1.00  0.00    -0.352 N 
ATOM     28  C   UNL A   1      33.189  34.518  28.771  1.00  0.00     0.251 C 
ATOM     29  H   UNL A   1      31.931  34.516  27.201  1.00  0.00     0.163 HD
ATOM     30  O   UNL A   1      32.711  35.499  29.344  1.00  0.00    -0.269 OA
BRANCH  28  31
ATOM     31  C   UNL A   1      34.453  33.927  29.230  1.00  0.00     0.039 A 
ATOM     32  C   UNL A   1      34.470  33.078  30.337  1.00  0.00     0.014 A 
ATOM     33  C   UNL A   1      35.616  34.181  28.494  1.00  0.00     0.014 A 
ATOM     34  C   UNL A   1      35.665  32.453  30.690  1.00  0.00     0.010 A 
ATOM     35  C   UNL A   1      36.778  33.489  28.795  1.00  0.00     0.010 A 
ATOM     36  C   UNL A   1      36.821  32.641  29.911  1.00  0.00    -0.014 A 
BRANCH  36  37
ATOM     37  C   UNL A   1      38.108  32.009  30.272  1.00  0.00     0.031 A 
ATOM     38  C   UNL A   1      39.050  32.740  31.192  1.00  0.00     0.074 A 
ATOM     39  C   UNL A   1      38.454  30.825  29.732  1.00  0.00     0.049 A 
ATOM     40  N   UNL A   1      40.256  32.406  31.574  1.00  0.00    -0.248 NA
ATOM     41  C   UNL A   1      38.589  34.033  31.728  1.00  0.00     0.031 C 
ATOM     42  C   UNL A   1      37.637  30.044  28.800  1.00  0.00     0.029 A 
ATOM     43  N   UNL A   1      39.591  30.074  29.885  1.00  0.00    -0.354 N 
ATOM     44  C   UNL A   1      40.699  33.454  32.371  1.00  0.00     0.074 A 
ATOM     45  C   UNL A   1      39.663  34.461  32.372  1.00  0.00     0.031 C 
ATOM     46  C   UNL A   1      38.288  28.911  28.489  1.00  0.00     0.029 A 
ATOM     47  C   UNL A   1      39.583  28.907  29.161  1.00  0.00     0.049 A 
ATOM     48  H   UNL A   1      40.343  30.346  30.460  1.00  0.00     0.167 HD
ATOM     49  C   UNL A   1      41.857  33.558  33.061  1.00  0.00     0.031 A 
ATOM     50  C   UNL A   1      40.522  27.948  29.046  1.00  0.00     0.031 A 
ATOM     51  C   UNL A   1      42.874  32.543  33.073  1.00  0.00     0.049 A 
ATOM     52  C   UNL A   1      41.808  28.099  29.814  1.00  0.00     0.074 A 
ATOM     53  C   UNL A   1      44.059  32.520  33.785  1.00  0.00     0.029 A 
ATOM     54  N   UNL A   1      42.821  31.369  32.336  1.00  0.00    -0.354 N 
ATOM     55  N   UNL A   1      42.183  29.062  30.622  1.00  0.00    -0.248 NA
ATOM     56  C   UNL A   1      42.797  27.021  29.664  1.00  0.00     0.031 C 
ATOM     57  C   UNL A   1      44.753  31.359  33.432  1.00  0.00     0.029 A 
ATOM     58  C   UNL A   1      43.966  30.626  32.557  1.00  0.00     0.049 A 
ATOM     59  H   UNL A   1      42.080  31.106  31.744  1.00  0.00     0.167 HD
ATOM     60  C   UNL A   1      43.429  28.688  31.105  1.00  0.00     0.074 A 
ATOM     61  C   UNL A   1      43.741  27.404  30.511  1.00  0.00     0.031 C 
ATOM     62  C   UNL A   1      44.245  29.344  31.966  1.00  0.00     0.031 A 
BRANCH  49  63
ATOM     63  C   UNL A   1      42.088  34.811  33.859  1.00  0.00    -0.014 A 
ATOM     64  C   UNL A   1      41.690  34.905  35.203  1.00  0.00     0.009 A 
ATOM     65  C   UNL A   1      42.757  35.896  33.273  1.00  0.00     0.009 A 
ATOM     66  C   UNL A   1      41.933  36.071  35.933  1.00  0.00     0.001 A 
ATOM     67  C   UNL A   1      43.027  37.047  34.013  1.00  0.00     0.001 A 
ATOM     68  C   UNL A   1      42.608  37.137  35.340  1.00  0.00     0.000 A 
ENDBRANCH  49  63
BRANCH  50  69
ATOM     69  C   UNL A   1      40.288  26.761  28.182  1.00  0.00    -0.014 A 
ATOM     70  C   UNL A   1      40.816  26.706  26.883  1.00  0.00     0.009 A 
ATOM     71  C   UNL A   1      39.504  25.689  28.637  1.00  0.00     0.009 A 
ATOM     72  C   UNL A   1      40.530  25.625  26.044  1.00  0.00     0.001 A 
ATOM     73  C   UNL A   1      39.248  24.593  27.810  1.00  0.00     0.001 A 
ATOM     74  C   UNL A   1      39.749  24.568  26.510  1.00  0.00     0.000 A 
ENDBRANCH  50  69
BRANCH  62  75
ATOM     75  C   UNL A   1      45.523  28.661  32.365  1.00  0.00    -0.014 A 
ATOM     76  C   UNL A   1      46.721  28.880  31.669  1.00  0.00     0.009 A 
ATOM     77  C   UNL A   1      45.533  27.830  33.496  1.00  0.00     0.009 A 
ATOM     78  C   UNL A   1      47.899  28.251  32.080  1.00  0.00     0.001 A 
ATOM     79  C   UNL A   1      46.717  27.232  33.926  1.00  0.00     0.001 A 
ATOM     80  C   UNL A   1      47.897  27.435  33.211  1.00  0.00     0.000 A 
ENDBRANCH  62  75
ENDBRANCH  36  37
ENDBRANCH  28  31
ENDBRANCH  26  27
ENDBRANCH  25  26
ENDBRANCH  24  25
ENDBRANCH   1  24
TORSDOF 16
ENDMDL
