MODEL 1
REMARK VINA RESULT:     -11.3      0.000      0.000
REMARK SMILES Cc1ccc([C@@H](Cc2cccs2)C(=O)NCCCCCCNC(=O)c2ccc(-c3c4nc(c(-c5ccccc5)c5ccc([nH]5)c(-c5ccccc5)c5nc(c(-c6ccccc6)c6ccc3[nH]6)C=C5)C=C4)cc2)cc1
REMARK SMILES IDX 18 1 17 2 16 3 15 4 13 5 14 6 6 8 5 9 1 10 2 11 3 12 74 13
REMARK SMILES IDX 4 14 73 15 7 16 8 17 9 18 12 19 10 20 11 21 19 22 20 23
REMARK SMILES IDX 21 24 22 25 23 26 24 28 25 29 26 30 72 31 27 32 71 33 28 34
REMARK SMILES IDX 29 35 30 36 65 37 31 38 70 39 64 40 66 41 32 42 69 43 63 44
REMARK SMILES IDX 62 45 33 47 55 48 40 49 54 50 41 51 44 52 53 53 67 54 42 55
REMARK SMILES IDX 43 56 52 58 68 59 45 60 34 61 35 62 39 63 36 64 38 65 37 66
REMARK SMILES IDX 56 67 57 68 61 69 58 70 60 71 59 72 46 73 47 74 51 75 48 76
REMARK SMILES IDX 50 77 49 78
REMARK H PARENT 15 7 22 27 66 46 44 57
REMARK Flexibility Score: inf
ROOT
ATOM      1  C   UNL A   1      32.264  28.213  26.098  1.00  0.00     0.002 C 
ENDROOT
BRANCH   1   2
ATOM      2  C   UNL A   1      33.682  27.658  25.909  1.00  0.00     0.021 C 
BRANCH   2   3
ATOM      3  C   UNL A   1      33.777  26.164  25.596  1.00  0.00     0.116 C 
BRANCH   3   4
ATOM      4  N   UNL A   1      33.939  25.859  24.196  1.00  0.00    -0.356 N 
ATOM      5  C   UNL A   1      33.026  25.628  23.218  1.00  0.00     0.227 C 
ATOM      6  O   UNL A   1      33.483  25.579  22.065  1.00  0.00    -0.274 OA
ATOM      7  H   UNL A   1      34.876  25.813  23.897  1.00  0.00     0.163 HD
BRANCH   5   8
ATOM      8  C   UNL A   1      31.517  25.417  23.438  1.00  0.00     0.113 C 
BRANCH   8   9
ATOM      9  C   UNL A   1      30.661  26.657  23.190  1.00  0.00    -0.035 A 
ATOM     10  C   UNL A   1      28.124  30.129  22.593  1.00  0.00     0.044 C 
ATOM     11  C   UNL A   1      28.987  28.923  22.808  1.00  0.00    -0.051 A 
ATOM     12  C   UNL A   1      30.298  28.911  22.328  1.00  0.00     0.004 A 
ATOM     13  C   UNL A   1      28.515  27.803  23.492  1.00  0.00     0.004 A 
ATOM     14  C   UNL A   1      31.119  27.795  22.519  1.00  0.00     0.005 A 
ATOM     15  C   UNL A   1      29.342  26.689  23.682  1.00  0.00     0.005 A 
ENDBRANCH   8   9
BRANCH   8  16
ATOM     16  C   UNL A   1      30.940  24.009  23.156  1.00  0.00     0.065 C 
BRANCH  16  17
ATOM     17  C   UNL A   1      31.592  22.806  23.774  1.00  0.00     0.006 A 
ATOM     18  C   UNL A   1      32.238  21.755  23.150  1.00  0.00     0.015 A 
ATOM     19  S   UNL A   1      31.473  22.528  25.468  1.00  0.00    -0.149 S 
ATOM     20  C   UNL A   1      32.802  20.832  24.077  1.00  0.00     0.012 A 
ATOM     21  C   UNL A   1      32.478  21.148  25.376  1.00  0.00     0.065 A 
ENDBRANCH  16  17
ENDBRANCH   8  16
ENDBRANCH   5   8
ENDBRANCH   3   4
ENDBRANCH   2   3
ENDBRANCH   1   2
BRANCH   1  22
ATOM     22  C   UNL A   1      32.003  29.669  25.668  1.00  0.00     0.002 C 
BRANCH  22  23
ATOM     23  C   UNL A   1      32.445  30.763  26.642  1.00  0.00     0.021 C 
BRANCH  23  24
ATOM     24  C   UNL A   1      33.442  30.299  27.696  1.00  0.00     0.116 C 
BRANCH  24  25
ATOM     25  N   UNL A   1      34.100  31.394  28.403  1.00  0.00    -0.352 N 
ATOM     26  C   UNL A   1      35.359  31.421  28.979  1.00  0.00     0.251 C 
ATOM     27  H   UNL A   1      33.578  32.226  28.481  1.00  0.00     0.163 HD
ATOM     28  O   UNL A   1      35.787  32.427  29.517  1.00  0.00    -0.269 OA
BRANCH  26  29
ATOM     29  C   UNL A   1      36.228  30.233  28.813  1.00  0.00     0.039 A 
ATOM     30  C   UNL A   1      36.574  29.522  29.965  1.00  0.00     0.014 A 
ATOM     31  C   UNL A   1      36.881  30.001  27.605  1.00  0.00     0.014 A 
ATOM     32  C   UNL A   1      37.748  28.778  29.968  1.00  0.00     0.010 A 
ATOM     33  C   UNL A   1      38.087  29.327  27.626  1.00  0.00     0.010 A 
ATOM     34  C   UNL A   1      38.557  28.793  28.830  1.00  0.00    -0.014 A 
BRANCH  34  35
ATOM     35  C   UNL A   1      39.967  28.425  28.875  1.00  0.00     0.031 A 
ATOM     36  C   UNL A   1      40.421  27.118  28.369  1.00  0.00     0.074 A 
ATOM     37  C   UNL A   1      40.859  29.275  29.429  1.00  0.00     0.049 A 
ATOM     38  N   UNL A   1      41.476  26.505  28.792  1.00  0.00    -0.248 NA
ATOM     39  C   UNL A   1      39.656  26.348  27.396  1.00  0.00     0.031 C 
ATOM     40  C   UNL A   1      42.316  29.187  29.403  1.00  0.00     0.029 A 
ATOM     41  N   UNL A   1      40.611  30.292  30.334  1.00  0.00    -0.354 N 
ATOM     42  C   UNL A   1      41.693  25.437  27.955  1.00  0.00     0.074 A 
ATOM     43  C   UNL A   1      40.469  25.304  27.203  1.00  0.00     0.031 C 
ATOM     44  C   UNL A   1      42.814  29.926  30.410  1.00  0.00     0.029 A 
ATOM     45  C   UNL A   1      41.692  30.397  31.208  1.00  0.00     0.049 A 
ATOM     46  H   UNL A   1      39.801  30.851  30.356  1.00  0.00     0.167 HD
ATOM     47  C   UNL A   1      42.941  24.891  27.885  1.00  0.00     0.031 A 
ATOM     48  C   UNL A   1      41.546  30.177  32.548  1.00  0.00     0.031 A 
ATOM     49  C   UNL A   1      43.821  25.409  28.936  1.00  0.00     0.049 A 
ATOM     50  C   UNL A   1      42.341  28.993  33.065  1.00  0.00     0.074 A 
ATOM     51  C   UNL A   1      44.854  26.333  28.937  1.00  0.00     0.029 A 
ATOM     52  N   UNL A   1      43.502  25.174  30.270  1.00  0.00    -0.354 N 
ATOM     53  N   UNL A   1      42.873  28.079  32.302  1.00  0.00    -0.248 NA
ATOM     54  C   UNL A   1      42.540  28.712  34.486  1.00  0.00     0.031 C 
ATOM     55  C   UNL A   1      45.087  26.726  30.283  1.00  0.00     0.029 A 
ATOM     56  C   UNL A   1      44.225  26.013  31.098  1.00  0.00     0.049 A 
ATOM     57  H   UNL A   1      42.853  24.503  30.580  1.00  0.00     0.167 HD
ATOM     58  C   UNL A   1      43.437  27.102  33.079  1.00  0.00     0.074 A 
ATOM     59  C   UNL A   1      43.225  27.557  34.441  1.00  0.00     0.031 C 
ATOM     60  C   UNL A   1      44.007  25.987  32.539  1.00  0.00     0.031 A 
BRANCH  47  61
ATOM     61  C   UNL A   1      43.452  24.098  26.696  1.00  0.00    -0.014 A 
ATOM     62  C   UNL A   1      43.189  22.715  26.622  1.00  0.00     0.009 A 
ATOM     63  C   UNL A   1      44.278  24.606  25.678  1.00  0.00     0.009 A 
ATOM     64  C   UNL A   1      43.768  21.894  25.642  1.00  0.00     0.001 A 
ATOM     65  C   UNL A   1      44.865  23.795  24.697  1.00  0.00     0.001 A 
ATOM     66  C   UNL A   1      44.620  22.432  24.688  1.00  0.00     0.000 A 
ENDBRANCH  47  61
BRANCH  48  67
ATOM     67  C   UNL A   1      40.221  30.589  33.092  1.00  0.00    -0.014 A 
ATOM     68  C   UNL A   1      39.884  31.957  33.072  1.00  0.00     0.009 A 
ATOM     69  C   UNL A   1      39.201  29.653  33.304  1.00  0.00     0.009 A 
ATOM     70  C   UNL A   1      38.551  32.370  33.152  1.00  0.00     0.001 A 
ATOM     71  C   UNL A   1      37.867  30.070  33.395  1.00  0.00     0.001 A 
ATOM     72  C   UNL A   1      37.540  31.422  33.285  1.00  0.00     0.000 A 
ENDBRANCH  48  67
BRANCH  60  73
ATOM     73  C   UNL A   1      44.464  24.780  33.316  1.00  0.00    -0.014 A 
ATOM     74  C   UNL A   1      45.809  24.446  33.529  1.00  0.00     0.009 A 
ATOM     75  C   UNL A   1      43.500  23.998  33.988  1.00  0.00     0.009 A 
ATOM     76  C   UNL A   1      46.170  23.357  34.335  1.00  0.00     0.001 A 
ATOM     77  C   UNL A   1      43.856  22.939  34.826  1.00  0.00     0.001 A 
ATOM     78  C   UNL A   1      45.195  22.610  34.989  1.00  0.00     0.000 A 
ENDBRANCH  60  73
ENDBRANCH  34  35
ENDBRANCH  26  29
ENDBRANCH  24  25
ENDBRANCH  23  24
ENDBRANCH  22  23
ENDBRANCH   1  22
TORSDOF 16
ENDMDL
MODEL 2
REMARK VINA RESULT:     -11.1      1.646      3.544
REMARK SMILES Cc1ccc([C@@H](Cc2cccs2)C(=O)NCCCCCCNC(=O)c2ccc(-c3c4nc(c(-c5ccccc5)c5ccc([nH]5)c(-c5ccccc5)c5nc(c(-c6ccccc6)c6ccc3[nH]6)C=C5)C=C4)cc2)cc1
REMARK SMILES IDX 18 1 17 2 16 3 15 4 13 5 14 6 6 8 5 9 1 10 2 11 3 12 74 13
REMARK SMILES IDX 4 14 73 15 7 16 8 17 9 18 12 19 10 20 11 21 19 22 20 23
REMARK SMILES IDX 21 24 22 25 23 26 24 28 25 29 26 30 72 31 27 32 71 33 28 34
REMARK SMILES IDX 29 35 30 36 65 37 31 38 70 39 64 40 66 41 32 42 69 43 63 44
REMARK SMILES IDX 62 45 33 47 55 48 40 49 54 50 41 51 44 52 53 53 67 54 42 55
REMARK SMILES IDX 43 56 52 58 68 59 45 60 34 61 35 62 39 63 36 64 38 65 37 66
REMARK SMILES IDX 56 67 57 68 61 69 58 70 60 71 59 72 46 73 47 74 51 75 48 76
REMARK SMILES IDX 50 77 49 78
REMARK H PARENT 15 7 22 27 66 46 44 57
REMARK Flexibility Score: inf
ROOT
ATOM      1  C   UNL A   1      32.249  29.781  25.874  1.00  0.00     0.002 C 
ENDROOT
BRANCH   1   2
ATOM      2  C   UNL A   1      31.838  28.416  26.446  1.00  0.00     0.021 C 
BRANCH   2   3
ATOM      3  C   UNL A   1      32.918  27.333  26.425  1.00  0.00     0.116 C 
BRANCH   3   4
ATOM      4  N   UNL A   1      32.421  26.002  26.179  1.00  0.00    -0.356 N 
ATOM      5  C   UNL A   1      32.901  24.995  25.406  1.00  0.00     0.227 C 
ATOM      6  O   UNL A   1      32.340  23.898  25.553  1.00  0.00    -0.274 OA
ATOM      7  H   UNL A   1      31.587  25.787  26.657  1.00  0.00     0.163 HD
BRANCH   5   8
ATOM      8  C   UNL A   1      34.047  25.123  24.386  1.00  0.00     0.113 C 
BRANCH   8   9
ATOM      9  C   UNL A   1      35.202  24.147  24.605  1.00  0.00    -0.035 A 
ATOM     10  C   UNL A   1      38.490  21.421  25.377  1.00  0.00     0.044 C 
ATOM     11  C   UNL A   1      37.358  22.369  25.126  1.00  0.00    -0.051 A 
ATOM     12  C   UNL A   1      36.578  22.232  23.977  1.00  0.00     0.004 A 
ATOM     13  C   UNL A   1      37.052  23.392  26.023  1.00  0.00     0.004 A 
ATOM     14  C   UNL A   1      35.516  23.107  23.725  1.00  0.00     0.005 A 
ATOM     15  C   UNL A   1      35.988  24.264  25.767  1.00  0.00     0.005 A 
ENDBRANCH   8   9
BRANCH   8  16
ATOM     16  C   UNL A   1      33.686  25.584  22.954  1.00  0.00     0.065 C 
BRANCH  16  17
ATOM     17  C   UNL A   1      32.688  26.691  22.765  1.00  0.00     0.006 A 
ATOM     18  C   UNL A   1      31.314  26.606  22.644  1.00  0.00     0.015 A 
ATOM     19  S   UNL A   1      33.222  28.310  22.528  1.00  0.00    -0.149 S 
ATOM     20  C   UNL A   1      30.693  27.885  22.557  1.00  0.00     0.012 A 
ATOM     21  C   UNL A   1      31.618  28.902  22.506  1.00  0.00     0.065 A 
ENDBRANCH  16  17
ENDBRANCH   8  16
ENDBRANCH   5   8
ENDBRANCH   3   4
ENDBRANCH   2   3
ENDBRANCH   1   2
BRANCH   1  22
ATOM     22  C   UNL A   1      31.811  31.039  26.646  1.00  0.00     0.002 C 
BRANCH  22  23
ATOM     23  C   UNL A   1      32.925  31.904  27.240  1.00  0.00     0.021 C 
BRANCH  23  24
ATOM     24  C   UNL A   1      34.007  31.118  27.971  1.00  0.00     0.116 C 
BRANCH  24  25
ATOM     25  N   UNL A   1      34.581  31.831  29.109  1.00  0.00    -0.352 N 
ATOM     26  C   UNL A   1      35.721  31.528  29.835  1.00  0.00     0.251 C 
ATOM     27  H   UNL A   1      34.092  32.636  29.399  1.00  0.00     0.163 HD
ATOM     28  O   UNL A   1      36.094  32.239  30.752  1.00  0.00    -0.269 OA
BRANCH  26  29
ATOM     29  C   UNL A   1      36.550  30.385  29.388  1.00  0.00     0.039 A 
ATOM     30  C   UNL A   1      36.799  29.369  30.314  1.00  0.00     0.014 A 
ATOM     31  C   UNL A   1      37.264  30.457  28.195  1.00  0.00     0.014 A 
ATOM     32  C   UNL A   1      37.939  28.590  30.165  1.00  0.00     0.010 A 
ATOM     33  C   UNL A   1      38.439  29.738  28.084  1.00  0.00     0.010 A 
ATOM     34  C   UNL A   1      38.815  28.871  29.114  1.00  0.00    -0.014 A 
BRANCH  34  35
ATOM     35  C   UNL A   1      40.204  28.428  29.121  1.00  0.00     0.031 A 
ATOM     36  C   UNL A   1      40.575  27.102  28.599  1.00  0.00     0.074 A 
ATOM     37  C   UNL A   1      41.155  29.227  29.655  1.00  0.00     0.049 A 
ATOM     38  N   UNL A   1      41.606  26.431  28.993  1.00  0.00    -0.248 NA
ATOM     39  C   UNL A   1      39.745  26.378  27.645  1.00  0.00     0.031 C 
ATOM     40  C   UNL A   1      42.603  29.063  29.589  1.00  0.00     0.029 A 
ATOM     41  N   UNL A   1      40.984  30.252  30.569  1.00  0.00    -0.354 N 
ATOM     42  C   UNL A   1      41.745  25.357  28.147  1.00  0.00     0.074 A 
ATOM     43  C   UNL A   1      40.495  25.293  27.427  1.00  0.00     0.031 C 
ATOM     44  C   UNL A   1      43.165  29.770  30.586  1.00  0.00     0.029 A 
ATOM     45  C   UNL A   1      42.092  30.295  31.414  1.00  0.00     0.049 A 
ATOM     46  H   UNL A   1      40.206  30.853  30.614  1.00  0.00     0.167 HD
ATOM     47  C   UNL A   1      42.959  24.746  28.042  1.00  0.00     0.031 A 
ATOM     48  C   UNL A   1      41.969  30.078  32.757  1.00  0.00     0.031 A 
ATOM     49  C   UNL A   1      43.892  25.212  29.071  1.00  0.00     0.049 A 
ATOM     50  C   UNL A   1      42.713  28.850  33.249  1.00  0.00     0.074 A 
ATOM     51  C   UNL A   1      44.973  26.080  29.048  1.00  0.00     0.029 A 
ATOM     52  N   UNL A   1      43.597  24.988  30.412  1.00  0.00    -0.354 N 
ATOM     53  N   UNL A   1      43.176  27.913  32.469  1.00  0.00    -0.248 NA
ATOM     54  C   UNL A   1      42.935  28.553  34.664  1.00  0.00     0.031 C 
ATOM     55  C   UNL A   1      45.261  26.454  30.388  1.00  0.00     0.029 A 
ATOM     56  C   UNL A   1      44.384  25.784  31.223  1.00  0.00     0.049 A 
ATOM     57  H   UNL A   1      42.921  24.351  30.738  1.00  0.00     0.167 HD
ATOM     58  C   UNL A   1      43.707  26.904  33.228  1.00  0.00     0.074 A 
ATOM     59  C   UNL A   1      43.556  27.363  34.596  1.00  0.00     0.031 C 
ATOM     60  C   UNL A   1      44.203  25.763  32.670  1.00  0.00     0.031 A 
BRANCH  47  61
ATOM     61  C   UNL A   1      43.396  23.932  26.837  1.00  0.00    -0.014 A 
ATOM     62  C   UNL A   1      44.169  24.546  25.832  1.00  0.00     0.009 A 
ATOM     63  C   UNL A   1      43.002  22.610  26.568  1.00  0.00     0.009 A 
ATOM     64  C   UNL A   1      44.466  23.904  24.619  1.00  0.00     0.001 A 
ATOM     65  C   UNL A   1      43.289  21.961  25.359  1.00  0.00     0.001 A 
ATOM     66  C   UNL A   1      44.011  22.616  24.376  1.00  0.00     0.000 A 
ENDBRANCH  47  61
BRANCH  48  67
ATOM     67  C   UNL A   1      40.683  30.557  33.337  1.00  0.00    -0.014 A 
ATOM     68  C   UNL A   1      40.487  31.945  33.477  1.00  0.00     0.009 A 
ATOM     69  C   UNL A   1      39.570  29.712  33.430  1.00  0.00     0.009 A 
ATOM     70  C   UNL A   1      39.201  32.480  33.596  1.00  0.00     0.001 A 
ATOM     71  C   UNL A   1      38.283  30.250  33.561  1.00  0.00     0.001 A 
ATOM     72  C   UNL A   1      38.097  31.632  33.609  1.00  0.00     0.000 A 
ENDBRANCH  48  67
BRANCH  60  73
ATOM     73  C   UNL A   1      44.616  24.529  33.431  1.00  0.00    -0.014 A 
ATOM     74  C   UNL A   1      45.936  24.242  33.804  1.00  0.00     0.009 A 
ATOM     75  C   UNL A   1      43.613  23.665  33.920  1.00  0.00     0.009 A 
ATOM     76  C   UNL A   1      46.243  23.120  34.587  1.00  0.00     0.001 A 
ATOM     77  C   UNL A   1      43.910  22.570  34.736  1.00  0.00     0.001 A 
ATOM     78  C   UNL A   1      45.230  22.291  35.059  1.00  0.00     0.000 A 
ENDBRANCH  60  73
ENDBRANCH  34  35
ENDBRANCH  26  29
ENDBRANCH  24  25
ENDBRANCH  23  24
ENDBRANCH  22  23
ENDBRANCH   1  22
TORSDOF 16
ENDMDL
MODEL 3
REMARK VINA RESULT:     -11.1      1.507      2.630
REMARK SMILES Cc1ccc([C@@H](Cc2cccs2)C(=O)NCCCCCCNC(=O)c2ccc(-c3c4nc(c(-c5ccccc5)c5ccc([nH]5)c(-c5ccccc5)c5nc(c(-c6ccccc6)c6ccc3[nH]6)C=C5)C=C4)cc2)cc1
REMARK SMILES IDX 18 1 17 2 16 3 15 4 13 5 14 6 6 8 5 9 1 10 2 11 3 12 74 13
REMARK SMILES IDX 4 14 73 15 7 16 8 17 9 18 12 19 10 20 11 21 19 22 20 23
REMARK SMILES IDX 21 24 22 25 23 26 24 28 25 29 26 30 72 31 27 32 71 33 28 34
REMARK SMILES IDX 29 35 30 36 65 37 31 38 70 39 64 40 66 41 32 42 69 43 63 44
REMARK SMILES IDX 62 45 33 47 55 48 40 49 54 50 41 51 44 52 53 53 67 54 42 55
REMARK SMILES IDX 43 56 52 58 68 59 45 60 34 61 35 62 39 63 36 64 38 65 37 66
REMARK SMILES IDX 56 67 57 68 61 69 58 70 60 71 59 72 46 73 47 74 51 75 48 76
REMARK SMILES IDX 50 77 49 78
REMARK H PARENT 15 7 22 27 66 46 44 57
REMARK Flexibility Score: inf
ROOT
ATOM      1  C   UNL A   1      31.411  28.858  25.059  1.00  0.00     0.002 C 
ENDROOT
BRANCH   1   2
ATOM      2  C   UNL A   1      32.360  27.664  25.236  1.00  0.00     0.021 C 
BRANCH   2   3
ATOM      3  C   UNL A   1      33.691  27.754  24.488  1.00  0.00     0.116 C 
BRANCH   3   4
ATOM      4  N   UNL A   1      33.703  27.079  23.214  1.00  0.00    -0.356 N 
ATOM      5  C   UNL A   1      33.812  25.763  22.898  1.00  0.00     0.227 C 
ATOM      6  O   UNL A   1      33.599  25.481  21.710  1.00  0.00    -0.274 OA
ATOM      7  H   UNL A   1      33.615  27.677  22.437  1.00  0.00     0.163 HD
BRANCH   5   8
ATOM      8  C   UNL A   1      34.183  24.638  23.882  1.00  0.00     0.113 C 
BRANCH   8   9
ATOM      9  C   UNL A   1      33.031  24.164  24.766  1.00  0.00    -0.035 A 
ATOM     10  C   UNL A   1      29.688  22.753  27.149  1.00  0.00     0.044 C 
ATOM     11  C   UNL A   1      30.833  23.236  26.312  1.00  0.00    -0.051 A 
ATOM     12  C   UNL A   1      32.018  23.646  26.925  1.00  0.00     0.004 A 
ATOM     13  C   UNL A   1      30.750  23.280  24.921  1.00  0.00     0.004 A 
ATOM     14  C   UNL A   1      33.098  24.100  26.161  1.00  0.00     0.005 A 
ATOM     15  C   UNL A   1      31.834  23.734  24.161  1.00  0.00     0.005 A 
ENDBRANCH   8   9
BRANCH   8  16
ATOM     16  C   UNL A   1      35.288  23.644  23.453  1.00  0.00     0.065 C 
BRANCH  16  17
ATOM     17  C   UNL A   1      36.359  23.262  24.435  1.00  0.00     0.006 A 
ATOM     18  C   UNL A   1      36.914  24.020  25.449  1.00  0.00     0.015 A 
ATOM     19  S   UNL A   1      37.165  21.748  24.295  1.00  0.00    -0.149 S 
ATOM     20  C   UNL A   1      37.854  23.287  26.228  1.00  0.00     0.012 A 
ATOM     21  C   UNL A   1      38.068  22.027  25.720  1.00  0.00     0.065 A 
ENDBRANCH  16  17
ENDBRANCH   8  16
ENDBRANCH   5   8
ENDBRANCH   3   4
ENDBRANCH   2   3
ENDBRANCH   1   2
BRANCH   1  22
ATOM     22  C   UNL A   1      31.882  30.227  25.585  1.00  0.00     0.002 C 
BRANCH  22  23
ATOM     23  C   UNL A   1      32.265  30.300  27.064  1.00  0.00     0.021 C 
BRANCH  23  24
ATOM     24  C   UNL A   1      33.758  30.162  27.333  1.00  0.00     0.116 C 
BRANCH  24  25
ATOM     25  N   UNL A   1      34.280  31.153  28.270  1.00  0.00    -0.352 N 
ATOM     26  C   UNL A   1      35.459  31.123  28.996  1.00  0.00     0.251 C 
ATOM     27  H   UNL A   1      33.717  31.950  28.405  1.00  0.00     0.163 HD
ATOM     28  O   UNL A   1      35.776  32.046  29.726  1.00  0.00    -0.269 OA
BRANCH  26  29
ATOM     29  C   UNL A   1      36.392  29.996  28.765  1.00  0.00     0.039 A 
ATOM     30  C   UNL A   1      36.709  29.188  29.859  1.00  0.00     0.014 A 
ATOM     31  C   UNL A   1      37.120  29.917  27.580  1.00  0.00     0.014 A 
ATOM     32  C   UNL A   1      37.915  28.498  29.857  1.00  0.00     0.010 A 
ATOM     33  C   UNL A   1      38.355  29.296  27.606  1.00  0.00     0.010 A 
ATOM     34  C   UNL A   1      38.784  28.663  28.776  1.00  0.00    -0.014 A 
BRANCH  34  35
ATOM     35  C   UNL A   1      40.205  28.353  28.867  1.00  0.00     0.031 A 
ATOM     36  C   UNL A   1      40.728  27.064  28.383  1.00  0.00     0.074 A 
ATOM     37  C   UNL A   1      41.044  29.241  29.445  1.00  0.00     0.049 A 
ATOM     38  N   UNL A   1      41.792  26.496  28.843  1.00  0.00    -0.248 NA
ATOM     39  C   UNL A   1      40.026  26.260  27.391  1.00  0.00     0.031 C 
ATOM     40  C   UNL A   1      42.504  29.212  29.465  1.00  0.00     0.029 A 
ATOM     41  N   UNL A   1      40.726  30.250  30.336  1.00  0.00    -0.354 N 
ATOM     42  C   UNL A   1      42.080  25.434  28.018  1.00  0.00     0.074 A 
ATOM     43  C   UNL A   1      40.886  25.249  27.228  1.00  0.00     0.031 C 
ATOM     44  C   UNL A   1      42.938  29.975  30.484  1.00  0.00     0.029 A 
ATOM     45  C   UNL A   1      41.774  30.402  31.243  1.00  0.00     0.049 A 
ATOM     46  H   UNL A   1      39.894  30.776  30.330  1.00  0.00     0.167 HD
ATOM     47  C   UNL A   1      43.350  24.939  27.991  1.00  0.00     0.031 A 
ATOM     48  C   UNL A   1      41.594  30.183  32.580  1.00  0.00     0.031 A 
ATOM     49  C   UNL A   1      44.174  25.497  29.066  1.00  0.00     0.049 A 
ATOM     50  C   UNL A   1      42.420  29.033  33.127  1.00  0.00     0.074 A 
ATOM     51  C   UNL A   1      45.169  26.462  29.095  1.00  0.00     0.029 A 
ATOM     52  N   UNL A   1      43.824  25.255  30.390  1.00  0.00    -0.354 N 
ATOM     53  N   UNL A   1      43.013  28.139  32.386  1.00  0.00    -0.248 NA
ATOM     54  C   UNL A   1      42.585  28.767  34.556  1.00  0.00     0.031 C 
ATOM     55  C   UNL A   1      45.342  26.869  30.445  1.00  0.00     0.029 A 
ATOM     56  C   UNL A   1      44.485  26.125  31.236  1.00  0.00     0.049 A 
ATOM     57  H   UNL A   1      43.193  24.559  30.683  1.00  0.00     0.167 HD
ATOM     58  C   UNL A   1      43.591  27.189  33.185  1.00  0.00     0.074 A 
ATOM     59  C   UNL A   1      43.318  27.640  34.538  1.00  0.00     0.031 C 
ATOM     60  C   UNL A   1      44.223  26.096  32.670  1.00  0.00     0.031 A 
BRANCH  47  61
ATOM     61  C   UNL A   1      43.930  24.163  26.822  1.00  0.00    -0.014 A 
ATOM     62  C   UNL A   1      44.846  24.795  25.958  1.00  0.00     0.009 A 
ATOM     63  C   UNL A   1      43.550  22.863  26.445  1.00  0.00     0.009 A 
ATOM     64  C   UNL A   1      45.292  24.194  24.770  1.00  0.00     0.001 A 
ATOM     65  C   UNL A   1      43.986  22.255  25.260  1.00  0.00     0.001 A 
ATOM     66  C   UNL A   1      44.848  22.929  24.412  1.00  0.00     0.000 A 
ENDBRANCH  47  61
BRANCH  48  67
ATOM     67  C   UNL A   1      40.238  30.542  33.079  1.00  0.00    -0.014 A 
ATOM     68  C   UNL A   1      39.855  31.899  33.064  1.00  0.00     0.009 A 
ATOM     69  C   UNL A   1      39.243  29.570  33.241  1.00  0.00     0.009 A 
ATOM     70  C   UNL A   1      38.507  32.265  33.100  1.00  0.00     0.001 A 
ATOM     71  C   UNL A   1      37.893  29.941  33.289  1.00  0.00     0.001 A 
ATOM     72  C   UNL A   1      37.525  31.283  33.184  1.00  0.00     0.000 A 
ENDBRANCH  48  67
BRANCH  60  73
ATOM     73  C   UNL A   1      44.704  24.912  33.467  1.00  0.00    -0.014 A 
ATOM     74  C   UNL A   1      44.142  23.630  33.386  1.00  0.00     0.009 A 
ATOM     75  C   UNL A   1      45.872  25.047  34.249  1.00  0.00     0.009 A 
ATOM     76  C   UNL A   1      44.691  22.549  34.091  1.00  0.00     0.001 A 
ATOM     77  C   UNL A   1      46.447  23.963  34.918  1.00  0.00     0.001 A 
ATOM     78  C   UNL A   1      45.846  22.714  34.848  1.00  0.00     0.000 A 
ENDBRANCH  60  73
ENDBRANCH  34  35
ENDBRANCH  26  29
ENDBRANCH  24  25
ENDBRANCH  23  24
ENDBRANCH  22  23
ENDBRANCH   1  22
TORSDOF 16
ENDMDL
