MODEL 1
REMARK VINA RESULT:     -11.1      0.000      0.000
REMARK SMILES C/C(=N\NC(N)=S)c1nnn(-c2ccc(C(=O)NCCCCCCNC(=O)c3ccc(-c4c5nc(c(-c6ccccc6)c6ccc([nH]6)c(-c6ccccc6)c6nc(c(-c7ccccc7)c7ccc4[nH]7)C=C6)C=C5)cc3)cc2)c1C
REMARK SMILES IDX 20 1 19 2 18 3 16 4 17 5 15 7 12 8 13 9 77 10 14 11 76 12
REMARK SMILES IDX 11 13 8 14 9 15 78 16 10 17 79 18 2 19 1 20 3 21 4 22 5 24
REMARK SMILES IDX 7 25 6 26 21 29 22 30 23 31 24 32 25 33 26 34 27 36 28 37
REMARK SMILES IDX 29 38 75 39 30 40 74 41 31 42 32 43 33 44 68 45 34 46 73 47
REMARK SMILES IDX 67 48 69 49 35 50 72 51 66 52 65 53 36 55 58 56 43 57 57 58
REMARK SMILES IDX 44 59 47 60 56 61 70 62 45 63 46 64 55 66 71 67 48 68 37 69
REMARK SMILES IDX 38 70 42 71 39 72 41 73 40 74 59 75 60 76 64 77 61 78 63 79
REMARK SMILES IDX 62 80 49 81 50 82 54 83 51 84 53 85 52 86
REMARK H PARENT 18 6 4 23 6 27 6 28 25 35 69 54 47 65
REMARK Flexibility Score: inf
ROOT
ATOM      1  C   UNL A   1      35.674  29.350  27.297  1.00  0.00     0.021 C 
ENDROOT
BRANCH   1   2
ATOM      2  C   UNL A   1      34.339  29.289  28.046  1.00  0.00     0.116 C 
BRANCH   2   3
ATOM      3  N   UNL A   1      33.341  30.090  27.360  1.00  0.00    -0.352 N 
ATOM      4  C   UNL A   1      32.506  29.838  26.300  1.00  0.00     0.251 C 
ATOM      5  O   UNL A   1      31.744  30.738  25.948  1.00  0.00    -0.269 OA
ATOM      6  H   UNL A   1      33.245  30.998  27.729  1.00  0.00     0.163 HD
BRANCH   4   7
ATOM      7  C   UNL A   1      32.427  28.514  25.620  1.00  0.00     0.039 A 
ATOM      8  C   UNL A   1      32.358  25.879  24.705  1.00  0.00     0.067 A 
ATOM      9  C   UNL A   1      31.322  26.338  25.520  1.00  0.00     0.029 A 
ATOM     10  C   UNL A   1      33.345  26.749  24.240  1.00  0.00     0.029 A 
ATOM     11  C   UNL A   1      31.382  27.650  26.001  1.00  0.00     0.016 A 
ATOM     12  C   UNL A   1      33.336  28.079  24.653  1.00  0.00     0.016 A 
BRANCH   8  13
ATOM     13  N   UNL A   1      32.480  24.510  24.425  1.00  0.00    -0.217 N 
ATOM     14  C   UNL A   1      32.983  22.398  24.466  1.00  0.00     0.132 A 
ATOM     15  N   UNL A   1      32.094  22.623  23.443  1.00  0.00    -0.128 NA
ATOM     16  C   UNL A   1      33.230  23.584  25.128  1.00  0.00     0.071 A 
ATOM     17  N   UNL A   1      31.737  23.901  23.480  1.00  0.00    -0.061 NA
ATOM     18  C   UNL A   1      33.940  23.863  26.398  1.00  0.00     0.069 C 
BRANCH  14  19
ATOM     19  C   UNL A   1      33.342  21.057  24.890  1.00  0.00     0.087 C 
ATOM     20  C   UNL A   1      34.813  20.748  24.857  1.00  0.00     0.071 C 
ATOM     21  N   UNL A   1      32.358  20.301  25.283  1.00  0.00    -0.176 NA
BRANCH  21  22
ATOM     22  N   UNL A   1      32.551  19.052  25.800  1.00  0.00    -0.254 N 
ATOM     23  H   UNL A   1      32.462  18.986  26.779  1.00  0.00     0.193 HD
BRANCH  22  24
ATOM     24  C   UNL A   1      32.850  17.867  25.159  1.00  0.00     0.184 C 
ATOM     25  S   UNL A   1      32.878  17.507  23.536  1.00  0.00    -0.040 S 
BRANCH  24  26
ATOM     26  N   UNL A   1      33.158  16.868  26.047  1.00  0.00    -0.375 N 
ATOM     27  H   UNL A   1      33.940  16.293  25.888  1.00  0.00     0.159 HD
ATOM     28  H   UNL A   1      32.596  16.728  26.842  1.00  0.00     0.159 HD
ENDBRANCH  24  26
ENDBRANCH  22  24
ENDBRANCH  21  22
ENDBRANCH  14  19
ENDBRANCH   8  13
ENDBRANCH   4   7
ENDBRANCH   2   3
ENDBRANCH   1   2
BRANCH   1  29
ATOM     29  C   UNL A   1      36.666  30.346  27.912  1.00  0.00     0.002 C 
BRANCH  29  30
ATOM     30  C   UNL A   1      36.184  31.037  29.199  1.00  0.00     0.002 C 
BRANCH  30  31
ATOM     31  C   UNL A   1      36.270  32.570  29.202  1.00  0.00     0.021 C 
BRANCH  31  32
ATOM     32  C   UNL A   1      37.656  33.093  28.848  1.00  0.00     0.116 C 
BRANCH  32  33
ATOM     33  N   UNL A   1      38.227  33.881  29.934  1.00  0.00    -0.352 N 
ATOM     34  C   UNL A   1      38.968  33.448  31.003  1.00  0.00     0.251 C 
ATOM     35  H   UNL A   1      38.058  34.850  29.895  1.00  0.00     0.163 HD
ATOM     36  O   UNL A   1      39.058  34.146  32.018  1.00  0.00    -0.269 OA
BRANCH  34  37
ATOM     37  C   UNL A   1      39.664  32.152  30.943  1.00  0.00     0.039 A 
ATOM     38  C   UNL A   1      39.077  31.015  31.504  1.00  0.00     0.014 A 
ATOM     39  C   UNL A   1      40.931  32.078  30.357  1.00  0.00     0.014 A 
ATOM     40  C   UNL A   1      39.741  29.795  31.413  1.00  0.00     0.010 A 
ATOM     41  C   UNL A   1      41.550  30.858  30.189  1.00  0.00     0.010 A 
ATOM     42  C   UNL A   1      40.970  29.718  30.735  1.00  0.00    -0.014 A 
BRANCH  42  43
ATOM     43  C   UNL A   1      41.535  28.409  30.409  1.00  0.00     0.031 A 
ATOM     44  C   UNL A   1      42.387  27.865  31.503  1.00  0.00     0.074 A 
ATOM     45  C   UNL A   1      41.176  27.662  29.342  1.00  0.00     0.049 A 
ATOM     46  N   UNL A   1      43.666  27.693  31.485  1.00  0.00    -0.248 NA
ATOM     47  C   UNL A   1      41.777  27.651  32.829  1.00  0.00     0.031 C 
ATOM     48  C   UNL A   1      40.126  27.947  28.358  1.00  0.00     0.029 A 
ATOM     49  N   UNL A   1      41.606  26.422  28.962  1.00  0.00    -0.354 N 
ATOM     50  C   UNL A   1      43.994  27.134  32.717  1.00  0.00     0.074 A 
ATOM     51  C   UNL A   1      42.842  27.313  33.560  1.00  0.00     0.031 C 
ATOM     52  C   UNL A   1      39.844  26.825  27.655  1.00  0.00     0.029 A 
ATOM     53  C   UNL A   1      40.792  25.789  28.023  1.00  0.00     0.049 A 
ATOM     54  H   UNL A   1      42.423  26.010  29.324  1.00  0.00     0.167 HD
ATOM     55  C   UNL A   1      45.076  26.315  32.840  1.00  0.00     0.031 A 
ATOM     56  C   UNL A   1      40.877  24.502  27.596  1.00  0.00     0.031 A 
ATOM     57  C   UNL A   1      45.949  26.439  31.698  1.00  0.00     0.049 A 
ATOM     58  C   UNL A   1      42.229  24.015  27.934  1.00  0.00     0.074 A 
ATOM     59  C   UNL A   1      46.678  27.455  31.116  1.00  0.00     0.029 A 
ATOM     60  N   UNL A   1      45.818  25.460  30.743  1.00  0.00    -0.354 N 
ATOM     61  N   UNL A   1      43.311  24.438  27.353  1.00  0.00    -0.248 NA
ATOM     62  C   UNL A   1      42.420  23.352  29.212  1.00  0.00     0.031 C 
ATOM     63  C   UNL A   1      46.581  27.224  29.712  1.00  0.00     0.029 A 
ATOM     64  C   UNL A   1      45.876  26.037  29.506  1.00  0.00     0.049 A 
ATOM     65  H   UNL A   1      45.701  24.499  30.921  1.00  0.00     0.167 HD
ATOM     66  C   UNL A   1      44.234  24.536  28.382  1.00  0.00     0.074 A 
ATOM     67  C   UNL A   1      43.673  23.734  29.468  1.00  0.00     0.031 C 
ATOM     68  C   UNL A   1      45.206  25.494  28.346  1.00  0.00     0.031 A 
BRANCH  55  69
ATOM     69  C   UNL A   1      45.074  25.059  33.690  1.00  0.00    -0.014 A 
ATOM     70  C   UNL A   1      46.293  24.646  34.264  1.00  0.00     0.009 A 
ATOM     71  C   UNL A   1      44.033  24.113  33.688  1.00  0.00     0.009 A 
ATOM     72  C   UNL A   1      46.491  23.329  34.698  1.00  0.00     0.001 A 
ATOM     73  C   UNL A   1      44.213  22.809  34.159  1.00  0.00     0.001 A 
ATOM     74  C   UNL A   1      45.453  22.407  34.632  1.00  0.00     0.000 A 
ENDBRANCH  55  69
BRANCH  56  75
ATOM     75  C   UNL A   1      39.840  23.561  27.111  1.00  0.00    -0.014 A 
ATOM     76  C   UNL A   1      38.627  24.043  26.583  1.00  0.00     0.009 A 
ATOM     77  C   UNL A   1      40.162  22.214  26.874  1.00  0.00     0.009 A 
ATOM     78  C   UNL A   1      37.799  23.224  25.801  1.00  0.00     0.001 A 
ATOM     79  C   UNL A   1      39.333  21.395  26.095  1.00  0.00     0.001 A 
ATOM     80  C   UNL A   1      38.162  21.905  25.543  1.00  0.00     0.000 A 
ENDBRANCH  56  75
BRANCH  68  81
ATOM     81  C   UNL A   1      45.464  26.191  27.032  1.00  0.00    -0.014 A 
ATOM     82  C   UNL A   1      44.849  27.394  26.641  1.00  0.00     0.009 A 
ATOM     83  C   UNL A   1      46.468  25.657  26.210  1.00  0.00     0.009 A 
ATOM     84  C   UNL A   1      45.211  28.020  25.443  1.00  0.00     0.001 A 
ATOM     85  C   UNL A   1      46.845  26.296  25.029  1.00  0.00     0.001 A 
ATOM     86  C   UNL A   1      46.211  27.473  24.641  1.00  0.00     0.000 A 
ENDBRANCH  68  81
ENDBRANCH  42  43
ENDBRANCH  34  37
ENDBRANCH  32  33
ENDBRANCH  31  32
ENDBRANCH  30  31
ENDBRANCH  29  30
ENDBRANCH   1  29
TORSDOF 18
ENDMDL
MODEL 2
REMARK VINA RESULT:     -10.8      1.988      2.675
REMARK SMILES C/C(=N\NC(N)=S)c1nnn(-c2ccc(C(=O)NCCCCCCNC(=O)c3ccc(-c4c5nc(c(-c6ccccc6)c6ccc([nH]6)c(-c6ccccc6)c6nc(c(-c7ccccc7)c7ccc4[nH]7)C=C6)C=C5)cc3)cc2)c1C
REMARK SMILES IDX 20 1 19 2 18 3 16 4 17 5 15 7 12 8 13 9 77 10 14 11 76 12
REMARK SMILES IDX 11 13 8 14 9 15 78 16 10 17 79 18 2 19 1 20 3 21 4 22 5 24
REMARK SMILES IDX 7 25 6 26 21 29 22 30 23 31 24 32 25 33 26 34 27 36 28 37
REMARK SMILES IDX 29 38 75 39 30 40 74 41 31 42 32 43 33 44 68 45 34 46 73 47
REMARK SMILES IDX 67 48 69 49 35 50 72 51 66 52 65 53 36 55 58 56 43 57 57 58
REMARK SMILES IDX 44 59 47 60 56 61 70 62 45 63 46 64 55 66 71 67 48 68 37 69
REMARK SMILES IDX 38 70 42 71 39 72 41 73 40 74 59 75 60 76 64 77 61 78 63 79
REMARK SMILES IDX 62 80 49 81 50 82 54 83 51 84 53 85 52 86
REMARK H PARENT 18 6 4 23 6 27 6 28 25 35 69 54 47 65
REMARK Flexibility Score: inf
ROOT
ATOM      1  C   UNL A   1      33.197  27.624  25.993  1.00  0.00     0.021 C 
ENDROOT
BRANCH   1   2
ATOM      2  C   UNL A   1      31.762  28.139  26.136  1.00  0.00     0.116 C 
BRANCH   2   3
ATOM      3  N   UNL A   1      31.301  28.699  24.878  1.00  0.00    -0.352 N 
ATOM      4  C   UNL A   1      31.118  28.163  23.627  1.00  0.00     0.251 C 
ATOM      5  O   UNL A   1      30.692  28.908  22.745  1.00  0.00    -0.269 OA
ATOM      6  H   UNL A   1      31.076  29.656  24.933  1.00  0.00     0.163 HD
BRANCH   4   7
ATOM      7  C   UNL A   1      31.331  26.721  23.317  1.00  0.00     0.039 A 
ATOM      8  C   UNL A   1      31.785  23.975  23.128  1.00  0.00     0.067 A 
ATOM      9  C   UNL A   1      30.594  24.424  23.700  1.00  0.00     0.029 A 
ATOM     10  C   UNL A   1      32.680  24.867  22.538  1.00  0.00     0.029 A 
ATOM     11  C   UNL A   1      30.389  25.802  23.820  1.00  0.00     0.016 A 
ATOM     12  C   UNL A   1      32.415  26.233  22.583  1.00  0.00     0.016 A 
BRANCH   8  13
ATOM     13  N   UNL A   1      32.150  22.624  23.232  1.00  0.00    -0.217 N 
ATOM     14  C   UNL A   1      32.941  20.709  23.884  1.00  0.00     0.132 A 
ATOM     15  N   UNL A   1      32.212  20.522  22.735  1.00  0.00    -0.128 NA
ATOM     16  C   UNL A   1      32.899  22.043  24.240  1.00  0.00     0.071 A 
ATOM     17  N   UNL A   1      31.672  21.684  22.393  1.00  0.00    -0.061 NA
ATOM     18  C   UNL A   1      33.338  22.738  25.472  1.00  0.00     0.069 C 
BRANCH  14  19
ATOM     19  C   UNL A   1      33.415  19.595  24.684  1.00  0.00     0.087 C 
ATOM     20  C   UNL A   1      34.889  19.605  24.984  1.00  0.00     0.071 C 
ATOM     21  N   UNL A   1      32.508  18.748  25.076  1.00  0.00    -0.176 NA
BRANCH  21  22
ATOM     22  N   UNL A   1      32.788  17.706  25.913  1.00  0.00    -0.254 N 
ATOM     23  H   UNL A   1      32.671  17.897  26.871  1.00  0.00     0.193 HD
BRANCH  22  24
ATOM     24  C   UNL A   1      33.208  16.424  25.618  1.00  0.00     0.184 C 
ATOM     25  S   UNL A   1      34.742  15.832  25.376  1.00  0.00    -0.040 S 
BRANCH  24  26
ATOM     26  N   UNL A   1      32.155  15.552  25.517  1.00  0.00    -0.375 N 
ATOM     27  H   UNL A   1      32.315  14.582  25.563  1.00  0.00     0.159 HD
ATOM     28  H   UNL A   1      31.241  15.896  25.399  1.00  0.00     0.159 HD
ENDBRANCH  24  26
ENDBRANCH  22  24
ENDBRANCH  21  22
ENDBRANCH  14  19
ENDBRANCH   8  13
ENDBRANCH   4   7
ENDBRANCH   2   3
ENDBRANCH   1   2
BRANCH   1  29
ATOM     29  C   UNL A   1      34.250  28.736  26.091  1.00  0.00     0.002 C 
BRANCH  29  30
ATOM     30  C   UNL A   1      34.410  29.363  27.485  1.00  0.00     0.002 C 
BRANCH  30  31
ATOM     31  C   UNL A   1      33.949  30.823  27.614  1.00  0.00     0.021 C 
BRANCH  31  32
ATOM     32  C   UNL A   1      35.105  31.810  27.701  1.00  0.00     0.116 C 
BRANCH  32  33
ATOM     33  N   UNL A   1      35.196  32.414  29.025  1.00  0.00    -0.352 N 
ATOM     34  C   UNL A   1      35.878  31.958  30.125  1.00  0.00     0.251 C 
ATOM     35  H   UNL A   1      34.706  33.258  29.147  1.00  0.00     0.163 HD
ATOM     36  O   UNL A   1      35.568  32.351  31.253  1.00  0.00    -0.269 OA
BRANCH  34  37
ATOM     37  C   UNL A   1      36.987  31.002  29.962  1.00  0.00     0.039 A 
ATOM     38  C   UNL A   1      38.269  31.463  29.652  1.00  0.00     0.014 A 
ATOM     39  C   UNL A   1      36.737  29.632  30.081  1.00  0.00     0.014 A 
ATOM     40  C   UNL A   1      39.307  30.545  29.529  1.00  0.00     0.010 A 
ATOM     41  C   UNL A   1      37.778  28.729  30.045  1.00  0.00     0.010 A 
ATOM     42  C   UNL A   1      39.060  29.178  29.747  1.00  0.00    -0.014 A 
BRANCH  42  43
ATOM     43  C   UNL A   1      40.184  28.252  29.879  1.00  0.00     0.031 A 
ATOM     44  C   UNL A   1      40.726  28.203  31.265  1.00  0.00     0.074 A 
ATOM     45  C   UNL A   1      40.572  27.375  28.926  1.00  0.00     0.049 A 
ATOM     46  N   UNL A   1      41.876  28.627  31.670  1.00  0.00    -0.248 NA
ATOM     47  C   UNL A   1      39.823  27.798  32.359  1.00  0.00     0.031 C 
ATOM     48  C   UNL A   1      39.930  27.109  27.635  1.00  0.00     0.029 A 
ATOM     49  N   UNL A   1      41.574  26.447  28.953  1.00  0.00    -0.354 N 
ATOM     50  C   UNL A   1      41.934  28.334  33.030  1.00  0.00     0.074 A 
ATOM     51  C   UNL A   1      40.590  28.012  33.431  1.00  0.00     0.031 C 
ATOM     52  C   UNL A   1      40.403  25.950  27.121  1.00  0.00     0.029 A 
ATOM     53  C   UNL A   1      41.488  25.472  27.959  1.00  0.00     0.049 A 
ATOM     54  H   UNL A   1      42.298  26.466  29.620  1.00  0.00     0.167 HD
ATOM     55  C   UNL A   1      43.131  28.099  33.637  1.00  0.00     0.031 A 
ATOM     56  C   UNL A   1      42.237  24.345  27.847  1.00  0.00     0.031 A 
ATOM     57  C   UNL A   1      44.225  28.551  32.812  1.00  0.00     0.049 A 
ATOM     58  C   UNL A   1      43.448  24.537  28.670  1.00  0.00     0.074 A 
ATOM     59  C   UNL A   1      44.633  29.759  32.286  1.00  0.00     0.029 A 
ATOM     60  N   UNL A   1      44.858  27.577  32.080  1.00  0.00    -0.354 N 
ATOM     61  N   UNL A   1      44.393  25.377  28.370  1.00  0.00    -0.248 NA
ATOM     62  C   UNL A   1      43.417  24.092  30.051  1.00  0.00     0.031 C 
ATOM     63  C   UNL A   1      45.152  29.445  30.995  1.00  0.00     0.029 A 
ATOM     64  C   UNL A   1      45.118  28.059  30.830  1.00  0.00     0.049 A 
ATOM     65  H   UNL A   1      45.087  26.675  32.405  1.00  0.00     0.167 HD
ATOM     66  C   UNL A   1      44.757  25.929  29.588  1.00  0.00     0.074 A 
ATOM     67  C   UNL A   1      44.220  25.011  30.592  1.00  0.00     0.031 C 
ATOM     68  C   UNL A   1      45.195  27.220  29.655  1.00  0.00     0.031 A 
BRANCH  55  69
ATOM     69  C   UNL A   1      43.334  27.018  34.682  1.00  0.00    -0.014 A 
ATOM     70  C   UNL A   1      44.387  27.179  35.604  1.00  0.00     0.009 A 
ATOM     71  C   UNL A   1      42.764  25.735  34.603  1.00  0.00     0.009 A 
ATOM     72  C   UNL A   1      44.912  26.092  36.314  1.00  0.00     0.001 A 
ATOM     73  C   UNL A   1      43.258  24.655  35.341  1.00  0.00     0.001 A 
ATOM     74  C   UNL A   1      44.356  24.826  36.170  1.00  0.00     0.000 A 
ENDBRANCH  55  69
BRANCH  56  75
ATOM     75  C   UNL A   1      41.925  23.015  27.271  1.00  0.00    -0.014 A 
ATOM     76  C   UNL A   1      42.731  22.469  26.254  1.00  0.00     0.009 A 
ATOM     77  C   UNL A   1      41.036  22.150  27.930  1.00  0.00     0.009 A 
ATOM     78  C   UNL A   1      42.688  21.101  25.949  1.00  0.00     0.001 A 
ATOM     79  C   UNL A   1      40.992  20.783  27.624  1.00  0.00     0.001 A 
ATOM     80  C   UNL A   1      41.831  20.255  26.647  1.00  0.00     0.000 A 
ENDBRANCH  56  75
BRANCH  68  81
ATOM     81  C   UNL A   1      45.602  27.896  28.370  1.00  0.00    -0.014 A 
ATOM     82  C   UNL A   1      44.775  28.767  27.638  1.00  0.00     0.009 A 
ATOM     83  C   UNL A   1      46.931  27.730  27.950  1.00  0.00     0.009 A 
ATOM     84  C   UNL A   1      45.261  29.422  26.501  1.00  0.00     0.001 A 
ATOM     85  C   UNL A   1      47.422  28.404  26.832  1.00  0.00     0.001 A 
ATOM     86  C   UNL A   1      46.585  29.244  26.102  1.00  0.00     0.000 A 
ENDBRANCH  68  81
ENDBRANCH  42  43
ENDBRANCH  34  37
ENDBRANCH  32  33
ENDBRANCH  31  32
ENDBRANCH  30  31
ENDBRANCH  29  30
ENDBRANCH   1  29
TORSDOF 18
ENDMDL
MODEL 3
REMARK VINA RESULT:     -10.6      3.785      8.721
REMARK SMILES C/C(=N\NC(N)=S)c1nnn(-c2ccc(C(=O)NCCCCCCNC(=O)c3ccc(-c4c5nc(c(-c6ccccc6)c6ccc([nH]6)c(-c6ccccc6)c6nc(c(-c7ccccc7)c7ccc4[nH]7)C=C6)C=C5)cc3)cc2)c1C
REMARK SMILES IDX 20 1 19 2 18 3 16 4 17 5 15 7 12 8 13 9 77 10 14 11 76 12
REMARK SMILES IDX 11 13 8 14 9 15 78 16 10 17 79 18 2 19 1 20 3 21 4 22 5 24
REMARK SMILES IDX 7 25 6 26 21 29 22 30 23 31 24 32 25 33 26 34 27 36 28 37
REMARK SMILES IDX 29 38 75 39 30 40 74 41 31 42 32 43 33 44 68 45 34 46 73 47
REMARK SMILES IDX 67 48 69 49 35 50 72 51 66 52 65 53 36 55 58 56 43 57 57 58
REMARK SMILES IDX 44 59 47 60 56 61 70 62 45 63 46 64 55 66 71 67 48 68 37 69
REMARK SMILES IDX 38 70 42 71 39 72 41 73 40 74 59 75 60 76 64 77 61 78 63 79
REMARK SMILES IDX 62 80 49 81 50 82 54 83 51 84 53 85 52 86
REMARK H PARENT 18 6 4 23 6 27 6 28 25 35 69 54 47 65
REMARK Flexibility Score: inf
ROOT
ATOM      1  C   UNL A   1      39.598  24.099  27.532  1.00  0.00     0.021 C 
ENDROOT
BRANCH   1   2
ATOM      2  C   UNL A   1      38.715  23.748  26.331  1.00  0.00     0.116 C 
BRANCH   2   3
ATOM      3  N   UNL A   1      38.927  22.366  25.938  1.00  0.00    -0.352 N 
ATOM      4  C   UNL A   1      38.119  21.427  25.347  1.00  0.00     0.251 C 
ATOM      5  O   UNL A   1      38.604  20.318  25.124  1.00  0.00    -0.269 OA
ATOM      6  H   UNL A   1      39.833  22.037  26.137  1.00  0.00     0.163 HD
BRANCH   4   7
ATOM      7  C   UNL A   1      36.727  21.714  24.896  1.00  0.00     0.039 A 
ATOM      8  C   UNL A   1      34.204  22.631  24.138  1.00  0.00     0.067 A 
ATOM      9  C   UNL A   1      35.303  22.936  23.334  1.00  0.00     0.029 A 
ATOM     10  C   UNL A   1      34.330  21.773  25.230  1.00  0.00     0.029 A 
ATOM     11  C   UNL A   1      36.569  22.500  23.739  1.00  0.00     0.016 A 
ATOM     12  C   UNL A   1      35.584  21.270  25.566  1.00  0.00     0.016 A 
BRANCH   8  13
ATOM     13  N   UNL A   1      32.974  23.269  23.920  1.00  0.00    -0.217 N 
ATOM     14  C   UNL A   1      31.349  24.704  23.791  1.00  0.00     0.132 A 
ATOM     15  N   UNL A   1      30.948  23.525  23.211  1.00  0.00    -0.128 NA
ATOM     16  C   UNL A   1      32.651  24.577  24.232  1.00  0.00     0.071 A 
ATOM     17  N   UNL A   1      31.975  22.685  23.229  1.00  0.00    -0.061 NA
ATOM     18  C   UNL A   1      33.612  25.585  24.738  1.00  0.00     0.069 C 
BRANCH  14  19
ATOM     19  C   UNL A   1      30.571  25.923  23.670  1.00  0.00     0.087 C 
ATOM     20  C   UNL A   1      29.603  26.178  24.793  1.00  0.00     0.071 C 
ATOM     21  N   UNL A   1      30.830  26.665  22.633  1.00  0.00    -0.176 NA
BRANCH  21  22
ATOM     22  N   UNL A   1      30.248  27.885  22.437  1.00  0.00    -0.254 N 
ATOM     23  H   UNL A   1      29.400  27.868  21.936  1.00  0.00     0.193 HD
BRANCH  22  24
ATOM     24  C   UNL A   1      30.668  29.138  22.835  1.00  0.00     0.184 C 
ATOM     25  S   UNL A   1      31.056  29.703  24.350  1.00  0.00    -0.040 S 
BRANCH  24  26
ATOM     26  N   UNL A   1      30.752  30.009  21.780  1.00  0.00    -0.375 N 
ATOM     27  H   UNL A   1      30.118  29.937  21.031  1.00  0.00     0.159 HD
ATOM     28  H   UNL A   1      31.447  30.705  21.772  1.00  0.00     0.159 HD
ENDBRANCH  24  26
ENDBRANCH  22  24
ENDBRANCH  21  22
ENDBRANCH  14  19
ENDBRANCH   8  13
ENDBRANCH   4   7
ENDBRANCH   2   3
ENDBRANCH   1   2
BRANCH   1  29
ATOM     29  C   UNL A   1      40.796  23.156  27.696  1.00  0.00     0.002 C 
BRANCH  29  30
ATOM     30  C   UNL A   1      42.074  23.813  28.244  1.00  0.00     0.002 C 
BRANCH  30  31
ATOM     31  C   UNL A   1      43.396  23.241  27.712  1.00  0.00     0.021 C 
BRANCH  31  32
ATOM     32  C   UNL A   1      43.396  23.038  26.202  1.00  0.00     0.116 C 
BRANCH  32  33
ATOM     33  N   UNL A   1      44.681  23.394  25.612  1.00  0.00    -0.352 N 
ATOM     34  C   UNL A   1      45.143  24.638  25.265  1.00  0.00     0.251 C 
ATOM     35  H   UNL A   1      45.297  22.646  25.441  1.00  0.00     0.163 HD
ATOM     36  O   UNL A   1      46.062  24.751  24.448  1.00  0.00    -0.269 OA
BRANCH  34  37
ATOM     37  C   UNL A   1      44.549  25.842  25.869  1.00  0.00     0.039 A 
ATOM     38  C   UNL A   1      43.484  26.490  25.237  1.00  0.00     0.014 A 
ATOM     39  C   UNL A   1      45.084  26.354  27.054  1.00  0.00     0.014 A 
ATOM     40  C   UNL A   1      42.920  27.612  25.839  1.00  0.00     0.010 A 
ATOM     41  C   UNL A   1      44.475  27.411  27.695  1.00  0.00     0.010 A 
ATOM     42  C   UNL A   1      43.407  28.057  27.081  1.00  0.00    -0.014 A 
BRANCH  42  43
ATOM     43  C   UNL A   1      42.656  29.059  27.834  1.00  0.00     0.031 A 
ATOM     44  C   UNL A   1      43.333  30.386  27.855  1.00  0.00     0.074 A 
ATOM     45  C   UNL A   1      41.394  28.891  28.289  1.00  0.00     0.049 A 
ATOM     46  N   UNL A   1      43.868  30.974  28.872  1.00  0.00    -0.248 NA
ATOM     47  C   UNL A   1      43.601  31.058  26.570  1.00  0.00     0.031 C 
ATOM     48  C   UNL A   1      40.505  27.747  28.068  1.00  0.00     0.029 A 
ATOM     49  N   UNL A   1      40.590  29.763  28.966  1.00  0.00    -0.354 N 
ATOM     50  C   UNL A   1      44.341  32.196  28.401  1.00  0.00     0.074 A 
ATOM     51  C   UNL A   1      44.326  32.108  26.965  1.00  0.00     0.031 C 
ATOM     52  C   UNL A   1      39.235  28.089  28.387  1.00  0.00     0.029 A 
ATOM     53  C   UNL A   1      39.239  29.414  28.979  1.00  0.00     0.049 A 
ATOM     54  H   UNL A   1      40.936  30.572  29.408  1.00  0.00     0.167 HD
ATOM     55  C   UNL A   1      44.424  33.273  29.232  1.00  0.00     0.031 A 
ATOM     56  C   UNL A   1      38.199  30.168  29.423  1.00  0.00     0.031 A 
ATOM     57  C   UNL A   1      44.332  32.867  30.613  1.00  0.00     0.049 A 
ATOM     58  C   UNL A   1      38.759  31.216  30.299  1.00  0.00     0.074 A 
ATOM     59  C   UNL A   1      45.061  32.053  31.455  1.00  0.00     0.029 A 
ATOM     60  N   UNL A   1      43.096  33.017  31.194  1.00  0.00    -0.354 N 
ATOM     61  N   UNL A   1      39.278  30.975  31.465  1.00  0.00    -0.248 NA
ATOM     62  C   UNL A   1      39.117  32.491  29.703  1.00  0.00     0.031 C 
ATOM     63  C   UNL A   1      44.092  31.409  32.280  1.00  0.00     0.029 A 
ATOM     64  C   UNL A   1      42.832  31.922  31.965  1.00  0.00     0.049 A 
ATOM     65  H   UNL A   1      42.498  33.791  31.074  1.00  0.00     0.167 HD
ATOM     66  C   UNL A   1      40.380  31.813  31.526  1.00  0.00     0.074 A 
ATOM     67  C   UNL A   1      40.155  32.809  30.480  1.00  0.00     0.031 C 
ATOM     68  C   UNL A   1      41.494  31.435  32.220  1.00  0.00     0.031 A 
BRANCH  55  69
ATOM     69  C   UNL A   1      44.057  34.681  28.805  1.00  0.00    -0.014 A 
ATOM     70  C   UNL A   1      42.757  34.905  28.307  1.00  0.00     0.009 A 
ATOM     71  C   UNL A   1      44.999  35.699  28.569  1.00  0.00     0.009 A 
ATOM     72  C   UNL A   1      42.455  36.023  27.522  1.00  0.00     0.001 A 
ATOM     73  C   UNL A   1      44.690  36.839  27.820  1.00  0.00     0.001 A 
ATOM     74  C   UNL A   1      43.427  36.984  27.266  1.00  0.00     0.000 A 
ENDBRANCH  55  69
BRANCH  56  75
ATOM     75  C   UNL A   1      36.778  30.220  29.004  1.00  0.00    -0.014 A 
ATOM     76  C   UNL A   1      35.964  31.308  29.371  1.00  0.00     0.009 A 
ATOM     77  C   UNL A   1      36.308  29.370  27.990  1.00  0.00     0.009 A 
ATOM     78  C   UNL A   1      34.756  31.567  28.708  1.00  0.00     0.001 A 
ATOM     79  C   UNL A   1      35.099  29.626  27.330  1.00  0.00     0.001 A 
ATOM     80  C   UNL A   1      34.333  30.736  27.675  1.00  0.00     0.000 A 
ENDBRANCH  56  75
BRANCH  68  81
ATOM     81  C   UNL A   1      41.370  30.281  33.183  1.00  0.00    -0.014 A 
ATOM     82  C   UNL A   1      41.515  28.930  32.821  1.00  0.00     0.009 A 
ATOM     83  C   UNL A   1      41.216  30.593  34.543  1.00  0.00     0.009 A 
ATOM     84  C   UNL A   1      41.472  27.924  33.794  1.00  0.00     0.001 A 
ATOM     85  C   UNL A   1      41.199  29.593  35.514  1.00  0.00     0.001 A 
ATOM     86  C   UNL A   1      41.319  28.257  35.139  1.00  0.00     0.000 A 
ENDBRANCH  68  81
ENDBRANCH  42  43
ENDBRANCH  34  37
ENDBRANCH  32  33
ENDBRANCH  31  32
ENDBRANCH  30  31
ENDBRANCH  29  30
ENDBRANCH   1  29
TORSDOF 18
ENDMDL
