MODEL 1
REMARK VINA RESULT:      -9.6      0.000      0.000
REMARK SMILES C#CC[N@H+](CC(=O)NCCCCCCNC(=O)c1ccc(-c2c3nc(c(-c4ccccc4)c4ccc([nH]4)c(-c4ccccc4)c4nc(c(-c5ccccc5)c5ccc2[nH]5)C=C4)C=C3)cc1)[C@H](C)c1ccccc1[N+](=O)[O-]
REMARK SMILES IDX 10 1 9 2 8 3 6 4 7 5 5 7 4 8 3 10 2 11 1 12 66 13 67 14
REMARK SMILES IDX 68 15 69 16 73 17 70 18 72 19 71 20 74 21 75 22 76 23 11 24
REMARK SMILES IDX 12 25 13 26 14 27 15 28 16 29 17 31 18 32 19 33 65 34 20 35
REMARK SMILES IDX 64 36 21 37 22 38 23 39 58 40 24 41 63 42 57 43 59 44 25 45
REMARK SMILES IDX 62 46 56 47 55 48 26 50 48 51 33 52 47 53 34 54 37 55 46 56
REMARK SMILES IDX 60 57 35 58 36 59 45 61 61 62 38 63 27 64 28 65 32 66 29 67
REMARK SMILES IDX 31 68 30 69 49 70 50 71 54 72 51 73 53 74 52 75 39 76 40 77
REMARK SMILES IDX 44 78 41 79 43 80 42 81
REMARK H PARENT 8 6 4 9 15 30 59 49 37 60
REMARK Flexibility Score: inf
ROOT
ATOM      1  C   UNL A   1      38.449  23.707  26.498  1.00  0.00     0.021 C 
ENDROOT
BRANCH   1   2
ATOM      2  C   UNL A   1      37.025  23.642  25.922  1.00  0.00     0.116 C 
BRANCH   2   3
ATOM      3  N   UNL A   1      37.049  23.635  24.465  1.00  0.00    -0.351 N 
ATOM      4  C   UNL A   1      36.256  22.968  23.561  1.00  0.00     0.275 C 
ATOM      5  O   UNL A   1      36.566  23.025  22.371  1.00  0.00    -0.269 OA
ATOM      6  H   UNL A   1      37.747  24.199  24.062  1.00  0.00     0.163 HD
BRANCH   4   7
ATOM      7  C   UNL A   1      34.999  22.215  24.040  1.00  0.00     0.364 C 
BRANCH   7   8
ATOM      8  N   UNL A   1      33.674  22.822  23.673  1.00  0.00    -0.311 N 
ATOM      9  H   UNL A   1      33.716  23.274  22.760  1.00  0.00     0.349 HD
BRANCH   8  10
ATOM     10  C   UNL A   1      32.670  21.784  23.481  1.00  0.00     0.354 C 
BRANCH  10  11
ATOM     11  C   UNL A   1      32.759  20.482  24.156  1.00  0.00    -0.047 C 
ATOM     12  C   UNL A   1      32.623  19.486  24.807  1.00  0.00     0.010 C 
ENDBRANCH  10  11
ENDBRANCH   8  10
BRANCH   8  13
ATOM     13  C   UNL A   1      33.337  23.960  24.581  1.00  0.00     0.220 C 
ATOM     14  C   UNL A   1      33.368  23.754  26.113  1.00  0.00     0.081 C 
BRANCH  13  15
ATOM     15  C   UNL A   1      32.224  24.900  24.100  1.00  0.00     0.087 A 
ATOM     16  C   UNL A   1      31.263  25.249  25.083  1.00  0.00     0.017 A 
ATOM     17  C   UNL A   1      32.108  25.548  22.845  1.00  0.00     0.278 A 
ATOM     18  C   UNL A   1      30.254  26.184  24.841  1.00  0.00     0.001 A 
ATOM     19  C   UNL A   1      31.066  26.469  22.597  1.00  0.00     0.086 A 
ATOM     20  C   UNL A   1      30.151  26.789  23.597  1.00  0.00     0.007 A 
BRANCH  17  21
ATOM     21  N   UNL A   1      33.129  25.474  21.790  1.00  0.00     0.063 N 
ATOM     22  O   UNL A   1      33.791  26.499  21.563  1.00  0.00    -0.258 OA
ATOM     23  O   UNL A   1      33.273  24.418  21.169  1.00  0.00    -0.258 OA
ENDBRANCH  17  21
ENDBRANCH  13  15
ENDBRANCH   8  13
ENDBRANCH   7   8
ENDBRANCH   4   7
ENDBRANCH   2   3
ENDBRANCH   1   2
BRANCH   1  24
ATOM     24  C   UNL A   1      39.345  22.540  26.106  1.00  0.00     0.002 C 
BRANCH  24  25
ATOM     25  C   UNL A   1      38.576  21.281  25.717  1.00  0.00     0.002 C 
BRANCH  25  26
ATOM     26  C   UNL A   1      39.439  20.021  25.611  1.00  0.00     0.021 C 
BRANCH  26  27
ATOM     27  C   UNL A   1      40.565  19.947  26.637  1.00  0.00     0.116 C 
BRANCH  27  28
ATOM     28  N   UNL A   1      41.821  19.562  26.013  1.00  0.00    -0.352 N 
ATOM     29  C   UNL A   1      42.875  20.353  25.642  1.00  0.00     0.251 C 
ATOM     30  H   UNL A   1      41.928  18.599  25.832  1.00  0.00     0.163 HD
ATOM     31  O   UNL A   1      43.722  19.934  24.859  1.00  0.00    -0.269 OA
BRANCH  29  32
ATOM     32  C   UNL A   1      42.988  21.717  26.195  1.00  0.00     0.039 A 
ATOM     33  C   UNL A   1      43.058  22.802  25.321  1.00  0.00     0.014 A 
ATOM     34  C   UNL A   1      43.049  21.917  27.577  1.00  0.00     0.014 A 
ATOM     35  C   UNL A   1      43.163  24.093  25.837  1.00  0.00     0.010 A 
ATOM     36  C   UNL A   1      43.055  23.208  28.090  1.00  0.00     0.010 A 
ATOM     37  C   UNL A   1      43.142  24.308  27.226  1.00  0.00    -0.014 A 
BRANCH  37  38
ATOM     38  C   UNL A   1      43.256  25.676  27.789  1.00  0.00     0.031 A 
ATOM     39  C   UNL A   1      44.612  26.251  28.101  1.00  0.00     0.074 A 
ATOM     40  C   UNL A   1      42.142  26.388  28.044  1.00  0.00     0.049 A 
ATOM     41  N   UNL A   1      44.917  27.420  28.605  1.00  0.00    -0.248 NA
ATOM     42  C   UNL A   1      45.779  25.395  27.831  1.00  0.00     0.031 C 
ATOM     43  C   UNL A   1      40.769  25.929  27.817  1.00  0.00     0.029 A 
ATOM     44  N   UNL A   1      41.989  27.655  28.548  1.00  0.00    -0.354 N 
ATOM     45  C   UNL A   1      46.301  27.432  28.720  1.00  0.00     0.074 A 
ATOM     46  C   UNL A   1      46.774  26.133  28.298  1.00  0.00     0.031 C 
ATOM     47  C   UNL A   1      39.918  26.916  28.137  1.00  0.00     0.029 A 
ATOM     48  C   UNL A   1      40.678  28.055  28.641  1.00  0.00     0.049 A 
ATOM     49  H   UNL A   1      42.746  28.223  28.817  1.00  0.00     0.167 HD
ATOM     50  C   UNL A   1      47.111  28.442  29.116  1.00  0.00     0.031 A 
ATOM     51  C   UNL A   1      40.148  29.209  29.088  1.00  0.00     0.031 A 
ATOM     52  C   UNL A   1      46.639  29.734  29.538  1.00  0.00     0.049 A 
ATOM     53  C   UNL A   1      41.070  30.298  29.565  1.00  0.00     0.074 A 
ATOM     54  C   UNL A   1      47.379  30.837  29.923  1.00  0.00     0.029 A 
ATOM     55  N   UNL A   1      45.303  30.091  29.637  1.00  0.00    -0.354 N 
ATOM     56  N   UNL A   1      42.380  30.317  29.608  1.00  0.00    -0.248 NA
ATOM     57  C   UNL A   1      40.435  31.536  30.040  1.00  0.00     0.031 C 
ATOM     58  C   UNL A   1      46.490  31.839  30.323  1.00  0.00     0.029 A 
ATOM     59  C   UNL A   1      45.198  31.391  30.102  1.00  0.00     0.049 A 
ATOM     60  H   UNL A   1      44.543  29.508  29.409  1.00  0.00     0.167 HD
ATOM     61  C   UNL A   1      42.727  31.581  30.072  1.00  0.00     0.074 A 
ATOM     62  C   UNL A   1      41.489  32.302  30.279  1.00  0.00     0.031 C 
ATOM     63  C   UNL A   1      43.959  32.099  30.300  1.00  0.00     0.031 A 
BRANCH  50  64
ATOM     64  C   UNL A   1      48.595  28.184  29.120  1.00  0.00    -0.014 A 
ATOM     65  C   UNL A   1      49.237  27.630  30.239  1.00  0.00     0.009 A 
ATOM     66  C   UNL A   1      49.355  28.462  27.973  1.00  0.00     0.009 A 
ATOM     67  C   UNL A   1      50.614  27.398  30.224  1.00  0.00     0.001 A 
ATOM     68  C   UNL A   1      50.724  28.194  27.947  1.00  0.00     0.001 A 
ATOM     69  C   UNL A   1      51.355  27.672  29.076  1.00  0.00     0.000 A 
ENDBRANCH  50  64
BRANCH  51  70
ATOM     70  C   UNL A   1      38.673  29.405  29.100  1.00  0.00    -0.014 A 
ATOM     71  C   UNL A   1      37.993  29.808  27.940  1.00  0.00     0.009 A 
ATOM     72  C   UNL A   1      37.939  29.223  30.283  1.00  0.00     0.009 A 
ATOM     73  C   UNL A   1      36.621  30.068  27.975  1.00  0.00     0.001 A 
ATOM     74  C   UNL A   1      36.561  29.445  30.306  1.00  0.00     0.001 A 
ATOM     75  C   UNL A   1      35.906  29.883  29.157  1.00  0.00     0.000 A 
ENDBRANCH  51  70
BRANCH  63  76
ATOM     76  C   UNL A   1      44.032  33.537  30.737  1.00  0.00    -0.014 A 
ATOM     77  C   UNL A   1      44.056  33.901  32.092  1.00  0.00     0.009 A 
ATOM     78  C   UNL A   1      44.106  34.547  29.764  1.00  0.00     0.009 A 
ATOM     79  C   UNL A   1      44.102  35.248  32.461  1.00  0.00     0.001 A 
ATOM     80  C   UNL A   1      44.193  35.888  30.134  1.00  0.00     0.001 A 
ATOM     81  C   UNL A   1      44.175  36.238  31.483  1.00  0.00     0.000 A 
ENDBRANCH  63  76
ENDBRANCH  37  38
ENDBRANCH  29  32
ENDBRANCH  27  28
ENDBRANCH  26  27
ENDBRANCH  25  26
ENDBRANCH  24  25
ENDBRANCH   1  24
TORSDOF 19
ENDMDL
MODEL 2
REMARK VINA RESULT:      -9.5      1.885      3.119
REMARK SMILES C#CC[N@H+](CC(=O)NCCCCCCNC(=O)c1ccc(-c2c3nc(c(-c4ccccc4)c4ccc([nH]4)c(-c4ccccc4)c4nc(c(-c5ccccc5)c5ccc2[nH]5)C=C4)C=C3)cc1)[C@H](C)c1ccccc1[N+](=O)[O-]
REMARK SMILES IDX 10 1 9 2 8 3 6 4 7 5 5 7 4 8 3 10 2 11 1 12 66 13 67 14
REMARK SMILES IDX 68 15 69 16 73 17 70 18 72 19 71 20 74 21 75 22 76 23 11 24
REMARK SMILES IDX 12 25 13 26 14 27 15 28 16 29 17 31 18 32 19 33 65 34 20 35
REMARK SMILES IDX 64 36 21 37 22 38 23 39 58 40 24 41 63 42 57 43 59 44 25 45
REMARK SMILES IDX 62 46 56 47 55 48 26 50 48 51 33 52 47 53 34 54 37 55 46 56
REMARK SMILES IDX 60 57 35 58 36 59 45 61 61 62 38 63 27 64 28 65 32 66 29 67
REMARK SMILES IDX 31 68 30 69 49 70 50 71 54 72 51 73 53 74 52 75 39 76 40 77
REMARK SMILES IDX 44 78 41 79 43 80 42 81
REMARK H PARENT 8 6 4 9 15 30 59 49 37 60
REMARK Flexibility Score: inf
ROOT
ATOM      1  C   UNL A   1      37.388  23.519  26.236  1.00  0.00     0.021 C 
ENDROOT
BRANCH   1   2
ATOM      2  C   UNL A   1      35.937  23.319  25.768  1.00  0.00     0.116 C 
BRANCH   2   3
ATOM      3  N   UNL A   1      35.152  22.622  26.779  1.00  0.00    -0.351 N 
ATOM      4  C   UNL A   1      33.826  22.744  27.123  1.00  0.00     0.275 C 
ATOM      5  O   UNL A   1      33.429  22.128  28.113  1.00  0.00    -0.269 OA
ATOM      6  H   UNL A   1      35.652  21.954  27.301  1.00  0.00     0.163 HD
BRANCH   4   7
ATOM      7  C   UNL A   1      32.876  23.595  26.258  1.00  0.00     0.364 C 
BRANCH   7   8
ATOM      8  N   UNL A   1      32.023  22.853  25.269  1.00  0.00    -0.311 N 
ATOM      9  H   UNL A   1      31.749  21.939  25.632  1.00  0.00     0.349 HD
BRANCH   8  10
ATOM     10  C   UNL A   1      30.745  23.528  25.085  1.00  0.00     0.354 C 
BRANCH  10  11
ATOM     11  C   UNL A   1      30.636  24.993  25.072  1.00  0.00    -0.047 C 
ATOM     12  C   UNL A   1      30.783  26.182  25.105  1.00  0.00     0.010 C 
ENDBRANCH  10  11
ENDBRANCH   8  10
BRANCH   8  13
ATOM     13  C   UNL A   1      32.806  22.494  24.049  1.00  0.00     0.220 C 
ATOM     14  C   UNL A   1      33.128  23.581  22.997  1.00  0.00     0.081 C 
BRANCH  13  15
ATOM     15  C   UNL A   1      32.527  21.110  23.451  1.00  0.00     0.087 A 
ATOM     16  C   UNL A   1      32.004  21.117  22.132  1.00  0.00     0.017 A 
ATOM     17  C   UNL A   1      32.837  19.841  24.001  1.00  0.00     0.278 A 
ATOM     18  C   UNL A   1      31.804  19.943  21.403  1.00  0.00     0.001 A 
ATOM     19  C   UNL A   1      32.602  18.656  23.268  1.00  0.00     0.086 A 
ATOM     20  C   UNL A   1      32.096  18.712  21.972  1.00  0.00     0.007 A 
BRANCH  17  21
ATOM     21  N   UNL A   1      33.579  19.653  25.255  1.00  0.00     0.063 N 
ATOM     22  O   UNL A   1      32.949  19.223  26.234  1.00  0.00    -0.258 OA
ATOM     23  O   UNL A   1      34.778  19.942  25.290  1.00  0.00    -0.258 OA
ENDBRANCH  17  21
ENDBRANCH  13  15
ENDBRANCH   8  13
ENDBRANCH   7   8
ENDBRANCH   4   7
ENDBRANCH   2   3
ENDBRANCH   1   2
BRANCH   1  24
ATOM     24  C   UNL A   1      38.381  22.513  25.671  1.00  0.00     0.002 C 
BRANCH  24  25
ATOM     25  C   UNL A   1      37.759  21.524  24.690  1.00  0.00     0.002 C 
BRANCH  25  26
ATOM     26  C   UNL A   1      38.319  20.102  24.786  1.00  0.00     0.021 C 
BRANCH  26  27
ATOM     27  C   UNL A   1      38.970  19.776  26.126  1.00  0.00     0.116 C 
BRANCH  27  28
ATOM     28  N   UNL A   1      40.212  19.042  25.943  1.00  0.00    -0.352 N 
ATOM     29  C   UNL A   1      41.498  19.515  25.928  1.00  0.00     0.251 C 
ATOM     30  H   UNL A   1      40.116  18.071  25.810  1.00  0.00     0.163 HD
ATOM     31  O   UNL A   1      42.406  18.834  25.463  1.00  0.00    -0.269 OA
BRANCH  29  32
ATOM     32  C   UNL A   1      41.784  20.854  26.481  1.00  0.00     0.039 A 
ATOM     33  C   UNL A   1      42.108  21.895  25.611  1.00  0.00     0.014 A 
ATOM     34  C   UNL A   1      41.755  21.069  27.863  1.00  0.00     0.014 A 
ATOM     35  C   UNL A   1      42.378  23.161  26.128  1.00  0.00     0.010 A 
ATOM     36  C   UNL A   1      41.929  22.351  28.367  1.00  0.00     0.010 A 
ATOM     37  C   UNL A   1      42.271  23.405  27.508  1.00  0.00    -0.014 A 
BRANCH  37  38
ATOM     38  C   UNL A   1      42.557  24.747  28.072  1.00  0.00     0.031 A 
ATOM     39  C   UNL A   1      43.959  25.103  28.489  1.00  0.00     0.074 A 
ATOM     40  C   UNL A   1      41.556  25.633  28.232  1.00  0.00     0.049 A 
ATOM     41  N   UNL A   1      44.407  26.218  29.010  1.00  0.00    -0.248 NA
ATOM     42  C   UNL A   1      44.991  24.067  28.320  1.00  0.00     0.031 C 
ATOM     43  C   UNL A   1      40.150  25.395  27.895  1.00  0.00     0.029 A 
ATOM     44  N   UNL A   1      41.569  26.916  28.714  1.00  0.00    -0.354 N 
ATOM     45  C   UNL A   1      45.761  26.010  29.238  1.00  0.00     0.074 A 
ATOM     46  C   UNL A   1      46.051  24.646  28.863  1.00  0.00     0.031 C 
ATOM     47  C   UNL A   1      39.446  26.511  28.140  1.00  0.00     0.029 A 
ATOM     48  C   UNL A   1      40.336  27.523  28.698  1.00  0.00     0.049 A 
ATOM     49  H   UNL A   1      42.384  27.361  29.041  1.00  0.00     0.167 HD
ATOM     50  C   UNL A   1      46.689  26.885  29.693  1.00  0.00     0.031 A 
ATOM     51  C   UNL A   1      39.965  28.754  29.095  1.00  0.00     0.031 A 
ATOM     52  C   UNL A   1      46.399  28.243  30.069  1.00  0.00     0.049 A 
ATOM     53  C   UNL A   1      41.009  29.691  29.640  1.00  0.00     0.074 A 
ATOM     54  C   UNL A   1      47.274  29.221  30.507  1.00  0.00     0.029 A 
ATOM     55  N   UNL A   1      45.134  28.811  30.056  1.00  0.00    -0.354 N 
ATOM     56  N   UNL A   1      42.298  29.501  29.789  1.00  0.00    -0.248 NA
ATOM     57  C   UNL A   1      40.546  31.022  30.055  1.00  0.00     0.031 C 
ATOM     58  C   UNL A   1      46.529  30.359  30.827  1.00  0.00     0.029 A 
ATOM     59  C   UNL A   1      45.203  30.120  30.505  1.00  0.00     0.049 A 
ATOM     60  H   UNL A   1      44.311  28.353  29.771  1.00  0.00     0.167 HD
ATOM     61  C   UNL A   1      42.805  30.701  30.273  1.00  0.00     0.074 A 
ATOM     62  C   UNL A   1      41.687  31.615  30.375  1.00  0.00     0.031 C 
ATOM     63  C   UNL A   1      44.082  31.020  30.598  1.00  0.00     0.031 A 
BRANCH  50  64
ATOM     64  C   UNL A   1      48.108  26.393  29.819  1.00  0.00    -0.014 A 
ATOM     65  C   UNL A   1      49.013  26.493  28.750  1.00  0.00     0.009 A 
ATOM     66  C   UNL A   1      48.555  25.858  31.036  1.00  0.00     0.009 A 
ATOM     67  C   UNL A   1      50.324  26.031  28.887  1.00  0.00     0.001 A 
ATOM     68  C   UNL A   1      49.876  25.432  31.182  1.00  0.00     0.001 A 
ATOM     69  C   UNL A   1      50.757  25.509  30.104  1.00  0.00     0.000 A 
ENDBRANCH  50  64
BRANCH  51  70
ATOM     70  C   UNL A   1      38.544  29.184  28.986  1.00  0.00    -0.014 A 
ATOM     71  C   UNL A   1      38.035  29.679  27.775  1.00  0.00     0.009 A 
ATOM     72  C   UNL A   1      37.696  29.133  30.104  1.00  0.00     0.009 A 
ATOM     73  C   UNL A   1      36.724  30.155  27.698  1.00  0.00     0.001 A 
ATOM     74  C   UNL A   1      36.375  29.572  30.014  1.00  0.00     0.001 A 
ATOM     75  C   UNL A   1      35.894  30.098  28.816  1.00  0.00     0.000 A 
ENDBRANCH  51  70
BRANCH  63  76
ATOM     76  C   UNL A   1      44.351  32.436  31.032  1.00  0.00    -0.014 A 
ATOM     77  C   UNL A   1      44.305  32.820  32.381  1.00  0.00     0.009 A 
ATOM     78  C   UNL A   1      44.683  33.398  30.065  1.00  0.00     0.009 A 
ATOM     79  C   UNL A   1      44.538  34.148  32.745  1.00  0.00     0.001 A 
ATOM     80  C   UNL A   1      44.956  34.715  30.434  1.00  0.00     0.001 A 
ATOM     81  C   UNL A   1      44.868  35.092  31.773  1.00  0.00     0.000 A 
ENDBRANCH  63  76
ENDBRANCH  37  38
ENDBRANCH  29  32
ENDBRANCH  27  28
ENDBRANCH  26  27
ENDBRANCH  25  26
ENDBRANCH  24  25
ENDBRANCH   1  24
TORSDOF 19
ENDMDL
MODEL 3
REMARK VINA RESULT:      -9.4      1.709      2.092
REMARK SMILES C#CC[N@H+](CC(=O)NCCCCCCNC(=O)c1ccc(-c2c3nc(c(-c4ccccc4)c4ccc([nH]4)c(-c4ccccc4)c4nc(c(-c5ccccc5)c5ccc2[nH]5)C=C4)C=C3)cc1)[C@H](C)c1ccccc1[N+](=O)[O-]
REMARK SMILES IDX 10 1 9 2 8 3 6 4 7 5 5 7 4 8 3 10 2 11 1 12 66 13 67 14
REMARK SMILES IDX 68 15 69 16 73 17 70 18 72 19 71 20 74 21 75 22 76 23 11 24
REMARK SMILES IDX 12 25 13 26 14 27 15 28 16 29 17 31 18 32 19 33 65 34 20 35
REMARK SMILES IDX 64 36 21 37 22 38 23 39 58 40 24 41 63 42 57 43 59 44 25 45
REMARK SMILES IDX 62 46 56 47 55 48 26 50 48 51 33 52 47 53 34 54 37 55 46 56
REMARK SMILES IDX 60 57 35 58 36 59 45 61 61 62 38 63 27 64 28 65 32 66 29 67
REMARK SMILES IDX 31 68 30 69 49 70 50 71 54 72 51 73 53 74 52 75 39 76 40 77
REMARK SMILES IDX 44 78 41 79 43 80 42 81
REMARK H PARENT 8 6 4 9 15 30 59 49 37 60
REMARK Flexibility Score: inf
ROOT
ATOM      1  C   UNL A   1      38.600  23.714  26.790  1.00  0.00     0.021 C 
ENDROOT
BRANCH   1   2
ATOM      2  C   UNL A   1      37.270  23.871  26.035  1.00  0.00     0.116 C 
BRANCH   2   3
ATOM      3  N   UNL A   1      36.432  22.691  26.200  1.00  0.00    -0.351 N 
ATOM      4  C   UNL A   1      35.063  22.562  26.226  1.00  0.00     0.275 C 
ATOM      5  O   UNL A   1      34.594  21.461  26.514  1.00  0.00    -0.269 OA
ATOM      6  H   UNL A   1      36.926  21.847  26.311  1.00  0.00     0.163 HD
BRANCH   4   7
ATOM      7  C   UNL A   1      34.165  23.760  25.860  1.00  0.00     0.364 C 
BRANCH   7   8
ATOM      8  N   UNL A   1      34.246  24.250  24.442  1.00  0.00    -0.311 N 
ATOM      9  H   UNL A   1      35.133  24.722  24.265  1.00  0.00     0.349 HD
BRANCH   8  10
ATOM     10  C   UNL A   1      34.279  23.128  23.513  1.00  0.00     0.354 C 
BRANCH  10  11
ATOM     11  C   UNL A   1      33.062  22.403  23.126  1.00  0.00    -0.047 C 
ATOM     12  C   UNL A   1      32.146  21.647  22.966  1.00  0.00     0.010 C 
ENDBRANCH  10  11
ENDBRANCH   8  10
BRANCH   8  13
ATOM     13  C   UNL A   1      33.248  25.334  24.192  1.00  0.00     0.220 C 
ATOM     14  C   UNL A   1      33.170  25.999  22.799  1.00  0.00     0.081 C 
BRANCH  13  15
ATOM     15  C   UNL A   1      32.995  26.298  25.358  1.00  0.00     0.087 A 
ATOM     16  C   UNL A   1      34.012  27.261  25.577  1.00  0.00     0.017 A 
ATOM     17  C   UNL A   1      31.829  26.418  26.156  1.00  0.00     0.278 A 
ATOM     18  C   UNL A   1      33.883  28.282  26.522  1.00  0.00     0.001 A 
ATOM     19  C   UNL A   1      31.719  27.435  27.131  1.00  0.00     0.086 A 
ATOM     20  C   UNL A   1      32.740  28.365  27.303  1.00  0.00     0.007 A 
BRANCH  17  21
ATOM     21  N   UNL A   1      30.597  25.652  25.923  1.00  0.00     0.063 N 
ATOM     22  O   UNL A   1      29.842  26.043  25.018  1.00  0.00    -0.258 OA
ATOM     23  O   UNL A   1      30.355  24.675  26.636  1.00  0.00    -0.258 OA
ENDBRANCH  17  21
ENDBRANCH  13  15
ENDBRANCH   8  13
ENDBRANCH   7   8
ENDBRANCH   4   7
ENDBRANCH   2   3
ENDBRANCH   1   2
BRANCH   1  24
ATOM     24  C   UNL A   1      39.585  22.749  26.146  1.00  0.00     0.002 C 
BRANCH  24  25
ATOM     25  C   UNL A   1      40.306  21.850  27.147  1.00  0.00     0.002 C 
BRANCH  25  26
ATOM     26  C   UNL A   1      40.679  20.469  26.601  1.00  0.00     0.021 C 
BRANCH  26  27
ATOM     27  C   UNL A   1      41.982  19.907  27.160  1.00  0.00     0.116 C 
BRANCH  27  28
ATOM     28  N   UNL A   1      42.984  19.766  26.116  1.00  0.00    -0.352 N 
ATOM     29  C   UNL A   1      43.658  20.743  25.431  1.00  0.00     0.251 C 
ATOM     30  H   UNL A   1      43.209  18.840  25.866  1.00  0.00     0.163 HD
ATOM     31  O   UNL A   1      44.237  20.480  24.382  1.00  0.00    -0.269 OA
BRANCH  29  32
ATOM     32  C   UNL A   1      43.685  22.117  25.970  1.00  0.00     0.039 A 
ATOM     33  C   UNL A   1      43.367  23.184  25.129  1.00  0.00     0.014 A 
ATOM     34  C   UNL A   1      44.050  22.349  27.299  1.00  0.00     0.014 A 
ATOM     35  C   UNL A   1      43.390  24.484  25.632  1.00  0.00     0.010 A 
ATOM     36  C   UNL A   1      43.978  23.633  27.823  1.00  0.00     0.010 A 
ATOM     37  C   UNL A   1      43.676  24.717  26.988  1.00  0.00    -0.014 A 
BRANCH  37  38
ATOM     38  C   UNL A   1      43.706  26.096  27.535  1.00  0.00     0.031 A 
ATOM     39  C   UNL A   1      45.023  26.802  27.722  1.00  0.00     0.074 A 
ATOM     40  C   UNL A   1      42.556  26.701  27.888  1.00  0.00     0.049 A 
ATOM     41  N   UNL A   1      45.257  28.001  28.195  1.00  0.00    -0.248 NA
ATOM     42  C   UNL A   1      46.239  26.060  27.351  1.00  0.00     0.031 C 
ATOM     43  C   UNL A   1      41.220  26.109  27.785  1.00  0.00     0.029 A 
ATOM     44  N   UNL A   1      42.327  27.952  28.400  1.00  0.00    -0.354 N 
ATOM     45  C   UNL A   1      46.638  28.147  28.185  1.00  0.00     0.074 A 
ATOM     46  C   UNL A   1      47.195  26.895  27.725  1.00  0.00     0.031 C 
ATOM     47  C   UNL A   1      40.309  27.013  28.179  1.00  0.00     0.029 A 
ATOM     48  C   UNL A   1      40.997  28.225  28.610  1.00  0.00     0.049 A 
ATOM     49  H   UNL A   1      43.046  28.594  28.599  1.00  0.00     0.167 HD
ATOM     50  C   UNL A   1      47.378  29.235  28.504  1.00  0.00     0.031 A 
ATOM     51  C   UNL A   1      40.400  29.328  29.100  1.00  0.00     0.031 A 
ATOM     52  C   UNL A   1      46.823  30.479  28.965  1.00  0.00     0.049 A 
ATOM     53  C   UNL A   1      41.250  30.506  29.491  1.00  0.00     0.074 A 
ATOM     54  C   UNL A   1      47.485  31.653  29.279  1.00  0.00     0.029 A 
ATOM     55  N   UNL A   1      45.473  30.708  29.182  1.00  0.00    -0.354 N 
ATOM     56  N   UNL A   1      42.552  30.651  29.415  1.00  0.00    -0.248 NA
ATOM     57  C   UNL A   1      40.544  31.681  30.018  1.00  0.00     0.031 C 
ATOM     58  C   UNL A   1      46.542  32.569  29.755  1.00  0.00     0.029 A 
ATOM     59  C   UNL A   1      45.285  31.996  29.652  1.00  0.00     0.049 A 
ATOM     60  H   UNL A   1      44.756  30.052  29.024  1.00  0.00     0.167 HD
ATOM     61  C   UNL A   1      42.814  31.947  29.844  1.00  0.00     0.074 A 
ATOM     62  C   UNL A   1      41.536  32.548  30.160  1.00  0.00     0.031 C 
ATOM     63  C   UNL A   1      44.005  32.584  29.959  1.00  0.00     0.031 A 
BRANCH  50  64
ATOM     64  C   UNL A   1      48.875  29.120  28.375  1.00  0.00    -0.014 A 
ATOM     65  C   UNL A   1      49.533  29.450  27.179  1.00  0.00     0.009 A 
ATOM     66  C   UNL A   1      49.642  28.715  29.479  1.00  0.00     0.009 A 
ATOM     67  C   UNL A   1      50.921  29.337  27.079  1.00  0.00     0.001 A 
ATOM     68  C   UNL A   1      51.032  28.640  29.388  1.00  0.00     0.001 A 
ATOM     69  C   UNL A   1      51.671  28.940  28.186  1.00  0.00     0.000 A 
ENDBRANCH  50  64
BRANCH  51  70
ATOM     70  C   UNL A   1      38.919  29.381  29.245  1.00  0.00    -0.014 A 
ATOM     71  C   UNL A   1      38.104  29.716  28.152  1.00  0.00     0.009 A 
ATOM     72  C   UNL A   1      38.314  29.130  30.486  1.00  0.00     0.009 A 
ATOM     73  C   UNL A   1      36.722  29.842  28.311  1.00  0.00     0.001 A 
ATOM     74  C   UNL A   1      36.929  29.218  30.633  1.00  0.00     0.001 A 
ATOM     75  C   UNL A   1      36.136  29.590  29.550  1.00  0.00     0.000 A 
ENDBRANCH  51  70
BRANCH  63  76
ATOM     76  C   UNL A   1      43.978  34.027  30.385  1.00  0.00    -0.014 A 
ATOM     77  C   UNL A   1      44.080  34.406  31.732  1.00  0.00     0.009 A 
ATOM     78  C   UNL A   1      43.874  35.029  29.406  1.00  0.00     0.009 A 
ATOM     79  C   UNL A   1      44.029  35.754  32.092  1.00  0.00     0.001 A 
ATOM     80  C   UNL A   1      43.864  36.376  29.764  1.00  0.00     0.001 A 
ATOM     81  C   UNL A   1      43.926  36.737  31.108  1.00  0.00     0.000 A 
ENDBRANCH  63  76
ENDBRANCH  37  38
ENDBRANCH  29  32
ENDBRANCH  27  28
ENDBRANCH  26  27
ENDBRANCH  25  26
ENDBRANCH  24  25
ENDBRANCH   1  24
TORSDOF 19
ENDMDL
