MODEL 1
REMARK VINA RESULT:     -11.6      0.000      0.000
REMARK SMILES Cc1cc(Cl)c2c(c1)C=C(C(=O)NCCCCCCNC(=O)c1ccc(-c3c4nc(c(-c5ccccc5)c5ccc([nH]5)c(-c5ccccc5)c5nc(c(-c6ccccc6)c6ccc3[nH]6)C=C5)C=C4)cc1)[C@@H](C(F)(F)F)O2
REMARK SMILES IDX 17 1 16 2 15 3 14 4 13 5 11 6 12 7 10 9 1 10 2 11 3 12 8 13
REMARK SMILES IDX 4 14 7 15 5 16 6 17 9 18 76 19 71 20 72 21 73 22 74 23 75 24
REMARK SMILES IDX 18 25 19 26 20 27 21 28 22 30 23 31 24 32 70 33 25 34 69 35
REMARK SMILES IDX 26 36 27 37 28 38 63 39 29 40 68 41 62 42 64 43 30 44 67 45
REMARK SMILES IDX 61 46 60 47 31 49 53 50 38 51 52 52 39 53 42 54 51 55 65 56
REMARK SMILES IDX 40 57 41 58 50 60 66 61 43 62 32 63 33 64 37 65 34 66 36 67
REMARK SMILES IDX 35 68 54 69 55 70 59 71 56 72 58 73 57 74 44 75 45 76 49 77
REMARK SMILES IDX 46 78 48 79 47 80
REMARK H PARENT 13 8 20 29 64 48 42 59
REMARK Flexibility Score: inf
ROOT
ATOM      1  C   UNL A   1      31.421  28.440  26.052  1.00  0.00     0.002 C 
ENDROOT
BRANCH   1   2
ATOM      2  C   UNL A   1      30.675  27.336  25.290  1.00  0.00     0.002 C 
BRANCH   2   3
ATOM      3  C   UNL A   1      30.693  27.481  23.766  1.00  0.00     0.021 C 
BRANCH   3   4
ATOM      4  C   UNL A   1      30.598  26.151  23.029  1.00  0.00     0.116 C 
BRANCH   4   5
ATOM      5  N   UNL A   1      31.563  26.067  21.947  1.00  0.00    -0.352 N 
ATOM      6  C   UNL A   1      32.673  25.346  21.665  1.00  0.00     0.251 C 
ATOM      7  O   UNL A   1      33.196  25.591  20.574  1.00  0.00    -0.270 OA
ATOM      8  H   UNL A   1      31.354  26.705  21.227  1.00  0.00     0.163 HD
BRANCH   6   9
ATOM      9  C   UNL A   1      33.278  24.314  22.560  1.00  0.00     0.067 C 
ATOM     10  C   UNL A   1      32.398  18.466  24.378  1.00  0.00     0.044 C 
ATOM     11  C   UNL A   1      33.103  19.786  24.284  1.00  0.00    -0.049 A 
ATOM     12  C   UNL A   1      34.313  19.994  24.956  1.00  0.00     0.028 A 
ATOM     13  C   UNL A   1      32.575  20.811  23.486  1.00  0.00     0.015 A 
ATOM     14  C   UNL A   1      34.973  21.217  24.847  1.00  0.00     0.084 A 
ATOM     15  C   UNL A   1      33.235  22.041  23.376  1.00  0.00     0.019 A 
ATOM     16  Cl  UNL A   1      36.464  21.429  25.693  1.00  0.00    -0.080 Cl
ATOM     17  C   UNL A   1      34.430  22.242  24.068  1.00  0.00     0.146 A 
ATOM     18  C   UNL A   1      32.711  23.095  22.515  1.00  0.00     0.025 C 
ATOM     19  O   UNL A   1      35.131  23.410  23.972  1.00  0.00    -0.474 OA
ATOM     20  C   UNL A   1      34.419  24.578  23.498  1.00  0.00     0.314 C 
BRANCH  20  21
ATOM     21  C   UNL A   1      34.011  25.446  24.703  1.00  0.00     0.429 C 
ATOM     22  F   UNL A   1      32.816  25.038  25.199  1.00  0.00    -0.167 F 
ATOM     23  F   UNL A   1      34.892  25.367  25.727  1.00  0.00    -0.167 F 
ATOM     24  F   UNL A   1      33.896  26.754  24.384  1.00  0.00    -0.167 F 
ENDBRANCH  20  21
ENDBRANCH   6   9
ENDBRANCH   4   5
ENDBRANCH   3   4
ENDBRANCH   2   3
ENDBRANCH   1   2
BRANCH   1  25
ATOM     25  C   UNL A   1      32.291  27.953  27.214  1.00  0.00     0.021 C 
BRANCH  25  26
ATOM     26  C   UNL A   1      33.678  28.582  27.261  1.00  0.00     0.116 C 
BRANCH  26  27
ATOM     27  N   UNL A   1      33.617  29.988  27.625  1.00  0.00    -0.352 N 
ATOM     28  C   UNL A   1      34.542  30.750  28.287  1.00  0.00     0.251 C 
ATOM     29  H   UNL A   1      32.795  30.458  27.358  1.00  0.00     0.163 HD
ATOM     30  O   UNL A   1      34.240  31.858  28.723  1.00  0.00    -0.269 OA
BRANCH  28  31
ATOM     31  C   UNL A   1      35.907  30.226  28.484  1.00  0.00     0.039 A 
ATOM     32  C   UNL A   1      36.812  30.279  27.423  1.00  0.00     0.014 A 
ATOM     33  C   UNL A   1      36.284  29.676  29.714  1.00  0.00     0.014 A 
ATOM     34  C   UNL A   1      38.115  29.819  27.609  1.00  0.00     0.010 A 
ATOM     35  C   UNL A   1      37.603  29.289  29.920  1.00  0.00     0.010 A 
ATOM     36  C   UNL A   1      38.526  29.344  28.867  1.00  0.00    -0.014 A 
BRANCH  36  37
ATOM     37  C   UNL A   1      39.914  28.874  29.086  1.00  0.00     0.031 A 
ATOM     38  C   UNL A   1      40.922  29.789  29.723  1.00  0.00     0.074 A 
ATOM     39  C   UNL A   1      40.272  27.638  28.685  1.00  0.00     0.049 A 
ATOM     40  N   UNL A   1      42.187  29.570  29.976  1.00  0.00    -0.248 NA
ATOM     41  C   UNL A   1      40.456  31.130  30.114  1.00  0.00     0.031 C 
ATOM     42  C   UNL A   1      39.387  26.670  28.036  1.00  0.00     0.029 A 
ATOM     43  N   UNL A   1      41.475  26.986  28.770  1.00  0.00    -0.354 N 
ATOM     44  C   UNL A   1      42.665  30.742  30.547  1.00  0.00     0.074 A 
ATOM     45  C   UNL A   1      41.574  31.690  30.552  1.00  0.00     0.031 C 
ATOM     46  C   UNL A   1      40.068  25.533  27.817  1.00  0.00     0.029 A 
ATOM     47  C   UNL A   1      41.444  25.707  28.268  1.00  0.00     0.049 A 
ATOM     48  H   UNL A   1      42.284  27.394  29.155  1.00  0.00     0.167 HD
ATOM     49  C   UNL A   1      43.896  30.998  31.047  1.00  0.00     0.031 A 
ATOM     50  C   UNL A   1      42.417  24.780  28.180  1.00  0.00     0.031 A 
ATOM     51  C   UNL A   1      44.977  30.050  31.050  1.00  0.00     0.049 A 
ATOM     52  C   UNL A   1      43.788  25.106  28.704  1.00  0.00     0.074 A 
ATOM     53  C   UNL A   1      46.250  30.201  31.571  1.00  0.00     0.029 A 
ATOM     54  N   UNL A   1      44.911  28.776  30.508  1.00  0.00    -0.354 N 
ATOM     55  N   UNL A   1      44.208  26.200  29.292  1.00  0.00    -0.248 NA
ATOM     56  C   UNL A   1      44.818  24.067  28.560  1.00  0.00     0.031 C 
ATOM     57  C   UNL A   1      46.974  29.040  31.292  1.00  0.00     0.029 A 
ATOM     58  C   UNL A   1      46.132  28.140  30.656  1.00  0.00     0.049 A 
ATOM     59  H   UNL A   1      44.116  28.382  30.083  1.00  0.00     0.167 HD
ATOM     60  C   UNL A   1      45.541  25.973  29.609  1.00  0.00     0.074 A 
ATOM     61  C   UNL A   1      45.854  24.630  29.165  1.00  0.00     0.031 C 
ATOM     62  C   UNL A   1      46.427  26.804  30.210  1.00  0.00     0.031 A 
BRANCH  49  63
ATOM     63  C   UNL A   1      44.143  32.355  31.644  1.00  0.00    -0.014 A 
ATOM     64  C   UNL A   1      44.577  33.427  30.848  1.00  0.00     0.009 A 
ATOM     65  C   UNL A   1      43.862  32.585  32.999  1.00  0.00     0.009 A 
ATOM     66  C   UNL A   1      44.745  34.697  31.403  1.00  0.00     0.001 A 
ATOM     67  C   UNL A   1      44.002  33.862  33.544  1.00  0.00     0.001 A 
ATOM     68  C   UNL A   1      44.448  34.915  32.748  1.00  0.00     0.000 A 
ENDBRANCH  49  63
BRANCH  50  69
ATOM     69  C   UNL A   1      42.123  23.448  27.587  1.00  0.00    -0.014 A 
ATOM     70  C   UNL A   1      41.486  22.456  28.348  1.00  0.00     0.009 A 
ATOM     71  C   UNL A   1      42.470  23.162  26.257  1.00  0.00     0.009 A 
ATOM     72  C   UNL A   1      41.223  21.199  27.797  1.00  0.00     0.001 A 
ATOM     73  C   UNL A   1      42.177  21.916  25.698  1.00  0.00     0.001 A 
ATOM     74  C   UNL A   1      41.562  20.933  26.471  1.00  0.00     0.000 A 
ENDBRANCH  50  69
BRANCH  62  75
ATOM     75  C   UNL A   1      47.818  26.287  30.445  1.00  0.00    -0.014 A 
ATOM     76  C   UNL A   1      48.188  25.737  31.682  1.00  0.00     0.009 A 
ATOM     77  C   UNL A   1      48.743  26.271  29.388  1.00  0.00     0.009 A 
ATOM     78  C   UNL A   1      49.464  25.202  31.862  1.00  0.00     0.001 A 
ATOM     79  C   UNL A   1      50.007  25.706  29.562  1.00  0.00     0.001 A 
ATOM     80  C   UNL A   1      50.369  25.179  30.800  1.00  0.00     0.000 A 
ENDBRANCH  62  75
ENDBRANCH  36  37
ENDBRANCH  28  31
ENDBRANCH  26  27
ENDBRANCH  25  26
ENDBRANCH   1  25
TORSDOF 14
ENDMDL
MODEL 2
REMARK VINA RESULT:     -11.4      2.734      7.812
REMARK SMILES Cc1cc(Cl)c2c(c1)C=C(C(=O)NCCCCCCNC(=O)c1ccc(-c3c4nc(c(-c5ccccc5)c5ccc([nH]5)c(-c5ccccc5)c5nc(c(-c6ccccc6)c6ccc3[nH]6)C=C5)C=C4)cc1)[C@@H](C(F)(F)F)O2
REMARK SMILES IDX 17 1 16 2 15 3 14 4 13 5 11 6 12 7 10 9 1 10 2 11 3 12 8 13
REMARK SMILES IDX 4 14 7 15 5 16 6 17 9 18 76 19 71 20 72 21 73 22 74 23 75 24
REMARK SMILES IDX 18 25 19 26 20 27 21 28 22 30 23 31 24 32 70 33 25 34 69 35
REMARK SMILES IDX 26 36 27 37 28 38 63 39 29 40 68 41 62 42 64 43 30 44 67 45
REMARK SMILES IDX 61 46 60 47 31 49 53 50 38 51 52 52 39 53 42 54 51 55 65 56
REMARK SMILES IDX 40 57 41 58 50 60 66 61 43 62 32 63 33 64 37 65 34 66 36 67
REMARK SMILES IDX 35 68 54 69 55 70 59 71 56 72 58 73 57 74 44 75 45 76 49 77
REMARK SMILES IDX 46 78 48 79 47 80
REMARK H PARENT 13 8 20 29 64 48 42 59
REMARK Flexibility Score: inf
ROOT
ATOM      1  C   UNL A   1      35.566  21.755  25.921  1.00  0.00     0.002 C 
ENDROOT
BRANCH   1   2
ATOM      2  C   UNL A   1      34.260  21.341  26.615  1.00  0.00     0.002 C 
BRANCH   2   3
ATOM      3  C   UNL A   1      33.307  20.514  25.749  1.00  0.00     0.021 C 
BRANCH   3   4
ATOM      4  C   UNL A   1      32.226  21.347  25.072  1.00  0.00     0.116 C 
BRANCH   4   5
ATOM      5  N   UNL A   1      31.394  22.037  26.041  1.00  0.00    -0.352 N 
ATOM      6  C   UNL A   1      31.130  23.319  26.384  1.00  0.00     0.251 C 
ATOM      7  O   UNL A   1      30.303  23.462  27.290  1.00  0.00    -0.270 OA
ATOM      8  H   UNL A   1      30.887  21.403  26.598  1.00  0.00     0.163 HD
BRANCH   6   9
ATOM      9  C   UNL A   1      31.754  24.523  25.757  1.00  0.00     0.067 C 
ATOM     10  C   UNL A   1      33.923  30.114  27.279  1.00  0.00     0.044 C 
ATOM     11  C   UNL A   1      33.624  28.952  26.378  1.00  0.00    -0.049 A 
ATOM     12  C   UNL A   1      33.990  28.989  25.028  1.00  0.00     0.028 A 
ATOM     13  C   UNL A   1      33.010  27.801  26.894  1.00  0.00     0.015 A 
ATOM     14  C   UNL A   1      33.727  27.897  24.202  1.00  0.00     0.084 A 
ATOM     15  C   UNL A   1      32.745  26.704  26.066  1.00  0.00     0.019 A 
ATOM     16  Cl  UNL A   1      34.197  27.985  22.542  1.00  0.00    -0.080 Cl
ATOM     17  C   UNL A   1      33.095  26.762  24.716  1.00  0.00     0.146 A 
ATOM     18  C   UNL A   1      32.144  25.490  26.607  1.00  0.00     0.025 C 
ATOM     19  O   UNL A   1      32.888  25.709  23.872  1.00  0.00    -0.474 OA
ATOM     20  C   UNL A   1      31.922  24.709  24.277  1.00  0.00     0.314 C 
BRANCH  20  21
ATOM     21  C   UNL A   1      30.588  24.972  23.555  1.00  0.00     0.429 C 
ATOM     22  F   UNL A   1      30.776  25.799  22.495  1.00  0.00    -0.167 F 
ATOM     23  F   UNL A   1      30.030  23.843  23.059  1.00  0.00    -0.167 F 
ATOM     24  F   UNL A   1      29.667  25.545  24.361  1.00  0.00    -0.167 F 
ENDBRANCH  20  21
ENDBRANCH   6   9
ENDBRANCH   4   5
ENDBRANCH   3   4
ENDBRANCH   2   3
ENDBRANCH   1   2
BRANCH   1  25
ATOM     25  C   UNL A   1      35.676  23.244  25.579  1.00  0.00     0.021 C 
BRANCH  25  26
ATOM     26  C   UNL A   1      37.061  23.675  25.113  1.00  0.00     0.116 C 
BRANCH  26  27
ATOM     27  N   UNL A   1      38.075  22.697  25.468  1.00  0.00    -0.352 N 
ATOM     28  C   UNL A   1      39.271  22.885  26.107  1.00  0.00     0.251 C 
ATOM     29  H   UNL A   1      37.874  21.769  25.211  1.00  0.00     0.163 HD
ATOM     30  O   UNL A   1      40.117  21.995  26.120  1.00  0.00    -0.269 OA
BRANCH  28  31
ATOM     31  C   UNL A   1      39.543  24.173  26.773  1.00  0.00     0.039 A 
ATOM     32  C   UNL A   1      39.078  24.374  28.073  1.00  0.00     0.014 A 
ATOM     33  C   UNL A   1      40.250  25.180  26.107  1.00  0.00     0.014 A 
ATOM     34  C   UNL A   1      39.360  25.574  28.725  1.00  0.00     0.010 A 
ATOM     35  C   UNL A   1      40.595  26.343  26.784  1.00  0.00     0.010 A 
ATOM     36  C   UNL A   1      40.142  26.557  28.093  1.00  0.00    -0.014 A 
BRANCH  36  37
ATOM     37  C   UNL A   1      40.470  27.827  28.782  1.00  0.00     0.031 A 
ATOM     38  C   UNL A   1      41.827  28.015  29.400  1.00  0.00     0.074 A 
ATOM     39  C   UNL A   1      39.538  28.795  28.877  1.00  0.00     0.049 A 
ATOM     40  N   UNL A   1      42.294  29.041  30.064  1.00  0.00    -0.248 NA
ATOM     41  C   UNL A   1      42.782  26.901  29.271  1.00  0.00     0.031 C 
ATOM     42  C   UNL A   1      38.180  28.718  28.337  1.00  0.00     0.029 A 
ATOM     43  N   UNL A   1      39.596  30.036  29.459  1.00  0.00    -0.354 N 
ATOM     44  C   UNL A   1      43.587  28.694  30.434  1.00  0.00     0.074 A 
ATOM     45  C   UNL A   1      43.814  27.343  29.972  1.00  0.00     0.031 C 
ATOM     46  C   UNL A   1      37.546  29.877  28.578  1.00  0.00     0.029 A 
ATOM     47  C   UNL A   1      38.434  30.759  29.327  1.00  0.00     0.049 A 
ATOM     48  H   UNL A   1      40.393  30.376  29.926  1.00  0.00     0.167 HD
ATOM     49  C   UNL A   1      44.512  29.444  31.076  1.00  0.00     0.031 A 
ATOM     50  C   UNL A   1      38.121  31.994  29.764  1.00  0.00     0.031 A 
ATOM     51  C   UNL A   1      44.287  30.791  31.525  1.00  0.00     0.049 A 
ATOM     52  C   UNL A   1      39.155  32.789  30.514  1.00  0.00     0.074 A 
ATOM     53  C   UNL A   1      45.176  31.646  32.150  1.00  0.00     0.029 A 
ATOM     54  N   UNL A   1      43.089  31.476  31.395  1.00  0.00    -0.354 N 
ATOM     55  N   UNL A   1      40.391  32.467  30.805  1.00  0.00    -0.248 NA
ATOM     56  C   UNL A   1      38.752  34.121  30.988  1.00  0.00     0.031 C 
ATOM     57  C   UNL A   1      44.499  32.831  32.452  1.00  0.00     0.029 A 
ATOM     58  C   UNL A   1      43.208  32.736  31.956  1.00  0.00     0.049 A 
ATOM     59  H   UNL A   1      42.277  31.120  30.968  1.00  0.00     0.167 HD
ATOM     60  C   UNL A   1      40.921  33.563  31.475  1.00  0.00     0.074 A 
ATOM     61  C   UNL A   1      39.877  34.565  31.529  1.00  0.00     0.031 C 
ATOM     62  C   UNL A   1      42.160  33.722  32.001  1.00  0.00     0.031 A 
BRANCH  49  63
ATOM     63  C   UNL A   1      45.861  28.830  31.327  1.00  0.00    -0.014 A 
ATOM     64  C   UNL A   1      46.907  28.980  30.403  1.00  0.00     0.009 A 
ATOM     65  C   UNL A   1      46.112  28.162  32.536  1.00  0.00     0.009 A 
ATOM     66  C   UNL A   1      48.172  28.456  30.676  1.00  0.00     0.001 A 
ATOM     67  C   UNL A   1      47.385  27.664  32.818  1.00  0.00     0.001 A 
ATOM     68  C   UNL A   1      48.411  27.807  31.887  1.00  0.00     0.000 A 
ENDBRANCH  49  63
BRANCH  50  69
ATOM     69  C   UNL A   1      36.775  32.562  29.485  1.00  0.00    -0.014 A 
ATOM     70  C   UNL A   1      36.512  33.203  28.264  1.00  0.00     0.009 A 
ATOM     71  C   UNL A   1      35.745  32.462  30.433  1.00  0.00     0.009 A 
ATOM     72  C   UNL A   1      35.252  33.749  28.008  1.00  0.00     0.001 A 
ATOM     73  C   UNL A   1      34.477  32.981  30.162  1.00  0.00     0.001 A 
ATOM     74  C   UNL A   1      34.234  33.632  28.954  1.00  0.00     0.000 A 
ENDBRANCH  50  69
BRANCH  62  75
ATOM     75  C   UNL A   1      42.471  35.033  32.666  1.00  0.00    -0.014 A 
ATOM     76  C   UNL A   1      42.073  35.288  33.987  1.00  0.00     0.009 A 
ATOM     77  C   UNL A   1      43.246  35.989  31.991  1.00  0.00     0.009 A 
ATOM     78  C   UNL A   1      42.427  36.486  34.611  1.00  0.00     0.001 A 
ATOM     79  C   UNL A   1      43.625  37.172  32.628  1.00  0.00     0.001 A 
ATOM     80  C   UNL A   1      43.210  37.422  33.935  1.00  0.00     0.000 A 
ENDBRANCH  62  75
ENDBRANCH  36  37
ENDBRANCH  28  31
ENDBRANCH  26  27
ENDBRANCH  25  26
ENDBRANCH   1  25
TORSDOF 14
ENDMDL
MODEL 3
REMARK VINA RESULT:     -11.4      1.608      6.218
REMARK SMILES Cc1cc(Cl)c2c(c1)C=C(C(=O)NCCCCCCNC(=O)c1ccc(-c3c4nc(c(-c5ccccc5)c5ccc([nH]5)c(-c5ccccc5)c5nc(c(-c6ccccc6)c6ccc3[nH]6)C=C5)C=C4)cc1)[C@@H](C(F)(F)F)O2
REMARK SMILES IDX 17 1 16 2 15 3 14 4 13 5 11 6 12 7 10 9 1 10 2 11 3 12 8 13
REMARK SMILES IDX 4 14 7 15 5 16 6 17 9 18 76 19 71 20 72 21 73 22 74 23 75 24
REMARK SMILES IDX 18 25 19 26 20 27 21 28 22 30 23 31 24 32 70 33 25 34 69 35
REMARK SMILES IDX 26 36 27 37 28 38 63 39 29 40 68 41 62 42 64 43 30 44 67 45
REMARK SMILES IDX 61 46 60 47 31 49 53 50 38 51 52 52 39 53 42 54 51 55 65 56
REMARK SMILES IDX 40 57 41 58 50 60 66 61 43 62 32 63 33 64 37 65 34 66 36 67
REMARK SMILES IDX 35 68 54 69 55 70 59 71 56 72 58 73 57 74 44 75 45 76 49 77
REMARK SMILES IDX 46 78 48 79 47 80
REMARK H PARENT 13 8 20 29 64 48 42 59
REMARK Flexibility Score: inf
ROOT
ATOM      1  C   UNL A   1      32.504  28.100  25.003  1.00  0.00     0.002 C 
ENDROOT
BRANCH   1   2
ATOM      2  C   UNL A   1      32.571  28.896  23.692  1.00  0.00     0.002 C 
BRANCH   2   3
ATOM      3  C   UNL A   1      31.282  28.887  22.868  1.00  0.00     0.021 C 
BRANCH   3   4
ATOM      4  C   UNL A   1      30.772  27.486  22.555  1.00  0.00     0.116 C 
BRANCH   4   5
ATOM      5  N   UNL A   1      31.657  26.783  21.644  1.00  0.00    -0.352 N 
ATOM      6  C   UNL A   1      32.568  25.786  21.722  1.00  0.00     0.251 C 
ATOM      7  O   UNL A   1      33.097  25.470  20.652  1.00  0.00    -0.270 OA
ATOM      8  H   UNL A   1      31.572  27.123  20.724  1.00  0.00     0.163 HD
BRANCH   6   9
ATOM      9  C   UNL A   1      32.958  25.073  22.977  1.00  0.00     0.067 C 
ATOM     10  C   UNL A   1      37.930  22.625  25.726  1.00  0.00     0.044 C 
ATOM     11  C   UNL A   1      36.498  23.052  25.601  1.00  0.00    -0.049 A 
ATOM     12  C   UNL A   1      35.601  22.849  26.655  1.00  0.00     0.028 A 
ATOM     13  C   UNL A   1      36.056  23.700  24.438  1.00  0.00     0.015 A 
ATOM     14  C   UNL A   1      34.277  23.268  26.539  1.00  0.00     0.084 A 
ATOM     15  C   UNL A   1      34.726  24.121  24.318  1.00  0.00     0.019 A 
ATOM     16  Cl  UNL A   1      33.205  22.997  27.867  1.00  0.00    -0.080 Cl
ATOM     17  C   UNL A   1      33.836  23.892  25.369  1.00  0.00     0.146 A 
ATOM     18  C   UNL A   1      34.272  24.830  23.128  1.00  0.00     0.025 C 
ATOM     19  O   UNL A   1      32.538  24.309  25.319  1.00  0.00    -0.474 OA
ATOM     20  C   UNL A   1      31.981  24.601  24.014  1.00  0.00     0.314 C 
BRANCH  20  21
ATOM     21  C   UNL A   1      31.144  23.399  23.540  1.00  0.00     0.429 C 
ATOM     22  F   UNL A   1      30.702  22.680  24.602  1.00  0.00    -0.167 F 
ATOM     23  F   UNL A   1      30.041  23.770  22.849  1.00  0.00    -0.167 F 
ATOM     24  F   UNL A   1      31.844  22.562  22.743  1.00  0.00    -0.167 F 
ENDBRANCH  20  21
ENDBRANCH   6   9
ENDBRANCH   4   5
ENDBRANCH   3   4
ENDBRANCH   2   3
ENDBRANCH   1   2
BRANCH   1  25
ATOM     25  C   UNL A   1      33.847  27.897  25.709  1.00  0.00     0.021 C 
BRANCH  25  26
ATOM     26  C   UNL A   1      33.828  28.237  27.194  1.00  0.00     0.116 C 
BRANCH  26  27
ATOM     27  N   UNL A   1      33.652  29.662  27.416  1.00  0.00    -0.352 N 
ATOM     28  C   UNL A   1      34.491  30.552  28.031  1.00  0.00     0.251 C 
ATOM     29  H   UNL A   1      32.810  30.041  27.076  1.00  0.00     0.163 HD
ATOM     30  O   UNL A   1      34.092  31.670  28.345  1.00  0.00    -0.269 OA
BRANCH  28  31
ATOM     31  C   UNL A   1      35.880  30.154  28.326  1.00  0.00     0.039 A 
ATOM     32  C   UNL A   1      36.198  29.697  29.606  1.00  0.00     0.014 A 
ATOM     33  C   UNL A   1      36.867  30.241  27.337  1.00  0.00     0.014 A 
ATOM     34  C   UNL A   1      37.500  29.285  29.884  1.00  0.00     0.010 A 
ATOM     35  C   UNL A   1      38.144  29.758  27.594  1.00  0.00     0.010 A 
ATOM     36  C   UNL A   1      38.477  29.289  28.872  1.00  0.00    -0.014 A 
BRANCH  36  37
ATOM     37  C   UNL A   1      39.859  28.831  29.147  1.00  0.00     0.031 A 
ATOM     38  C   UNL A   1      40.286  27.451  28.736  1.00  0.00     0.074 A 
ATOM     39  C   UNL A   1      40.716  29.647  29.792  1.00  0.00     0.049 A 
ATOM     40  N   UNL A   1      41.441  26.860  28.909  1.00  0.00    -0.248 NA
ATOM     41  C   UNL A   1      39.282  26.615  28.055  1.00  0.00     0.031 C 
ATOM     42  C   UNL A   1      40.409  30.999  30.259  1.00  0.00     0.029 A 
ATOM     43  N   UNL A   1      42.024  29.455  30.160  1.00  0.00    -0.354 N 
ATOM     44  C   UNL A   1      41.300  25.590  28.366  1.00  0.00     0.074 A 
ATOM     45  C   UNL A   1      39.934  25.470  27.909  1.00  0.00     0.031 C 
ATOM     46  C   UNL A   1      41.509  31.530  30.818  1.00  0.00     0.029 A 
ATOM     47  C   UNL A   1      42.583  30.543  30.788  1.00  0.00     0.049 A 
ATOM     48  H   UNL A   1      42.515  28.619  29.991  1.00  0.00     0.167 HD
ATOM     49  C   UNL A   1      42.233  24.619  28.236  1.00  0.00     0.031 A 
ATOM     50  C   UNL A   1      43.821  30.722  31.285  1.00  0.00     0.031 A 
ATOM     51  C   UNL A   1      43.594  24.744  28.682  1.00  0.00     0.049 A 
ATOM     52  C   UNL A   1      44.826  29.609  31.165  1.00  0.00     0.074 A 
ATOM     53  C   UNL A   1      44.624  23.830  28.559  1.00  0.00     0.029 A 
ATOM     54  N   UNL A   1      44.111  25.851  29.336  1.00  0.00    -0.354 N 
ATOM     55  N   UNL A   1      44.693  28.435  30.598  1.00  0.00    -0.248 NA
ATOM     56  C   UNL A   1      46.155  29.849  31.746  1.00  0.00     0.031 C 
ATOM     57  C   UNL A   1      45.753  24.359  29.190  1.00  0.00     0.029 A 
ATOM     58  C   UNL A   1      45.442  25.630  29.648  1.00  0.00     0.049 A 
ATOM     59  H   UNL A   1      43.609  26.671  29.546  1.00  0.00     0.167 HD
ATOM     60  C   UNL A   1      45.924  27.806  30.733  1.00  0.00     0.074 A 
ATOM     61  C   UNL A   1      46.797  28.737  31.418  1.00  0.00     0.031 C 
ATOM     62  C   UNL A   1      46.296  26.567  30.330  1.00  0.00     0.031 A 
BRANCH  49  63
ATOM     63  C   UNL A   1      41.819  23.334  27.575  1.00  0.00    -0.014 A 
ATOM     64  C   UNL A   1      42.081  23.103  26.215  1.00  0.00     0.009 A 
ATOM     65  C   UNL A   1      41.234  22.311  28.337  1.00  0.00     0.009 A 
ATOM     66  C   UNL A   1      41.746  21.882  25.628  1.00  0.00     0.001 A 
ATOM     67  C   UNL A   1      40.926  21.081  27.754  1.00  0.00     0.001 A 
ATOM     68  C   UNL A   1      41.177  20.869  26.400  1.00  0.00     0.000 A 
ENDBRANCH  49  63
BRANCH  50  69
ATOM     69  C   UNL A   1      44.186  32.014  31.924  1.00  0.00    -0.014 A 
ATOM     70  C   UNL A   1      44.729  33.058  31.160  1.00  0.00     0.009 A 
ATOM     71  C   UNL A   1      43.987  32.215  33.299  1.00  0.00     0.009 A 
ATOM     72  C   UNL A   1      45.086  34.267  31.763  1.00  0.00     0.001 A 
ATOM     73  C   UNL A   1      44.315  33.436  33.894  1.00  0.00     0.001 A 
ATOM     74  C   UNL A   1      44.871  34.457  33.127  1.00  0.00     0.000 A 
ENDBRANCH  50  69
BRANCH  62  75
ATOM     75  C   UNL A   1      47.713  26.145  30.596  1.00  0.00    -0.014 A 
ATOM     76  C   UNL A   1      48.701  26.252  29.605  1.00  0.00     0.009 A 
ATOM     77  C   UNL A   1      48.081  25.714  31.881  1.00  0.00     0.009 A 
ATOM     78  C   UNL A   1      50.025  25.917  29.891  1.00  0.00     0.001 A 
ATOM     79  C   UNL A   1      49.412  25.410  32.172  1.00  0.00     0.001 A 
ATOM     80  C   UNL A   1      50.381  25.505  31.175  1.00  0.00     0.000 A 
ENDBRANCH  62  75
ENDBRANCH  36  37
ENDBRANCH  28  31
ENDBRANCH  26  27
ENDBRANCH  25  26
ENDBRANCH   1  25
TORSDOF 14
ENDMDL
