MODEL 1
REMARK VINA RESULT:     -11.2      0.000      0.000
REMARK SMILES Cn1nc(N2CCC(CC(=O)NCCCCCCNC(=O)c3ccc(-c4c5nc(c(-c6ccccc6)c6ccc([nH]6)c(-c6ccccc6)c6nc(c(-c7ccccc7)c7ccc4[nH]7)C=C6)C=C5)cc3)CC2)c(=O)n(C)c1=O
REMARK SMILES IDX 15 1 14 2 13 3 12 4 10 5 11 6 9 8 8 9 5 10 6 11 71 12 7 13
REMARK SMILES IDX 70 14 4 15 1 16 2 17 3 18 76 19 74 20 77 21 72 22 75 23
REMARK SMILES IDX 73 24 16 25 17 26 18 27 19 28 20 29 21 31 22 32 23 33 69 34
REMARK SMILES IDX 24 35 68 36 25 37 26 38 27 39 62 40 28 41 67 42 61 43 63 44
REMARK SMILES IDX 29 45 66 46 60 47 59 48 30 50 52 51 37 52 51 53 38 54 41 55
REMARK SMILES IDX 50 56 64 57 39 58 40 59 49 61 65 62 42 63 31 64 32 65 36 66
REMARK SMILES IDX 33 67 35 68 34 69 53 70 54 71 58 72 55 73 57 74 56 75 43 76
REMARK SMILES IDX 44 77 48 78 45 79 47 80 46 81
REMARK H PARENT 12 7 19 30 63 49 41 60
REMARK Flexibility Score: inf
ROOT
ATOM      1  C   UNL A   1      32.561  29.997  26.903  1.00  0.00     0.002 C 
ENDROOT
BRANCH   1   2
ATOM      2  C   UNL A   1      32.216  28.566  27.305  1.00  0.00     0.021 C 
BRANCH   2   3
ATOM      3  C   UNL A   1      32.996  27.478  26.552  1.00  0.00     0.116 C 
BRANCH   3   4
ATOM      4  N   UNL A   1      32.952  27.720  25.120  1.00  0.00    -0.356 N 
ATOM      5  C   UNL A   1      31.952  27.543  24.211  1.00  0.00     0.220 C 
ATOM      6  O   UNL A   1      32.221  27.712  23.019  1.00  0.00    -0.275 OA
ATOM      7  H   UNL A   1      33.788  28.071  24.741  1.00  0.00     0.163 HD
BRANCH   5   8
ATOM      8  C   UNL A   1      30.539  27.171  24.638  1.00  0.00     0.103 C 
BRANCH   8   9
ATOM      9  C   UNL A   1      30.228  25.658  24.613  1.00  0.00     0.002 C 
ATOM     10  N   UNL A   1      31.454  23.055  24.699  1.00  0.00    -0.351 N 
ATOM     11  C   UNL A   1      30.940  23.480  23.422  1.00  0.00     0.118 C 
ATOM     12  C   UNL A   1      30.671  23.459  25.852  1.00  0.00     0.118 C 
ATOM     13  C   UNL A   1      30.894  24.993  23.403  1.00  0.00     0.025 C 
ATOM     14  C   UNL A   1      30.682  24.990  25.929  1.00  0.00     0.025 C 
BRANCH  10  15
ATOM     15  C   UNL A   1      32.597  22.286  24.799  1.00  0.00     0.215 A 
ATOM     16  C   UNL A   1      33.575  18.829  24.728  1.00  0.00     0.180 C 
ATOM     17  N   UNL A   1      33.705  20.272  24.855  1.00  0.00    -0.216 N 
ATOM     18  N   UNL A   1      32.537  20.986  24.783  1.00  0.00    -0.145 NA
ATOM     19  C   UNL A   1      34.981  20.825  24.945  1.00  0.00     0.346 A 
ATOM     20  N   UNL A   1      35.045  22.200  25.027  1.00  0.00    -0.259 N 
ATOM     21  O   UNL A   1      35.993  20.121  24.948  1.00  0.00    -0.246 OA
ATOM     22  C   UNL A   1      33.932  23.005  24.970  1.00  0.00     0.299 A 
ATOM     23  C   UNL A   1      36.323  22.858  25.193  1.00  0.00     0.159 C 
ATOM     24  O   UNL A   1      33.940  24.229  25.071  1.00  0.00    -0.265 OA
ENDBRANCH  10  15
ENDBRANCH   8   9
ENDBRANCH   5   8
ENDBRANCH   3   4
ENDBRANCH   2   3
ENDBRANCH   1   2
BRANCH   1  25
ATOM     25  C   UNL A   1      31.434  30.751  26.198  1.00  0.00     0.002 C 
BRANCH  25  26
ATOM     26  C   UNL A   1      31.351  32.245  26.520  1.00  0.00     0.021 C 
BRANCH  26  27
ATOM     27  C   UNL A   1      32.565  32.808  27.255  1.00  0.00     0.116 C 
BRANCH  27  28
ATOM     28  N   UNL A   1      32.368  34.197  27.640  1.00  0.00    -0.352 N 
ATOM     29  C   UNL A   1      32.999  34.922  28.621  1.00  0.00     0.251 C 
ATOM     30  H   UNL A   1      31.687  34.687  27.124  1.00  0.00     0.163 HD
ATOM     31  O   UNL A   1      32.554  36.001  28.987  1.00  0.00    -0.269 OA
BRANCH  29  32
ATOM     32  C   UNL A   1      34.221  34.374  29.242  1.00  0.00     0.039 A 
ATOM     33  C   UNL A   1      34.117  33.655  30.432  1.00  0.00     0.014 A 
ATOM     34  C   UNL A   1      35.466  34.565  28.632  1.00  0.00     0.014 A 
ATOM     35  C   UNL A   1      35.258  33.069  30.980  1.00  0.00     0.010 A 
ATOM     36  C   UNL A   1      36.587  33.918  29.139  1.00  0.00     0.010 A 
ATOM     37  C   UNL A   1      36.495  33.166  30.319  1.00  0.00    -0.014 A 
BRANCH  37  38
ATOM     38  C   UNL A   1      37.702  32.492  30.857  1.00  0.00     0.031 A 
ATOM     39  C   UNL A   1      38.367  33.016  32.099  1.00  0.00     0.074 A 
ATOM     40  C   UNL A   1      38.209  31.422  30.212  1.00  0.00     0.049 A 
ATOM     41  N   UNL A   1      39.434  32.569  32.711  1.00  0.00    -0.248 NA
ATOM     42  C   UNL A   1      37.768  34.204  32.732  1.00  0.00     0.031 C 
ATOM     43  C   UNL A   1      37.665  30.833  28.986  1.00  0.00     0.029 A 
ATOM     44  N   UNL A   1      39.292  30.631  30.505  1.00  0.00    -0.354 N 
ATOM     45  C   UNL A   1      39.627  33.411  33.797  1.00  0.00     0.074 A 
ATOM     46  C   UNL A   1      38.609  34.435  33.730  1.00  0.00     0.031 C 
ATOM     47  C   UNL A   1      38.386  29.748  28.661  1.00  0.00     0.029 A 
ATOM     48  C   UNL A   1      39.470  29.590  29.624  1.00  0.00     0.049 A 
ATOM     49  H   UNL A   1      39.886  30.793  31.273  1.00  0.00     0.167 HD
ATOM     50  C   UNL A   1      40.549  33.321  34.782  1.00  0.00     0.031 A 
ATOM     51  C   UNL A   1      40.401  28.616  29.599  1.00  0.00     0.031 A 
ATOM     52  C   UNL A   1      41.555  32.297  34.856  1.00  0.00     0.049 A 
ATOM     53  C   UNL A   1      41.451  28.580  30.677  1.00  0.00     0.074 A 
ATOM     54  C   UNL A   1      42.520  32.112  35.830  1.00  0.00     0.029 A 
ATOM     55  N   UNL A   1      41.720  31.284  33.926  1.00  0.00    -0.354 N 
ATOM     56  N   UNL A   1      41.586  29.356  31.725  1.00  0.00    -0.248 NA
ATOM     57  C   UNL A   1      42.472  27.528  30.574  1.00  0.00     0.031 C 
ATOM     58  C   UNL A   1      43.302  31.015  35.464  1.00  0.00     0.029 A 
ATOM     59  C   UNL A   1      42.783  30.481  34.295  1.00  0.00     0.049 A 
ATOM     60  H   UNL A   1      41.164  31.155  33.124  1.00  0.00     0.167 HD
ATOM     61  C   UNL A   1      42.681  28.864  32.422  1.00  0.00     0.074 A 
ATOM     62  C   UNL A   1      43.166  27.715  31.688  1.00  0.00     0.031 C 
ATOM     63  C   UNL A   1      43.237  29.326  33.567  1.00  0.00     0.031 A 
BRANCH  50  64
ATOM     64  C   UNL A   1      40.504  34.336  35.889  1.00  0.00    -0.014 A 
ATOM     65  C   UNL A   1      41.170  35.564  35.759  1.00  0.00     0.009 A 
ATOM     66  C   UNL A   1      39.698  34.114  37.016  1.00  0.00     0.009 A 
ATOM     67  C   UNL A   1      41.035  36.548  36.740  1.00  0.00     0.001 A 
ATOM     68  C   UNL A   1      39.544  35.110  37.982  1.00  0.00     0.001 A 
ATOM     69  C   UNL A   1      40.212  36.326  37.843  1.00  0.00     0.000 A 
ENDBRANCH  50  64
BRANCH  51  70
ATOM     70  C   UNL A   1      40.379  27.576  28.535  1.00  0.00    -0.014 A 
ATOM     71  C   UNL A   1      41.037  27.797  27.314  1.00  0.00     0.009 A 
ATOM     72  C   UNL A   1      39.679  26.373  28.716  1.00  0.00     0.009 A 
ATOM     73  C   UNL A   1      40.964  26.852  26.286  1.00  0.00     0.001 A 
ATOM     74  C   UNL A   1      39.635  25.415  27.700  1.00  0.00     0.001 A 
ATOM     75  C   UNL A   1      40.266  25.661  26.482  1.00  0.00     0.000 A 
ENDBRANCH  51  70
BRANCH  63  76
ATOM     76  C   UNL A   1      44.406  28.571  34.134  1.00  0.00    -0.014 A 
ATOM     77  C   UNL A   1      45.725  28.936  33.829  1.00  0.00     0.009 A 
ATOM     78  C   UNL A   1      44.179  27.542  35.062  1.00  0.00     0.009 A 
ATOM     79  C   UNL A   1      46.796  28.271  34.429  1.00  0.00     0.001 A 
ATOM     80  C   UNL A   1      45.251  26.902  35.686  1.00  0.00     0.001 A 
ATOM     81  C   UNL A   1      46.558  27.263  35.364  1.00  0.00     0.000 A 
ENDBRANCH  63  76
ENDBRANCH  37  38
ENDBRANCH  29  32
ENDBRANCH  27  28
ENDBRANCH  26  27
ENDBRANCH  25  26
ENDBRANCH   1  25
TORSDOF 15
ENDMDL
MODEL 2
REMARK VINA RESULT:     -11.1      3.237      4.726
REMARK SMILES Cn1nc(N2CCC(CC(=O)NCCCCCCNC(=O)c3ccc(-c4c5nc(c(-c6ccccc6)c6ccc([nH]6)c(-c6ccccc6)c6nc(c(-c7ccccc7)c7ccc4[nH]7)C=C6)C=C5)cc3)CC2)c(=O)n(C)c1=O
REMARK SMILES IDX 15 1 14 2 13 3 12 4 10 5 11 6 9 8 8 9 5 10 6 11 71 12 7 13
REMARK SMILES IDX 70 14 4 15 1 16 2 17 3 18 76 19 74 20 77 21 72 22 75 23
REMARK SMILES IDX 73 24 16 25 17 26 18 27 19 28 20 29 21 31 22 32 23 33 69 34
REMARK SMILES IDX 24 35 68 36 25 37 26 38 27 39 62 40 28 41 67 42 61 43 63 44
REMARK SMILES IDX 29 45 66 46 60 47 59 48 30 50 52 51 37 52 51 53 38 54 41 55
REMARK SMILES IDX 50 56 64 57 39 58 40 59 49 61 65 62 42 63 31 64 32 65 36 66
REMARK SMILES IDX 33 67 35 68 34 69 53 70 54 71 58 72 55 73 57 74 56 75 43 76
REMARK SMILES IDX 44 77 48 78 45 79 47 80 46 81
REMARK H PARENT 12 7 19 30 63 49 41 60
REMARK Flexibility Score: inf
ROOT
ATOM      1  C   UNL A   1      31.004  29.656  24.551  1.00  0.00     0.002 C 
ENDROOT
BRANCH   1   2
ATOM      2  C   UNL A   1      31.621  28.954  23.345  1.00  0.00     0.021 C 
BRANCH   2   3
ATOM      3  C   UNL A   1      30.627  28.169  22.476  1.00  0.00     0.116 C 
BRANCH   3   4
ATOM      4  N   UNL A   1      29.505  27.709  23.276  1.00  0.00    -0.356 N 
ATOM      5  C   UNL A   1      29.189  26.471  23.749  1.00  0.00     0.220 C 
ATOM      6  O   UNL A   1      28.098  26.329  24.307  1.00  0.00    -0.275 OA
ATOM      7  H   UNL A   1      28.862  28.413  23.518  1.00  0.00     0.163 HD
BRANCH   5   8
ATOM      8  C   UNL A   1      30.149  25.296  23.621  1.00  0.00     0.103 C 
BRANCH   8   9
ATOM      9  C   UNL A   1      31.476  25.452  24.396  1.00  0.00     0.002 C 
ATOM     10  N   UNL A   1      33.852  24.038  25.197  1.00  0.00    -0.351 N 
ATOM     11  C   UNL A   1      32.880  24.295  26.229  1.00  0.00     0.118 C 
ATOM     12  C   UNL A   1      34.007  25.092  24.211  1.00  0.00     0.118 C 
ATOM     13  C   UNL A   1      31.526  24.476  25.577  1.00  0.00     0.025 C 
ATOM     14  C   UNL A   1      32.681  25.240  23.454  1.00  0.00     0.025 C 
BRANCH  10  15
ATOM     15  C   UNL A   1      34.604  22.880  25.183  1.00  0.00     0.215 A 
ATOM     16  C   UNL A   1      34.188  19.361  24.585  1.00  0.00     0.180 C 
ATOM     17  N   UNL A   1      34.852  20.608  24.933  1.00  0.00    -0.216 N 
ATOM     18  N   UNL A   1      34.053  21.721  24.966  1.00  0.00    -0.145 NA
ATOM     19  C   UNL A   1      36.233  20.604  25.113  1.00  0.00     0.346 A 
ATOM     20  N   UNL A   1      36.814  21.820  25.406  1.00  0.00    -0.259 N 
ATOM     21  O   UNL A   1      36.897  19.569  25.012  1.00  0.00    -0.246 OA
ATOM     22  C   UNL A   1      36.099  22.994  25.468  1.00  0.00     0.299 A 
ATOM     23  C   UNL A   1      38.232  21.900  25.677  1.00  0.00     0.159 C 
ATOM     24  O   UNL A   1      36.569  24.091  25.757  1.00  0.00    -0.265 OA
ENDBRANCH  10  15
ENDBRANCH   8   9
ENDBRANCH   5   8
ENDBRANCH   3   4
ENDBRANCH   2   3
ENDBRANCH   1   2
BRANCH   1  25
ATOM     25  C   UNL A   1      31.941  29.810  25.748  1.00  0.00     0.002 C 
BRANCH  25  26
ATOM     26  C   UNL A   1      32.786  28.576  26.074  1.00  0.00     0.021 C 
BRANCH  26  27
ATOM     27  C   UNL A   1      33.774  28.764  27.223  1.00  0.00     0.116 C 
BRANCH  27  28
ATOM     28  N   UNL A   1      33.755  30.126  27.735  1.00  0.00    -0.352 N 
ATOM     29  C   UNL A   1      34.706  30.786  28.475  1.00  0.00     0.251 C 
ATOM     30  H   UNL A   1      32.947  30.647  27.522  1.00  0.00     0.163 HD
ATOM     31  O   UNL A   1      34.441  31.839  29.039  1.00  0.00    -0.269 OA
BRANCH  29  32
ATOM     32  C   UNL A   1      36.055  30.200  28.594  1.00  0.00     0.039 A 
ATOM     33  C   UNL A   1      36.933  30.287  27.513  1.00  0.00     0.014 A 
ATOM     34  C   UNL A   1      36.449  29.578  29.783  1.00  0.00     0.014 A 
ATOM     35  C   UNL A   1      38.234  29.805  27.649  1.00  0.00     0.010 A 
ATOM     36  C   UNL A   1      37.768  29.167  29.941  1.00  0.00     0.010 A 
ATOM     37  C   UNL A   1      38.673  29.273  28.875  1.00  0.00    -0.014 A 
BRANCH  37  38
ATOM     38  C   UNL A   1      40.074  28.818  29.051  1.00  0.00     0.031 A 
ATOM     39  C   UNL A   1      41.090  29.735  29.671  1.00  0.00     0.074 A 
ATOM     40  C   UNL A   1      40.432  27.588  28.632  1.00  0.00     0.049 A 
ATOM     41  N   UNL A   1      42.362  29.520  29.897  1.00  0.00    -0.248 NA
ATOM     42  C   UNL A   1      40.628  31.073  30.081  1.00  0.00     0.031 C 
ATOM     43  C   UNL A   1      39.539  26.615  27.997  1.00  0.00     0.029 A 
ATOM     44  N   UNL A   1      41.640  26.939  28.688  1.00  0.00    -0.354 N 
ATOM     45  C   UNL A   1      42.845  30.685  30.478  1.00  0.00     0.074 A 
ATOM     46  C   UNL A   1      41.751  31.629  30.514  1.00  0.00     0.031 C 
ATOM     47  C   UNL A   1      40.219  25.479  27.767  1.00  0.00     0.029 A 
ATOM     48  C   UNL A   1      41.602  25.656  28.193  1.00  0.00     0.049 A 
ATOM     49  H   UNL A   1      42.457  27.353  29.048  1.00  0.00     0.167 HD
ATOM     50  C   UNL A   1      44.080  30.934  30.968  1.00  0.00     0.031 A 
ATOM     51  C   UNL A   1      42.574  24.728  28.099  1.00  0.00     0.031 A 
ATOM     52  C   UNL A   1      45.164  29.993  30.943  1.00  0.00     0.049 A 
ATOM     53  C   UNL A   1      43.954  25.060  28.598  1.00  0.00     0.074 A 
ATOM     54  C   UNL A   1      46.447  30.150  31.436  1.00  0.00     0.029 A 
ATOM     55  N   UNL A   1      45.092  28.720  30.402  1.00  0.00    -0.354 N 
ATOM     56  N   UNL A   1      44.378  26.150  29.191  1.00  0.00    -0.248 NA
ATOM     57  C   UNL A   1      44.988  24.030  28.424  1.00  0.00     0.031 C 
ATOM     58  C   UNL A   1      47.168  28.988  31.150  1.00  0.00     0.029 A 
ATOM     59  C   UNL A   1      46.314  28.086  30.535  1.00  0.00     0.049 A 
ATOM     60  H   UNL A   1      44.291  28.325  29.987  1.00  0.00     0.167 HD
ATOM     61  C   UNL A   1      45.714  25.922  29.492  1.00  0.00     0.074 A 
ATOM     62  C   UNL A   1      46.028  24.586  29.031  1.00  0.00     0.031 C 
ATOM     63  C   UNL A   1      46.603  26.748  30.094  1.00  0.00     0.031 A 
BRANCH  50  64
ATOM     64  C   UNL A   1      44.329  32.270  31.609  1.00  0.00    -0.014 A 
ATOM     65  C   UNL A   1      44.183  32.436  32.995  1.00  0.00     0.009 A 
ATOM     66  C   UNL A   1      44.824  33.337  30.844  1.00  0.00     0.009 A 
ATOM     67  C   UNL A   1      44.521  33.647  33.601  1.00  0.00     0.001 A 
ATOM     68  C   UNL A   1      45.187  34.538  31.457  1.00  0.00     0.001 A 
ATOM     69  C   UNL A   1      45.036  34.692  32.834  1.00  0.00     0.000 A 
ENDBRANCH  50  64
BRANCH  51  70
ATOM     70  C   UNL A   1      42.283  23.384  27.529  1.00  0.00    -0.014 A 
ATOM     71  C   UNL A   1      42.585  23.101  26.188  1.00  0.00     0.009 A 
ATOM     72  C   UNL A   1      41.675  22.388  28.308  1.00  0.00     0.009 A 
ATOM     73  C   UNL A   1      42.253  21.864  25.630  1.00  0.00     0.001 A 
ATOM     74  C   UNL A   1      41.374  21.139  27.758  1.00  0.00     0.001 A 
ATOM     75  C   UNL A   1      41.651  20.883  26.417  1.00  0.00     0.000 A 
ENDBRANCH  51  70
BRANCH  63  76
ATOM     76  C   UNL A   1      47.991  26.227  30.338  1.00  0.00    -0.014 A 
ATOM     77  C   UNL A   1      49.000  26.370  29.374  1.00  0.00     0.009 A 
ATOM     78  C   UNL A   1      48.313  25.674  31.588  1.00  0.00     0.009 A 
ATOM     79  C   UNL A   1      50.303  25.950  29.652  1.00  0.00     0.001 A 
ATOM     80  C   UNL A   1      49.622  25.287  31.875  1.00  0.00     0.001 A 
ATOM     81  C   UNL A   1      50.614  25.420  30.905  1.00  0.00     0.000 A 
ENDBRANCH  63  76
ENDBRANCH  37  38
ENDBRANCH  29  32
ENDBRANCH  27  28
ENDBRANCH  26  27
ENDBRANCH  25  26
ENDBRANCH   1  25
TORSDOF 15
ENDMDL
MODEL 3
REMARK VINA RESULT:     -11.0      5.361     11.767
REMARK SMILES Cn1nc(N2CCC(CC(=O)NCCCCCCNC(=O)c3ccc(-c4c5nc(c(-c6ccccc6)c6ccc([nH]6)c(-c6ccccc6)c6nc(c(-c7ccccc7)c7ccc4[nH]7)C=C6)C=C5)cc3)CC2)c(=O)n(C)c1=O
REMARK SMILES IDX 15 1 14 2 13 3 12 4 10 5 11 6 9 8 8 9 5 10 6 11 71 12 7 13
REMARK SMILES IDX 70 14 4 15 1 16 2 17 3 18 76 19 74 20 77 21 72 22 75 23
REMARK SMILES IDX 73 24 16 25 17 26 18 27 19 28 20 29 21 31 22 32 23 33 69 34
REMARK SMILES IDX 24 35 68 36 25 37 26 38 27 39 62 40 28 41 67 42 61 43 63 44
REMARK SMILES IDX 29 45 66 46 60 47 59 48 30 50 52 51 37 52 51 53 38 54 41 55
REMARK SMILES IDX 50 56 64 57 39 58 40 59 49 61 65 62 42 63 31 64 32 65 36 66
REMARK SMILES IDX 33 67 35 68 34 69 53 70 54 71 58 72 55 73 57 74 56 75 43 76
REMARK SMILES IDX 44 77 48 78 45 79 47 80 46 81
REMARK H PARENT 12 7 19 30 63 49 41 60
REMARK Flexibility Score: inf
ROOT
ATOM      1  C   UNL A   1      45.634  25.728  32.239  1.00  0.00     0.002 C 
ENDROOT
BRANCH   1   2
ATOM      2  C   UNL A   1      45.610  25.573  30.721  1.00  0.00     0.021 C 
BRANCH   2   3
ATOM      3  C   UNL A   1      46.818  26.177  29.991  1.00  0.00     0.116 C 
BRANCH   3   4
ATOM      4  N   UNL A   1      47.307  25.262  28.973  1.00  0.00    -0.356 N 
ATOM      5  C   UNL A   1      47.004  25.147  27.650  1.00  0.00     0.220 C 
ATOM      6  O   UNL A   1      47.478  24.192  27.032  1.00  0.00    -0.275 OA
ATOM      7  H   UNL A   1      47.973  24.614  29.296  1.00  0.00     0.163 HD
BRANCH   5   8
ATOM      8  C   UNL A   1      46.128  26.168  26.938  1.00  0.00     0.103 C 
BRANCH   8   9
ATOM      9  C   UNL A   1      44.691  25.690  26.629  1.00  0.00     0.002 C 
ATOM     10  N   UNL A   1      43.111  23.345  26.094  1.00  0.00    -0.351 N 
ATOM     11  C   UNL A   1      43.381  24.206  24.971  1.00  0.00     0.118 C 
ATOM     12  C   UNL A   1      42.890  24.021  27.358  1.00  0.00     0.118 C 
ATOM     13  C   UNL A   1      44.639  24.996  25.264  1.00  0.00     0.025 C 
ATOM     14  C   UNL A   1      44.180  24.754  27.745  1.00  0.00     0.025 C 
BRANCH  10  15
ATOM     15  C   UNL A   1      43.036  21.973  25.952  1.00  0.00     0.215 A 
ATOM     16  C   UNL A   1      40.595  19.341  26.111  1.00  0.00     0.180 C 
ATOM     17  N   UNL A   1      41.895  19.976  25.969  1.00  0.00    -0.216 N 
ATOM     18  N   UNL A   1      41.920  21.335  26.154  1.00  0.00    -0.145 NA
ATOM     19  C   UNL A   1      42.982  19.199  25.574  1.00  0.00     0.346 A 
ATOM     20  N   UNL A   1      44.182  19.862  25.420  1.00  0.00    -0.259 N 
ATOM     21  O   UNL A   1      42.872  17.988  25.371  1.00  0.00    -0.246 OA
ATOM     22  C   UNL A   1      44.313  21.220  25.588  1.00  0.00     0.299 A 
ATOM     23  C   UNL A   1      45.379  19.124  25.079  1.00  0.00     0.159 C 
ATOM     24  O   UNL A   1      45.366  21.845  25.493  1.00  0.00    -0.265 OA
ENDBRANCH  10  15
ENDBRANCH   8   9
ENDBRANCH   5   8
ENDBRANCH   3   4
ENDBRANCH   2   3
ENDBRANCH   1   2
BRANCH   1  25
ATOM     25  C   UNL A   1      45.127  24.512  33.012  1.00  0.00     0.002 C 
BRANCH  25  26
ATOM     26  C   UNL A   1      46.015  24.067  34.177  1.00  0.00     0.021 C 
BRANCH  26  27
ATOM     27  C   UNL A   1      47.216  24.970  34.445  1.00  0.00     0.116 C 
BRANCH  27  28
ATOM     28  N   UNL A   1      47.250  25.428  35.826  1.00  0.00    -0.352 N 
ATOM     29  C   UNL A   1      46.617  26.505  36.398  1.00  0.00     0.251 C 
ATOM     30  H   UNL A   1      47.806  24.891  36.437  1.00  0.00     0.163 HD
ATOM     31  O   UNL A   1      46.938  26.903  37.509  1.00  0.00    -0.269 OA
BRANCH  29  32
ATOM     32  C   UNL A   1      45.547  27.188  35.646  1.00  0.00     0.039 A 
ATOM     33  C   UNL A   1      44.226  26.769  35.808  1.00  0.00     0.014 A 
ATOM     34  C   UNL A   1      45.856  28.252  34.792  1.00  0.00     0.014 A 
ATOM     35  C   UNL A   1      43.204  27.462  35.161  1.00  0.00     0.010 A 
ATOM     36  C   UNL A   1      44.831  28.987  34.209  1.00  0.00     0.010 A 
ATOM     37  C   UNL A   1      43.494  28.598  34.384  1.00  0.00    -0.014 A 
BRANCH  37  38
ATOM     38  C   UNL A   1      42.410  29.382  33.745  1.00  0.00     0.031 A 
ATOM     39  C   UNL A   1      41.905  28.997  32.383  1.00  0.00     0.074 A 
ATOM     40  C   UNL A   1      41.899  30.454  34.383  1.00  0.00     0.049 A 
ATOM     41  N   UNL A   1      40.974  29.567  31.660  1.00  0.00    -0.248 NA
ATOM     42  C   UNL A   1      42.531  27.830  31.738  1.00  0.00     0.031 C 
ATOM     43  C   UNL A   1      42.322  30.939  35.700  1.00  0.00     0.029 A 
ATOM     44  N   UNL A   1      40.903  31.324  34.016  1.00  0.00    -0.354 N 
ATOM     45  C   UNL A   1      40.900  28.827  30.488  1.00  0.00     0.074 A 
ATOM     46  C   UNL A   1      41.920  27.806  30.563  1.00  0.00     0.031 C 
ATOM     47  C   UNL A   1      41.558  31.988  36.049  1.00  0.00     0.029 A 
ATOM     48  C   UNL A   1      40.625  32.280  34.966  1.00  0.00     0.049 A 
ATOM     49  H   UNL A   1      40.431  31.270  33.154  1.00  0.00     0.167 HD
ATOM     50  C   UNL A   1      40.037  28.965  29.456  1.00  0.00     0.031 A 
ATOM     51  C   UNL A   1      39.718  33.275  34.964  1.00  0.00     0.031 A 
ATOM     52  C   UNL A   1      39.015  29.973  29.386  1.00  0.00     0.049 A 
ATOM     53  C   UNL A   1      38.814  33.438  33.772  1.00  0.00     0.074 A 
ATOM     54  C   UNL A   1      38.079  30.176  28.387  1.00  0.00     0.029 A 
ATOM     55  N   UNL A   1      38.793  30.939  30.352  1.00  0.00    -0.354 N 
ATOM     56  N   UNL A   1      38.724  32.696  32.695  1.00  0.00    -0.248 NA
ATOM     57  C   UNL A   1      37.877  34.571  33.800  1.00  0.00     0.031 C 
ATOM     58  C   UNL A   1      37.320  31.298  28.726  1.00  0.00     0.029 A 
ATOM     59  C   UNL A   1      37.744  31.753  29.965  1.00  0.00     0.049 A 
ATOM     60  H   UNL A   1      39.303  31.033  31.189  1.00  0.00     0.167 HD
ATOM     61  C   UNL A   1      37.701  33.250  31.937  1.00  0.00     0.074 A 
ATOM     62  C   UNL A   1      37.189  34.380  32.682  1.00  0.00     0.031 C 
ATOM     63  C   UNL A   1      37.230  32.858  30.730  1.00  0.00     0.031 A 
BRANCH  50  64
ATOM     64  C   UNL A   1      40.128  27.983  28.322  1.00  0.00    -0.014 A 
ATOM     65  C   UNL A   1      40.970  28.233  27.227  1.00  0.00     0.009 A 
ATOM     66  C   UNL A   1      39.462  26.751  28.401  1.00  0.00     0.009 A 
ATOM     67  C   UNL A   1      41.137  27.270  26.230  1.00  0.00     0.001 A 
ATOM     68  C   UNL A   1      39.651  25.780  27.417  1.00  0.00     0.001 A 
ATOM     69  C   UNL A   1      40.488  26.040  26.332  1.00  0.00     0.000 A 
ENDBRANCH  50  64
BRANCH  51  70
ATOM     70  C   UNL A   1      39.595  34.188  36.133  1.00  0.00    -0.014 A 
ATOM     71  C   UNL A   1      40.268  35.420  36.145  1.00  0.00     0.009 A 
ATOM     72  C   UNL A   1      38.833  33.825  37.254  1.00  0.00     0.009 A 
ATOM     73  C   UNL A   1      40.210  36.251  37.267  1.00  0.00     0.001 A 
ATOM     74  C   UNL A   1      38.748  34.673  38.361  1.00  0.00     0.001 A 
ATOM     75  C   UNL A   1      39.446  35.878  38.372  1.00  0.00     0.000 A 
ENDBRANCH  51  70
BRANCH  63  76
ATOM     76  C   UNL A   1      36.074  33.620  30.146  1.00  0.00    -0.014 A 
ATOM     77  C   UNL A   1      36.113  34.107  28.832  1.00  0.00     0.009 A 
ATOM     78  C   UNL A   1      34.894  33.765  30.894  1.00  0.00     0.009 A 
ATOM     79  C   UNL A   1      34.997  34.742  28.284  1.00  0.00     0.001 A 
ATOM     80  C   UNL A   1      33.770  34.371  30.332  1.00  0.00     0.001 A 
ATOM     81  C   UNL A   1      33.824  34.864  29.030  1.00  0.00     0.000 A 
ENDBRANCH  63  76
ENDBRANCH  37  38
ENDBRANCH  29  32
ENDBRANCH  27  28
ENDBRANCH  26  27
ENDBRANCH  25  26
ENDBRANCH   1  25
TORSDOF 15
ENDMDL
