MODEL 1
REMARK VINA RESULT:     -11.8      0.000      0.000
REMARK SMILES C[C@]12c3ccccc3[C@](C)(c3ccccc31)[C@@H]1C(=O)N(c3ccc(C(=O)NCCCCCCNC(=O)c4ccc(-c5c6nc(c(-c7ccccc7)c7ccc([nH]7)c(-c7ccccc7)c7nc(c(-c8ccccc8)c8ccc5[nH]8)C=C7)C=C6)cc4)cc3)C(=O)[C@H]12
REMARK SMILES IDX 31 1 30 2 29 3 28 4 27 5 25 6 26 7 24 9 21 10 22 11 86 12
REMARK SMILES IDX 23 13 85 14 20 15 1 16 2 17 16 18 3 19 89 20 15 21 11 22
REMARK SMILES IDX 8 23 4 24 17 25 87 26 14 27 12 28 9 29 7 30 5 31 18 32 88 33
REMARK SMILES IDX 13 34 10 35 6 36 19 37 32 38 33 39 34 40 35 41 36 43 37 44
REMARK SMILES IDX 38 45 84 46 39 47 83 48 40 49 41 50 42 51 77 52 43 53 82 54
REMARK SMILES IDX 76 55 78 56 44 57 81 58 75 59 74 60 45 62 67 63 52 64 66 65
REMARK SMILES IDX 53 66 56 67 65 68 79 69 54 70 55 71 64 73 80 74 57 75 46 76
REMARK SMILES IDX 47 77 51 78 48 79 50 80 49 81 68 82 69 83 73 84 70 85 72 86
REMARK SMILES IDX 71 87 58 88 59 89 63 90 60 91 62 92 61 93
REMARK H PARENT 27 8 34 42 78 61 56 72
REMARK Flexibility Score: inf
ROOT
ATOM      1  C   UNL A   1      31.282  30.308  25.947  1.00  0.00     0.002 C 
ENDROOT
BRANCH   1   2
ATOM      2  C   UNL A   1      30.733  31.613  25.364  1.00  0.00     0.002 C 
BRANCH   2   3
ATOM      3  C   UNL A   1      29.415  31.511  24.593  1.00  0.00     0.021 C 
BRANCH   3   4
ATOM      4  C   UNL A   1      29.300  32.371  23.337  1.00  0.00     0.116 C 
BRANCH   4   5
ATOM      5  N   UNL A   1      28.610  31.711  22.244  1.00  0.00    -0.352 N 
ATOM      6  C   UNL A   1      28.725  30.428  21.765  1.00  0.00     0.251 C 
ATOM      7  O   UNL A   1      28.076  30.097  20.776  1.00  0.00    -0.269 OA
ATOM      8  H   UNL A   1      27.955  32.273  21.771  1.00  0.00     0.163 HD
BRANCH   6   9
ATOM      9  C   UNL A   1      29.663  29.458  22.379  1.00  0.00     0.039 A 
ATOM     10  C   UNL A   1      31.331  27.417  23.369  1.00  0.00     0.052 A 
ATOM     11  C   UNL A   1      29.949  27.376  23.589  1.00  0.00     0.027 A 
ATOM     12  C   UNL A   1      31.876  28.545  22.739  1.00  0.00     0.027 A 
ATOM     13  C   UNL A   1      29.121  28.398  23.112  1.00  0.00     0.016 A 
ATOM     14  C   UNL A   1      31.049  29.563  22.253  1.00  0.00     0.016 A 
BRANCH  10  15
ATOM     15  N   UNL A   1      32.155  26.321  23.717  1.00  0.00    -0.250 N 
ATOM     16  C   UNL A   1      33.287  23.726  27.273  1.00  0.00     0.022 C 
ATOM     17  C   UNL A   1      33.627  23.511  25.798  1.00  0.00     0.030 C 
ATOM     18  C   UNL A   1      33.044  22.219  25.164  1.00  0.00    -0.033 A 
ATOM     19  C   UNL A   1      35.161  23.415  25.498  1.00  0.00    -0.033 A 
ATOM     20  C   UNL A   1      33.305  24.756  24.931  1.00  0.00     0.108 C 
ATOM     21  C   UNL A   1      32.260  21.265  25.807  1.00  0.00     0.005 A 
ATOM     22  C   UNL A   1      33.449  21.997  23.801  1.00  0.00    -0.033 A 
ATOM     23  C   UNL A   1      35.462  23.358  24.092  1.00  0.00    -0.033 A 
ATOM     24  C   UNL A   1      36.188  23.444  26.438  1.00  0.00     0.005 A 
ATOM     25  C   UNL A   1      33.186  24.310  23.471  1.00  0.00     0.108 C 
ATOM     26  C   UNL A   1      32.150  25.709  24.981  1.00  0.00     0.238 C 
ATOM     27  C   UNL A   1      31.906  20.098  25.123  1.00  0.00     0.000 A 
ATOM     28  C   UNL A   1      33.101  20.824  23.138  1.00  0.00     0.005 A 
ATOM     29  C   UNL A   1      34.223  23.204  23.182  1.00  0.00     0.030 C 
ATOM     30  C   UNL A   1      36.788  23.374  23.670  1.00  0.00     0.005 A 
ATOM     31  C   UNL A   1      37.510  23.451  25.992  1.00  0.00     0.000 A 
ATOM     32  C   UNL A   1      32.970  25.630  22.813  1.00  0.00     0.238 C 
ATOM     33  O   UNL A   1      31.435  25.916  25.945  1.00  0.00    -0.274 OA
ATOM     34  C   UNL A   1      32.332  19.873  23.808  1.00  0.00     0.000 A 
ATOM     35  C   UNL A   1      34.515  23.073  21.689  1.00  0.00     0.022 C 
ATOM     36  C   UNL A   1      37.806  23.428  24.624  1.00  0.00     0.000 A 
ATOM     37  O   UNL A   1      33.326  25.937  21.686  1.00  0.00    -0.274 OA
ENDBRANCH  10  15
ENDBRANCH   6   9
ENDBRANCH   4   5
ENDBRANCH   3   4
ENDBRANCH   2   3
ENDBRANCH   1   2
BRANCH   1  38
ATOM     38  C   UNL A   1      32.784  30.089  25.791  1.00  0.00     0.021 C 
BRANCH  38  39
ATOM     39  C   UNL A   1      33.534  29.788  27.081  1.00  0.00     0.116 C 
BRANCH  39  40
ATOM     40  N   UNL A   1      33.635  30.934  27.972  1.00  0.00    -0.352 N 
ATOM     41  C   UNL A   1      34.663  31.282  28.820  1.00  0.00     0.251 C 
ATOM     42  H   UNL A   1      32.862  31.545  27.969  1.00  0.00     0.163 HD
ATOM     43  O   UNL A   1      34.551  32.224  29.598  1.00  0.00    -0.269 OA
BRANCH  41  44
ATOM     44  C   UNL A   1      35.893  30.464  28.815  1.00  0.00     0.039 A 
ATOM     45  C   UNL A   1      36.254  29.741  29.952  1.00  0.00     0.014 A 
ATOM     46  C   UNL A   1      36.743  30.514  27.708  1.00  0.00     0.014 A 
ATOM     47  C   UNL A   1      37.551  29.260  30.067  1.00  0.00     0.010 A 
ATOM     48  C   UNL A   1      38.012  29.934  27.788  1.00  0.00     0.010 A 
ATOM     49  C   UNL A   1      38.453  29.364  28.994  1.00  0.00    -0.014 A 
BRANCH  49  50
ATOM     50  C   UNL A   1      39.854  28.896  29.167  1.00  0.00     0.031 A 
ATOM     51  C   UNL A   1      40.269  27.515  28.725  1.00  0.00     0.074 A 
ATOM     52  C   UNL A   1      40.773  29.744  29.670  1.00  0.00     0.049 A 
ATOM     53  N   UNL A   1      41.449  26.950  28.802  1.00  0.00    -0.248 NA
ATOM     54  C   UNL A   1      39.238  26.655  28.118  1.00  0.00     0.031 C 
ATOM     55  C   UNL A   1      40.500  31.114  30.110  1.00  0.00     0.029 A 
ATOM     56  N   UNL A   1      42.122  29.591  29.879  1.00  0.00    -0.354 N 
ATOM     57  C   UNL A   1      41.298  25.672  28.275  1.00  0.00     0.074 A 
ATOM     58  C   UNL A   1      39.908  25.529  27.904  1.00  0.00     0.031 C 
ATOM     59  C   UNL A   1      41.649  31.688  30.495  1.00  0.00     0.029 A 
ATOM     60  C   UNL A   1      42.724  30.706  30.409  1.00  0.00     0.049 A 
ATOM     61  H   UNL A   1      42.610  28.762  29.668  1.00  0.00     0.167 HD
ATOM     62  C   UNL A   1      42.238  24.715  28.103  1.00  0.00     0.031 A 
ATOM     63  C   UNL A   1      43.992  30.917  30.814  1.00  0.00     0.031 A 
ATOM     64  C   UNL A   1      43.626  24.871  28.451  1.00  0.00     0.049 A 
ATOM     65  C   UNL A   1      45.003  29.817  30.655  1.00  0.00     0.074 A 
ATOM     66  C   UNL A   1      44.653  23.958  28.286  1.00  0.00     0.029 A 
ATOM     67  N   UNL A   1      44.182  26.003  29.022  1.00  0.00    -0.354 N 
ATOM     68  N   UNL A   1      44.843  28.625  30.135  1.00  0.00    -0.248 NA
ATOM     69  C   UNL A   1      46.368  30.089  31.128  1.00  0.00     0.031 C 
ATOM     70  C   UNL A   1      45.815  24.507  28.827  1.00  0.00     0.029 A 
ATOM     71  C   UNL A   1      45.533  25.797  29.245  1.00  0.00     0.049 A 
ATOM     72  H   UNL A   1      43.692  26.830  29.237  1.00  0.00     0.167 HD
ATOM     73  C   UNL A   1      46.089  28.013  30.200  1.00  0.00     0.074 A 
ATOM     74  C   UNL A   1      46.999  28.973  30.785  1.00  0.00     0.031 C 
ATOM     75  C   UNL A   1      46.438  26.762  29.814  1.00  0.00     0.031 A 
BRANCH  62  76
ATOM     76  C   UNL A   1      41.833  23.393  27.506  1.00  0.00    -0.014 A 
ATOM     77  C   UNL A   1      41.374  22.364  28.347  1.00  0.00     0.009 A 
ATOM     78  C   UNL A   1      42.075  23.106  26.155  1.00  0.00     0.009 A 
ATOM     79  C   UNL A   1      41.206  21.068  27.858  1.00  0.00     0.001 A 
ATOM     80  C   UNL A   1      41.877  21.814  25.661  1.00  0.00     0.001 A 
ATOM     81  C   UNL A   1      41.461  20.793  26.516  1.00  0.00     0.000 A 
ENDBRANCH  62  76
BRANCH  63  82
ATOM     82  C   UNL A   1      44.352  32.225  31.430  1.00  0.00    -0.014 A 
ATOM     83  C   UNL A   1      44.146  32.438  32.804  1.00  0.00     0.009 A 
ATOM     84  C   UNL A   1      44.853  33.279  30.654  1.00  0.00     0.009 A 
ATOM     85  C   UNL A   1      44.402  33.684  33.380  1.00  0.00     0.001 A 
ATOM     86  C   UNL A   1      45.149  34.512  31.240  1.00  0.00     0.001 A 
ATOM     87  C   UNL A   1      44.910  34.718  32.599  1.00  0.00     0.000 A 
ENDBRANCH  63  82
BRANCH  75  88
ATOM     88  C   UNL A   1      47.873  26.340  29.982  1.00  0.00    -0.014 A 
ATOM     89  C   UNL A   1      48.728  26.330  28.867  1.00  0.00     0.009 A 
ATOM     90  C   UNL A   1      48.340  25.825  31.200  1.00  0.00     0.009 A 
ATOM     91  C   UNL A   1      50.011  25.789  28.960  1.00  0.00     0.001 A 
ATOM     92  C   UNL A   1      49.638  25.318  31.300  1.00  0.00     0.001 A 
ATOM     93  C   UNL A   1      50.466  25.287  30.178  1.00  0.00     0.000 A 
ENDBRANCH  75  88
ENDBRANCH  49  50
ENDBRANCH  41  44
ENDBRANCH  39  40
ENDBRANCH  38  39
ENDBRANCH   1  38
TORSDOF 14
ENDMDL
MODEL 2
REMARK VINA RESULT:     -11.8      4.616      9.783
REMARK SMILES C[C@]12c3ccccc3[C@](C)(c3ccccc31)[C@@H]1C(=O)N(c3ccc(C(=O)NCCCCCCNC(=O)c4ccc(-c5c6nc(c(-c7ccccc7)c7ccc([nH]7)c(-c7ccccc7)c7nc(c(-c8ccccc8)c8ccc5[nH]8)C=C7)C=C6)cc4)cc3)C(=O)[C@H]12
REMARK SMILES IDX 31 1 30 2 29 3 28 4 27 5 25 6 26 7 24 9 21 10 22 11 86 12
REMARK SMILES IDX 23 13 85 14 20 15 1 16 2 17 16 18 3 19 89 20 15 21 11 22
REMARK SMILES IDX 8 23 4 24 17 25 87 26 14 27 12 28 9 29 7 30 5 31 18 32 88 33
REMARK SMILES IDX 13 34 10 35 6 36 19 37 32 38 33 39 34 40 35 41 36 43 37 44
REMARK SMILES IDX 38 45 84 46 39 47 83 48 40 49 41 50 42 51 77 52 43 53 82 54
REMARK SMILES IDX 76 55 78 56 44 57 81 58 75 59 74 60 45 62 67 63 52 64 66 65
REMARK SMILES IDX 53 66 56 67 65 68 79 69 54 70 55 71 64 73 80 74 57 75 46 76
REMARK SMILES IDX 47 77 51 78 48 79 50 80 49 81 68 82 69 83 73 84 70 85 72 86
REMARK SMILES IDX 71 87 58 88 59 89 63 90 60 91 62 92 61 93
REMARK H PARENT 27 8 34 42 78 61 56 72
REMARK Flexibility Score: inf
ROOT
ATOM      1  C   UNL A   1      36.071  34.035  28.737  1.00  0.00     0.002 C 
ENDROOT
BRANCH   1   2
ATOM      2  C   UNL A   1      37.511  33.539  28.885  1.00  0.00     0.002 C 
BRANCH   2   3
ATOM      3  C   UNL A   1      38.006  33.311  30.316  1.00  0.00     0.021 C 
BRANCH   3   4
ATOM      4  C   UNL A   1      37.422  32.107  31.049  1.00  0.00     0.116 C 
BRANCH   4   5
ATOM      5  N   UNL A   1      37.042  32.391  32.420  1.00  0.00    -0.352 N 
ATOM      6  C   UNL A   1      37.587  31.954  33.603  1.00  0.00     0.251 C 
ATOM      7  O   UNL A   1      37.059  32.279  34.664  1.00  0.00    -0.269 OA
ATOM      8  H   UNL A   1      36.270  32.994  32.518  1.00  0.00     0.163 HD
BRANCH   6   9
ATOM      9  C   UNL A   1      38.761  31.047  33.621  1.00  0.00     0.039 A 
ATOM     10  C   UNL A   1      41.014  29.389  33.937  1.00  0.00     0.052 A 
ATOM     11  C   UNL A   1      41.129  30.778  34.066  1.00  0.00     0.027 A 
ATOM     12  C   UNL A   1      39.779  28.852  33.545  1.00  0.00     0.027 A 
ATOM     13  C   UNL A   1      40.014  31.605  33.893  1.00  0.00     0.016 A 
ATOM     14  C   UNL A   1      38.661  29.676  33.381  1.00  0.00     0.016 A 
BRANCH  10  15
ATOM     15  N   UNL A   1      42.098  28.537  34.253  1.00  0.00    -0.250 N 
ATOM     16  C   UNL A   1      45.088  25.730  32.292  1.00  0.00     0.022 C 
ATOM     17  C   UNL A   1      45.078  26.248  33.731  1.00  0.00     0.030 C 
ATOM     18  C   UNL A   1      46.303  27.115  34.132  1.00  0.00    -0.033 A 
ATOM     19  C   UNL A   1      45.044  25.123  34.821  1.00  0.00    -0.033 A 
ATOM     20  C   UNL A   1      43.747  26.955  34.094  1.00  0.00     0.108 C 
ATOM     21  C   UNL A   1      47.378  27.451  33.316  1.00  0.00     0.005 A 
ATOM     22  C   UNL A   1      46.311  27.518  35.513  1.00  0.00    -0.033 A 
ATOM     23  C   UNL A   1      44.890  25.632  36.157  1.00  0.00    -0.033 A 
ATOM     24  C   UNL A   1      45.086  23.751  34.589  1.00  0.00     0.005 A 
ATOM     25  C   UNL A   1      43.994  27.856  35.306  1.00  0.00     0.108 C 
ATOM     26  C   UNL A   1      42.878  27.873  33.290  1.00  0.00     0.238 C 
ATOM     27  C   UNL A   1      48.459  28.150  33.863  1.00  0.00     0.000 A 
ATOM     28  C   UNL A   1      47.400  28.200  36.048  1.00  0.00     0.005 A 
ATOM     29  C   UNL A   1      44.988  27.171  36.267  1.00  0.00     0.030 C 
ATOM     30  C   UNL A   1      44.740  24.746  37.220  1.00  0.00     0.005 A 
ATOM     31  C   UNL A   1      44.942  22.880  35.670  1.00  0.00     0.000 A 
ATOM     32  C   UNL A   1      42.611  28.360  35.543  1.00  0.00     0.238 C 
ATOM     33  O   UNL A   1      42.846  27.947  32.076  1.00  0.00    -0.274 OA
ATOM     34  C   UNL A   1      48.476  28.509  35.217  1.00  0.00     0.000 A 
ATOM     35  C   UNL A   1      44.896  27.737  37.682  1.00  0.00     0.022 C 
ATOM     36  C   UNL A   1      44.759  23.372  36.968  1.00  0.00     0.000 A 
ATOM     37  O   UNL A   1      42.132  28.662  36.624  1.00  0.00    -0.274 OA
ENDBRANCH  10  15
ENDBRANCH   6   9
ENDBRANCH   4   5
ENDBRANCH   3   4
ENDBRANCH   2   3
ENDBRANCH   1   2
BRANCH   1  38
ATOM     38  C   UNL A   1      35.091  33.056  28.095  1.00  0.00     0.021 C 
BRANCH  38  39
ATOM     39  C   UNL A   1      34.481  32.033  29.043  1.00  0.00     0.116 C 
BRANCH  39  40
ATOM     40  N   UNL A   1      34.035  30.819  28.376  1.00  0.00    -0.352 N 
ATOM     41  C   UNL A   1      34.776  29.725  27.985  1.00  0.00     0.251 C 
ATOM     42  H   UNL A   1      33.071  30.773  28.177  1.00  0.00     0.163 HD
ATOM     43  O   UNL A   1      34.271  28.822  27.327  1.00  0.00    -0.269 OA
BRANCH  41  44
ATOM     44  C   UNL A   1      36.212  29.683  28.329  1.00  0.00     0.039 A 
ATOM     45  C   UNL A   1      37.162  30.123  27.407  1.00  0.00     0.014 A 
ATOM     46  C   UNL A   1      36.610  29.096  29.532  1.00  0.00     0.014 A 
ATOM     47  C   UNL A   1      38.494  29.773  27.585  1.00  0.00     0.010 A 
ATOM     48  C   UNL A   1      37.965  28.842  29.757  1.00  0.00     0.010 A 
ATOM     49  C   UNL A   1      38.912  29.114  28.755  1.00  0.00    -0.014 A 
BRANCH  49  50
ATOM     50  C   UNL A   1      40.332  28.696  28.892  1.00  0.00     0.031 A 
ATOM     51  C   UNL A   1      40.785  27.330  28.441  1.00  0.00     0.074 A 
ATOM     52  C   UNL A   1      41.234  29.577  29.370  1.00  0.00     0.049 A 
ATOM     53  N   UNL A   1      41.985  26.808  28.488  1.00  0.00    -0.248 NA
ATOM     54  C   UNL A   1      39.769  26.432  27.862  1.00  0.00     0.031 C 
ATOM     55  C   UNL A   1      40.924  30.938  29.815  1.00  0.00     0.029 A 
ATOM     56  N   UNL A   1      42.592  29.473  29.543  1.00  0.00    -0.354 N 
ATOM     57  C   UNL A   1      41.866  25.524  27.967  1.00  0.00     0.074 A 
ATOM     58  C   UNL A   1      40.473  25.330  27.633  1.00  0.00     0.031 C 
ATOM     59  C   UNL A   1      42.061  31.553  30.169  1.00  0.00     0.029 A 
ATOM     60  C   UNL A   1      43.168  30.610  30.056  1.00  0.00     0.049 A 
ATOM     61  H   UNL A   1      43.104  28.661  29.321  1.00  0.00     0.167 HD
ATOM     62  C   UNL A   1      42.834  24.600  27.772  1.00  0.00     0.031 A 
ATOM     63  C   UNL A   1      44.438  30.867  30.427  1.00  0.00     0.031 A 
ATOM     64  C   UNL A   1      44.225  24.806  28.083  1.00  0.00     0.049 A 
ATOM     65  C   UNL A   1      45.483  29.803  30.244  1.00  0.00     0.074 A 
ATOM     66  C   UNL A   1      45.279  23.929  27.893  1.00  0.00     0.029 A 
ATOM     67  N   UNL A   1      44.755  25.958  28.638  1.00  0.00    -0.354 N 
ATOM     68  N   UNL A   1      45.352  28.605  29.730  1.00  0.00    -0.248 NA
ATOM     69  C   UNL A   1      46.849  30.124  30.680  1.00  0.00     0.031 C 
ATOM     70  C   UNL A   1      46.435  24.520  28.402  1.00  0.00     0.029 A 
ATOM     71  C   UNL A   1      46.118  25.801  28.826  1.00  0.00     0.049 A 
ATOM     72  H   UNL A   1      44.242  26.767  28.865  1.00  0.00     0.167 HD
ATOM     73  C   UNL A   1      46.619  28.037  29.763  1.00  0.00     0.074 A 
ATOM     74  C   UNL A   1      47.510  29.030  30.323  1.00  0.00     0.031 C 
ATOM     75  C   UNL A   1      47.003  26.799  29.370  1.00  0.00     0.031 A 
BRANCH  62  76
ATOM     76  C   UNL A   1      42.462  23.263  27.188  1.00  0.00    -0.014 A 
ATOM     77  C   UNL A   1      41.984  22.246  28.032  1.00  0.00     0.009 A 
ATOM     78  C   UNL A   1      42.750  22.953  25.851  1.00  0.00     0.009 A 
ATOM     79  C   UNL A   1      41.844  20.940  27.563  1.00  0.00     0.001 A 
ATOM     80  C   UNL A   1      42.581  21.649  25.375  1.00  0.00     0.001 A 
ATOM     81  C   UNL A   1      42.146  20.642  26.236  1.00  0.00     0.000 A 
ENDBRANCH  62  76
BRANCH  63  82
ATOM     82  C   UNL A   1      44.767  32.187  31.033  1.00  0.00    -0.014 A 
ATOM     83  C   UNL A   1      45.271  33.225  30.230  1.00  0.00     0.009 A 
ATOM     84  C   UNL A   1      44.628  32.408  32.410  1.00  0.00     0.009 A 
ATOM     85  C   UNL A   1      45.660  34.441  30.796  1.00  0.00     0.001 A 
ATOM     86  C   UNL A   1      44.978  33.640  32.968  1.00  0.00     0.001 A 
ATOM     87  C   UNL A   1      45.506  34.650  32.164  1.00  0.00     0.000 A 
ENDBRANCH  63  82
BRANCH  75  88
ATOM     88  C   UNL A   1      48.455  26.427  29.501  1.00  0.00    -0.014 A 
ATOM     89  C   UNL A   1      48.904  25.786  30.669  1.00  0.00     0.009 A 
ATOM     90  C   UNL A   1      49.396  26.827  28.542  1.00  0.00     0.009 A 
ATOM     91  C   UNL A   1      50.268  25.580  30.885  1.00  0.00     0.001 A 
ATOM     92  C   UNL A   1      50.756  26.586  28.744  1.00  0.00     0.001 A 
ATOM     93  C   UNL A   1      51.193  25.976  29.921  1.00  0.00     0.000 A 
ENDBRANCH  75  88
ENDBRANCH  49  50
ENDBRANCH  41  44
ENDBRANCH  39  40
ENDBRANCH  38  39
ENDBRANCH   1  38
TORSDOF 14
ENDMDL
MODEL 3
REMARK VINA RESULT:     -11.8      0.143      5.418
REMARK SMILES C[C@]12c3ccccc3[C@](C)(c3ccccc31)[C@@H]1C(=O)N(c3ccc(C(=O)NCCCCCCNC(=O)c4ccc(-c5c6nc(c(-c7ccccc7)c7ccc([nH]7)c(-c7ccccc7)c7nc(c(-c8ccccc8)c8ccc5[nH]8)C=C7)C=C6)cc4)cc3)C(=O)[C@H]12
REMARK SMILES IDX 31 1 30 2 29 3 28 4 27 5 25 6 26 7 24 9 21 10 22 11 86 12
REMARK SMILES IDX 23 13 85 14 20 15 1 16 2 17 16 18 3 19 89 20 15 21 11 22
REMARK SMILES IDX 8 23 4 24 17 25 87 26 14 27 12 28 9 29 7 30 5 31 18 32 88 33
REMARK SMILES IDX 13 34 10 35 6 36 19 37 32 38 33 39 34 40 35 41 36 43 37 44
REMARK SMILES IDX 38 45 84 46 39 47 83 48 40 49 41 50 42 51 77 52 43 53 82 54
REMARK SMILES IDX 76 55 78 56 44 57 81 58 75 59 74 60 45 62 67 63 52 64 66 65
REMARK SMILES IDX 53 66 56 67 65 68 79 69 54 70 55 71 64 73 80 74 57 75 46 76
REMARK SMILES IDX 47 77 51 78 48 79 50 80 49 81 68 82 69 83 73 84 70 85 72 86
REMARK SMILES IDX 71 87 58 88 59 89 63 90 60 91 62 92 61 93
REMARK H PARENT 27 8 34 42 78 61 56 72
REMARK Flexibility Score: inf
ROOT
ATOM      1  C   UNL A   1      31.277  30.345  25.972  1.00  0.00     0.002 C 
ENDROOT
BRANCH   1   2
ATOM      2  C   UNL A   1      30.748  31.655  25.382  1.00  0.00     0.002 C 
BRANCH   2   3
ATOM      3  C   UNL A   1      29.433  31.566  24.602  1.00  0.00     0.021 C 
BRANCH   3   4
ATOM      4  C   UNL A   1      29.356  32.383  23.316  1.00  0.00     0.116 C 
BRANCH   4   5
ATOM      5  N   UNL A   1      28.635  31.716  22.248  1.00  0.00    -0.352 N 
ATOM      6  C   UNL A   1      28.724  30.425  21.785  1.00  0.00     0.251 C 
ATOM      7  O   UNL A   1      28.050  30.087  20.815  1.00  0.00    -0.269 OA
ATOM      8  H   UNL A   1      27.976  32.279  21.780  1.00  0.00     0.163 HD
BRANCH   6   9
ATOM      9  C   UNL A   1      29.665  29.453  22.393  1.00  0.00     0.039 A 
ATOM     10  C   UNL A   1      31.334  27.408  23.371  1.00  0.00     0.052 A 
ATOM     11  C   UNL A   1      29.954  27.369  23.599  1.00  0.00     0.027 A 
ATOM     12  C   UNL A   1      31.878  28.535  22.738  1.00  0.00     0.027 A 
ATOM     13  C   UNL A   1      29.125  28.393  23.128  1.00  0.00     0.016 A 
ATOM     14  C   UNL A   1      31.050  29.555  22.258  1.00  0.00     0.016 A 
BRANCH  10  15
ATOM     15  N   UNL A   1      32.159  26.310  23.713  1.00  0.00    -0.250 N 
ATOM     16  C   UNL A   1      33.300  23.704  27.258  1.00  0.00     0.022 C 
ATOM     17  C   UNL A   1      33.634  23.493  25.781  1.00  0.00     0.030 C 
ATOM     18  C   UNL A   1      33.048  22.203  25.146  1.00  0.00    -0.033 A 
ATOM     19  C   UNL A   1      35.168  23.396  25.475  1.00  0.00    -0.033 A 
ATOM     20  C   UNL A   1      33.311  24.740  24.919  1.00  0.00     0.108 C 
ATOM     21  C   UNL A   1      32.266  21.249  25.789  1.00  0.00     0.005 A 
ATOM     22  C   UNL A   1      33.448  21.985  23.781  1.00  0.00    -0.033 A 
ATOM     23  C   UNL A   1      35.464  23.343  24.069  1.00  0.00    -0.033 A 
ATOM     24  C   UNL A   1      36.197  23.421  26.412  1.00  0.00     0.005 A 
ATOM     25  C   UNL A   1      33.187  24.299  23.458  1.00  0.00     0.108 C 
ATOM     26  C   UNL A   1      32.157  25.695  24.976  1.00  0.00     0.238 C 
ATOM     27  C   UNL A   1      31.907  20.084  25.103  1.00  0.00     0.000 A 
ATOM     28  C   UNL A   1      33.097  20.813  23.116  1.00  0.00     0.005 A 
ATOM     29  C   UNL A   1      34.221  23.193  23.163  1.00  0.00     0.030 C 
ATOM     30  C   UNL A   1      36.788  23.358  23.642  1.00  0.00     0.005 A 
ATOM     31  C   UNL A   1      37.518  23.428  25.962  1.00  0.00     0.000 A 
ATOM     32  C   UNL A   1      32.969  25.621  22.804  1.00  0.00     0.238 C 
ATOM     33  O   UNL A   1      31.446  25.900  25.942  1.00  0.00    -0.274 OA
ATOM     34  C   UNL A   1      32.329  19.862  23.786  1.00  0.00     0.000 A 
ATOM     35  C   UNL A   1      34.508  23.065  21.668  1.00  0.00     0.022 C 
ATOM     36  C   UNL A   1      37.810  23.409  24.593  1.00  0.00     0.000 A 
ATOM     37  O   UNL A   1      33.322  25.930  21.677  1.00  0.00    -0.274 OA
ENDBRANCH  10  15
ENDBRANCH   6   9
ENDBRANCH   4   5
ENDBRANCH   3   4
ENDBRANCH   2   3
ENDBRANCH   1   2
BRANCH   1  38
ATOM     38  C   UNL A   1      32.775  30.100  25.812  1.00  0.00     0.021 C 
BRANCH  38  39
ATOM     39  C   UNL A   1      33.525  29.796  27.102  1.00  0.00     0.116 C 
BRANCH  39  40
ATOM     40  N   UNL A   1      33.648  30.947  27.984  1.00  0.00    -0.352 N 
ATOM     41  C   UNL A   1      34.698  31.298  28.805  1.00  0.00     0.251 C 
ATOM     42  H   UNL A   1      32.876  31.559  27.996  1.00  0.00     0.163 HD
ATOM     43  O   UNL A   1      34.606  32.245  29.579  1.00  0.00    -0.269 OA
BRANCH  41  44
ATOM     44  C   UNL A   1      35.926  30.479  28.774  1.00  0.00     0.039 A 
ATOM     45  C   UNL A   1      36.291  29.729  29.893  1.00  0.00     0.014 A 
ATOM     46  C   UNL A   1      36.770  30.552  27.664  1.00  0.00     0.014 A 
ATOM     47  C   UNL A   1      37.588  29.243  29.991  1.00  0.00     0.010 A 
ATOM     48  C   UNL A   1      38.038  29.968  27.725  1.00  0.00     0.010 A 
ATOM     49  C   UNL A   1      38.484  29.369  28.916  1.00  0.00    -0.014 A 
BRANCH  49  50
ATOM     50  C   UNL A   1      39.885  28.895  29.071  1.00  0.00     0.031 A 
ATOM     51  C   UNL A   1      40.945  29.791  29.662  1.00  0.00     0.074 A 
ATOM     52  C   UNL A   1      40.191  27.626  28.733  1.00  0.00     0.049 A 
ATOM     53  N   UNL A   1      42.213  29.534  29.868  1.00  0.00    -0.248 NA
ATOM     54  C   UNL A   1      40.538  31.145  30.077  1.00  0.00     0.031 C 
ATOM     55  C   UNL A   1      39.248  26.655  28.175  1.00  0.00     0.029 A 
ATOM     56  N   UNL A   1      41.370  26.929  28.826  1.00  0.00    -0.354 N 
ATOM     57  C   UNL A   1      42.755  30.692  30.415  1.00  0.00     0.074 A 
ATOM     58  C   UNL A   1      41.689  31.666  30.486  1.00  0.00     0.031 C 
ATOM     59  C   UNL A   1      39.872  25.479  28.017  1.00  0.00     0.029 A 
ATOM     60  C   UNL A   1      41.276  25.632  28.381  1.00  0.00     0.049 A 
ATOM     61  H   UNL A   1      42.203  27.319  29.179  1.00  0.00     0.167 HD
ATOM     62  C   UNL A   1      44.022  30.914  30.833  1.00  0.00     0.031 A 
ATOM     63  C   UNL A   1      42.214  24.674  28.246  1.00  0.00     0.031 A 
ATOM     64  C   UNL A   1      45.074  29.933  30.783  1.00  0.00     0.049 A 
ATOM     65  C   UNL A   1      43.625  24.966  28.675  1.00  0.00     0.074 A 
ATOM     66  C   UNL A   1      46.384  30.067  31.211  1.00  0.00     0.029 A 
ATOM     67  N   UNL A   1      44.943  28.647  30.287  1.00  0.00    -0.354 N 
ATOM     68  N   UNL A   1      44.110  26.060  29.208  1.00  0.00    -0.248 NA
ATOM     69  C   UNL A   1      44.615  23.896  28.491  1.00  0.00     0.031 C 
ATOM     70  C   UNL A   1      47.066  28.890  30.904  1.00  0.00     0.029 A 
ATOM     71  C   UNL A   1      46.158  27.989  30.370  1.00  0.00     0.049 A 
ATOM     72  H   UNL A   1      44.111  28.259  29.930  1.00  0.00     0.167 HD
ATOM     73  C   UNL A   1      45.455  25.803  29.443  1.00  0.00     0.074 A 
ATOM     74  C   UNL A   1      45.703  24.443  29.018  1.00  0.00     0.031 C 
ATOM     75  C   UNL A   1      46.397  26.629  29.958  1.00  0.00     0.031 A 
BRANCH  62  76
ATOM     76  C   UNL A   1      44.379  32.263  31.396  1.00  0.00    -0.014 A 
ATOM     77  C   UNL A   1      44.075  32.558  32.737  1.00  0.00     0.009 A 
ATOM     78  C   UNL A   1      44.844  33.294  30.566  1.00  0.00     0.009 A 
ATOM     79  C   UNL A   1      44.187  33.862  33.222  1.00  0.00     0.001 A 
ATOM     80  C   UNL A   1      44.985  34.593  31.062  1.00  0.00     0.001 A 
ATOM     81  C   UNL A   1      44.638  34.879  32.383  1.00  0.00     0.000 A 
ENDBRANCH  62  76
BRANCH  63  82
ATOM     82  C   UNL A   1      41.834  23.361  27.655  1.00  0.00    -0.014 A 
ATOM     83  C   UNL A   1      41.430  22.302  28.487  1.00  0.00     0.009 A 
ATOM     84  C   UNL A   1      41.917  23.137  26.274  1.00  0.00     0.009 A 
ATOM     85  C   UNL A   1      41.150  21.042  27.955  1.00  0.00     0.001 A 
ATOM     86  C   UNL A   1      41.594  21.887  25.738  1.00  0.00     0.001 A 
ATOM     87  C   UNL A   1      41.225  20.838  26.580  1.00  0.00     0.000 A 
ENDBRANCH  63  82
BRANCH  75  88
ATOM     88  C   UNL A   1      47.796  26.099  30.123  1.00  0.00    -0.014 A 
ATOM     89  C   UNL A   1      48.238  25.695  31.395  1.00  0.00     0.009 A 
ATOM     90  C   UNL A   1      48.712  26.127  29.063  1.00  0.00     0.009 A 
ATOM     91  C   UNL A   1      49.577  25.357  31.606  1.00  0.00     0.001 A 
ATOM     92  C   UNL A   1      50.041  25.752  29.269  1.00  0.00     0.001 A 
ATOM     93  C   UNL A   1      50.476  25.382  30.542  1.00  0.00     0.000 A 
ENDBRANCH  75  88
ENDBRANCH  49  50
ENDBRANCH  41  44
ENDBRANCH  39  40
ENDBRANCH  38  39
ENDBRANCH   1  38
TORSDOF 14
ENDMDL
