MODEL 1
REMARK VINA RESULT:     -12.1      0.000      0.000
REMARK SMILES O=C(NCCCCCCNC(=O)[C@@H]1CCCN(c2ccc3cc(S(=O)(=O)N4CCCCC4)ccc3n2)C1)c1ccc(-c2c3nc(c(-c4ccccc4)c4ccc([nH]4)c(-c4ccccc4)c4nc(c(-c5ccccc5)c5ccc2[nH]5)C=C4)C=C3)cc1
REMARK SMILES IDX 7 1 6 2 5 3 4 4 3 5 1 6 2 7 38 9 39 10 85 11 40 12 84 13
REMARK SMILES IDX 41 14 42 15 43 16 78 17 44 18 83 19 77 20 79 21 45 22 82 23
REMARK SMILES IDX 76 24 75 25 46 27 68 28 53 29 67 30 54 31 57 32 66 33 80 34
REMARK SMILES IDX 55 35 56 36 65 38 81 39 58 40 47 41 48 42 52 43 49 44 51 45
REMARK SMILES IDX 50 46 69 47 70 48 74 49 71 50 73 51 72 52 59 53 60 54 64 55
REMARK SMILES IDX 61 56 63 57 62 58 8 59 9 60 10 61 11 62 12 64 13 65 14 66
REMARK SMILES IDX 37 67 15 68 17 69 16 70 18 71 19 72 36 73 20 74 35 75 21 76
REMARK SMILES IDX 34 77 22 78 33 79 23 80 24 81 25 82 26 83 27 84 28 85 32 86
REMARK SMILES IDX 29 87 31 88 30 89
REMARK H PARENT 3 8 79 26 57 37 10 63
REMARK Flexibility Score: inf
ROOT
ATOM      1  C   UNL A   1      36.233  21.251  25.584  1.00  0.00     0.002 C 
ENDROOT
BRANCH   1   2
ATOM      2  C   UNL A   1      37.349  20.926  24.585  1.00  0.00     0.002 C 
BRANCH   2   3
ATOM      3  C   UNL A   1      38.176  19.693  24.944  1.00  0.00     0.021 C 
BRANCH   3   4
ATOM      4  C   UNL A   1      39.196  19.937  26.045  1.00  0.00     0.116 C 
BRANCH   4   5
ATOM      5  N   UNL A   1      40.328  19.028  25.956  1.00  0.00    -0.352 N 
ATOM      6  O   UNL A   1      42.510  18.473  25.760  1.00  0.00    -0.269 OA
ATOM      7  C   UNL A   1      41.666  19.316  26.044  1.00  0.00     0.251 C 
ATOM      8  H   UNL A   1      40.103  18.080  25.814  1.00  0.00     0.163 HD
BRANCH   7   9
ATOM      9  C   UNL A   1      42.081  20.669  26.467  1.00  0.00     0.039 A 
ATOM     10  C   UNL A   1      42.112  20.998  27.825  1.00  0.00     0.014 A 
ATOM     11  C   UNL A   1      42.421  21.617  25.501  1.00  0.00     0.014 A 
ATOM     12  C   UNL A   1      42.344  22.311  28.209  1.00  0.00     0.010 A 
ATOM     13  C   UNL A   1      42.754  22.914  25.896  1.00  0.00     0.010 A 
ATOM     14  C   UNL A   1      42.695  23.277  27.252  1.00  0.00    -0.014 A 
BRANCH  14  15
ATOM     15  C   UNL A   1      43.084  24.634  27.707  1.00  0.00     0.031 A 
ATOM     16  C   UNL A   1      44.524  25.050  27.791  1.00  0.00     0.074 A 
ATOM     17  C   UNL A   1      42.105  25.504  28.024  1.00  0.00     0.049 A 
ATOM     18  N   UNL A   1      45.025  26.205  28.158  1.00  0.00    -0.248 NA
ATOM     19  C   UNL A   1      45.536  24.046  27.426  1.00  0.00     0.031 C 
ATOM     20  C   UNL A   1      40.668  25.212  27.978  1.00  0.00     0.029 A 
ATOM     21  N   UNL A   1      42.164  26.812  28.429  1.00  0.00    -0.354 N 
ATOM     22  C   UNL A   1      46.404  26.063  28.084  1.00  0.00     0.074 A 
ATOM     23  C   UNL A   1      46.665  24.703  27.664  1.00  0.00     0.031 C 
ATOM     24  C   UNL A   1      39.984  26.322  28.285  1.00  0.00     0.029 A 
ATOM     25  C   UNL A   1      40.928  27.377  28.627  1.00  0.00     0.049 A 
ATOM     26  H   UNL A   1      43.009  27.299  28.564  1.00  0.00     0.167 HD
ATOM     27  C   UNL A   1      47.362  26.986  28.340  1.00  0.00     0.031 A 
ATOM     28  C   UNL A   1      40.586  28.603  29.061  1.00  0.00     0.031 A 
ATOM     29  C   UNL A   1      47.095  28.334  28.771  1.00  0.00     0.049 A 
ATOM     30  C   UNL A   1      41.672  29.582  29.396  1.00  0.00     0.074 A 
ATOM     31  C   UNL A   1      47.997  29.351  29.035  1.00  0.00     0.029 A 
ATOM     32  N   UNL A   1      45.832  28.853  29.013  1.00  0.00    -0.354 N 
ATOM     33  N   UNL A   1      42.971  29.443  29.287  1.00  0.00    -0.248 NA
ATOM     34  C   UNL A   1      41.243  30.887  29.913  1.00  0.00     0.031 C 
ATOM     35  C   UNL A   1      47.285  30.462  29.496  1.00  0.00     0.029 A 
ATOM     36  C   UNL A   1      45.932  30.163  29.452  1.00  0.00     0.049 A 
ATOM     37  H   UNL A   1      44.986  28.361  28.892  1.00  0.00     0.167 HD
ATOM     38  C   UNL A   1      43.514  30.651  29.700  1.00  0.00     0.074 A 
ATOM     39  C   UNL A   1      42.402  31.517  30.038  1.00  0.00     0.031 C 
ATOM     40  C   UNL A   1      44.818  31.011  29.790  1.00  0.00     0.031 A 
BRANCH  27  41
ATOM     41  C   UNL A   1      48.799  26.561  28.191  1.00  0.00    -0.014 A 
ATOM     42  C   UNL A   1      49.430  26.538  26.936  1.00  0.00     0.009 A 
ATOM     43  C   UNL A   1      49.549  26.228  29.330  1.00  0.00     0.009 A 
ATOM     44  C   UNL A   1      50.772  26.160  26.825  1.00  0.00     0.001 A 
ATOM     45  C   UNL A   1      50.897  25.880  29.219  1.00  0.00     0.001 A 
ATOM     46  C   UNL A   1      51.505  25.837  27.966  1.00  0.00     0.000 A 
ENDBRANCH  27  41
BRANCH  28  47
ATOM     47  C   UNL A   1      39.153  28.961  29.219  1.00  0.00    -0.014 A 
ATOM     48  C   UNL A   1      38.505  28.792  30.450  1.00  0.00     0.009 A 
ATOM     49  C   UNL A   1      38.425  29.481  28.134  1.00  0.00     0.009 A 
ATOM     50  C   UNL A   1      37.152  29.111  30.586  1.00  0.00     0.001 A 
ATOM     51  C   UNL A   1      37.084  29.831  28.282  1.00  0.00     0.001 A 
ATOM     52  C   UNL A   1      36.444  29.635  29.505  1.00  0.00     0.000 A 
ENDBRANCH  28  47
BRANCH  40  53
ATOM     53  C   UNL A   1      45.107  32.417  30.237  1.00  0.00    -0.014 A 
ATOM     54  C   UNL A   1      45.239  32.742  31.596  1.00  0.00     0.009 A 
ATOM     55  C   UNL A   1      45.275  33.427  29.277  1.00  0.00     0.009 A 
ATOM     56  C   UNL A   1      45.493  34.059  31.984  1.00  0.00     0.001 A 
ATOM     57  C   UNL A   1      45.564  34.735  29.666  1.00  0.00     0.001 A 
ATOM     58  C   UNL A   1      45.661  35.053  31.020  1.00  0.00     0.000 A 
ENDBRANCH  40  53
ENDBRANCH  14  15
ENDBRANCH   7   9
ENDBRANCH   4   5
ENDBRANCH   3   4
ENDBRANCH   2   3
ENDBRANCH   1   2
BRANCH   1  59
ATOM     59  C   UNL A   1      34.969  21.862  24.959  1.00  0.00     0.021 C 
BRANCH  59  60
ATOM     60  C   UNL A   1      34.343  22.964  25.811  1.00  0.00     0.116 C 
BRANCH  60  61
ATOM     61  N   UNL A   1      34.481  24.235  25.126  1.00  0.00    -0.356 N 
ATOM     62  C   UNL A   1      33.565  24.914  24.378  1.00  0.00     0.224 C 
ATOM     63  H   UNL A   1      35.361  24.669  25.215  1.00  0.00     0.163 HD
ATOM     64  O   UNL A   1      33.988  25.761  23.594  1.00  0.00    -0.275 OA
BRANCH  62  65
ATOM     65  C   UNL A   1      32.088  24.633  24.602  1.00  0.00     0.098 C 
ATOM     66  C   UNL A   1      31.241  24.846  23.336  1.00  0.00     0.017 C 
ATOM     67  C   UNL A   1      31.593  25.506  25.760  1.00  0.00     0.131 C 
ATOM     68  C   UNL A   1      30.986  26.321  23.003  1.00  0.00     0.022 C 
ATOM     69  N   UNL A   1      31.411  26.876  25.314  1.00  0.00    -0.356 N 
ATOM     70  C   UNL A   1      30.491  27.114  24.215  1.00  0.00     0.118 C 
BRANCH  69  71
ATOM     71  C   UNL A   1      32.022  27.943  25.924  1.00  0.00     0.129 A 
ATOM     72  C   UNL A   1      33.234  27.795  26.593  1.00  0.00     0.047 A 
ATOM     73  N   UNL A   1      31.425  29.147  25.836  1.00  0.00    -0.231 NA
ATOM     74  C   UNL A   1      33.853  28.897  27.175  1.00  0.00     0.014 A 
ATOM     75  C   UNL A   1      31.996  30.206  26.430  1.00  0.00     0.073 A 
ATOM     76  C   UNL A   1      33.226  30.137  27.111  1.00  0.00     0.002 A 
ATOM     77  C   UNL A   1      31.342  31.422  26.385  1.00  0.00     0.030 A 
ATOM     78  C   UNL A   1      33.785  31.281  27.703  1.00  0.00     0.032 A 
ATOM     79  C   UNL A   1      31.876  32.566  26.988  1.00  0.00     0.024 A 
ATOM     80  C   UNL A   1      33.105  32.501  27.640  1.00  0.00     0.083 A 
BRANCH  80  81
ATOM     81  S   UNL A   1      33.883  33.896  28.437  1.00  0.00     0.243 S 
ATOM     82  O   UNL A   1      34.548  34.633  27.383  1.00  0.00    -0.207 OA
ATOM     83  O   UNL A   1      32.857  34.510  29.255  1.00  0.00    -0.207 OA
BRANCH  81  84
ATOM     84  N   UNL A   1      35.089  33.284  29.483  1.00  0.00    -0.198 NA
ATOM     85  C   UNL A   1      36.484  33.666  29.151  1.00  0.00     0.102 C 
ATOM     86  C   UNL A   1      34.698  33.162  30.908  1.00  0.00     0.102 C 
ATOM     87  C   UNL A   1      37.507  33.005  30.062  1.00  0.00     0.017 C 
ATOM     88  C   UNL A   1      35.779  32.509  31.757  1.00  0.00     0.017 C 
ATOM     89  C   UNL A   1      37.132  33.160  31.527  1.00  0.00     0.003 C 
ENDBRANCH  81  84
ENDBRANCH  80  81
ENDBRANCH  69  71
ENDBRANCH  62  65
ENDBRANCH  60  61
ENDBRANCH  59  60
ENDBRANCH   1  59
TORSDOF 16
ENDMDL
MODEL 2
REMARK VINA RESULT:     -11.0      3.601      8.763
REMARK SMILES O=C(NCCCCCCNC(=O)[C@@H]1CCCN(c2ccc3cc(S(=O)(=O)N4CCCCC4)ccc3n2)C1)c1ccc(-c2c3nc(c(-c4ccccc4)c4ccc([nH]4)c(-c4ccccc4)c4nc(c(-c5ccccc5)c5ccc2[nH]5)C=C4)C=C3)cc1
REMARK SMILES IDX 7 1 6 2 5 3 4 4 3 5 1 6 2 7 38 9 39 10 85 11 40 12 84 13
REMARK SMILES IDX 41 14 42 15 43 16 78 17 44 18 83 19 77 20 79 21 45 22 82 23
REMARK SMILES IDX 76 24 75 25 46 27 68 28 53 29 67 30 54 31 57 32 66 33 80 34
REMARK SMILES IDX 55 35 56 36 65 38 81 39 58 40 47 41 48 42 52 43 49 44 51 45
REMARK SMILES IDX 50 46 69 47 70 48 74 49 71 50 73 51 72 52 59 53 60 54 64 55
REMARK SMILES IDX 61 56 63 57 62 58 8 59 9 60 10 61 11 62 12 64 13 65 14 66
REMARK SMILES IDX 37 67 15 68 17 69 16 70 18 71 19 72 36 73 20 74 35 75 21 76
REMARK SMILES IDX 34 77 22 78 33 79 23 80 24 81 25 82 26 83 27 84 28 85 32 86
REMARK SMILES IDX 29 87 31 88 30 89
REMARK H PARENT 3 8 79 26 57 37 10 63
REMARK Flexibility Score: inf
ROOT
ATOM      1  C   UNL A   1      39.917  28.745  27.519  1.00  0.00     0.002 C 
ENDROOT
BRANCH   1   2
ATOM      2  C   UNL A   1      40.655  27.606  26.807  1.00  0.00     0.002 C 
BRANCH   2   3
ATOM      3  C   UNL A   1      40.323  26.213  27.337  1.00  0.00     0.021 C 
BRANCH   3   4
ATOM      4  C   UNL A   1      40.010  25.200  26.247  1.00  0.00     0.116 C 
BRANCH   4   5
ATOM      5  N   UNL A   1      40.604  23.900  26.518  1.00  0.00    -0.352 N 
ATOM      6  O   UNL A   1      42.274  22.380  26.607  1.00  0.00    -0.269 OA
ATOM      7  C   UNL A   1      41.932  23.556  26.553  1.00  0.00     0.251 C 
ATOM      8  H   UNL A   1      39.968  23.170  26.699  1.00  0.00     0.163 HD
BRANCH   7   9
ATOM      9  C   UNL A   1      42.950  24.625  26.505  1.00  0.00     0.039 A 
ATOM     10  C   UNL A   1      43.562  25.061  27.683  1.00  0.00     0.014 A 
ATOM     11  C   UNL A   1      43.278  25.205  25.280  1.00  0.00     0.014 A 
ATOM     12  C   UNL A   1      44.395  26.171  27.655  1.00  0.00     0.010 A 
ATOM     13  C   UNL A   1      44.196  26.258  25.240  1.00  0.00     0.010 A 
ATOM     14  C   UNL A   1      44.743  26.763  26.430  1.00  0.00    -0.014 A 
BRANCH  14  15
ATOM     15  C   UNL A   1      45.751  27.851  26.417  1.00  0.00     0.031 A 
ATOM     16  C   UNL A   1      45.356  29.289  26.592  1.00  0.00     0.074 A 
ATOM     17  C   UNL A   1      47.047  27.516  26.266  1.00  0.00     0.049 A 
ATOM     18  N   UNL A   1      46.121  30.353  26.616  1.00  0.00    -0.248 NA
ATOM     19  C   UNL A   1      43.922  29.578  26.753  1.00  0.00     0.031 C 
ATOM     20  C   UNL A   1      47.551  26.149  26.090  1.00  0.00     0.029 A 
ATOM     21  N   UNL A   1      48.179  28.289  26.255  1.00  0.00    -0.354 N 
ATOM     22  C   UNL A   1      45.265  31.435  26.779  1.00  0.00     0.074 A 
ATOM     23  C   UNL A   1      43.920  30.903  26.820  1.00  0.00     0.031 C 
ATOM     24  C   UNL A   1      48.889  26.176  26.045  1.00  0.00     0.029 A 
ATOM     25  C   UNL A   1      49.335  27.561  26.107  1.00  0.00     0.049 A 
ATOM     26  H   UNL A   1      48.165  29.269  26.345  1.00  0.00     0.167 HD
ATOM     27  C   UNL A   1      45.577  32.748  26.888  1.00  0.00     0.031 A 
ATOM     28  C   UNL A   1      50.613  27.963  26.007  1.00  0.00     0.031 A 
ATOM     29  C   UNL A   1      46.918  33.271  26.832  1.00  0.00     0.049 A 
ATOM     30  C   UNL A   1      50.920  29.430  26.068  1.00  0.00     0.074 A 
ATOM     31  C   UNL A   1      47.338  34.585  26.954  1.00  0.00     0.029 A 
ATOM     32  N   UNL A   1      48.058  32.508  26.626  1.00  0.00    -0.354 N 
ATOM     33  N   UNL A   1      50.102  30.437  26.258  1.00  0.00    -0.248 NA
ATOM     34  C   UNL A   1      52.326  29.815  25.902  1.00  0.00     0.031 C 
ATOM     35  C   UNL A   1      48.722  34.624  26.759  1.00  0.00     0.029 A 
ATOM     36  C   UNL A   1      49.176  33.326  26.588  1.00  0.00     0.049 A 
ATOM     37  H   UNL A   1      48.071  31.529  26.522  1.00  0.00     0.167 HD
ATOM     38  C   UNL A   1      50.898  31.573  26.257  1.00  0.00     0.074 A 
ATOM     39  C   UNL A   1      52.265  31.127  26.072  1.00  0.00     0.031 C 
ATOM     40  C   UNL A   1      50.529  32.870  26.397  1.00  0.00     0.031 A 
BRANCH  27  41
ATOM     41  C   UNL A   1      44.441  33.724  27.047  1.00  0.00    -0.014 A 
ATOM     42  C   UNL A   1      43.948  34.074  28.315  1.00  0.00     0.009 A 
ATOM     43  C   UNL A   1      43.891  34.344  25.914  1.00  0.00     0.009 A 
ATOM     44  C   UNL A   1      42.907  34.999  28.440  1.00  0.00     0.001 A 
ATOM     45  C   UNL A   1      42.871  35.290  26.044  1.00  0.00     0.001 A 
ATOM     46  C   UNL A   1      42.374  35.609  27.306  1.00  0.00     0.000 A 
ENDBRANCH  27  41
BRANCH  28  47
ATOM     47  C   UNL A   1      51.694  26.959  25.821  1.00  0.00    -0.014 A 
ATOM     48  C   UNL A   1      52.341  26.390  26.927  1.00  0.00     0.009 A 
ATOM     49  C   UNL A   1      52.081  26.562  24.529  1.00  0.00     0.009 A 
ATOM     50  C   UNL A   1      53.370  25.465  26.744  1.00  0.00     0.001 A 
ATOM     51  C   UNL A   1      53.085  25.611  24.351  1.00  0.00     0.001 A 
ATOM     52  C   UNL A   1      53.737  25.071  25.457  1.00  0.00     0.000 A 
ENDBRANCH  28  47
BRANCH  40  53
ATOM     53  C   UNL A   1      51.629  33.894  26.397  1.00  0.00    -0.014 A 
ATOM     54  C   UNL A   1      52.295  34.256  27.578  1.00  0.00     0.009 A 
ATOM     55  C   UNL A   1      52.020  34.489  25.187  1.00  0.00     0.009 A 
ATOM     56  C   UNL A   1      53.304  35.221  27.552  1.00  0.00     0.001 A 
ATOM     57  C   UNL A   1      53.052  35.426  25.158  1.00  0.00     0.001 A 
ATOM     58  C   UNL A   1      53.685  35.801  26.342  1.00  0.00     0.000 A 
ENDBRANCH  40  53
ENDBRANCH  14  15
ENDBRANCH   7   9
ENDBRANCH   4   5
ENDBRANCH   3   4
ENDBRANCH   2   3
ENDBRANCH   1   2
BRANCH   1  59
ATOM     59  C   UNL A   1      39.140  28.322  28.775  1.00  0.00     0.021 C 
BRANCH  59  60
ATOM     60  C   UNL A   1      39.072  29.412  29.843  1.00  0.00     0.116 C 
BRANCH  60  61
ATOM     61  N   UNL A   1      37.881  29.220  30.647  1.00  0.00    -0.356 N 
ATOM     62  C   UNL A   1      37.240  30.107  31.461  1.00  0.00     0.224 C 
ATOM     63  H   UNL A   1      37.478  28.323  30.597  1.00  0.00     0.163 HD
ATOM     64  O   UNL A   1      36.491  29.649  32.320  1.00  0.00    -0.275 OA
BRANCH  62  65
ATOM     65  C   UNL A   1      37.435  31.595  31.216  1.00  0.00     0.098 C 
ATOM     66  C   UNL A   1      36.569  32.470  32.137  1.00  0.00     0.017 C 
ATOM     67  C   UNL A   1      37.156  31.890  29.738  1.00  0.00     0.131 C 
ATOM     68  C   UNL A   1      35.091  32.523  31.731  1.00  0.00     0.022 C 
ATOM     69  N   UNL A   1      35.725  31.892  29.488  1.00  0.00    -0.356 N 
ATOM     70  C   UNL A   1      34.907  32.826  30.242  1.00  0.00     0.118 C 
BRANCH  69  71
ATOM     71  C   UNL A   1      35.136  31.096  28.537  1.00  0.00     0.129 A 
ATOM     72  C   UNL A   1      35.769  29.951  28.061  1.00  0.00     0.047 A 
ATOM     73  N   UNL A   1      33.913  31.443  28.093  1.00  0.00    -0.231 NA
ATOM     74  C   UNL A   1      35.139  29.141  27.121  1.00  0.00     0.014 A 
ATOM     75  C   UNL A   1      33.318  30.689  27.157  1.00  0.00     0.073 A 
ATOM     76  C   UNL A   1      33.888  29.510  26.640  1.00  0.00     0.002 A 
ATOM     77  C   UNL A   1      32.090  31.090  26.666  1.00  0.00     0.030 A 
ATOM     78  C   UNL A   1      33.213  28.750  25.671  1.00  0.00     0.032 A 
ATOM     79  C   UNL A   1      31.416  30.355  25.686  1.00  0.00     0.024 A 
ATOM     80  C   UNL A   1      31.971  29.177  25.192  1.00  0.00     0.083 A 
BRANCH  80  81
ATOM     81  S   UNL A   1      31.197  28.157  23.948  1.00  0.00     0.243 S 
ATOM     82  O   UNL A   1      32.177  28.005  22.894  1.00  0.00    -0.207 OA
ATOM     83  O   UNL A   1      30.662  27.009  24.652  1.00  0.00    -0.207 OA
BRANCH  81  84
ATOM     84  N   UNL A   1      29.879  29.038  23.309  1.00  0.00    -0.198 NA
ATOM     85  C   UNL A   1      30.205  29.974  22.205  1.00  0.00     0.102 C 
ATOM     86  C   UNL A   1      28.581  28.320  23.281  1.00  0.00     0.102 C 
ATOM     87  C   UNL A   1      29.005  30.794  21.756  1.00  0.00     0.017 C 
ATOM     88  C   UNL A   1      27.436  29.200  22.805  1.00  0.00     0.017 C 
ATOM     89  C   UNL A   1      27.789  29.917  21.512  1.00  0.00     0.003 C 
ENDBRANCH  81  84
ENDBRANCH  80  81
ENDBRANCH  69  71
ENDBRANCH  62  65
ENDBRANCH  60  61
ENDBRANCH  59  60
ENDBRANCH   1  59
TORSDOF 16
ENDMDL
MODEL 3
REMARK VINA RESULT:     -10.9      3.441      8.704
REMARK SMILES O=C(NCCCCCCNC(=O)[C@@H]1CCCN(c2ccc3cc(S(=O)(=O)N4CCCCC4)ccc3n2)C1)c1ccc(-c2c3nc(c(-c4ccccc4)c4ccc([nH]4)c(-c4ccccc4)c4nc(c(-c5ccccc5)c5ccc2[nH]5)C=C4)C=C3)cc1
REMARK SMILES IDX 7 1 6 2 5 3 4 4 3 5 1 6 2 7 38 9 39 10 85 11 40 12 84 13
REMARK SMILES IDX 41 14 42 15 43 16 78 17 44 18 83 19 77 20 79 21 45 22 82 23
REMARK SMILES IDX 76 24 75 25 46 27 68 28 53 29 67 30 54 31 57 32 66 33 80 34
REMARK SMILES IDX 55 35 56 36 65 38 81 39 58 40 47 41 48 42 52 43 49 44 51 45
REMARK SMILES IDX 50 46 69 47 70 48 74 49 71 50 73 51 72 52 59 53 60 54 64 55
REMARK SMILES IDX 61 56 63 57 62 58 8 59 9 60 10 61 11 62 12 64 13 65 14 66
REMARK SMILES IDX 37 67 15 68 17 69 16 70 18 71 19 72 36 73 20 74 35 75 21 76
REMARK SMILES IDX 34 77 22 78 33 79 23 80 24 81 25 82 26 83 27 84 28 85 32 86
REMARK SMILES IDX 29 87 31 88 30 89
REMARK H PARENT 3 8 79 26 57 37 10 63
REMARK Flexibility Score: inf
ROOT
ATOM      1  C   UNL A   1      39.073  28.207  28.546  1.00  0.00     0.002 C 
ENDROOT
BRANCH   1   2
ATOM      2  C   UNL A   1      40.090  27.176  28.045  1.00  0.00     0.002 C 
BRANCH   2   3
ATOM      3  C   UNL A   1      39.517  25.776  27.834  1.00  0.00     0.021 C 
BRANCH   3   4
ATOM      4  C   UNL A   1      39.801  25.197  26.457  1.00  0.00     0.116 C 
BRANCH   4   5
ATOM      5  N   UNL A   1      40.447  23.897  26.531  1.00  0.00    -0.352 N 
ATOM      6  O   UNL A   1      42.161  22.436  26.331  1.00  0.00    -0.269 OA
ATOM      7  C   UNL A   1      41.784  23.598  26.441  1.00  0.00     0.251 C 
ATOM      8  H   UNL A   1      39.846  23.128  26.662  1.00  0.00     0.163 HD
BRANCH   7   9
ATOM      9  C   UNL A   1      42.766  24.700  26.460  1.00  0.00     0.039 A 
ATOM     10  C   UNL A   1      43.165  25.301  25.263  1.00  0.00     0.014 A 
ATOM     11  C   UNL A   1      43.303  25.121  27.676  1.00  0.00     0.014 A 
ATOM     12  C   UNL A   1      44.203  26.222  25.269  1.00  0.00     0.010 A 
ATOM     13  C   UNL A   1      44.277  26.122  27.690  1.00  0.00     0.010 A 
ATOM     14  C   UNL A   1      44.751  26.663  26.484  1.00  0.00    -0.014 A 
BRANCH  14  15
ATOM     15  C   UNL A   1      45.753  27.757  26.468  1.00  0.00     0.031 A 
ATOM     16  C   UNL A   1      45.349  29.193  26.633  1.00  0.00     0.074 A 
ATOM     17  C   UNL A   1      47.052  27.428  26.323  1.00  0.00     0.049 A 
ATOM     18  N   UNL A   1      46.108  30.262  26.654  1.00  0.00    -0.248 NA
ATOM     19  C   UNL A   1      43.913  29.474  26.788  1.00  0.00     0.031 C 
ATOM     20  C   UNL A   1      47.564  26.063  26.157  1.00  0.00     0.029 A 
ATOM     21  N   UNL A   1      48.179  28.207  26.312  1.00  0.00    -0.354 N 
ATOM     22  C   UNL A   1      45.245  31.339  26.808  1.00  0.00     0.074 A 
ATOM     23  C   UNL A   1      43.903  30.799  26.848  1.00  0.00     0.031 C 
ATOM     24  C   UNL A   1      48.902  26.098  26.117  1.00  0.00     0.029 A 
ATOM     25  C   UNL A   1      49.339  27.486  26.173  1.00  0.00     0.049 A 
ATOM     26  H   UNL A   1      48.159  29.188  26.396  1.00  0.00     0.167 HD
ATOM     27  C   UNL A   1      45.548  32.655  26.910  1.00  0.00     0.031 A 
ATOM     28  C   UNL A   1      50.616  27.894  26.075  1.00  0.00     0.031 A 
ATOM     29  C   UNL A   1      46.887  33.186  26.856  1.00  0.00     0.049 A 
ATOM     30  C   UNL A   1      50.914  29.364  26.128  1.00  0.00     0.074 A 
ATOM     31  C   UNL A   1      47.298  34.503  26.972  1.00  0.00     0.029 A 
ATOM     32  N   UNL A   1      48.031  32.428  26.658  1.00  0.00    -0.354 N 
ATOM     33  N   UNL A   1      50.089  30.367  26.309  1.00  0.00    -0.248 NA
ATOM     34  C   UNL A   1      52.318  29.756  25.965  1.00  0.00     0.031 C 
ATOM     35  C   UNL A   1      48.682  34.549  26.782  1.00  0.00     0.029 A 
ATOM     36  C   UNL A   1      49.145  33.252  26.619  1.00  0.00     0.049 A 
ATOM     37  H   UNL A   1      48.051  31.448  26.560  1.00  0.00     0.167 HD
ATOM     38  C   UNL A   1      50.878  31.508  26.305  1.00  0.00     0.074 A 
ATOM     39  C   UNL A   1      52.248  31.069  26.127  1.00  0.00     0.031 C 
ATOM     40  C   UNL A   1      50.501  32.803  26.436  1.00  0.00     0.031 A 
BRANCH  27  41
ATOM     41  C   UNL A   1      44.406  33.625  27.060  1.00  0.00    -0.014 A 
ATOM     42  C   UNL A   1      43.894  33.964  28.324  1.00  0.00     0.009 A 
ATOM     43  C   UNL A   1      43.870  34.251  25.924  1.00  0.00     0.009 A 
ATOM     44  C   UNL A   1      42.847  34.883  28.440  1.00  0.00     0.001 A 
ATOM     45  C   UNL A   1      42.845  35.192  26.046  1.00  0.00     0.001 A 
ATOM     46  C   UNL A   1      42.328  35.500  27.303  1.00  0.00     0.000 A 
ENDBRANCH  27  41
BRANCH  28  47
ATOM     47  C   UNL A   1      51.703  26.897  25.897  1.00  0.00    -0.014 A 
ATOM     48  C   UNL A   1      52.374  26.365  27.008  1.00  0.00     0.009 A 
ATOM     49  C   UNL A   1      52.071  26.467  24.611  1.00  0.00     0.009 A 
ATOM     50  C   UNL A   1      53.409  25.444  26.833  1.00  0.00     0.001 A 
ATOM     51  C   UNL A   1      53.081  25.521  24.442  1.00  0.00     0.001 A 
ATOM     52  C   UNL A   1      53.758  25.019  25.551  1.00  0.00     0.000 A 
ENDBRANCH  28  47
BRANCH  40  53
ATOM     53  C   UNL A   1      51.595  33.834  26.433  1.00  0.00    -0.014 A 
ATOM     54  C   UNL A   1      52.251  34.211  27.616  1.00  0.00     0.009 A 
ATOM     55  C   UNL A   1      51.991  34.419  25.221  1.00  0.00     0.009 A 
ATOM     56  C   UNL A   1      53.254  35.182  27.588  1.00  0.00     0.001 A 
ATOM     57  C   UNL A   1      53.018  35.363  25.190  1.00  0.00     0.001 A 
ATOM     58  C   UNL A   1      53.641  35.753  26.375  1.00  0.00     0.000 A 
ENDBRANCH  40  53
ENDBRANCH  14  15
ENDBRANCH   7   9
ENDBRANCH   4   5
ENDBRANCH   3   4
ENDBRANCH   2   3
ENDBRANCH   1   2
BRANCH   1  59
ATOM     59  C   UNL A   1      39.663  29.587  28.873  1.00  0.00     0.021 C 
BRANCH  59  60
ATOM     60  C   UNL A   1      39.533  29.971  30.346  1.00  0.00     0.116 C 
BRANCH  60  61
ATOM     61  N   UNL A   1      38.220  29.588  30.825  1.00  0.00    -0.356 N 
ATOM     62  C   UNL A   1      37.260  30.356  31.415  1.00  0.00     0.224 C 
ATOM     63  H   UNL A   1      37.987  28.638  30.706  1.00  0.00     0.163 HD
ATOM     64  O   UNL A   1      36.395  29.780  32.071  1.00  0.00    -0.275 OA
BRANCH  62  65
ATOM     65  C   UNL A   1      37.279  31.858  31.174  1.00  0.00     0.098 C 
ATOM     66  C   UNL A   1      36.306  32.620  32.090  1.00  0.00     0.017 C 
ATOM     67  C   UNL A   1      36.979  32.121  29.695  1.00  0.00     0.131 C 
ATOM     68  C   UNL A   1      34.837  32.497  31.671  1.00  0.00     0.022 C 
ATOM     69  N   UNL A   1      35.561  31.953  29.432  1.00  0.00    -0.356 N 
ATOM     70  C   UNL A   1      34.631  32.781  30.180  1.00  0.00     0.118 C 
BRANCH  69  71
ATOM     71  C   UNL A   1      35.079  31.096  28.474  1.00  0.00     0.129 A 
ATOM     72  C   UNL A   1      35.829  30.007  28.037  1.00  0.00     0.047 A 
ATOM     73  N   UNL A   1      33.846  31.325  27.985  1.00  0.00    -0.231 NA
ATOM     74  C   UNL A   1      35.308  29.132  27.090  1.00  0.00     0.014 A 
ATOM     75  C   UNL A   1      33.354  30.508  27.042  1.00  0.00     0.073 A 
ATOM     76  C   UNL A   1      34.046  29.380  26.561  1.00  0.00     0.002 A 
ATOM     77  C   UNL A   1      32.113  30.790  26.503  1.00  0.00     0.030 A 
ATOM     78  C   UNL A   1      33.476  28.550  25.582  1.00  0.00     0.032 A 
ATOM     79  C   UNL A   1      31.542  29.985  25.513  1.00  0.00     0.024 A 
ATOM     80  C   UNL A   1      32.218  28.856  25.056  1.00  0.00     0.083 A 
BRANCH  80  81
ATOM     81  S   UNL A   1      31.582  27.755  23.803  1.00  0.00     0.243 S 
ATOM     82  O   UNL A   1      30.248  28.227  23.501  1.00  0.00    -0.207 OA
ATOM     83  O   UNL A   1      32.606  27.683  22.780  1.00  0.00    -0.207 OA
BRANCH  81  84
ATOM     84  N   UNL A   1      31.438  26.204  24.507  1.00  0.00    -0.198 NA
ATOM     85  C   UNL A   1      32.527  25.248  24.188  1.00  0.00     0.102 C 
ATOM     86  C   UNL A   1      30.825  26.168  25.857  1.00  0.00     0.102 C 
ATOM     87  C   UNL A   1      32.280  23.862  24.765  1.00  0.00     0.017 C 
ATOM     88  C   UNL A   1      30.627  24.751  26.372  1.00  0.00     0.017 C 
ATOM     89  C   UNL A   1      31.899  23.930  26.234  1.00  0.00     0.003 C 
ENDBRANCH  81  84
ENDBRANCH  80  81
ENDBRANCH  69  71
ENDBRANCH  62  65
ENDBRANCH  60  61
ENDBRANCH  59  60
ENDBRANCH   1  59
TORSDOF 16
ENDMDL
