MODEL 1
REMARK VINA RESULT:     -10.6      0.000      0.000
REMARK SMILES CN(c1ccccc1C(=O)NCCCCCCNC(=O)c1ccc(-c2c3nc(c(-c4ccccc4)c4ccc([nH]4)c(-c4ccccc4)c4nc(c(-c5ccccc5)c5ccc2[nH]5)C=C4)C=C3)cc1)S(=O)(=O)c1ccc(I)cc1
REMARK SMILES IDX 14 1 13 2 12 3 11 4 9 5 10 6 8 8 3 9 4 10 5 11 7 12 6 13
REMARK SMILES IDX 2 14 1 15 69 16 70 17 71 18 72 19 73 20 78 21 74 22 77 23
REMARK SMILES IDX 75 24 76 25 15 26 16 27 17 28 18 29 19 30 20 32 21 33 22 34
REMARK SMILES IDX 68 35 23 36 67 37 24 38 25 39 26 40 61 41 27 42 66 43 60 44
REMARK SMILES IDX 62 45 28 46 65 47 59 48 58 49 29 51 51 52 36 53 50 54 37 55
REMARK SMILES IDX 40 56 49 57 63 58 38 59 39 60 48 62 64 63 41 64 30 65 31 66
REMARK SMILES IDX 35 67 32 68 34 69 33 70 52 71 53 72 57 73 54 74 56 75 55 76
REMARK SMILES IDX 42 77 43 78 47 79 44 80 46 81 45 82
REMARK H PARENT 11 7 18 31 62 50 40 61
REMARK Flexibility Score: inf
ROOT
ATOM      1  C   UNL A   1      33.813  30.444  27.466  1.00  0.00     0.002 C 
ENDROOT
BRANCH   1   2
ATOM      2  C   UNL A   1      34.558  29.129  27.227  1.00  0.00     0.021 C 
BRANCH   2   3
ATOM      3  C   UNL A   1      33.809  28.141  26.326  1.00  0.00     0.116 C 
BRANCH   3   4
ATOM      4  N   UNL A   1      34.039  28.440  24.934  1.00  0.00    -0.352 N 
ATOM      5  C   UNL A   1      33.332  28.495  23.771  1.00  0.00     0.253 C 
ATOM      6  O   UNL A   1      34.039  28.825  22.806  1.00  0.00    -0.269 OA
ATOM      7  H   UNL A   1      34.983  28.672  24.778  1.00  0.00     0.163 HD
BRANCH   5   8
ATOM      8  C   UNL A   1      31.859  28.303  23.514  1.00  0.00     0.064 A 
ATOM      9  C   UNL A   1      31.080  27.151  23.293  1.00  0.00     0.064 A 
ATOM     10  C   UNL A   1      29.672  27.270  23.150  1.00  0.00     0.028 A 
ATOM     11  C   UNL A   1      29.027  28.503  23.162  1.00  0.00     0.002 A 
ATOM     12  C   UNL A   1      31.158  29.542  23.508  1.00  0.00     0.016 A 
ATOM     13  C   UNL A   1      29.777  29.648  23.325  1.00  0.00     0.001 A 
BRANCH   9  14
ATOM     14  N   UNL A   1      31.587  25.826  23.092  1.00  0.00    -0.269 N 
ATOM     15  C   UNL A   1      32.485  25.601  21.944  1.00  0.00     0.164 C 
BRANCH  14  16
ATOM     16  S   UNL A   1      31.633  24.744  24.409  1.00  0.00     0.264 S 
ATOM     17  O   UNL A   1      31.550  25.502  25.637  1.00  0.00    -0.201 OA
ATOM     18  O   UNL A   1      30.665  23.697  24.132  1.00  0.00    -0.201 OA
BRANCH  16  19
ATOM     19  C   UNL A   1      33.246  23.979  24.423  1.00  0.00     0.088 A 
ATOM     20  C   UNL A   1      34.309  24.637  25.055  1.00  0.00     0.023 A 
ATOM     21  C   UNL A   1      33.397  22.650  24.012  1.00  0.00     0.023 A 
ATOM     22  C   UNL A   1      35.538  23.995  25.217  1.00  0.00     0.016 A 
ATOM     23  C   UNL A   1      34.618  21.994  24.212  1.00  0.00     0.016 A 
ATOM     24  C   UNL A   1      35.685  22.671  24.806  1.00  0.00     0.013 A 
ATOM     25  I   UNL A   1      37.486  21.689  25.136  1.00  0.00    -0.044 I 
ENDBRANCH  16  19
ENDBRANCH  14  16
ENDBRANCH   9  14
ENDBRANCH   5   8
ENDBRANCH   3   4
ENDBRANCH   2   3
ENDBRANCH   1   2
BRANCH   1  26
ATOM     26  C   UNL A   1      32.316  30.431  27.144  1.00  0.00     0.002 C 
BRANCH  26  27
ATOM     27  C   UNL A   1      31.647  31.800  26.990  1.00  0.00     0.021 C 
BRANCH  27  28
ATOM     28  C   UNL A   1      32.589  32.973  26.719  1.00  0.00     0.116 C 
BRANCH  28  29
ATOM     29  N   UNL A   1      32.387  34.075  27.643  1.00  0.00    -0.352 N 
ATOM     30  C   UNL A   1      33.074  34.454  28.765  1.00  0.00     0.251 C 
ATOM     31  H   UNL A   1      31.619  34.651  27.424  1.00  0.00     0.163 HD
ATOM     32  O   UNL A   1      32.614  35.341  29.479  1.00  0.00    -0.269 OA
BRANCH  30  33
ATOM     33  C   UNL A   1      34.349  33.807  29.149  1.00  0.00     0.039 A 
ATOM     34  C   UNL A   1      35.481  34.069  28.369  1.00  0.00     0.014 A 
ATOM     35  C   UNL A   1      34.437  32.900  30.209  1.00  0.00     0.014 A 
ATOM     36  C   UNL A   1      36.702  33.467  28.677  1.00  0.00     0.010 A 
ATOM     37  C   UNL A   1      35.670  32.342  30.553  1.00  0.00     0.010 A 
ATOM     38  C   UNL A   1      36.813  32.617  29.789  1.00  0.00    -0.014 A 
BRANCH  38  39
ATOM     39  C   UNL A   1      38.123  32.027  30.162  1.00  0.00     0.031 A 
ATOM     40  C   UNL A   1      39.069  32.765  31.068  1.00  0.00     0.074 A 
ATOM     41  C   UNL A   1      38.484  30.837  29.641  1.00  0.00     0.049 A 
ATOM     42  N   UNL A   1      40.262  32.411  31.478  1.00  0.00    -0.248 NA
ATOM     43  C   UNL A   1      38.630  34.081  31.561  1.00  0.00     0.031 C 
ATOM     44  C   UNL A   1      37.679  30.040  28.713  1.00  0.00     0.029 A 
ATOM     45  N   UNL A   1      39.626  30.096  29.814  1.00  0.00    -0.354 N 
ATOM     46  C   UNL A   1      40.723  33.465  32.255  1.00  0.00     0.074 A 
ATOM     47  C   UNL A   1      39.696  34.484  32.239  1.00  0.00     0.031 C 
ATOM     48  C   UNL A   1      38.349  28.915  28.408  1.00  0.00     0.029 A 
ATOM     49  C   UNL A   1      39.635  28.925  29.096  1.00  0.00     0.049 A 
ATOM     50  H   UNL A   1      40.368  30.377  30.395  1.00  0.00     0.167 HD
ATOM     51  C   UNL A   1      41.892  33.570  32.931  1.00  0.00     0.031 A 
ATOM     52  C   UNL A   1      40.575  27.967  28.998  1.00  0.00     0.031 A 
ATOM     53  C   UNL A   1      42.904  32.549  32.975  1.00  0.00     0.049 A 
ATOM     54  C   UNL A   1      41.850  28.098  29.780  1.00  0.00     0.074 A 
ATOM     55  C   UNL A   1      44.081  32.533  33.705  1.00  0.00     0.029 A 
ATOM     56  N   UNL A   1      42.862  31.364  32.258  1.00  0.00    -0.354 N 
ATOM     57  N   UNL A   1      42.231  29.063  30.581  1.00  0.00    -0.248 NA
ATOM     58  C   UNL A   1      42.820  27.000  29.654  1.00  0.00     0.031 C 
ATOM     59  C   UNL A   1      44.772  31.357  33.397  1.00  0.00     0.029 A 
ATOM     60  C   UNL A   1      44.005  30.622  32.507  1.00  0.00     0.049 A 
ATOM     61  H   UNL A   1      42.129  31.091  31.661  1.00  0.00     0.167 HD
ATOM     62  C   UNL A   1      43.473  28.679  31.068  1.00  0.00     0.074 A 
ATOM     63  C   UNL A   1      43.774  27.387  30.487  1.00  0.00     0.031 C 
ATOM     64  C   UNL A   1      44.292  29.341  31.920  1.00  0.00     0.031 A 
BRANCH  51  65
ATOM     65  C   UNL A   1      42.150  34.845  33.682  1.00  0.00    -0.014 A 
ATOM     66  C   UNL A   1      41.717  35.010  35.007  1.00  0.00     0.009 A 
ATOM     67  C   UNL A   1      42.888  35.873  33.074  1.00  0.00     0.009 A 
ATOM     68  C   UNL A   1      41.997  36.189  35.699  1.00  0.00     0.001 A 
ATOM     69  C   UNL A   1      43.185  37.042  33.776  1.00  0.00     0.001 A 
ATOM     70  C   UNL A   1      42.735  37.201  35.085  1.00  0.00     0.000 A 
ENDBRANCH  51  65
BRANCH  52  71
ATOM     71  C   UNL A   1      40.345  26.788  28.125  1.00  0.00    -0.014 A 
ATOM     72  C   UNL A   1      40.891  26.739  26.834  1.00  0.00     0.009 A 
ATOM     73  C   UNL A   1      39.566  25.712  28.576  1.00  0.00     0.009 A 
ATOM     74  C   UNL A   1      40.639  25.646  26.002  1.00  0.00     0.001 A 
ATOM     75  C   UNL A   1      39.337  24.610  27.751  1.00  0.00     0.001 A 
ATOM     76  C   UNL A   1      39.865  24.582  26.462  1.00  0.00     0.000 A 
ENDBRANCH  52  71
BRANCH  64  77
ATOM     77  C   UNL A   1      45.582  28.667  32.289  1.00  0.00    -0.014 A 
ATOM     78  C   UNL A   1      45.652  27.793  33.385  1.00  0.00     0.009 A 
ATOM     79  C   UNL A   1      46.730  28.886  31.514  1.00  0.00     0.009 A 
ATOM     80  C   UNL A   1      46.860  27.175  33.714  1.00  0.00     0.001 A 
ATOM     81  C   UNL A   1      47.930  28.249  31.832  1.00  0.00     0.001 A 
ATOM     82  C   UNL A   1      47.996  27.400  32.936  1.00  0.00     0.000 A 
ENDBRANCH  64  77
ENDBRANCH  38  39
ENDBRANCH  30  33
ENDBRANCH  28  29
ENDBRANCH  27  28
ENDBRANCH  26  27
ENDBRANCH   1  26
TORSDOF 16
ENDMDL
MODEL 2
REMARK VINA RESULT:     -10.5      3.738      8.756
REMARK SMILES CN(c1ccccc1C(=O)NCCCCCCNC(=O)c1ccc(-c2c3nc(c(-c4ccccc4)c4ccc([nH]4)c(-c4ccccc4)c4nc(c(-c5ccccc5)c5ccc2[nH]5)C=C4)C=C3)cc1)S(=O)(=O)c1ccc(I)cc1
REMARK SMILES IDX 14 1 13 2 12 3 11 4 9 5 10 6 8 8 3 9 4 10 5 11 7 12 6 13
REMARK SMILES IDX 2 14 1 15 69 16 70 17 71 18 72 19 73 20 78 21 74 22 77 23
REMARK SMILES IDX 75 24 76 25 15 26 16 27 17 28 18 29 19 30 20 32 21 33 22 34
REMARK SMILES IDX 68 35 23 36 67 37 24 38 25 39 26 40 61 41 27 42 66 43 60 44
REMARK SMILES IDX 62 45 28 46 65 47 59 48 58 49 29 51 51 52 36 53 50 54 37 55
REMARK SMILES IDX 40 56 49 57 63 58 38 59 39 60 48 62 64 63 41 64 30 65 31 66
REMARK SMILES IDX 35 67 32 68 34 69 33 70 52 71 53 72 57 73 54 74 56 75 55 76
REMARK SMILES IDX 42 77 43 78 47 79 44 80 46 81 45 82
REMARK H PARENT 11 7 18 31 62 50 40 61
REMARK Flexibility Score: inf
ROOT
ATOM      1  C   UNL A   1      38.204  22.789  25.693  1.00  0.00     0.002 C 
ENDROOT
BRANCH   1   2
ATOM      2  C   UNL A   1      37.272  23.912  26.155  1.00  0.00     0.021 C 
BRANCH   2   3
ATOM      3  C   UNL A   1      35.815  23.736  25.714  1.00  0.00     0.116 C 
BRANCH   3   4
ATOM      4  N   UNL A   1      35.081  22.946  26.672  1.00  0.00    -0.352 N 
ATOM      5  C   UNL A   1      34.126  21.974  26.677  1.00  0.00     0.253 C 
ATOM      6  O   UNL A   1      33.829  21.614  27.826  1.00  0.00    -0.269 OA
ATOM      7  H   UNL A   1      35.348  23.175  27.592  1.00  0.00     0.163 HD
BRANCH   5   8
ATOM      8  C   UNL A   1      33.468  21.247  25.532  1.00  0.00     0.064 A 
ATOM      9  C   UNL A   1      32.890  21.700  24.331  1.00  0.00     0.064 A 
ATOM     10  C   UNL A   1      32.402  20.759  23.386  1.00  0.00     0.028 A 
ATOM     11  C   UNL A   1      32.418  19.389  23.626  1.00  0.00     0.002 A 
ATOM     12  C   UNL A   1      33.454  19.838  25.740  1.00  0.00     0.016 A 
ATOM     13  C   UNL A   1      32.932  18.926  24.819  1.00  0.00     0.001 A 
BRANCH   9  14
ATOM     14  N   UNL A   1      32.644  23.069  23.987  1.00  0.00    -0.269 N 
ATOM     15  C   UNL A   1      33.383  23.633  22.842  1.00  0.00     0.164 C 
BRANCH  14  16
ATOM     16  S   UNL A   1      31.185  23.801  24.478  1.00  0.00     0.264 S 
ATOM     17  O   UNL A   1      30.428  24.166  23.301  1.00  0.00    -0.201 OA
ATOM     18  O   UNL A   1      30.594  22.937  25.486  1.00  0.00    -0.201 OA
BRANCH  16  19
ATOM     19  C   UNL A   1      31.598  25.342  25.281  1.00  0.00     0.088 A 
ATOM     20  C   UNL A   1      32.940  25.630  25.560  1.00  0.00     0.023 A 
ATOM     21  C   UNL A   1      30.628  26.341  25.423  1.00  0.00     0.023 A 
ATOM     22  C   UNL A   1      33.305  26.888  26.041  1.00  0.00     0.016 A 
ATOM     23  C   UNL A   1      31.001  27.615  25.869  1.00  0.00     0.016 A 
ATOM     24  C   UNL A   1      32.335  27.881  26.184  1.00  0.00     0.013 A 
ATOM     25  I   UNL A   1      32.898  29.780  26.810  1.00  0.00    -0.044 I 
ENDBRANCH  16  19
ENDBRANCH  14  16
ENDBRANCH   9  14
ENDBRANCH   5   8
ENDBRANCH   3   4
ENDBRANCH   2   3
ENDBRANCH   1   2
BRANCH   1  26
ATOM     26  C   UNL A   1      37.622  21.823  24.657  1.00  0.00     0.002 C 
BRANCH  26  27
ATOM     27  C   UNL A   1      38.026  20.353  24.803  1.00  0.00     0.021 C 
BRANCH  27  28
ATOM     28  C   UNL A   1      38.740  19.987  26.104  1.00  0.00     0.116 C 
BRANCH  28  29
ATOM     29  N   UNL A   1      39.952  19.219  25.876  1.00  0.00    -0.352 N 
ATOM     30  C   UNL A   1      41.274  19.563  25.975  1.00  0.00     0.251 C 
ATOM     31  H   UNL A   1      39.796  18.286  25.602  1.00  0.00     0.163 HD
ATOM     32  O   UNL A   1      42.129  18.776  25.576  1.00  0.00    -0.269 OA
BRANCH  30  33
ATOM     33  C   UNL A   1      41.697  20.867  26.533  1.00  0.00     0.039 A 
ATOM     34  C   UNL A   1      42.035  21.887  25.637  1.00  0.00     0.014 A 
ATOM     35  C   UNL A   1      41.836  21.081  27.907  1.00  0.00     0.014 A 
ATOM     36  C   UNL A   1      42.461  23.128  26.113  1.00  0.00     0.010 A 
ATOM     37  C   UNL A   1      42.206  22.340  28.385  1.00  0.00     0.010 A 
ATOM     38  C   UNL A   1      42.526  23.374  27.493  1.00  0.00    -0.014 A 
BRANCH  38  39
ATOM     39  C   UNL A   1      42.913  24.712  28.006  1.00  0.00     0.031 A 
ATOM     40  C   UNL A   1      41.872  25.765  28.270  1.00  0.00     0.074 A 
ATOM     41  C   UNL A   1      44.217  24.998  28.189  1.00  0.00     0.049 A 
ATOM     42  N   UNL A   1      42.033  26.994  28.695  1.00  0.00    -0.248 NA
ATOM     43  C   UNL A   1      40.472  25.401  28.002  1.00  0.00     0.031 C 
ATOM     44  C   UNL A   1      45.330  24.083  27.926  1.00  0.00     0.029 A 
ATOM     45  N   UNL A   1      44.827  26.144  28.632  1.00  0.00    -0.354 N 
ATOM     46  C   UNL A   1      40.763  27.553  28.725  1.00  0.00     0.074 A 
ATOM     47  C   UNL A   1      39.844  26.542  28.249  1.00  0.00     0.031 C 
ATOM     48  C   UNL A   1      46.485  24.700  28.224  1.00  0.00     0.029 A 
ATOM     49  C   UNL A   1      46.197  26.058  28.674  1.00  0.00     0.049 A 
ATOM     50  H   UNL A   1      44.330  26.953  28.895  1.00  0.00     0.167 HD
ATOM     51  C   UNL A   1      40.393  28.794  29.123  1.00  0.00     0.031 A 
ATOM     52  C   UNL A   1      47.121  26.970  29.029  1.00  0.00     0.031 A 
ATOM     53  C   UNL A   1      41.298  29.794  29.624  1.00  0.00     0.049 A 
ATOM     54  C   UNL A   1      46.680  28.329  29.491  1.00  0.00     0.074 A 
ATOM     55  C   UNL A   1      41.000  31.048  30.132  1.00  0.00     0.029 A 
ATOM     56  N   UNL A   1      42.675  29.656  29.678  1.00  0.00    -0.354 N 
ATOM     57  N   UNL A   1      45.466  28.811  29.596  1.00  0.00    -0.248 NA
ATOM     58  C   UNL A   1      47.738  29.266  29.897  1.00  0.00     0.031 C 
ATOM     59  C   UNL A   1      42.203  31.685  30.454  1.00  0.00     0.029 A 
ATOM     60  C   UNL A   1      43.244  30.812  30.185  1.00  0.00     0.049 A 
ATOM     61  H   UNL A   1      43.175  28.856  29.397  1.00  0.00     0.167 HD
ATOM     62  C   UNL A   1      45.613  30.097  30.097  1.00  0.00     0.074 A 
ATOM     63  C   UNL A   1      47.031  30.314  30.292  1.00  0.00     0.031 C 
ATOM     64  C   UNL A   1      44.656  31.016  30.370  1.00  0.00     0.031 A 
BRANCH  51  65
ATOM     65  C   UNL A   1      38.937  29.151  29.027  1.00  0.00    -0.014 A 
ATOM     66  C   UNL A   1      38.374  29.597  27.822  1.00  0.00     0.009 A 
ATOM     67  C   UNL A   1      38.105  28.980  30.145  1.00  0.00     0.009 A 
ATOM     68  C   UNL A   1      37.012  29.889  27.744  1.00  0.00     0.001 A 
ATOM     69  C   UNL A   1      36.739  29.253  30.059  1.00  0.00     0.001 A 
ATOM     70  C   UNL A   1      36.195  29.712  28.861  1.00  0.00     0.000 A 
ENDBRANCH  51  65
BRANCH  52  71
ATOM     71  C   UNL A   1      48.565  26.627  28.967  1.00  0.00    -0.014 A 
ATOM     72  C   UNL A   1      49.205  26.037  30.066  1.00  0.00     0.009 A 
ATOM     73  C   UNL A   1      49.310  26.901  27.811  1.00  0.00     0.009 A 
ATOM     74  C   UNL A   1      50.571  25.753  30.018  1.00  0.00     0.001 A 
ATOM     75  C   UNL A   1      50.670  26.593  27.757  1.00  0.00     0.001 A 
ATOM     76  C   UNL A   1      51.301  26.029  28.863  1.00  0.00     0.000 A 
ENDBRANCH  52  71
BRANCH  64  77
ATOM     77  C   UNL A   1      45.113  32.333  30.927  1.00  0.00    -0.014 A 
ATOM     78  C   UNL A   1      45.259  32.521  32.310  1.00  0.00     0.009 A 
ATOM     79  C   UNL A   1      45.432  33.385  30.056  1.00  0.00     0.009 A 
ATOM     80  C   UNL A   1      45.685  33.753  32.811  1.00  0.00     0.001 A 
ATOM     81  C   UNL A   1      45.880  34.608  30.559  1.00  0.00     0.001 A 
ATOM     82  C   UNL A   1      45.999  34.793  31.935  1.00  0.00     0.000 A 
ENDBRANCH  64  77
ENDBRANCH  38  39
ENDBRANCH  30  33
ENDBRANCH  28  29
ENDBRANCH  27  28
ENDBRANCH  26  27
ENDBRANCH   1  26
TORSDOF 16
ENDMDL
MODEL 3
REMARK VINA RESULT:     -10.4      1.907      6.733
REMARK SMILES CN(c1ccccc1C(=O)NCCCCCCNC(=O)c1ccc(-c2c3nc(c(-c4ccccc4)c4ccc([nH]4)c(-c4ccccc4)c4nc(c(-c5ccccc5)c5ccc2[nH]5)C=C4)C=C3)cc1)S(=O)(=O)c1ccc(I)cc1
REMARK SMILES IDX 14 1 13 2 12 3 11 4 9 5 10 6 8 8 3 9 4 10 5 11 7 12 6 13
REMARK SMILES IDX 2 14 1 15 69 16 70 17 71 18 72 19 73 20 78 21 74 22 77 23
REMARK SMILES IDX 75 24 76 25 15 26 16 27 17 28 18 29 19 30 20 32 21 33 22 34
REMARK SMILES IDX 68 35 23 36 67 37 24 38 25 39 26 40 61 41 27 42 66 43 60 44
REMARK SMILES IDX 62 45 28 46 65 47 59 48 58 49 29 51 51 52 36 53 50 54 37 55
REMARK SMILES IDX 40 56 49 57 63 58 38 59 39 60 48 62 64 63 41 64 30 65 31 66
REMARK SMILES IDX 35 67 32 68 34 69 33 70 52 71 53 72 57 73 54 74 56 75 55 76
REMARK SMILES IDX 42 77 43 78 47 79 44 80 46 81 45 82
REMARK H PARENT 11 7 18 31 62 50 40 61
REMARK Flexibility Score: inf
ROOT
ATOM      1  C   UNL A   1      32.651  29.822  26.976  1.00  0.00     0.002 C 
ENDROOT
BRANCH   1   2
ATOM      2  C   UNL A   1      32.518  28.307  27.140  1.00  0.00     0.021 C 
BRANCH   2   3
ATOM      3  C   UNL A   1      31.323  27.701  26.395  1.00  0.00     0.116 C 
BRANCH   3   4
ATOM      4  N   UNL A   1      31.104  26.334  26.801  1.00  0.00    -0.352 N 
ATOM      5  C   UNL A   1      31.675  25.110  26.619  1.00  0.00     0.253 C 
ATOM      6  O   UNL A   1      31.065  24.214  27.223  1.00  0.00    -0.269 OA
ATOM      7  H   UNL A   1      30.310  26.265  27.379  1.00  0.00     0.163 HD
BRANCH   5   8
ATOM      8  C   UNL A   1      32.935  24.720  25.890  1.00  0.00     0.064 A 
ATOM      9  C   UNL A   1      33.599  25.280  24.782  1.00  0.00     0.064 A 
ATOM     10  C   UNL A   1      34.834  24.730  24.351  1.00  0.00     0.028 A 
ATOM     11  C   UNL A   1      35.397  23.608  24.949  1.00  0.00     0.002 A 
ATOM     12  C   UNL A   1      33.542  23.568  26.466  1.00  0.00     0.016 A 
ATOM     13  C   UNL A   1      34.738  23.012  26.004  1.00  0.00     0.001 A 
BRANCH   9  14
ATOM     14  N   UNL A   1      33.092  26.330  23.948  1.00  0.00    -0.269 N 
ATOM     15  C   UNL A   1      33.921  27.539  23.787  1.00  0.00     0.164 C 
BRANCH  14  16
ATOM     16  S   UNL A   1      31.918  25.961  22.769  1.00  0.00     0.264 S 
ATOM     17  O   UNL A   1      32.554  25.933  21.471  1.00  0.00    -0.201 OA
ATOM     18  O   UNL A   1      31.184  24.802  23.247  1.00  0.00    -0.201 OA
BRANCH  16  19
ATOM     19  C   UNL A   1      30.767  27.325  22.710  1.00  0.00     0.088 A 
ATOM     20  C   UNL A   1      29.478  27.156  23.232  1.00  0.00     0.023 A 
ATOM     21  C   UNL A   1      31.212  28.605  22.358  1.00  0.00     0.023 A 
ATOM     22  C   UNL A   1      28.613  28.246  23.341  1.00  0.00     0.016 A 
ATOM     23  C   UNL A   1      30.356  29.705  22.505  1.00  0.00     0.016 A 
ATOM     24  C   UNL A   1      29.059  29.519  22.988  1.00  0.00     0.013 A 
ATOM     25  I   UNL A   1      27.801  31.154  23.242  1.00  0.00    -0.044 I 
ENDBRANCH  16  19
ENDBRANCH  14  16
ENDBRANCH   9  14
ENDBRANCH   5   8
ENDBRANCH   3   4
ENDBRANCH   2   3
ENDBRANCH   1   2
BRANCH   1  26
ATOM     26  C   UNL A   1      31.441  30.537  26.367  1.00  0.00     0.002 C 
BRANCH  26  27
ATOM     27  C   UNL A   1      31.324  32.035  26.661  1.00  0.00     0.021 C 
BRANCH  27  28
ATOM     28  C   UNL A   1      32.643  32.773  26.890  1.00  0.00     0.116 C 
BRANCH  28  29
ATOM     29  N   UNL A   1      32.475  33.985  27.672  1.00  0.00    -0.352 N 
ATOM     30  C   UNL A   1      33.183  34.485  28.732  1.00  0.00     0.251 C 
ATOM     31  H   UNL A   1      31.717  34.548  27.390  1.00  0.00     0.163 HD
ATOM     32  O   UNL A   1      32.749  35.464  29.334  1.00  0.00    -0.269 OA
BRANCH  30  33
ATOM     33  C   UNL A   1      34.448  33.862  29.183  1.00  0.00     0.039 A 
ATOM     34  C   UNL A   1      35.630  34.224  28.527  1.00  0.00     0.014 A 
ATOM     35  C   UNL A   1      34.484  32.883  30.180  1.00  0.00     0.014 A 
ATOM     36  C   UNL A   1      36.845  33.649  28.901  1.00  0.00     0.010 A 
ATOM     37  C   UNL A   1      35.706  32.350  30.594  1.00  0.00     0.010 A 
ATOM     38  C   UNL A   1      36.898  32.725  29.956  1.00  0.00    -0.014 A 
BRANCH  38  39
ATOM     39  C   UNL A   1      38.196  32.160  30.403  1.00  0.00     0.031 A 
ATOM     40  C   UNL A   1      38.716  30.874  29.823  1.00  0.00     0.074 A 
ATOM     41  C   UNL A   1      38.888  32.785  31.376  1.00  0.00     0.049 A 
ATOM     42  N   UNL A   1      39.816  30.225  30.114  1.00  0.00    -0.248 NA
ATOM     43  C   UNL A   1      37.885  30.220  28.800  1.00  0.00     0.031 C 
ATOM     44  C   UNL A   1      38.472  34.013  32.057  1.00  0.00     0.029 A 
ATOM     45  N   UNL A   1      40.085  32.466  31.967  1.00  0.00    -0.354 N 
ATOM     46  C   UNL A   1      39.798  29.079  29.329  1.00  0.00     0.074 A 
ATOM     47  C   UNL A   1      38.566  29.106  28.569  1.00  0.00     0.031 C 
ATOM     48  C   UNL A   1      39.406  34.350  32.963  1.00  0.00     0.029 A 
ATOM     49  C   UNL A   1      40.468  33.350  32.944  1.00  0.00     0.049 A 
ATOM     50  H   UNL A   1      40.618  31.678  31.714  1.00  0.00     0.167 HD
ATOM     51  C   UNL A   1      40.728  28.099  29.240  1.00  0.00     0.031 A 
ATOM     52  C   UNL A   1      41.552  33.356  33.743  1.00  0.00     0.031 A 
ATOM     53  C   UNL A   1      41.967  28.081  29.970  1.00  0.00     0.049 A 
ATOM     54  C   UNL A   1      42.580  32.270  33.603  1.00  0.00     0.074 A 
ATOM     55  C   UNL A   1      43.009  27.172  29.877  1.00  0.00     0.029 A 
ATOM     56  N   UNL A   1      42.331  29.011  30.929  1.00  0.00    -0.354 N 
ATOM     57  N   UNL A   1      42.589  31.242  32.792  1.00  0.00    -0.248 NA
ATOM     58  C   UNL A   1      43.756  32.355  34.482  1.00  0.00     0.031 C 
ATOM     59  C   UNL A   1      43.986  27.530  30.812  1.00  0.00     0.029 A 
ATOM     60  C   UNL A   1      43.570  28.684  31.456  1.00  0.00     0.049 A 
ATOM     61  H   UNL A   1      41.791  29.789  31.196  1.00  0.00     0.167 HD
ATOM     62  C   UNL A   1      43.775  30.569  33.048  1.00  0.00     0.074 A 
ATOM     63  C   UNL A   1      44.469  31.315  34.077  1.00  0.00     0.031 C 
ATOM     64  C   UNL A   1      44.246  29.432  32.481  1.00  0.00     0.031 A 
BRANCH  51  65
ATOM     65  C   UNL A   1      40.441  26.948  28.318  1.00  0.00    -0.014 A 
ATOM     66  C   UNL A   1      39.680  25.848  28.742  1.00  0.00     0.009 A 
ATOM     67  C   UNL A   1      40.888  26.994  26.988  1.00  0.00     0.009 A 
ATOM     68  C   UNL A   1      39.394  24.805  27.860  1.00  0.00     0.001 A 
ATOM     69  C   UNL A   1      40.582  25.960  26.102  1.00  0.00     0.001 A 
ATOM     70  C   UNL A   1      39.841  24.865  26.539  1.00  0.00     0.000 A 
ENDBRANCH  51  65
BRANCH  52  71
ATOM     71  C   UNL A   1      41.727  34.434  34.750  1.00  0.00    -0.014 A 
ATOM     72  C   UNL A   1      41.221  34.285  36.049  1.00  0.00     0.009 A 
ATOM     73  C   UNL A   1      42.391  35.621  34.409  1.00  0.00     0.009 A 
ATOM     74  C   UNL A   1      41.353  35.317  36.980  1.00  0.00     0.001 A 
ATOM     75  C   UNL A   1      42.543  36.642  35.350  1.00  0.00     0.001 A 
ATOM     76  C   UNL A   1      42.016  36.493  36.631  1.00  0.00     0.000 A 
ENDBRANCH  52  71
BRANCH  64  77
ATOM     77  C   UNL A   1      45.585  28.940  32.950  1.00  0.00    -0.014 A 
ATOM     78  C   UNL A   1      45.689  28.033  34.015  1.00  0.00     0.009 A 
ATOM     79  C   UNL A   1      46.751  29.365  32.297  1.00  0.00     0.009 A 
ATOM     80  C   UNL A   1      46.942  27.585  34.438  1.00  0.00     0.001 A 
ATOM     81  C   UNL A   1      48.001  28.898  32.708  1.00  0.00     0.001 A 
ATOM     82  C   UNL A   1      48.096  28.015  33.782  1.00  0.00     0.000 A 
ENDBRANCH  64  77
ENDBRANCH  38  39
ENDBRANCH  30  33
ENDBRANCH  28  29
ENDBRANCH  27  28
ENDBRANCH  26  27
ENDBRANCH   1  26
TORSDOF 16
ENDMDL
