MODEL 1
REMARK VINA RESULT:     -10.9      0.000      0.000
REMARK SMILES O=C(NCCCCCCNC(=O)[C@H]1CC(=O)N(c2cccc(OC(F)(F)F)c2)C1)c1ccc(-c2c3nc(c(-c4ccccc4)c4ccc([nH]4)c(-c4ccccc4)c4nc(c(-c5ccccc5)c5ccc2[nH]5)C=C4)C=C3)cc1
REMARK SMILES IDX 7 1 6 2 5 3 4 4 3 5 1 6 2 7 30 9 31 10 77 11 32 12 76 13
REMARK SMILES IDX 33 14 34 15 35 16 70 17 36 18 75 19 69 20 71 21 37 22 74 23
REMARK SMILES IDX 68 24 67 25 38 27 60 28 45 29 59 30 46 31 49 32 58 33 72 34
REMARK SMILES IDX 47 35 48 36 57 38 73 39 50 40 39 41 40 42 44 43 41 44 43 45
REMARK SMILES IDX 42 46 61 47 62 48 66 49 63 50 65 51 64 52 51 53 52 54 56 55
REMARK SMILES IDX 53 56 55 57 54 58 8 59 9 60 10 61 11 62 12 64 13 65 14 66
REMARK SMILES IDX 29 67 15 68 17 69 16 70 18 71 19 72 28 73 20 74 22 75 21 76
REMARK SMILES IDX 23 77 24 78 25 79 26 80 27 81
REMARK H PARENT 3 8 71 26 49 37 10 63
REMARK Flexibility Score: inf
ROOT
ATOM      1  C   UNL A   1      41.861  21.333  27.523  1.00  0.00     0.002 C 
ENDROOT
BRANCH   1   2
ATOM      2  C   UNL A   1      41.611  19.820  27.586  1.00  0.00     0.002 C 
BRANCH   2   3
ATOM      3  C   UNL A   1      42.645  18.973  26.842  1.00  0.00     0.021 C 
BRANCH   3   4
ATOM      4  C   UNL A   1      42.693  19.244  25.344  1.00  0.00     0.116 C 
BRANCH   4   5
ATOM      5  N   UNL A   1      43.962  18.819  24.772  1.00  0.00    -0.352 N 
ATOM      6  O   UNL A   1      45.906  19.109  23.666  1.00  0.00    -0.269 OA
ATOM      7  C   UNL A   1      45.025  19.585  24.372  1.00  0.00     0.251 C 
ATOM      8  H   UNL A   1      44.071  17.847  24.657  1.00  0.00     0.163 HD
BRANCH   7   9
ATOM      9  C   UNL A   1      45.100  20.995  24.802  1.00  0.00     0.039 A 
ATOM     10  C   UNL A   1      45.486  21.314  26.107  1.00  0.00     0.014 A 
ATOM     11  C   UNL A   1      44.810  22.004  23.880  1.00  0.00     0.014 A 
ATOM     12  C   UNL A   1      45.476  22.638  26.525  1.00  0.00     0.010 A 
ATOM     13  C   UNL A   1      44.882  23.339  24.280  1.00  0.00     0.010 A 
ATOM     14  C   UNL A   1      45.201  23.663  25.609  1.00  0.00    -0.014 A 
BRANCH  14  15
ATOM     15  C   UNL A   1      45.336  25.078  26.027  1.00  0.00     0.031 A 
ATOM     16  C   UNL A   1      46.662  25.776  25.979  1.00  0.00     0.074 A 
ATOM     17  C   UNL A   1      44.246  25.719  26.488  1.00  0.00     0.049 A 
ATOM     18  N   UNL A   1      46.968  26.987  26.365  1.00  0.00    -0.248 NA
ATOM     19  C   UNL A   1      47.795  25.011  25.436  1.00  0.00     0.031 C 
ATOM     20  C   UNL A   1      42.905  25.136  26.587  1.00  0.00     0.029 A 
ATOM     21  N   UNL A   1      44.092  26.994  26.966  1.00  0.00    -0.354 N 
ATOM     22  C   UNL A   1      48.331  27.125  26.138  1.00  0.00     0.074 A 
ATOM     23  C   UNL A   1      48.797  25.863  25.602  1.00  0.00     0.031 C 
ATOM     24  C   UNL A   1      42.064  26.053  27.081  1.00  0.00     0.029 A 
ATOM     25  C   UNL A   1      42.816  27.262  27.397  1.00  0.00     0.049 A 
ATOM     26  H   UNL A   1      44.823  27.652  26.998  1.00  0.00     0.167 HD
ATOM     27  C   UNL A   1      49.118  28.205  26.361  1.00  0.00     0.031 A 
ATOM     28  C   UNL A   1      42.310  28.343  28.017  1.00  0.00     0.031 A 
ATOM     29  C   UNL A   1      48.645  29.447  26.913  1.00  0.00     0.049 A 
ATOM     30  C   UNL A   1      43.211  29.508  28.299  1.00  0.00     0.074 A 
ATOM     31  C   UNL A   1      49.351  30.616  27.138  1.00  0.00     0.029 A 
ATOM     32  N   UNL A   1      47.347  29.676  27.349  1.00  0.00    -0.354 N 
ATOM     33  N   UNL A   1      44.486  29.645  28.028  1.00  0.00    -0.248 NA
ATOM     34  C   UNL A   1      42.604  30.667  28.965  1.00  0.00     0.031 C 
ATOM     35  C   UNL A   1      48.500  31.526  27.772  1.00  0.00     0.029 A 
ATOM     36  C   UNL A   1      47.242  30.953  27.876  1.00  0.00     0.049 A 
ATOM     37  H   UNL A   1      46.609  29.027  27.291  1.00  0.00     0.167 HD
ATOM     38  C   UNL A   1      44.833  30.914  28.471  1.00  0.00     0.074 A 
ATOM     39  C   UNL A   1      43.629  31.508  29.017  1.00  0.00     0.031 C 
ATOM     40  C   UNL A   1      46.039  31.529  28.423  1.00  0.00     0.031 A 
BRANCH  27  41
ATOM     41  C   UNL A   1      50.586  28.066  26.053  1.00  0.00    -0.014 A 
ATOM     42  C   UNL A   1      51.103  28.361  24.781  1.00  0.00     0.009 A 
ATOM     43  C   UNL A   1      51.467  27.645  27.061  1.00  0.00     0.009 A 
ATOM     44  C   UNL A   1      52.464  28.186  24.513  1.00  0.00     0.001 A 
ATOM     45  C   UNL A   1      52.832  27.505  26.800  1.00  0.00     0.001 A 
ATOM     46  C   UNL A   1      53.327  27.762  25.523  1.00  0.00     0.000 A 
ENDBRANCH  27  41
BRANCH  28  47
ATOM     47  C   UNL A   1      40.884  28.338  28.433  1.00  0.00    -0.014 A 
ATOM     48  C   UNL A   1      40.492  27.756  29.646  1.00  0.00     0.009 A 
ATOM     49  C   UNL A   1      39.915  28.972  27.637  1.00  0.00     0.009 A 
ATOM     50  C   UNL A   1      39.155  27.802  30.048  1.00  0.00     0.001 A 
ATOM     51  C   UNL A   1      38.586  29.043  28.057  1.00  0.00     0.001 A 
ATOM     52  C   UNL A   1      38.206  28.451  29.260  1.00  0.00     0.000 A 
ENDBRANCH  28  47
BRANCH  40  53
ATOM     53  C   UNL A   1      46.115  32.938  28.943  1.00  0.00    -0.014 A 
ATOM     54  C   UNL A   1      46.471  33.207  30.273  1.00  0.00     0.009 A 
ATOM     55  C   UNL A   1      45.894  34.011  28.066  1.00  0.00     0.009 A 
ATOM     56  C   UNL A   1      46.581  34.526  30.719  1.00  0.00     0.001 A 
ATOM     57  C   UNL A   1      46.035  35.327  28.505  1.00  0.00     0.001 A 
ATOM     58  C   UNL A   1      46.374  35.584  29.833  1.00  0.00     0.000 A 
ENDBRANCH  40  53
ENDBRANCH  14  15
ENDBRANCH   7   9
ENDBRANCH   4   5
ENDBRANCH   3   4
ENDBRANCH   2   3
ENDBRANCH   1   2
BRANCH   1  59
ATOM     59  C   UNL A   1      41.152  22.048  26.366  1.00  0.00     0.021 C 
BRANCH  59  60
ATOM     60  C   UNL A   1      39.699  21.597  26.189  1.00  0.00     0.116 C 
BRANCH  60  61
ATOM     61  N   UNL A   1      38.848  22.742  25.924  1.00  0.00    -0.356 N 
ATOM     62  C   UNL A   1      37.524  22.898  25.684  1.00  0.00     0.225 C 
ATOM     63  H   UNL A   1      39.341  23.594  25.918  1.00  0.00     0.163 HD
ATOM     64  O   UNL A   1      37.180  24.015  25.281  1.00  0.00    -0.275 OA
BRANCH  62  65
ATOM     65  C   UNL A   1      36.459  21.860  25.988  1.00  0.00     0.107 C 
ATOM     66  C   UNL A   1      35.171  22.537  26.477  1.00  0.00     0.116 C 
ATOM     67  C   UNL A   1      35.970  20.980  24.871  1.00  0.00     0.139 C 
ATOM     68  C   UNL A   1      34.060  21.614  26.036  1.00  0.00     0.227 C 
ATOM     69  N   UNL A   1      34.610  20.656  25.190  1.00  0.00    -0.311 N 
ATOM     70  O   UNL A   1      32.892  21.732  26.379  1.00  0.00    -0.274 OA
BRANCH  69  71
ATOM     71  C   UNL A   1      33.909  19.730  24.391  1.00  0.00     0.047 A 
ATOM     72  C   UNL A   1      32.860  20.175  23.575  1.00  0.00     0.026 A 
ATOM     73  C   UNL A   1      34.176  18.359  24.483  1.00  0.00     0.073 A 
ATOM     74  C   UNL A   1      32.086  19.265  22.860  1.00  0.00     0.006 A 
ATOM     75  C   UNL A   1      33.357  17.439  23.823  1.00  0.00     0.131 A 
ATOM     76  C   UNL A   1      32.328  17.901  22.994  1.00  0.00     0.047 A 
BRANCH  75  77
ATOM     77  O   UNL A   1      33.443  16.078  23.910  1.00  0.00    -0.406 OA
BRANCH  77  78
ATOM     78  C   UNL A   1      33.498  15.516  25.212  1.00  0.00     0.573 C 
ATOM     79  F   UNL A   1      34.773  15.399  25.635  1.00  0.00    -0.132 F 
ATOM     80  F   UNL A   1      32.789  16.251  26.098  1.00  0.00    -0.132 F 
ATOM     81  F   UNL A   1      32.954  14.279  25.170  1.00  0.00    -0.132 F 
ENDBRANCH  77  78
ENDBRANCH  75  77
ENDBRANCH  69  71
ENDBRANCH  62  65
ENDBRANCH  60  61
ENDBRANCH  59  60
ENDBRANCH   1  59
TORSDOF 16
ENDMDL
MODEL 2
REMARK VINA RESULT:     -10.6      5.693     10.260
REMARK SMILES O=C(NCCCCCCNC(=O)[C@H]1CC(=O)N(c2cccc(OC(F)(F)F)c2)C1)c1ccc(-c2c3nc(c(-c4ccccc4)c4ccc([nH]4)c(-c4ccccc4)c4nc(c(-c5ccccc5)c5ccc2[nH]5)C=C4)C=C3)cc1
REMARK SMILES IDX 7 1 6 2 5 3 4 4 3 5 1 6 2 7 30 9 31 10 77 11 32 12 76 13
REMARK SMILES IDX 33 14 34 15 35 16 70 17 36 18 75 19 69 20 71 21 37 22 74 23
REMARK SMILES IDX 68 24 67 25 38 27 60 28 45 29 59 30 46 31 49 32 58 33 72 34
REMARK SMILES IDX 47 35 48 36 57 38 73 39 50 40 39 41 40 42 44 43 41 44 43 45
REMARK SMILES IDX 42 46 61 47 62 48 66 49 63 50 65 51 64 52 51 53 52 54 56 55
REMARK SMILES IDX 53 56 55 57 54 58 8 59 9 60 10 61 11 62 12 64 13 65 14 66
REMARK SMILES IDX 29 67 15 68 17 69 16 70 18 71 19 72 28 73 20 74 22 75 21 76
REMARK SMILES IDX 23 77 24 78 25 79 26 80 27 81
REMARK H PARENT 3 8 71 26 49 37 10 63
REMARK Flexibility Score: inf
ROOT
ATOM      1  C   UNL A   1      32.079  29.365  26.170  1.00  0.00     0.002 C 
ENDROOT
BRANCH   1   2
ATOM      2  C   UNL A   1      31.400  30.595  25.553  1.00  0.00     0.002 C 
BRANCH   2   3
ATOM      3  C   UNL A   1      31.203  31.765  26.519  1.00  0.00     0.021 C 
BRANCH   3   4
ATOM      4  C   UNL A   1      32.508  32.343  27.052  1.00  0.00     0.116 C 
BRANCH   4   5
ATOM      5  N   UNL A   1      32.356  33.746  27.407  1.00  0.00    -0.352 N 
ATOM      6  O   UNL A   1      32.612  35.563  28.719  1.00  0.00    -0.269 OA
ATOM      7  C   UNL A   1      33.034  34.473  28.350  1.00  0.00     0.251 C 
ATOM      8  H   UNL A   1      31.671  34.240  26.901  1.00  0.00     0.163 HD
BRANCH   7   9
ATOM      9  C   UNL A   1      34.283  33.930  28.918  1.00  0.00     0.039 A 
ATOM     10  C   UNL A   1      34.241  33.082  30.029  1.00  0.00     0.014 A 
ATOM     11  C   UNL A   1      35.501  34.251  28.316  1.00  0.00     0.014 A 
ATOM     12  C   UNL A   1      35.425  32.641  30.606  1.00  0.00     0.010 A 
ATOM     13  C   UNL A   1      36.685  33.739  28.848  1.00  0.00     0.010 A 
ATOM     14  C   UNL A   1      36.655  32.943  30.004  1.00  0.00    -0.014 A 
BRANCH  14  15
ATOM     15  C   UNL A   1      37.901  32.347  30.542  1.00  0.00     0.031 A 
ATOM     16  C   UNL A   1      38.482  31.101  29.947  1.00  0.00     0.074 A 
ATOM     17  C   UNL A   1      38.485  32.931  31.605  1.00  0.00     0.049 A 
ATOM     18  N   UNL A   1      39.527  30.416  30.333  1.00  0.00    -0.248 NA
ATOM     19  C   UNL A   1      37.796  30.544  28.771  1.00  0.00     0.031 C 
ATOM     20  C   UNL A   1      38.002  34.144  32.272  1.00  0.00     0.029 A 
ATOM     21  N   UNL A   1      39.603  32.582  32.316  1.00  0.00    -0.354 N 
ATOM     22  C   UNL A   1      39.611  29.333  29.467  1.00  0.00     0.074 A 
ATOM     23  C   UNL A   1      38.497  29.441  28.549  1.00  0.00     0.031 C 
ATOM     24  C   UNL A   1      38.825  34.444  33.285  1.00  0.00     0.029 A 
ATOM     25  C   UNL A   1      39.850  33.411  33.382  1.00  0.00     0.049 A 
ATOM     26  H   UNL A   1      40.172  31.812  32.087  1.00  0.00     0.167 HD
ATOM     27  C   UNL A   1      40.534  28.341  29.445  1.00  0.00     0.031 A 
ATOM     28  C   UNL A   1      40.772  33.333  34.358  1.00  0.00     0.031 A 
ATOM     29  C   UNL A   1      41.626  28.235  30.377  1.00  0.00     0.049 A 
ATOM     30  C   UNL A   1      41.753  32.198  34.343  1.00  0.00     0.074 A 
ATOM     31  C   UNL A   1      42.640  27.293  30.414  1.00  0.00     0.029 A 
ATOM     32  N   UNL A   1      41.837  29.089  31.450  1.00  0.00    -0.354 N 
ATOM     33  N   UNL A   1      41.855  31.213  33.484  1.00  0.00    -0.248 NA
ATOM     34  C   UNL A   1      42.746  32.168  35.423  1.00  0.00     0.031 C 
ATOM     35  C   UNL A   1      43.420  27.536  31.548  1.00  0.00     0.029 A 
ATOM     36  C   UNL A   1      42.940  28.673  32.178  1.00  0.00     0.049 A 
ATOM     37  H   UNL A   1      41.283  29.876  31.663  1.00  0.00     0.167 HD
ATOM     38  C   UNL A   1      42.937  30.453  33.908  1.00  0.00     0.074 A 
ATOM     39  C   UNL A   1      43.464  31.102  35.092  1.00  0.00     0.031 C 
ATOM     40  C   UNL A   1      43.449  29.325  33.359  1.00  0.00     0.031 A 
BRANCH  27  41
ATOM     41  C   UNL A   1      40.365  27.263  28.407  1.00  0.00    -0.014 A 
ATOM     42  C   UNL A   1      40.977  27.350  27.146  1.00  0.00     0.009 A 
ATOM     43  C   UNL A   1      39.588  26.132  28.705  1.00  0.00     0.009 A 
ATOM     44  C   UNL A   1      40.772  26.353  26.189  1.00  0.00     0.001 A 
ATOM     45  C   UNL A   1      39.413  25.120  27.759  1.00  0.00     0.001 A 
ATOM     46  C   UNL A   1      39.993  25.238  26.497  1.00  0.00     0.000 A 
ENDBRANCH  27  41
BRANCH  28  47
ATOM     47  C   UNL A   1      40.772  34.351  35.438  1.00  0.00    -0.014 A 
ATOM     48  C   UNL A   1      41.559  35.507  35.335  1.00  0.00     0.009 A 
ATOM     49  C   UNL A   1      39.935  34.196  36.556  1.00  0.00     0.009 A 
ATOM     50  C   UNL A   1      41.513  36.481  36.337  1.00  0.00     0.001 A 
ATOM     51  C   UNL A   1      39.868  35.185  37.537  1.00  0.00     0.001 A 
ATOM     52  C   UNL A   1      40.663  36.324  37.430  1.00  0.00     0.000 A 
ENDBRANCH  28  47
BRANCH  40  53
ATOM     53  C   UNL A   1      44.666  28.732  34.011  1.00  0.00    -0.014 A 
ATOM     54  C   UNL A   1      44.558  27.739  34.996  1.00  0.00     0.009 A 
ATOM     55  C   UNL A   1      45.942  29.128  33.581  1.00  0.00     0.009 A 
ATOM     56  C   UNL A   1      45.706  27.170  35.552  1.00  0.00     0.001 A 
ATOM     57  C   UNL A   1      47.087  28.537  34.116  1.00  0.00     0.001 A 
ATOM     58  C   UNL A   1      46.968  27.562  35.104  1.00  0.00     0.000 A 
ENDBRANCH  40  53
ENDBRANCH  14  15
ENDBRANCH   7   9
ENDBRANCH   4   5
ENDBRANCH   3   4
ENDBRANCH   2   3
ENDBRANCH   1   2
BRANCH   1  59
ATOM     59  C   UNL A   1      33.060  28.645  25.236  1.00  0.00     0.021 C 
BRANCH  59  60
ATOM     60  C   UNL A   1      32.585  27.243  24.842  1.00  0.00     0.116 C 
BRANCH  60  61
ATOM     61  N   UNL A   1      31.657  27.324  23.728  1.00  0.00    -0.356 N 
ATOM     62  C   UNL A   1      31.456  26.582  22.613  1.00  0.00     0.225 C 
ATOM     63  H   UNL A   1      31.038  28.085  23.799  1.00  0.00     0.163 HD
ATOM     64  O   UNL A   1      30.706  27.081  21.766  1.00  0.00    -0.275 OA
BRANCH  62  65
ATOM     65  C   UNL A   1      31.976  25.172  22.403  1.00  0.00     0.107 C 
ATOM     66  C   UNL A   1      33.505  25.176  22.270  1.00  0.00     0.116 C 
ATOM     67  C   UNL A   1      31.737  24.148  23.478  1.00  0.00     0.139 C 
ATOM     68  C   UNL A   1      33.942  23.834  22.808  1.00  0.00     0.227 C 
ATOM     69  N   UNL A   1      32.837  23.231  23.401  1.00  0.00    -0.311 N 
ATOM     70  O   UNL A   1      35.081  23.398  22.724  1.00  0.00    -0.274 OA
BRANCH  69  71
ATOM     71  C   UNL A   1      32.835  22.072  24.205  1.00  0.00     0.047 A 
ATOM     72  C   UNL A   1      33.423  22.111  25.476  1.00  0.00     0.026 A 
ATOM     73  C   UNL A   1      32.350  20.857  23.707  1.00  0.00     0.073 A 
ATOM     74  C   UNL A   1      33.527  20.952  26.242  1.00  0.00     0.006 A 
ATOM     75  C   UNL A   1      32.517  19.681  24.443  1.00  0.00     0.131 A 
ATOM     76  C   UNL A   1      33.085  19.740  25.720  1.00  0.00     0.047 A 
BRANCH  75  77
ATOM     77  O   UNL A   1      32.184  18.421  24.031  1.00  0.00    -0.406 OA
BRANCH  77  78
ATOM     78  C   UNL A   1      33.187  17.675  23.359  1.00  0.00     0.573 C 
ATOM     79  F   UNL A   1      33.087  16.362  23.646  1.00  0.00    -0.132 F 
ATOM     80  F   UNL A   1      33.123  17.856  22.021  1.00  0.00    -0.132 F 
ATOM     81  F   UNL A   1      34.398  18.106  23.778  1.00  0.00    -0.132 F 
ENDBRANCH  77  78
ENDBRANCH  75  77
ENDBRANCH  69  71
ENDBRANCH  62  65
ENDBRANCH  60  61
ENDBRANCH  59  60
ENDBRANCH   1  59
TORSDOF 16
ENDMDL
MODEL 3
REMARK VINA RESULT:     -10.6      6.042     10.534
REMARK SMILES O=C(NCCCCCCNC(=O)[C@H]1CC(=O)N(c2cccc(OC(F)(F)F)c2)C1)c1ccc(-c2c3nc(c(-c4ccccc4)c4ccc([nH]4)c(-c4ccccc4)c4nc(c(-c5ccccc5)c5ccc2[nH]5)C=C4)C=C3)cc1
REMARK SMILES IDX 7 1 6 2 5 3 4 4 3 5 1 6 2 7 30 9 31 10 77 11 32 12 76 13
REMARK SMILES IDX 33 14 34 15 35 16 70 17 36 18 75 19 69 20 71 21 37 22 74 23
REMARK SMILES IDX 68 24 67 25 38 27 60 28 45 29 59 30 46 31 49 32 58 33 72 34
REMARK SMILES IDX 47 35 48 36 57 38 73 39 50 40 39 41 40 42 44 43 41 44 43 45
REMARK SMILES IDX 42 46 61 47 62 48 66 49 63 50 65 51 64 52 51 53 52 54 56 55
REMARK SMILES IDX 53 56 55 57 54 58 8 59 9 60 10 61 11 62 12 64 13 65 14 66
REMARK SMILES IDX 29 67 15 68 17 69 16 70 18 71 19 72 28 73 20 74 22 75 21 76
REMARK SMILES IDX 23 77 24 78 25 79 26 80 27 81
REMARK H PARENT 3 8 71 26 49 37 10 63
REMARK Flexibility Score: inf
ROOT
ATOM      1  C   UNL A   1      31.800  29.348  26.481  1.00  0.00     0.002 C 
ENDROOT
BRANCH   1   2
ATOM      2  C   UNL A   1      31.468  30.666  25.768  1.00  0.00     0.002 C 
BRANCH   2   3
ATOM      3  C   UNL A   1      31.338  31.876  26.694  1.00  0.00     0.021 C 
BRANCH   3   4
ATOM      4  C   UNL A   1      32.677  32.474  27.108  1.00  0.00     0.116 C 
BRANCH   4   5
ATOM      5  N   UNL A   1      32.526  33.856  27.538  1.00  0.00    -0.352 N 
ATOM      6  O   UNL A   1      32.722  35.584  28.973  1.00  0.00    -0.269 OA
ATOM      7  C   UNL A   1      33.149  34.509  28.567  1.00  0.00     0.251 C 
ATOM      8  H   UNL A   1      31.888  34.395  27.016  1.00  0.00     0.163 HD
BRANCH   7   9
ATOM      9  C   UNL A   1      34.345  33.905  29.187  1.00  0.00     0.039 A 
ATOM     10  C   UNL A   1      34.209  32.891  30.139  1.00  0.00     0.014 A 
ATOM     11  C   UNL A   1      35.611  34.339  28.788  1.00  0.00     0.014 A 
ATOM     12  C   UNL A   1      35.335  32.385  30.774  1.00  0.00     0.010 A 
ATOM     13  C   UNL A   1      36.745  33.770  29.369  1.00  0.00     0.010 A 
ATOM     14  C   UNL A   1      36.614  32.800  30.375  1.00  0.00    -0.014 A 
BRANCH  14  15
ATOM     15  C   UNL A   1      37.811  32.149  30.956  1.00  0.00     0.031 A 
ATOM     16  C   UNL A   1      38.514  31.039  30.235  1.00  0.00     0.074 A 
ATOM     17  C   UNL A   1      38.239  32.552  32.167  1.00  0.00     0.049 A 
ATOM     18  N   UNL A   1      39.535  30.321  30.626  1.00  0.00    -0.248 NA
ATOM     19  C   UNL A   1      37.998  30.680  28.904  1.00  0.00     0.031 C 
ATOM     20  C   UNL A   1      37.626  33.619  32.964  1.00  0.00     0.029 A 
ATOM     21  N   UNL A   1      39.278  32.110  32.943  1.00  0.00    -0.354 N 
ATOM     22  C   UNL A   1      39.770  29.408  29.607  1.00  0.00     0.074 A 
ATOM     23  C   UNL A   1      38.769  29.649  28.588  1.00  0.00     0.031 C 
ATOM     24  C   UNL A   1      38.309  33.757  34.108  1.00  0.00     0.029 A 
ATOM     25  C   UNL A   1      39.359  32.747  34.156  1.00  0.00     0.049 A 
ATOM     26  H   UNL A   1      39.904  31.405  32.658  1.00  0.00     0.167 HD
ATOM     27  C   UNL A   1      40.731  28.456  29.531  1.00  0.00     0.031 A 
ATOM     28  C   UNL A   1      40.161  32.521  35.212  1.00  0.00     0.031 A 
ATOM     29  C   UNL A   1      41.709  28.215  30.561  1.00  0.00     0.049 A 
ATOM     30  C   UNL A   1      41.186  31.429  35.127  1.00  0.00     0.074 A 
ATOM     31  C   UNL A   1      42.751  27.304  30.564  1.00  0.00     0.029 A 
ATOM     32  N   UNL A   1      41.751  28.873  31.782  1.00  0.00    -0.354 N 
ATOM     33  N   UNL A   1      41.433  30.610  34.133  1.00  0.00    -0.248 NA
ATOM     34  C   UNL A   1      42.043  31.233  36.302  1.00  0.00     0.031 C 
ATOM     35  C   UNL A   1      43.379  27.364  31.811  1.00  0.00     0.029 A 
ATOM     36  C   UNL A   1      42.777  28.363  32.560  1.00  0.00     0.049 A 
ATOM     37  H   UNL A   1      41.142  29.598  32.055  1.00  0.00     0.167 HD
ATOM     38  C   UNL A   1      42.490  29.814  34.554  1.00  0.00     0.074 A 
ATOM     39  C   UNL A   1      42.842  30.258  35.887  1.00  0.00     0.031 C 
ATOM     40  C   UNL A   1      43.113  28.810  33.889  1.00  0.00     0.031 A 
BRANCH  27  41
ATOM     41  C   UNL A   1      40.735  27.571  28.313  1.00  0.00    -0.014 A 
ATOM     42  C   UNL A   1      40.002  26.375  28.268  1.00  0.00     0.009 A 
ATOM     43  C   UNL A   1      41.479  27.951  27.184  1.00  0.00     0.009 A 
ATOM     44  C   UNL A   1      40.054  25.554  27.138  1.00  0.00     0.001 A 
ATOM     45  C   UNL A   1      41.501  27.147  26.043  1.00  0.00     0.001 A 
ATOM     46  C   UNL A   1      40.801  25.942  26.027  1.00  0.00     0.000 A 
ENDBRANCH  27  41
BRANCH  28  47
ATOM     47  C   UNL A   1      39.987  33.335  36.441  1.00  0.00    -0.014 A 
ATOM     48  C   UNL A   1      39.238  32.852  37.523  1.00  0.00     0.009 A 
ATOM     49  C   UNL A   1      40.624  34.583  36.557  1.00  0.00     0.009 A 
ATOM     50  C   UNL A   1      39.123  33.608  38.693  1.00  0.00     0.001 A 
ATOM     51  C   UNL A   1      40.532  35.320  37.738  1.00  0.00     0.001 A 
ATOM     52  C   UNL A   1      39.776  34.835  38.803  1.00  0.00     0.000 A 
ENDBRANCH  28  47
BRANCH  40  53
ATOM     53  C   UNL A   1      44.269  28.141  34.579  1.00  0.00    -0.014 A 
ATOM     54  C   UNL A   1      45.574  28.641  34.469  1.00  0.00     0.009 A 
ATOM     55  C   UNL A   1      44.031  27.032  35.406  1.00  0.00     0.009 A 
ATOM     56  C   UNL A   1      46.623  28.028  35.158  1.00  0.00     0.001 A 
ATOM     57  C   UNL A   1      45.075  26.441  36.117  1.00  0.00     0.001 A 
ATOM     58  C   UNL A   1      46.371  26.937  35.989  1.00  0.00     0.000 A 
ENDBRANCH  40  53
ENDBRANCH  14  15
ENDBRANCH   7   9
ENDBRANCH   4   5
ENDBRANCH   3   4
ENDBRANCH   2   3
ENDBRANCH   1   2
BRANCH   1  59
ATOM     59  C   UNL A   1      32.582  28.342  25.628  1.00  0.00     0.021 C 
BRANCH  59  60
ATOM     60  C   UNL A   1      32.059  26.909  25.769  1.00  0.00     0.116 C 
BRANCH  60  61
ATOM     61  N   UNL A   1      30.678  26.836  25.326  1.00  0.00    -0.356 N 
ATOM     62  C   UNL A   1      30.035  26.150  24.350  1.00  0.00     0.225 C 
ATOM     63  H   UNL A   1      30.075  27.410  25.851  1.00  0.00     0.163 HD
ATOM     64  O   UNL A   1      28.874  26.505  24.121  1.00  0.00    -0.275 OA
BRANCH  62  65
ATOM     65  C   UNL A   1      30.593  24.934  23.633  1.00  0.00     0.107 C 
ATOM     66  C   UNL A   1      31.579  25.361  22.537  1.00  0.00     0.116 C 
ATOM     67  C   UNL A   1      31.387  23.932  24.425  1.00  0.00     0.139 C 
ATOM     68  C   UNL A   1      32.563  24.219  22.439  1.00  0.00     0.227 C 
ATOM     69  N   UNL A   1      32.326  23.357  23.505  1.00  0.00    -0.311 N 
ATOM     70  O   UNL A   1      33.411  24.116  21.564  1.00  0.00    -0.274 OA
BRANCH  69  71
ATOM     71  C   UNL A   1      33.136  22.280  23.919  1.00  0.00     0.047 A 
ATOM     72  C   UNL A   1      32.663  20.967  23.787  1.00  0.00     0.026 A 
ATOM     73  C   UNL A   1      34.360  22.510  24.557  1.00  0.00     0.073 A 
ATOM     74  C   UNL A   1      33.401  19.897  24.288  1.00  0.00     0.006 A 
ATOM     75  C   UNL A   1      35.068  21.446  25.122  1.00  0.00     0.131 A 
ATOM     76  C   UNL A   1      34.593  20.139  24.963  1.00  0.00     0.047 A 
BRANCH  75  77
ATOM     77  O   UNL A   1      36.216  21.543  25.857  1.00  0.00    -0.406 OA
BRANCH  77  78
ATOM     78  C   UNL A   1      37.414  21.826  25.150  1.00  0.00     0.573 C 
ATOM     79  F   UNL A   1      37.292  21.513  23.845  1.00  0.00    -0.132 F 
ATOM     80  F   UNL A   1      37.766  23.125  25.277  1.00  0.00    -0.132 F 
ATOM     81  F   UNL A   1      38.409  21.075  25.672  1.00  0.00    -0.132 F 
ENDBRANCH  77  78
ENDBRANCH  75  77
ENDBRANCH  69  71
ENDBRANCH  62  65
ENDBRANCH  60  61
ENDBRANCH  59  60
ENDBRANCH   1  59
TORSDOF 16
ENDMDL
