MODEL 1
REMARK VINA RESULT:     -11.7      0.000      0.000
REMARK SMILES COC(=O)c1ccc([C@H]2Nc3c(C(=O)NCCCCCCNC(=O)c4ccc(-c5c6nc(c(-c7ccccc7)c7ccc([nH]7)c(-c7ccccc7)c7nc(c(-c8ccccc8)c8ccc5[nH]8)C=C7)C=C6)cc4)cccc3[C@@H]3[C@@H]4CC[C@@H](C4)[C@@H]32)cc1
REMARK SMILES IDX 18 1 17 2 16 3 15 4 13 5 14 6 12 8 9 9 10 10 83 11 11 12
REMARK SMILES IDX 77 14 81 15 76 16 78 17 80 18 82 19 73 20 75 21 79 22 74 23
REMARK SMILES IDX 8 24 5 25 6 26 85 27 7 28 84 29 3 30 4 31 2 32 1 33 19 34
REMARK SMILES IDX 20 35 21 36 22 37 23 38 24 40 25 41 26 42 72 43 27 44 71 45
REMARK SMILES IDX 28 46 29 47 30 48 65 49 31 50 70 51 64 52 66 53 32 54 69 55
REMARK SMILES IDX 63 56 62 57 33 59 55 60 40 61 54 62 41 63 44 64 53 65 67 66
REMARK SMILES IDX 42 67 43 68 52 70 68 71 45 72 34 73 35 74 39 75 36 76 38 77
REMARK SMILES IDX 37 78 56 79 57 80 61 81 58 82 60 83 59 84 46 85 47 86 51 87
REMARK SMILES IDX 48 88 50 89 49 90
REMARK H PARENT 15 7 10 13 22 39 66 58 44 69
REMARK Flexibility Score: inf
ROOT
ATOM      1  C   UNL A   1      34.853  34.258  29.273  1.00  0.00     0.002 C 
ENDROOT
BRANCH   1   2
ATOM      2  C   UNL A   1      34.539  32.771  29.113  1.00  0.00     0.021 C 
BRANCH   2   3
ATOM      3  C   UNL A   1      35.066  32.095  27.852  1.00  0.00     0.116 C 
BRANCH   3   4
ATOM      4  N   UNL A   1      35.366  30.682  27.933  1.00  0.00    -0.352 N 
ATOM      5  C   UNL A   1      34.765  29.618  27.273  1.00  0.00     0.253 C 
ATOM      6  O   UNL A   1      35.244  28.494  27.444  1.00  0.00    -0.269 OA
ATOM      7  H   UNL A   1      36.100  30.440  28.542  1.00  0.00     0.163 HD
BRANCH   5   8
ATOM      8  C   UNL A   1      33.515  29.743  26.448  1.00  0.00     0.063 A 
ATOM      9  C   UNL A   1      32.803  26.605  25.046  1.00  0.00     0.113 C 
ATOM     10  N   UNL A   1      33.791  27.697  25.150  1.00  0.00    -0.377 N 
ATOM     11  C   UNL A   1      32.442  26.719  23.551  1.00  0.00     0.027 C 
ATOM     12  C   UNL A   1      33.164  28.916  25.378  1.00  0.00     0.051 A 
ATOM     13  H   UNL A   1      34.765  27.578  25.067  1.00  0.00     0.161 HD
ATOM     14  C   UNL A   1      31.968  28.251  23.306  1.00  0.00     0.030 C 
ATOM     15  C   UNL A   1      31.285  25.939  22.894  1.00  0.00    -0.005 C 
ATOM     16  C   UNL A   1      32.056  29.161  24.533  1.00  0.00    -0.020 A 
ATOM     17  C   UNL A   1      30.628  28.072  22.573  1.00  0.00    -0.003 C 
ATOM     18  C   UNL A   1      29.977  26.033  23.685  1.00  0.00     0.004 C 
ATOM     19  C   UNL A   1      30.951  26.853  21.697  1.00  0.00     0.008 C 
ATOM     20  C   UNL A   1      32.550  30.667  26.854  1.00  0.00     0.016 A 
ATOM     21  C   UNL A   1      31.158  30.150  24.913  1.00  0.00     0.006 A 
ATOM     22  C   UNL A   1      29.546  27.493  23.495  1.00  0.00     0.004 C 
ATOM     23  C   UNL A   1      31.372  30.848  26.110  1.00  0.00     0.001 A 
BRANCH   9  24
ATOM     24  C   UNL A   1      33.494  25.603  25.974  1.00  0.00    -0.025 A 
ATOM     25  C   UNL A   1      34.324  22.913  26.023  1.00  0.00     0.060 A 
ATOM     26  C   UNL A   1      35.145  23.873  25.439  1.00  0.00     0.016 A 
ATOM     27  C   UNL A   1      33.215  23.332  26.782  1.00  0.00     0.016 A 
ATOM     28  C   UNL A   1      34.769  25.213  25.471  1.00  0.00     0.007 A 
ATOM     29  C   UNL A   1      32.791  24.680  26.757  1.00  0.00     0.007 A 
BRANCH  25  30
ATOM     30  C   UNL A   1      34.560  21.497  25.601  1.00  0.00     0.337 C 
ATOM     31  O   UNL A   1      35.472  21.164  24.862  1.00  0.00    -0.246 OA
BRANCH  30  32
ATOM     32  O   UNL A   1      33.580  20.664  26.037  1.00  0.00    -0.465 OA
ATOM     33  C   UNL A   1      32.837  20.074  24.961  1.00  0.00     0.282 C 
ENDBRANCH  30  32
ENDBRANCH  25  30
ENDBRANCH   9  24
ENDBRANCH   5   8
ENDBRANCH   3   4
ENDBRANCH   2   3
ENDBRANCH   1   2
BRANCH   1  34
ATOM     34  C   UNL A   1      34.235  35.202  28.243  1.00  0.00     0.002 C 
BRANCH  34  35
ATOM     35  C   UNL A   1      33.361  36.348  28.740  1.00  0.00     0.021 C 
BRANCH  35  36
ATOM     36  C   UNL A   1      33.586  36.769  30.182  1.00  0.00     0.116 C 
BRANCH  36  37
ATOM     37  N   UNL A   1      32.478  36.442  31.065  1.00  0.00    -0.352 N 
ATOM     38  C   UNL A   1      32.440  35.605  32.154  1.00  0.00     0.251 C 
ATOM     39  H   UNL A   1      31.627  36.887  30.851  1.00  0.00     0.163 HD
ATOM     40  O   UNL A   1      31.379  35.385  32.727  1.00  0.00    -0.269 OA
BRANCH  38  41
ATOM     41  C   UNL A   1      33.676  34.933  32.608  1.00  0.00     0.039 A 
ATOM     42  C   UNL A   1      33.617  33.582  32.960  1.00  0.00     0.014 A 
ATOM     43  C   UNL A   1      34.892  35.619  32.660  1.00  0.00     0.014 A 
ATOM     44  C   UNL A   1      34.791  32.903  33.288  1.00  0.00     0.010 A 
ATOM     45  C   UNL A   1      36.071  34.918  32.889  1.00  0.00     0.010 A 
ATOM     46  C   UNL A   1      36.033  33.555  33.213  1.00  0.00    -0.014 A 
BRANCH  46  47
ATOM     47  C   UNL A   1      37.301  32.827  33.474  1.00  0.00     0.031 A 
ATOM     48  C   UNL A   1      38.070  33.082  34.742  1.00  0.00     0.074 A 
ATOM     49  C   UNL A   1      37.788  31.982  32.545  1.00  0.00     0.049 A 
ATOM     50  N   UNL A   1      39.211  32.573  35.130  1.00  0.00    -0.248 NA
ATOM     51  C   UNL A   1      37.498  34.059  35.684  1.00  0.00     0.031 C 
ATOM     52  C   UNL A   1      37.164  31.688  31.252  1.00  0.00     0.029 A 
ATOM     53  N   UNL A   1      38.925  31.214  32.545  1.00  0.00    -0.354 N 
ATOM     54  C   UNL A   1      39.498  33.179  36.348  1.00  0.00     0.074 A 
ATOM     55  C   UNL A   1      38.447  34.137  36.603  1.00  0.00     0.031 C 
ATOM     56  C   UNL A   1      37.903  30.772  30.605  1.00  0.00     0.029 A 
ATOM     57  C   UNL A   1      39.074  30.450  31.413  1.00  0.00     0.049 A 
ATOM     58  H   UNL A   1      39.573  31.210  33.287  1.00  0.00     0.167 HD
ATOM     59  C   UNL A   1      40.531  32.941  37.192  1.00  0.00     0.031 A 
ATOM     60  C   UNL A   1      40.044  29.584  31.064  1.00  0.00     0.031 A 
ATOM     61  C   UNL A   1      41.568  31.978  36.942  1.00  0.00     0.049 A 
ATOM     62  C   UNL A   1      41.185  29.345  32.014  1.00  0.00     0.074 A 
ATOM     63  C   UNL A   1      42.626  31.619  37.760  1.00  0.00     0.029 A 
ATOM     64  N   UNL A   1      41.681  31.222  35.786  1.00  0.00    -0.354 N 
ATOM     65  N   UNL A   1      41.401  29.871  33.196  1.00  0.00    -0.248 NA
ATOM     66  C   UNL A   1      42.209  28.382  31.586  1.00  0.00     0.031 C 
ATOM     67  C   UNL A   1      43.411  30.688  37.072  1.00  0.00     0.029 A 
ATOM     68  C   UNL A   1      42.806  30.419  35.855  1.00  0.00     0.049 A 
ATOM     69  H   UNL A   1      41.054  31.252  35.028  1.00  0.00     0.167 HD
ATOM     70  C   UNL A   1      42.569  29.282  33.664  1.00  0.00     0.074 A 
ATOM     71  C   UNL A   1      43.002  28.345  32.648  1.00  0.00     0.031 C 
ATOM     72  C   UNL A   1      43.225  29.496  34.831  1.00  0.00     0.031 A 
BRANCH  59  73
ATOM     73  C   UNL A   1      40.585  33.746  38.462  1.00  0.00    -0.014 A 
ATOM     74  C   UNL A   1      40.019  33.268  39.656  1.00  0.00     0.009 A 
ATOM     75  C   UNL A   1      41.238  34.988  38.473  1.00  0.00     0.009 A 
ATOM     76  C   UNL A   1      40.069  34.036  40.821  1.00  0.00     0.001 A 
ATOM     77  C   UNL A   1      41.316  35.739  39.649  1.00  0.00     0.001 A 
ATOM     78  C   UNL A   1      40.722  35.267  40.818  1.00  0.00     0.000 A 
ENDBRANCH  59  73
BRANCH  60  79
ATOM     79  C   UNL A   1      39.974  28.864  29.764  1.00  0.00    -0.014 A 
ATOM     80  C   UNL A   1      39.402  27.585  29.688  1.00  0.00     0.009 A 
ATOM     81  C   UNL A   1      40.486  29.447  28.595  1.00  0.00     0.009 A 
ATOM     82  C   UNL A   1      39.374  26.891  28.475  1.00  0.00     0.001 A 
ATOM     83  C   UNL A   1      40.426  28.766  27.378  1.00  0.00     0.001 A 
ATOM     84  C   UNL A   1      39.882  27.485  27.320  1.00  0.00     0.000 A 
ENDBRANCH  60  79
BRANCH  72  85
ATOM     85  C   UNL A   1      44.461  28.679  35.082  1.00  0.00    -0.014 A 
ATOM     86  C   UNL A   1      44.389  27.399  35.653  1.00  0.00     0.009 A 
ATOM     87  C   UNL A   1      45.716  29.189  34.712  1.00  0.00     0.009 A 
ATOM     88  C   UNL A   1      45.554  26.664  35.885  1.00  0.00     0.001 A 
ATOM     89  C   UNL A   1      46.874  28.438  34.913  1.00  0.00     0.001 A 
ATOM     90  C   UNL A   1      46.794  27.181  35.511  1.00  0.00     0.000 A 
ENDBRANCH  72  85
ENDBRANCH  46  47
ENDBRANCH  38  41
ENDBRANCH  36  37
ENDBRANCH  35  36
ENDBRANCH  34  35
ENDBRANCH   1  34
TORSDOF 16
ENDMDL
MODEL 2
REMARK VINA RESULT:     -11.7      3.458      8.242
REMARK SMILES COC(=O)c1ccc([C@H]2Nc3c(C(=O)NCCCCCCNC(=O)c4ccc(-c5c6nc(c(-c7ccccc7)c7ccc([nH]7)c(-c7ccccc7)c7nc(c(-c8ccccc8)c8ccc5[nH]8)C=C7)C=C6)cc4)cccc3[C@@H]3[C@@H]4CC[C@@H](C4)[C@@H]32)cc1
REMARK SMILES IDX 18 1 17 2 16 3 15 4 13 5 14 6 12 8 9 9 10 10 83 11 11 12
REMARK SMILES IDX 77 14 81 15 76 16 78 17 80 18 82 19 73 20 75 21 79 22 74 23
REMARK SMILES IDX 8 24 5 25 6 26 85 27 7 28 84 29 3 30 4 31 2 32 1 33 19 34
REMARK SMILES IDX 20 35 21 36 22 37 23 38 24 40 25 41 26 42 72 43 27 44 71 45
REMARK SMILES IDX 28 46 29 47 30 48 65 49 31 50 70 51 64 52 66 53 32 54 69 55
REMARK SMILES IDX 63 56 62 57 33 59 55 60 40 61 54 62 41 63 44 64 53 65 67 66
REMARK SMILES IDX 42 67 43 68 52 70 68 71 45 72 34 73 35 74 39 75 36 76 38 77
REMARK SMILES IDX 37 78 56 79 57 80 61 81 58 82 60 83 59 84 46 85 47 86 51 87
REMARK SMILES IDX 48 88 50 89 49 90
REMARK H PARENT 15 7 10 13 22 39 66 58 44 69
REMARK Flexibility Score: inf
ROOT
ATOM      1  C   UNL A   1      35.954  23.111  23.385  1.00  0.00     0.002 C 
ENDROOT
BRANCH   1   2
ATOM      2  C   UNL A   1      34.560  23.733  23.304  1.00  0.00     0.021 C 
BRANCH   2   3
ATOM      3  C   UNL A   1      33.683  23.285  22.140  1.00  0.00     0.116 C 
BRANCH   3   4
ATOM      4  N   UNL A   1      32.253  23.462  22.281  1.00  0.00    -0.352 N 
ATOM      5  C   UNL A   1      31.527  24.631  22.468  1.00  0.00     0.253 C 
ATOM      6  O   UNL A   1      30.297  24.544  22.486  1.00  0.00    -0.269 OA
ATOM      7  H   UNL A   1      31.720  22.636  22.238  1.00  0.00     0.163 HD
BRANCH   5   8
ATOM      8  C   UNL A   1      32.152  25.970  22.746  1.00  0.00     0.063 A 
ATOM      9  C   UNL A   1      32.141  26.489  26.217  1.00  0.00     0.113 C 
ATOM     10  N   UNL A   1      31.314  26.239  25.020  1.00  0.00    -0.377 N 
ATOM     11  C   UNL A   1      31.658  27.909  26.578  1.00  0.00     0.027 C 
ATOM     12  C   UNL A   1      31.920  26.753  23.880  1.00  0.00     0.051 A 
ATOM     13  H   UNL A   1      30.447  25.772  25.029  1.00  0.00     0.161 HD
ATOM     14  C   UNL A   1      31.874  28.821  25.253  1.00  0.00     0.030 C 
ATOM     15  C   UNL A   1      32.327  28.786  27.656  1.00  0.00    -0.005 C 
ATOM     16  C   UNL A   1      32.408  28.071  24.030  1.00  0.00    -0.020 A 
ATOM     17  C   UNL A   1      32.634  30.037  25.806  1.00  0.00    -0.003 C 
ATOM     18  C   UNL A   1      33.851  28.847  27.515  1.00  0.00     0.004 C 
ATOM     19  C   UNL A   1      31.946  30.199  27.169  1.00  0.00     0.008 C 
ATOM     20  C   UNL A   1      33.150  26.422  21.880  1.00  0.00     0.016 A 
ATOM     21  C   UNL A   1      33.333  28.530  23.101  1.00  0.00     0.006 A 
ATOM     22  C   UNL A   1      34.061  29.670  26.238  1.00  0.00     0.004 C 
ATOM     23  C   UNL A   1      33.753  27.676  22.072  1.00  0.00     0.001 A 
BRANCH   9  24
ATOM     24  C   UNL A   1      32.081  25.083  26.816  1.00  0.00    -0.025 A 
ATOM     25  C   UNL A   1      32.315  22.386  26.040  1.00  0.00     0.060 A 
ATOM     26  C   UNL A   1      33.463  23.122  26.319  1.00  0.00     0.016 A 
ATOM     27  C   UNL A   1      31.059  22.926  26.376  1.00  0.00     0.016 A 
ATOM     28  C   UNL A   1      33.349  24.435  26.767  1.00  0.00     0.007 A 
ATOM     29  C   UNL A   1      30.935  24.279  26.761  1.00  0.00     0.007 A 
BRANCH  25  30
ATOM     30  C   UNL A   1      32.501  21.169  25.190  1.00  0.00     0.337 C 
ATOM     31  O   UNL A   1      31.934  21.009  24.121  1.00  0.00    -0.246 OA
BRANCH  30  32
ATOM     32  O   UNL A   1      33.267  20.230  25.802  1.00  0.00    -0.465 OA
ATOM     33  C   UNL A   1      33.550  19.107  24.955  1.00  0.00     0.282 C 
ENDBRANCH  30  32
ENDBRANCH  25  30
ENDBRANCH   9  24
ENDBRANCH   5   8
ENDBRANCH   3   4
ENDBRANCH   2   3
ENDBRANCH   1   2
BRANCH   1  34
ATOM     34  C   UNL A   1      36.067  21.778  24.124  1.00  0.00     0.002 C 
BRANCH  34  35
ATOM     35  C   UNL A   1      36.622  21.779  25.544  1.00  0.00     0.021 C 
BRANCH  35  36
ATOM     36  C   UNL A   1      37.730  22.782  25.815  1.00  0.00     0.116 C 
BRANCH  36  37
ATOM     37  N   UNL A   1      39.066  22.212  25.731  1.00  0.00    -0.352 N 
ATOM     38  C   UNL A   1      40.272  22.740  26.123  1.00  0.00     0.251 C 
ATOM     39  H   UNL A   1      39.112  21.313  25.333  1.00  0.00     0.163 HD
ATOM     40  O   UNL A   1      41.315  22.139  25.887  1.00  0.00    -0.269 OA
BRANCH  38  41
ATOM     41  C   UNL A   1      40.315  24.057  26.793  1.00  0.00     0.039 A 
ATOM     42  C   UNL A   1      39.663  24.211  28.018  1.00  0.00     0.014 A 
ATOM     43  C   UNL A   1      41.017  25.128  26.233  1.00  0.00     0.014 A 
ATOM     44  C   UNL A   1      39.781  25.414  28.717  1.00  0.00     0.010 A 
ATOM     45  C   UNL A   1      41.216  26.286  26.974  1.00  0.00     0.010 A 
ATOM     46  C   UNL A   1      40.595  26.445  28.221  1.00  0.00    -0.014 A 
BRANCH  46  47
ATOM     47  C   UNL A   1      40.802  27.698  28.990  1.00  0.00     0.031 A 
ATOM     48  C   UNL A   1      42.064  27.896  29.786  1.00  0.00     0.074 A 
ATOM     49  C   UNL A   1      39.831  28.632  29.018  1.00  0.00     0.049 A 
ATOM     50  N   UNL A   1      42.409  28.903  30.547  1.00  0.00    -0.248 NA
ATOM     51  C   UNL A   1      43.054  26.807  29.746  1.00  0.00     0.031 C 
ATOM     52  C   UNL A   1      38.540  28.536  28.330  1.00  0.00     0.029 A 
ATOM     53  N   UNL A   1      39.778  29.847  29.652  1.00  0.00    -0.354 N 
ATOM     54  C   UNL A   1      43.644  28.561  31.086  1.00  0.00     0.074 A 
ATOM     55  C   UNL A   1      43.956  27.230  30.617  1.00  0.00     0.031 C 
ATOM     56  C   UNL A   1      37.843  29.664  28.546  1.00  0.00     0.029 A 
ATOM     57  C   UNL A   1      38.614  30.540  29.421  1.00  0.00     0.049 A 
ATOM     58  H   UNL A   1      40.506  30.192  30.220  1.00  0.00     0.167 HD
ATOM     59  C   UNL A   1      44.456  29.298  31.880  1.00  0.00     0.031 A 
ATOM     60  C   UNL A   1      38.212  31.746  29.863  1.00  0.00     0.031 A 
ATOM     61  C   UNL A   1      44.149  30.626  32.335  1.00  0.00     0.049 A 
ATOM     62  C   UNL A   1      39.129  32.540  30.752  1.00  0.00     0.074 A 
ATOM     63  C   UNL A   1      44.931  31.480  33.094  1.00  0.00     0.029 A 
ATOM     64  N   UNL A   1      42.961  31.293  32.076  1.00  0.00    -0.354 N 
ATOM     65  N   UNL A   1      40.326  32.233  31.191  1.00  0.00    -0.248 NA
ATOM     66  C   UNL A   1      38.643  33.854  31.195  1.00  0.00     0.031 C 
ATOM     67  C   UNL A   1      44.191  32.641  33.342  1.00  0.00     0.029 A 
ATOM     68  C   UNL A   1      42.977  32.536  32.684  1.00  0.00     0.049 A 
ATOM     69  H   UNL A   1      42.218  30.934  31.539  1.00  0.00     0.167 HD
ATOM     70  C   UNL A   1      40.748  33.326  31.937  1.00  0.00     0.074 A 
ATOM     71  C   UNL A   1      39.687  34.311  31.873  1.00  0.00     0.031 C 
ATOM     72  C   UNL A   1      41.908  33.501  32.615  1.00  0.00     0.031 A 
BRANCH  59  73
ATOM     73  C   UNL A   1      45.756  28.672  32.309  1.00  0.00    -0.014 A 
ATOM     74  C   UNL A   1      46.927  28.824  31.549  1.00  0.00     0.009 A 
ATOM     75  C   UNL A   1      45.818  27.944  33.508  1.00  0.00     0.009 A 
ATOM     76  C   UNL A   1      48.121  28.225  31.957  1.00  0.00     0.001 A 
ATOM     77  C   UNL A   1      47.021  27.374  33.931  1.00  0.00     0.001 A 
ATOM     78  C   UNL A   1      48.168  27.506  33.150  1.00  0.00     0.000 A 
ENDBRANCH  59  73
BRANCH  60  79
ATOM     79  C   UNL A   1      36.887  32.288  29.460  1.00  0.00    -0.014 A 
ATOM     80  C   UNL A   1      35.737  31.987  30.207  1.00  0.00     0.009 A 
ATOM     81  C   UNL A   1      36.762  33.100  28.323  1.00  0.00     0.009 A 
ATOM     82  C   UNL A   1      34.486  32.462  29.805  1.00  0.00     0.001 A 
ATOM     83  C   UNL A   1      35.515  33.601  27.943  1.00  0.00     0.001 A 
ATOM     84  C   UNL A   1      34.377  33.272  28.676  1.00  0.00     0.000 A 
ENDBRANCH  60  79
BRANCH  72  85
ATOM     85  C   UNL A   1      42.103  34.818  33.313  1.00  0.00    -0.014 A 
ATOM     86  C   UNL A   1      41.492  35.090  34.546  1.00  0.00     0.009 A 
ATOM     87  C   UNL A   1      42.937  35.790  32.738  1.00  0.00     0.009 A 
ATOM     88  C   UNL A   1      41.681  36.325  35.170  1.00  0.00     0.001 A 
ATOM     89  C   UNL A   1      43.152  37.010  33.380  1.00  0.00     0.001 A 
ATOM     90  C   UNL A   1      42.514  37.281  34.590  1.00  0.00     0.000 A 
ENDBRANCH  72  85
ENDBRANCH  46  47
ENDBRANCH  38  41
ENDBRANCH  36  37
ENDBRANCH  35  36
ENDBRANCH  34  35
ENDBRANCH   1  34
TORSDOF 16
ENDMDL
MODEL 3
REMARK VINA RESULT:     -11.6      5.412     10.821
REMARK SMILES COC(=O)c1ccc([C@H]2Nc3c(C(=O)NCCCCCCNC(=O)c4ccc(-c5c6nc(c(-c7ccccc7)c7ccc([nH]7)c(-c7ccccc7)c7nc(c(-c8ccccc8)c8ccc5[nH]8)C=C7)C=C6)cc4)cccc3[C@@H]3[C@@H]4CC[C@@H](C4)[C@@H]32)cc1
REMARK SMILES IDX 18 1 17 2 16 3 15 4 13 5 14 6 12 8 9 9 10 10 83 11 11 12
REMARK SMILES IDX 77 14 81 15 76 16 78 17 80 18 82 19 73 20 75 21 79 22 74 23
REMARK SMILES IDX 8 24 5 25 6 26 85 27 7 28 84 29 3 30 4 31 2 32 1 33 19 34
REMARK SMILES IDX 20 35 21 36 22 37 23 38 24 40 25 41 26 42 72 43 27 44 71 45
REMARK SMILES IDX 28 46 29 47 30 48 65 49 31 50 70 51 64 52 66 53 32 54 69 55
REMARK SMILES IDX 63 56 62 57 33 59 55 60 40 61 54 62 41 63 44 64 53 65 67 66
REMARK SMILES IDX 42 67 43 68 52 70 68 71 45 72 34 73 35 74 39 75 36 76 38 77
REMARK SMILES IDX 37 78 56 79 57 80 61 81 58 82 60 83 59 84 46 85 47 86 51 87
REMARK SMILES IDX 48 88 50 89 49 90
REMARK H PARENT 15 7 10 13 22 39 66 58 44 69
REMARK Flexibility Score: inf
ROOT
ATOM      1  C   UNL A   1      40.358  22.972  26.909  1.00  0.00     0.002 C 
ENDROOT
BRANCH   1   2
ATOM      2  C   UNL A   1      39.013  23.685  27.045  1.00  0.00     0.021 C 
BRANCH   2   3
ATOM      3  C   UNL A   1      38.221  23.897  25.760  1.00  0.00     0.116 C 
BRANCH   3   4
ATOM      4  N   UNL A   1      36.791  24.080  25.884  1.00  0.00    -0.352 N 
ATOM      5  C   UNL A   1      35.776  23.134  25.824  1.00  0.00     0.253 C 
ATOM      6  O   UNL A   1      34.623  23.517  26.034  1.00  0.00    -0.269 OA
ATOM      7  H   UNL A   1      36.496  25.007  26.034  1.00  0.00     0.163 HD
BRANCH   5   8
ATOM      8  C   UNL A   1      35.989  21.702  25.421  1.00  0.00     0.063 A 
ATOM      9  C   UNL A   1      32.977  20.467  24.110  1.00  0.00     0.113 C 
ATOM     10  N   UNL A   1      33.640  21.061  25.287  1.00  0.00    -0.377 N 
ATOM     11  C   UNL A   1      32.641  19.071  24.675  1.00  0.00     0.027 C 
ATOM     12  C   UNL A   1      34.990  20.731  25.319  1.00  0.00     0.051 A 
ATOM     13  H   UNL A   1      33.187  21.617  25.962  1.00  0.00     0.161 HD
ATOM     14  C   UNL A   1      34.037  18.441  25.209  1.00  0.00     0.030 C 
ATOM     15  C   UNL A   1      32.100  17.913  23.813  1.00  0.00    -0.005 C 
ATOM     16  C   UNL A   1      35.254  19.361  25.086  1.00  0.00    -0.020 A 
ATOM     17  C   UNL A   1      34.049  17.052  24.549  1.00  0.00    -0.003 C 
ATOM     18  C   UNL A   1      32.904  17.699  22.527  1.00  0.00     0.004 C 
ATOM     19  C   UNL A   1      32.560  16.690  24.634  1.00  0.00     0.008 C 
ATOM     20  C   UNL A   1      37.260  21.326  24.979  1.00  0.00     0.016 A 
ATOM     21  C   UNL A   1      36.549  19.001  24.736  1.00  0.00     0.006 A 
ATOM     22  C   UNL A   1      34.244  17.145  23.029  1.00  0.00     0.004 C 
ATOM     23  C   UNL A   1      37.528  19.996  24.614  1.00  0.00     0.001 A 
BRANCH   9  24
ATOM     24  C   UNL A   1      32.224  21.712  23.637  1.00  0.00    -0.025 A 
ATOM     25  C   UNL A   1      32.700  24.403  22.960  1.00  0.00     0.060 A 
ATOM     26  C   UNL A   1      32.901  23.410  22.005  1.00  0.00     0.016 A 
ATOM     27  C   UNL A   1      32.043  24.074  24.160  1.00  0.00     0.016 A 
ATOM     28  C   UNL A   1      32.605  22.086  22.315  1.00  0.00     0.007 A 
ATOM     29  C   UNL A   1      31.806  22.726  24.507  1.00  0.00     0.007 A 
BRANCH  25  30
ATOM     30  C   UNL A   1      33.410  25.699  22.724  1.00  0.00     0.337 C 
ATOM     31  O   UNL A   1      33.794  26.059  21.623  1.00  0.00    -0.246 OA
BRANCH  30  32
ATOM     32  O   UNL A   1      33.678  26.353  23.884  1.00  0.00    -0.465 OA
ATOM     33  C   UNL A   1      33.039  27.635  23.957  1.00  0.00     0.282 C 
ENDBRANCH  30  32
ENDBRANCH  25  30
ENDBRANCH   9  24
ENDBRANCH   5   8
ENDBRANCH   3   4
ENDBRANCH   2   3
ENDBRANCH   1   2
BRANCH   1  34
ATOM     34  C   UNL A   1      40.371  21.474  27.209  1.00  0.00     0.002 C 
BRANCH  34  35
ATOM     35  C   UNL A   1      40.897  20.523  26.140  1.00  0.00     0.021 C 
BRANCH  35  36
ATOM     36  C   UNL A   1      42.172  19.778  26.492  1.00  0.00     0.116 C 
BRANCH  36  37
ATOM     37  N   UNL A   1      43.167  19.790  25.431  1.00  0.00    -0.352 N 
ATOM     38  C   UNL A   1      43.913  20.832  24.938  1.00  0.00     0.251 C 
ATOM     39  H   UNL A   1      43.331  18.919  25.001  1.00  0.00     0.163 HD
ATOM     40  O   UNL A   1      44.645  20.664  23.969  1.00  0.00    -0.269 OA
BRANCH  38  41
ATOM     41  C   UNL A   1      43.798  22.173  25.551  1.00  0.00     0.039 A 
ATOM     42  C   UNL A   1      44.123  22.325  26.901  1.00  0.00     0.014 A 
ATOM     43  C   UNL A   1      43.400  23.279  24.797  1.00  0.00     0.014 A 
ATOM     44  C   UNL A   1      44.123  23.599  27.471  1.00  0.00     0.010 A 
ATOM     45  C   UNL A   1      43.498  24.556  25.338  1.00  0.00     0.010 A 
ATOM     46  C   UNL A   1      43.853  24.729  26.683  1.00  0.00    -0.014 A 
BRANCH  46  47
ATOM     47  C   UNL A   1      43.933  26.100  27.249  1.00  0.00     0.031 A 
ATOM     48  C   UNL A   1      45.263  26.794  27.363  1.00  0.00     0.074 A 
ATOM     49  C   UNL A   1      42.816  26.695  27.713  1.00  0.00     0.049 A 
ATOM     50  N   UNL A   1      45.537  27.972  27.862  1.00  0.00    -0.248 NA
ATOM     51  C   UNL A   1      46.443  26.057  26.882  1.00  0.00     0.031 C 
ATOM     52  C   UNL A   1      41.474  26.107  27.707  1.00  0.00     0.029 A 
ATOM     53  N   UNL A   1      42.633  27.930  28.282  1.00  0.00    -0.354 N 
ATOM     54  C   UNL A   1      46.918  28.107  27.769  1.00  0.00     0.074 A 
ATOM     55  C   UNL A   1      47.429  26.869  27.227  1.00  0.00     0.031 C 
ATOM     56  C   UNL A   1      40.601  26.997  28.207  1.00  0.00     0.029 A 
ATOM     57  C   UNL A   1      41.326  28.197  28.610  1.00  0.00     0.049 A 
ATOM     58  H   UNL A   1      43.369  28.565  28.441  1.00  0.00     0.167 HD
ATOM     59  C   UNL A   1      47.689  29.175  28.083  1.00  0.00     0.031 A 
ATOM     60  C   UNL A   1      40.771  29.288  29.171  1.00  0.00     0.031 A 
ATOM     61  C   UNL A   1      47.177  30.410  28.611  1.00  0.00     0.049 A 
ATOM     62  C   UNL A   1      41.651  30.457  29.520  1.00  0.00     0.074 A 
ATOM     63  C   UNL A   1      47.867  31.573  28.906  1.00  0.00     0.029 A 
ATOM     64  N   UNL A   1      45.846  30.642  28.925  1.00  0.00    -0.354 N 
ATOM     65  N   UNL A   1      42.944  30.597  29.355  1.00  0.00    -0.248 NA
ATOM     66  C   UNL A   1      40.990  31.623  30.120  1.00  0.00     0.031 C 
ATOM     67  C   UNL A   1      46.962  32.489  29.454  1.00  0.00     0.029 A 
ATOM     68  C   UNL A   1      45.699  31.919  29.438  1.00  0.00     0.049 A 
ATOM     69  H   UNL A   1      45.116  29.994  28.802  1.00  0.00     0.167 HD
ATOM     70  C   UNL A   1      43.247  31.876  29.805  1.00  0.00     0.074 A 
ATOM     71  C   UNL A   1      41.999  32.477  30.228  1.00  0.00     0.031 C 
ATOM     72  C   UNL A   1      44.449  32.499  29.861  1.00  0.00     0.031 A 
BRANCH  59  73
ATOM     73  C   UNL A   1      49.173  29.045  27.867  1.00  0.00    -0.014 A 
ATOM     74  C   UNL A   1      49.768  29.402  26.646  1.00  0.00     0.009 A 
ATOM     75  C   UNL A   1      49.992  28.584  28.909  1.00  0.00     0.009 A 
ATOM     76  C   UNL A   1      51.144  29.261  26.460  1.00  0.00     0.001 A 
ATOM     77  C   UNL A   1      51.373  28.476  28.732  1.00  0.00     0.001 A 
ATOM     78  C   UNL A   1      51.946  28.805  27.504  1.00  0.00     0.000 A 
ENDBRANCH  59  73
BRANCH  60  79
ATOM     79  C   UNL A   1      39.306  29.337  29.425  1.00  0.00    -0.014 A 
ATOM     80  C   UNL A   1      38.785  28.955  30.670  1.00  0.00     0.009 A 
ATOM     81  C   UNL A   1      38.420  29.756  28.421  1.00  0.00     0.009 A 
ATOM     82  C   UNL A   1      37.406  28.961  30.895  1.00  0.00     0.001 A 
ATOM     83  C   UNL A   1      37.045  29.794  28.658  1.00  0.00     0.001 A 
ATOM     84  C   UNL A   1      36.537  29.385  29.890  1.00  0.00     0.000 A 
ENDBRANCH  60  79
BRANCH  72  85
ATOM     85  C   UNL A   1      44.466  33.912  30.370  1.00  0.00    -0.014 A 
ATOM     86  C   UNL A   1      44.676  34.200  31.728  1.00  0.00     0.009 A 
ATOM     87  C   UNL A   1      44.297  34.975  29.469  1.00  0.00     0.009 A 
ATOM     88  C   UNL A   1      44.677  35.522  32.177  1.00  0.00     0.001 A 
ATOM     89  C   UNL A   1      44.333  36.297  29.915  1.00  0.00     0.001 A 
ATOM     90  C   UNL A   1      44.511  36.569  31.270  1.00  0.00     0.000 A 
ENDBRANCH  72  85
ENDBRANCH  46  47
ENDBRANCH  38  41
ENDBRANCH  36  37
ENDBRANCH  35  36
ENDBRANCH  34  35
ENDBRANCH   1  34
TORSDOF 16
ENDMDL
