MODEL 1
REMARK VINA RESULT:     -10.4      0.000      0.000
REMARK SMILES CCC[C@@]1(C(=O)NCCCCCCNC(=O)c2ccc(-c3c4nc(c(-c5ccccc5)c5ccc([nH]5)c(-c5ccccc5)c5nc(c(-c6ccccc6)c6ccc3[nH]6)C=C5)C=C4)cc2)CCN(C(=O)[C@@H]2CC[NH2+][C@@H]2C)C1
REMARK SMILES IDX 10 1 9 2 8 3 7 4 5 5 6 6 4 8 65 9 76 10 66 11 67 12 3 13
REMARK SMILES IDX 2 14 1 15 68 16 69 17 70 18 71 19 74 20 72 21 73 22 75 23
REMARK SMILES IDX 11 26 12 27 13 28 14 29 15 30 16 32 17 33 18 34 64 35 19 36
REMARK SMILES IDX 63 37 20 38 21 39 22 40 57 41 23 42 62 43 56 44 58 45 24 46
REMARK SMILES IDX 61 47 55 48 54 49 25 51 47 52 32 53 46 54 33 55 36 56 45 57
REMARK SMILES IDX 59 58 34 59 35 60 44 62 60 63 37 64 26 65 27 66 31 67 28 68
REMARK SMILES IDX 30 69 29 70 48 71 49 72 53 73 50 74 52 75 51 76 38 77 39 78
REMARK SMILES IDX 43 79 40 80 42 81 41 82
REMARK H PARENT 7 7 73 24 73 25 14 31 58 50 36 61
REMARK Flexibility Score: inf
ROOT
ATOM      1  C   UNL A   1      32.397  29.421  26.711  1.00  0.00     0.002 C 
ENDROOT
BRANCH   1   2
ATOM      2  C   UNL A   1      33.400  28.535  25.966  1.00  0.00     0.021 C 
BRANCH   2   3
ATOM      3  C   UNL A   1      33.435  27.088  26.442  1.00  0.00     0.116 C 
BRANCH   3   4
ATOM      4  N   UNL A   1      32.230  26.367  26.111  1.00  0.00    -0.356 N 
ATOM      5  C   UNL A   1      31.817  25.681  25.023  1.00  0.00     0.228 C 
ATOM      6  O   UNL A   1      30.765  25.047  25.198  1.00  0.00    -0.274 OA
ATOM      7  H   UNL A   1      31.564  26.376  26.836  1.00  0.00     0.163 HD
BRANCH   5   8
ATOM      8  C   UNL A   1      32.567  25.550  23.681  1.00  0.00     0.068 C 
ATOM      9  C   UNL A   1      31.870  24.432  22.870  1.00  0.00     0.040 C 
ATOM     10  C   UNL A   1      34.031  25.087  23.644  1.00  0.00     0.136 C 
ATOM     11  C   UNL A   1      32.662  23.174  23.184  1.00  0.00     0.120 C 
ATOM     12  N   UNL A   1      34.019  23.644  23.377  1.00  0.00    -0.341 N 
BRANCH   8  13
ATOM     13  C   UNL A   1      32.418  26.903  22.915  1.00  0.00     0.018 C 
BRANCH  13  14
ATOM     14  C   UNL A   1      31.028  27.263  22.358  1.00  0.00    -0.002 C 
ATOM     15  C   UNL A   1      30.224  28.270  23.160  1.00  0.00     0.004 C 
ENDBRANCH  13  14
ENDBRANCH   8  13
BRANCH  12  16
ATOM     16  C   UNL A   1      35.194  22.929  23.403  1.00  0.00     0.231 C 
ATOM     17  O   UNL A   1      36.019  23.086  22.492  1.00  0.00    -0.274 OA
BRANCH  16  18
ATOM     18  C   UNL A   1      35.562  21.958  24.535  1.00  0.00     0.142 C 
ATOM     19  C   UNL A   1      34.426  21.104  25.091  1.00  0.00     0.081 C 
ATOM     20  C   UNL A   1      36.248  22.518  25.777  1.00  0.00     0.192 C 
ATOM     21  C   UNL A   1      34.308  21.482  26.566  1.00  0.00     0.261 C 
ATOM     22  N   UNL A   1      35.163  22.653  26.754  1.00  0.00    -0.343 N 
ATOM     23  C   UNL A   1      37.050  23.798  25.623  1.00  0.00     0.076 C 
ATOM     24  H   UNL A   1      35.539  22.669  27.703  1.00  0.00     0.346 HD
ATOM     25  H   UNL A   1      34.645  23.522  26.623  1.00  0.00     0.346 HD
ENDBRANCH  16  18
ENDBRANCH  12  16
ENDBRANCH   5   8
ENDBRANCH   3   4
ENDBRANCH   2   3
ENDBRANCH   1   2
BRANCH   1  26
ATOM     26  C   UNL A   1      31.663  30.458  25.852  1.00  0.00     0.002 C 
BRANCH  26  27
ATOM     27  C   UNL A   1      31.396  31.807  26.523  1.00  0.00     0.021 C 
BRANCH  27  28
ATOM     28  C   UNL A   1      32.598  32.438  27.215  1.00  0.00     0.116 C 
BRANCH  28  29
ATOM     29  N   UNL A   1      32.369  33.835  27.540  1.00  0.00    -0.352 N 
ATOM     30  C   UNL A   1      33.018  34.645  28.437  1.00  0.00     0.251 C 
ATOM     31  H   UNL A   1      31.639  34.266  27.040  1.00  0.00     0.163 HD
ATOM     32  O   UNL A   1      32.558  35.747  28.717  1.00  0.00    -0.269 OA
BRANCH  30  33
ATOM     33  C   UNL A   1      34.263  34.183  29.088  1.00  0.00     0.039 A 
ATOM     34  C   UNL A   1      34.167  33.480  30.292  1.00  0.00     0.014 A 
ATOM     35  C   UNL A   1      35.516  34.451  28.529  1.00  0.00     0.014 A 
ATOM     36  C   UNL A   1      35.323  32.990  30.901  1.00  0.00     0.010 A 
ATOM     37  C   UNL A   1      36.662  33.903  29.102  1.00  0.00     0.010 A 
ATOM     38  C   UNL A   1      36.575  33.163  30.290  1.00  0.00    -0.014 A 
BRANCH  38  39
ATOM     39  C   UNL A   1      37.797  32.548  30.867  1.00  0.00     0.031 A 
ATOM     40  C   UNL A   1      38.395  31.312  30.255  1.00  0.00     0.074 A 
ATOM     41  C   UNL A   1      38.334  33.074  31.985  1.00  0.00     0.049 A 
ATOM     42  N   UNL A   1      39.434  30.618  30.647  1.00  0.00    -0.248 NA
ATOM     43  C   UNL A   1      37.728  30.774  29.058  1.00  0.00     0.031 C 
ATOM     44  C   UNL A   1      37.824  34.248  32.697  1.00  0.00     0.029 A 
ATOM     45  N   UNL A   1      39.423  32.684  32.724  1.00  0.00    -0.354 N 
ATOM     46  C   UNL A   1      39.537  29.558  29.757  1.00  0.00     0.074 A 
ATOM     47  C   UNL A   1      38.431  29.672  28.832  1.00  0.00     0.031 C 
ATOM     48  C   UNL A   1      38.615  34.498  33.752  1.00  0.00     0.029 A 
ATOM     49  C   UNL A   1      39.658  33.479  33.819  1.00  0.00     0.049 A 
ATOM     50  H   UNL A   1      39.983  31.909  32.490  1.00  0.00     0.167 HD
ATOM     51  C   UNL A   1      40.478  28.584  29.705  1.00  0.00     0.031 A 
ATOM     52  C   UNL A   1      40.597  33.393  34.778  1.00  0.00     0.031 A 
ATOM     53  C   UNL A   1      41.577  28.470  30.627  1.00  0.00     0.049 A 
ATOM     54  C   UNL A   1      41.609  32.284  34.717  1.00  0.00     0.074 A 
ATOM     55  C   UNL A   1      42.618  27.557  30.618  1.00  0.00     0.029 A 
ATOM     56  N   UNL A   1      41.772  29.286  31.730  1.00  0.00    -0.354 N 
ATOM     57  N   UNL A   1      41.742  31.337  33.821  1.00  0.00    -0.248 NA
ATOM     58  C   UNL A   1      42.604  32.237  35.798  1.00  0.00     0.031 C 
ATOM     59  C   UNL A   1      43.405  27.781  31.753  1.00  0.00     0.029 A 
ATOM     60  C   UNL A   1      42.891  28.873  32.433  1.00  0.00     0.049 A 
ATOM     61  H   UNL A   1      41.198  30.048  31.978  1.00  0.00     0.167 HD
ATOM     62  C   UNL A   1      42.843  30.590  34.220  1.00  0.00     0.074 A 
ATOM     63  C   UNL A   1      43.355  31.210  35.425  1.00  0.00     0.031 C 
ATOM     64  C   UNL A   1      43.380  29.488  33.640  1.00  0.00     0.031 A 
BRANCH  51  65
ATOM     65  C   UNL A   1      40.347  27.550  28.620  1.00  0.00    -0.014 A 
ATOM     66  C   UNL A   1      40.942  27.732  27.361  1.00  0.00     0.009 A 
ATOM     67  C   UNL A   1      39.652  26.358  28.873  1.00  0.00     0.009 A 
ATOM     68  C   UNL A   1      40.808  26.761  26.367  1.00  0.00     0.001 A 
ATOM     69  C   UNL A   1      39.546  25.374  27.888  1.00  0.00     0.001 A 
ATOM     70  C   UNL A   1      40.115  25.581  26.633  1.00  0.00     0.000 A 
ENDBRANCH  51  65
BRANCH  52  71
ATOM     71  C   UNL A   1      40.623  34.388  35.882  1.00  0.00    -0.014 A 
ATOM     72  C   UNL A   1      41.421  35.538  35.789  1.00  0.00     0.009 A 
ATOM     73  C   UNL A   1      39.845  34.194  37.035  1.00  0.00     0.009 A 
ATOM     74  C   UNL A   1      41.456  36.462  36.836  1.00  0.00     0.001 A 
ATOM     75  C   UNL A   1      39.858  35.134  38.067  1.00  0.00     0.001 A 
ATOM     76  C   UNL A   1      40.670  36.263  37.970  1.00  0.00     0.000 A 
ENDBRANCH  52  71
BRANCH  64  77
ATOM     77  C   UNL A   1      44.591  28.888  34.298  1.00  0.00    -0.014 A 
ATOM     78  C   UNL A   1      44.466  27.866  35.252  1.00  0.00     0.009 A 
ATOM     79  C   UNL A   1      45.874  29.322  33.930  1.00  0.00     0.009 A 
ATOM     80  C   UNL A   1      45.603  27.312  35.846  1.00  0.00     0.001 A 
ATOM     81  C   UNL A   1      47.008  28.745  34.502  1.00  0.00     0.001 A 
ATOM     82  C   UNL A   1      46.872  27.748  35.466  1.00  0.00     0.000 A 
ENDBRANCH  64  77
ENDBRANCH  38  39
ENDBRANCH  30  33
ENDBRANCH  28  29
ENDBRANCH  27  28
ENDBRANCH  26  27
ENDBRANCH   1  26
TORSDOF 17
ENDMDL
MODEL 2
REMARK VINA RESULT:     -10.2      4.312      9.367
REMARK SMILES CCC[C@@]1(C(=O)NCCCCCCNC(=O)c2ccc(-c3c4nc(c(-c5ccccc5)c5ccc([nH]5)c(-c5ccccc5)c5nc(c(-c6ccccc6)c6ccc3[nH]6)C=C5)C=C4)cc2)CCN(C(=O)[C@@H]2CC[NH2+][C@@H]2C)C1
REMARK SMILES IDX 10 1 9 2 8 3 7 4 5 5 6 6 4 8 65 9 76 10 66 11 67 12 3 13
REMARK SMILES IDX 2 14 1 15 68 16 69 17 70 18 71 19 74 20 72 21 73 22 75 23
REMARK SMILES IDX 11 26 12 27 13 28 14 29 15 30 16 32 17 33 18 34 64 35 19 36
REMARK SMILES IDX 63 37 20 38 21 39 22 40 57 41 23 42 62 43 56 44 58 45 24 46
REMARK SMILES IDX 61 47 55 48 54 49 25 51 47 52 32 53 46 54 33 55 36 56 45 57
REMARK SMILES IDX 59 58 34 59 35 60 44 62 60 63 37 64 26 65 27 66 31 67 28 68
REMARK SMILES IDX 30 69 29 70 48 71 49 72 53 73 50 74 52 75 51 76 38 77 39 78
REMARK SMILES IDX 43 79 40 80 42 81 41 82
REMARK H PARENT 7 7 73 24 73 25 14 31 58 50 36 61
REMARK Flexibility Score: inf
ROOT
ATOM      1  C   UNL A   1      39.417  22.084  26.111  1.00  0.00     0.002 C 
ENDROOT
BRANCH   1   2
ATOM      2  C   UNL A   1      38.905  23.470  26.513  1.00  0.00     0.021 C 
BRANCH   2   3
ATOM      3  C   UNL A   1      37.543  23.830  25.933  1.00  0.00     0.116 C 
BRANCH   3   4
ATOM      4  N   UNL A   1      37.396  23.409  24.561  1.00  0.00    -0.356 N 
ATOM      5  C   UNL A   1      36.334  23.115  23.780  1.00  0.00     0.228 C 
ATOM      6  O   UNL A   1      36.618  22.956  22.583  1.00  0.00    -0.274 OA
ATOM      7  H   UNL A   1      38.256  23.315  24.092  1.00  0.00     0.163 HD
BRANCH   5   8
ATOM      8  C   UNL A   1      34.856  23.064  24.221  1.00  0.00     0.068 C 
ATOM      9  C   UNL A   1      33.996  22.948  22.940  1.00  0.00     0.040 C 
ATOM     10  C   UNL A   1      34.205  24.268  24.919  1.00  0.00     0.136 C 
ATOM     11  C   UNL A   1      33.617  24.379  22.597  1.00  0.00     0.120 C 
ATOM     12  N   UNL A   1      33.505  25.038  23.883  1.00  0.00    -0.341 N 
BRANCH   8  13
ATOM     13  C   UNL A   1      34.658  21.778  25.085  1.00  0.00     0.018 C 
BRANCH  13  14
ATOM     14  C   UNL A   1      33.334  21.007  24.933  1.00  0.00    -0.002 C 
ATOM     15  C   UNL A   1      33.441  19.494  24.866  1.00  0.00     0.004 C 
ENDBRANCH  13  14
ENDBRANCH   8  13
BRANCH  12  16
ATOM     16  C   UNL A   1      32.922  26.243  24.198  1.00  0.00     0.231 C 
ATOM     17  O   UNL A   1      31.721  26.418  23.946  1.00  0.00    -0.274 OA
BRANCH  16  18
ATOM     18  C   UNL A   1      33.678  27.389  24.887  1.00  0.00     0.142 C 
ATOM     19  C   UNL A   1      33.092  27.891  26.203  1.00  0.00     0.081 C 
ATOM     20  C   UNL A   1      33.949  28.662  24.091  1.00  0.00     0.192 C 
ATOM     21  C   UNL A   1      32.745  29.360  25.968  1.00  0.00     0.261 C 
ATOM     22  N   UNL A   1      32.902  29.589  24.532  1.00  0.00    -0.343 N 
ATOM     23  C   UNL A   1      34.018  28.547  22.578  1.00  0.00     0.076 C 
ATOM     24  H   UNL A   1      33.184  30.554  24.355  1.00  0.00     0.346 HD
ATOM     25  H   UNL A   1      32.027  29.435  24.030  1.00  0.00     0.346 HD
ENDBRANCH  16  18
ENDBRANCH  12  16
ENDBRANCH   5   8
ENDBRANCH   3   4
ENDBRANCH   2   3
ENDBRANCH   1   2
BRANCH   1  26
ATOM     26  C   UNL A   1      40.398  21.431  27.092  1.00  0.00     0.002 C 
BRANCH  26  27
ATOM     27  C   UNL A   1      40.791  19.986  26.774  1.00  0.00     0.021 C 
BRANCH  27  28
ATOM     28  C   UNL A   1      42.213  19.598  27.162  1.00  0.00     0.116 C 
BRANCH  28  29
ATOM     29  N   UNL A   1      43.099  19.553  26.013  1.00  0.00    -0.352 N 
ATOM     30  C   UNL A   1      43.676  20.579  25.309  1.00  0.00     0.251 C 
ATOM     31  H   UNL A   1      43.320  18.649  25.690  1.00  0.00     0.163 HD
ATOM     32  O   UNL A   1      44.241  20.354  24.244  1.00  0.00    -0.269 OA
BRANCH  30  33
ATOM     33  C   UNL A   1      43.599  21.965  25.820  1.00  0.00     0.039 A 
ATOM     34  C   UNL A   1      43.920  22.202  27.159  1.00  0.00     0.014 A 
ATOM     35  C   UNL A   1      43.198  23.020  24.996  1.00  0.00     0.014 A 
ATOM     36  C   UNL A   1      43.903  23.507  27.654  1.00  0.00     0.010 A 
ATOM     37  C   UNL A   1      43.248  24.329  25.472  1.00  0.00     0.010 A 
ATOM     38  C   UNL A   1      43.605  24.585  26.804  1.00  0.00    -0.014 A 
BRANCH  38  39
ATOM     39  C   UNL A   1      43.696  25.985  27.287  1.00  0.00     0.031 A 
ATOM     40  C   UNL A   1      45.030  26.668  27.413  1.00  0.00     0.074 A 
ATOM     41  C   UNL A   1      42.574  26.623  27.672  1.00  0.00     0.049 A 
ATOM     42  N   UNL A   1      45.302  27.871  27.852  1.00  0.00    -0.248 NA
ATOM     43  C   UNL A   1      46.214  25.892  27.011  1.00  0.00     0.031 C 
ATOM     44  C   UNL A   1      41.224  26.056  27.636  1.00  0.00     0.029 A 
ATOM     45  N   UNL A   1      42.390  27.886  28.177  1.00  0.00    -0.354 N 
ATOM     46  C   UNL A   1      46.684  27.991  27.793  1.00  0.00     0.074 A 
ATOM     47  C   UNL A   1      47.198  26.725  27.318  1.00  0.00     0.031 C 
ATOM     48  C   UNL A   1      40.350  26.977  28.072  1.00  0.00     0.029 A 
ATOM     49  C   UNL A   1      41.079  28.179  28.462  1.00  0.00     0.049 A 
ATOM     50  H   UNL A   1      43.129  28.522  28.320  1.00  0.00     0.167 HD
ATOM     51  C   UNL A   1      47.453  29.064  28.093  1.00  0.00     0.031 A 
ATOM     52  C   UNL A   1      40.524  29.286  28.989  1.00  0.00     0.031 A 
ATOM     53  C   UNL A   1      46.940  30.323  28.567  1.00  0.00     0.049 A 
ATOM     54  C   UNL A   1      41.404  30.451  29.344  1.00  0.00     0.074 A 
ATOM     55  C   UNL A   1      47.635  31.490  28.835  1.00  0.00     0.029 A 
ATOM     56  N   UNL A   1      45.608  30.575  28.855  1.00  0.00    -0.354 N 
ATOM     57  N   UNL A   1      42.701  30.578  29.204  1.00  0.00    -0.248 NA
ATOM     58  C   UNL A   1      40.741  31.627  29.925  1.00  0.00     0.031 C 
ATOM     59  C   UNL A   1      46.731  32.427  29.348  1.00  0.00     0.029 A 
ATOM     60  C   UNL A   1      45.465  31.865  29.339  1.00  0.00     0.049 A 
ATOM     61  H   UNL A   1      44.872  29.932  28.734  1.00  0.00     0.167 HD
ATOM     62  C   UNL A   1      43.008  31.852  29.664  1.00  0.00     0.074 A 
ATOM     63  C   UNL A   1      41.758  32.465  30.064  1.00  0.00     0.031 C 
ATOM     64  C   UNL A   1      44.219  32.457  29.750  1.00  0.00     0.031 A 
BRANCH  51  65
ATOM     65  C   UNL A   1      48.942  28.917  27.932  1.00  0.00    -0.014 A 
ATOM     66  C   UNL A   1      49.580  29.216  26.716  1.00  0.00     0.009 A 
ATOM     67  C   UNL A   1      49.725  28.510  29.023  1.00  0.00     0.009 A 
ATOM     68  C   UNL A   1      50.963  29.070  26.587  1.00  0.00     0.001 A 
ATOM     69  C   UNL A   1      51.111  28.396  28.901  1.00  0.00     0.001 A 
ATOM     70  C   UNL A   1      51.727  28.666  27.681  1.00  0.00     0.000 A 
ENDBRANCH  51  65
BRANCH  52  71
ATOM     71  C   UNL A   1      39.056  29.343  29.215  1.00  0.00    -0.014 A 
ATOM     72  C   UNL A   1      38.508  28.964  30.449  1.00  0.00     0.009 A 
ATOM     73  C   UNL A   1      38.195  29.780  28.196  1.00  0.00     0.009 A 
ATOM     74  C   UNL A   1      37.126  29.002  30.652  1.00  0.00     0.001 A 
ATOM     75  C   UNL A   1      36.817  29.845  28.411  1.00  0.00     0.001 A 
ATOM     76  C   UNL A   1      36.283  29.448  29.635  1.00  0.00     0.000 A 
ENDBRANCH  52  71
BRANCH  64  77
ATOM     77  C   UNL A   1      44.247  33.860  30.288  1.00  0.00    -0.014 A 
ATOM     78  C   UNL A   1      44.068  34.966  29.441  1.00  0.00     0.009 A 
ATOM     79  C   UNL A   1      44.413  34.078  31.665  1.00  0.00     0.009 A 
ATOM     80  C   UNL A   1      44.086  36.263  29.960  1.00  0.00     0.001 A 
ATOM     81  C   UNL A   1      44.400  35.373  32.184  1.00  0.00     0.001 A 
ATOM     82  C   UNL A   1      44.246  36.464  31.331  1.00  0.00     0.000 A 
ENDBRANCH  64  77
ENDBRANCH  38  39
ENDBRANCH  30  33
ENDBRANCH  28  29
ENDBRANCH  27  28
ENDBRANCH  26  27
ENDBRANCH   1  26
TORSDOF 17
ENDMDL
MODEL 3
REMARK VINA RESULT:     -10.1      4.335      9.485
REMARK SMILES CCC[C@@]1(C(=O)NCCCCCCNC(=O)c2ccc(-c3c4nc(c(-c5ccccc5)c5ccc([nH]5)c(-c5ccccc5)c5nc(c(-c6ccccc6)c6ccc3[nH]6)C=C5)C=C4)cc2)CCN(C(=O)[C@@H]2CC[NH2+][C@@H]2C)C1
REMARK SMILES IDX 10 1 9 2 8 3 7 4 5 5 6 6 4 8 65 9 76 10 66 11 67 12 3 13
REMARK SMILES IDX 2 14 1 15 68 16 69 17 70 18 71 19 74 20 72 21 73 22 75 23
REMARK SMILES IDX 11 26 12 27 13 28 14 29 15 30 16 32 17 33 18 34 64 35 19 36
REMARK SMILES IDX 63 37 20 38 21 39 22 40 57 41 23 42 62 43 56 44 58 45 24 46
REMARK SMILES IDX 61 47 55 48 54 49 25 51 47 52 32 53 46 54 33 55 36 56 45 57
REMARK SMILES IDX 59 58 34 59 35 60 44 62 60 63 37 64 26 65 27 66 31 67 28 68
REMARK SMILES IDX 30 69 29 70 48 71 49 72 53 73 50 74 52 75 51 76 38 77 39 78
REMARK SMILES IDX 43 79 40 80 42 81 41 82
REMARK H PARENT 7 7 73 24 73 25 14 31 58 50 36 61
REMARK Flexibility Score: inf
ROOT
ATOM      1  C   UNL A   1      39.477  22.534  25.966  1.00  0.00     0.002 C 
ENDROOT
BRANCH   1   2
ATOM      2  C   UNL A   1      38.694  23.715  26.548  1.00  0.00     0.021 C 
BRANCH   2   3
ATOM      3  C   UNL A   1      37.305  23.903  25.951  1.00  0.00     0.116 C 
BRANCH   3   4
ATOM      4  N   UNL A   1      37.233  23.484  24.572  1.00  0.00    -0.356 N 
ATOM      5  C   UNL A   1      36.215  23.210  23.728  1.00  0.00     0.228 C 
ATOM      6  O   UNL A   1      36.567  23.045  22.550  1.00  0.00    -0.274 OA
ATOM      7  H   UNL A   1      38.118  23.374  24.155  1.00  0.00     0.163 HD
BRANCH   5   8
ATOM      8  C   UNL A   1      34.712  23.187  24.079  1.00  0.00     0.068 C 
ATOM      9  C   UNL A   1      33.929  23.469  22.775  1.00  0.00     0.040 C 
ATOM     10  C   UNL A   1      34.114  24.236  25.028  1.00  0.00     0.136 C 
ATOM     11  C   UNL A   1      33.685  24.969  22.786  1.00  0.00     0.120 C 
ATOM     12  N   UNL A   1      33.543  25.298  24.190  1.00  0.00    -0.341 N 
BRANCH   8  13
ATOM     13  C   UNL A   1      34.360  21.751  24.584  1.00  0.00     0.018 C 
BRANCH  13  14
ATOM     14  C   UNL A   1      33.101  21.077  24.010  1.00  0.00    -0.002 C 
ATOM     15  C   UNL A   1      32.536  19.918  24.812  1.00  0.00     0.004 C 
ENDBRANCH  13  14
ENDBRANCH   8  13
BRANCH  12  16
ATOM     16  C   UNL A   1      33.037  26.437  24.772  1.00  0.00     0.231 C 
ATOM     17  O   UNL A   1      31.905  26.407  25.277  1.00  0.00    -0.274 OA
BRANCH  16  18
ATOM     18  C   UNL A   1      33.821  27.754  24.864  1.00  0.00     0.142 C 
ATOM     19  C   UNL A   1      34.001  28.339  26.262  1.00  0.00     0.081 C 
ATOM     20  C   UNL A   1      33.352  28.938  24.023  1.00  0.00     0.192 C 
ATOM     21  C   UNL A   1      33.316  29.704  26.230  1.00  0.00     0.261 C 
ATOM     22  N   UNL A   1      32.588  29.764  24.963  1.00  0.00    -0.343 N 
ATOM     23  C   UNL A   1      32.574  28.638  22.754  1.00  0.00     0.076 C 
ATOM     24  H   UNL A   1      32.535  30.727  24.629  1.00  0.00     0.346 HD
ATOM     25  H   UNL A   1      31.630  29.429  25.065  1.00  0.00     0.346 HD
ENDBRANCH  16  18
ENDBRANCH  12  16
ENDBRANCH   5   8
ENDBRANCH   3   4
ENDBRANCH   2   3
ENDBRANCH   1   2
BRANCH   1  26
ATOM     26  C   UNL A   1      40.154  21.619  26.994  1.00  0.00     0.002 C 
BRANCH  26  27
ATOM     27  C   UNL A   1      40.524  20.220  26.496  1.00  0.00     0.021 C 
BRANCH  27  28
ATOM     28  C   UNL A   1      41.875  19.696  26.969  1.00  0.00     0.116 C 
BRANCH  28  29
ATOM     29  N   UNL A   1      42.841  19.623  25.888  1.00  0.00    -0.352 N 
ATOM     30  C   UNL A   1      43.550  20.626  25.276  1.00  0.00     0.251 C 
ATOM     31  H   UNL A   1      43.014  18.718  25.542  1.00  0.00     0.163 HD
ATOM     32  O   UNL A   1      44.176  20.396  24.247  1.00  0.00    -0.269 OA
BRANCH  30  33
ATOM     33  C   UNL A   1      43.543  21.992  25.842  1.00  0.00     0.039 A 
ATOM     34  C   UNL A   1      43.819  22.153  27.202  1.00  0.00     0.014 A 
ATOM     35  C   UNL A   1      43.252  23.104  25.047  1.00  0.00     0.014 A 
ATOM     36  C   UNL A   1      43.867  23.436  27.751  1.00  0.00     0.010 A 
ATOM     37  C   UNL A   1      43.368  24.386  25.580  1.00  0.00     0.010 A 
ATOM     38  C   UNL A   1      43.681  24.564  26.936  1.00  0.00    -0.014 A 
BRANCH  38  39
ATOM     39  C   UNL A   1      43.844  25.934  27.482  1.00  0.00     0.031 A 
ATOM     40  C   UNL A   1      42.646  26.748  27.883  1.00  0.00     0.074 A 
ATOM     41  C   UNL A   1      45.079  26.469  27.559  1.00  0.00     0.049 A 
ATOM     42  N   UNL A   1      42.598  27.974  28.341  1.00  0.00    -0.248 NA
ATOM     43  C   UNL A   1      41.329  26.110  27.732  1.00  0.00     0.031 C 
ATOM     44  C   UNL A   1      46.318  25.796  27.165  1.00  0.00     0.029 A 
ATOM     45  N   UNL A   1      45.493  27.705  27.989  1.00  0.00    -0.354 N 
ATOM     46  C   UNL A   1      41.250  28.258  28.520  1.00  0.00     0.074 A 
ATOM     47  C   UNL A   1      40.512  27.095  28.079  1.00  0.00     0.031 C 
ATOM     48  C   UNL A   1      47.355  26.617  27.397  1.00  0.00     0.029 A 
ATOM     49  C   UNL A   1      46.852  27.886  27.911  1.00  0.00     0.049 A 
ATOM     50  H   UNL A   1      44.875  28.395  28.323  1.00  0.00     0.167 HD
ATOM     51  C   UNL A   1      40.681  29.380  29.020  1.00  0.00     0.031 A 
ATOM     52  C   UNL A   1      47.611  28.958  28.207  1.00  0.00     0.031 A 
ATOM     53  C   UNL A   1      41.417  30.537  29.456  1.00  0.00     0.049 A 
ATOM     54  C   UNL A   1      46.951  30.203  28.728  1.00  0.00     0.074 A 
ATOM     55  C   UNL A   1      40.934  31.697  30.038  1.00  0.00     0.029 A 
ATOM     56  N   UNL A   1      42.791  30.687  29.348  1.00  0.00    -0.354 N 
ATOM     57  N   UNL A   1      45.683  30.425  28.969  1.00  0.00    -0.248 NA
ATOM     58  C   UNL A   1      47.831  31.343  29.024  1.00  0.00     0.031 C 
ATOM     59  C   UNL A   1      42.008  32.574  30.221  1.00  0.00     0.029 A 
ATOM     60  C   UNL A   1      43.168  31.936  29.813  1.00  0.00     0.049 A 
ATOM     61  H   UNL A   1      43.407  30.006  28.993  1.00  0.00     0.167 HD
ATOM     62  C   UNL A   1      45.612  31.723  29.459  1.00  0.00     0.074 A 
ATOM     63  C   UNL A   1      46.969  32.228  29.504  1.00  0.00     0.031 C 
ATOM     64  C   UNL A   1      44.520  32.433  29.835  1.00  0.00     0.031 A 
BRANCH  51  65
ATOM     65  C   UNL A   1      39.179  29.417  29.105  1.00  0.00    -0.014 A 
ATOM     66  C   UNL A   1      38.393  29.774  27.997  1.00  0.00     0.009 A 
ATOM     67  C   UNL A   1      38.539  29.053  30.299  1.00  0.00     0.009 A 
ATOM     68  C   UNL A   1      37.000  29.804  28.097  1.00  0.00     0.001 A 
ATOM     69  C   UNL A   1      37.145  29.054  30.387  1.00  0.00     0.001 A 
ATOM     70  C   UNL A   1      36.377  29.439  29.290  1.00  0.00     0.000 A 
ENDBRANCH  51  65
BRANCH  52  71
ATOM     71  C   UNL A   1      49.084  28.899  28.013  1.00  0.00    -0.014 A 
ATOM     72  C   UNL A   1      49.659  29.273  26.790  1.00  0.00     0.009 A 
ATOM     73  C   UNL A   1      49.922  28.470  29.055  1.00  0.00     0.009 A 
ATOM     74  C   UNL A   1      51.043  29.199  26.607  1.00  0.00     0.001 A 
ATOM     75  C   UNL A   1      51.307  28.426  28.879  1.00  0.00     0.001 A 
ATOM     76  C   UNL A   1      51.864  28.782  27.653  1.00  0.00     0.000 A 
ENDBRANCH  52  71
BRANCH  64  77
ATOM     77  C   UNL A   1      44.751  33.830  30.339  1.00  0.00    -0.014 A 
ATOM     78  C   UNL A   1      45.037  34.076  31.691  1.00  0.00     0.009 A 
ATOM     79  C   UNL A   1      44.722  34.910  29.442  1.00  0.00     0.009 A 
ATOM     80  C   UNL A   1      45.259  35.380  32.140  1.00  0.00     0.001 A 
ATOM     81  C   UNL A   1      44.975  36.208  29.888  1.00  0.00     0.001 A 
ATOM     82  C   UNL A   1      45.234  36.443  31.237  1.00  0.00     0.000 A 
ENDBRANCH  64  77
ENDBRANCH  38  39
ENDBRANCH  30  33
ENDBRANCH  28  29
ENDBRANCH  27  28
ENDBRANCH  26  27
ENDBRANCH   1  26
TORSDOF 17
ENDMDL
