MODEL 1
REMARK VINA RESULT:     -11.2      0.000      0.000
REMARK SMILES O=C(NCCCCCCNC(=O)[C@H]1C[C@H]2CCCC[C@@H]2[N@@H+]1CC[C@@H]1CCCO1)c1ccc(-c2c3nc(c(-c4ccccc4)c4ccc([nH]4)c(-c4ccccc4)c4nc(c(-c5ccccc5)c5ccc2[nH]5)C=C4)C=C3)cc1
REMARK SMILES IDX 7 1 6 2 5 3 4 4 3 5 1 6 2 7 29 9 30 10 76 11 31 12 75 13
REMARK SMILES IDX 32 14 33 15 34 16 69 17 35 18 74 19 68 20 70 21 36 22 73 23
REMARK SMILES IDX 67 24 66 25 37 27 59 28 44 29 58 30 45 31 48 32 57 33 71 34
REMARK SMILES IDX 46 35 47 36 56 38 72 39 49 40 38 41 39 42 43 43 40 44 42 45
REMARK SMILES IDX 41 46 60 47 61 48 65 49 62 50 64 51 63 52 50 53 51 54 55 55
REMARK SMILES IDX 52 56 54 57 53 58 8 59 9 60 10 61 11 62 12 64 13 65 14 66
REMARK SMILES IDX 21 67 15 68 20 69 16 71 19 72 17 73 18 74 22 75 23 76 24 77
REMARK SMILES IDX 25 78 28 79 26 80 27 81
REMARK H PARENT 3 8 70 26 48 37 10 63 21 70
REMARK Flexibility Score: inf
ROOT
ATOM      1  C   UNL A   1      31.651  26.818  26.394  1.00  0.00     0.002 C 
ENDROOT
BRANCH   1   2
ATOM      2  C   UNL A   1      32.307  27.697  25.323  1.00  0.00     0.002 C 
BRANCH   2   3
ATOM      3  C   UNL A   1      33.627  28.338  25.754  1.00  0.00     0.021 C 
BRANCH   3   4
ATOM      4  C   UNL A   1      33.750  28.533  27.259  1.00  0.00     0.116 C 
BRANCH   4   5
ATOM      5  N   UNL A   1      33.653  29.937  27.624  1.00  0.00    -0.352 N 
ATOM      6  O   UNL A   1      34.228  31.812  28.743  1.00  0.00    -0.269 OA
ATOM      7  C   UNL A   1      34.557  30.714  28.296  1.00  0.00     0.251 C 
ATOM      8  H   UNL A   1      32.823  30.390  27.350  1.00  0.00     0.163 HD
BRANCH   7   9
ATOM      9  C   UNL A   1      35.932  30.219  28.488  1.00  0.00     0.039 A 
ATOM     10  C   UNL A   1      36.857  30.276  27.440  1.00  0.00     0.014 A 
ATOM     11  C   UNL A   1      36.303  29.713  29.734  1.00  0.00     0.014 A 
ATOM     12  C   UNL A   1      38.122  29.727  27.605  1.00  0.00     0.010 A 
ATOM     13  C   UNL A   1      37.599  29.234  29.922  1.00  0.00     0.010 A 
ATOM     14  C   UNL A   1      38.511  29.223  28.854  1.00  0.00    -0.014 A 
BRANCH  14  15
ATOM     15  C   UNL A   1      39.901  28.757  29.064  1.00  0.00     0.031 A 
ATOM     16  C   UNL A   1      40.965  29.697  29.545  1.00  0.00     0.074 A 
ATOM     17  C   UNL A   1      40.205  27.480  28.766  1.00  0.00     0.049 A 
ATOM     18  N   UNL A   1      42.247  29.481  29.697  1.00  0.00    -0.248 NA
ATOM     19  C   UNL A   1      40.536  31.061  29.891  1.00  0.00     0.031 C 
ATOM     20  C   UNL A   1      39.252  26.475  28.287  1.00  0.00     0.029 A 
ATOM     21  N   UNL A   1      41.403  26.812  28.807  1.00  0.00    -0.354 N 
ATOM     22  C   UNL A   1      42.784  30.687  30.128  1.00  0.00     0.074 A 
ATOM     23  C   UNL A   1      41.692  31.636  30.191  1.00  0.00     0.031 C 
ATOM     24  C   UNL A   1      39.899  25.320  28.085  1.00  0.00     0.029 A 
ATOM     25  C   UNL A   1      41.319  25.520  28.353  1.00  0.00     0.049 A 
ATOM     26  H   UNL A   1      42.239  27.220  29.131  1.00  0.00     0.167 HD
ATOM     27  C   UNL A   1      44.072  30.975  30.437  1.00  0.00     0.031 A 
ATOM     28  C   UNL A   1      42.280  24.605  28.133  1.00  0.00     0.031 A 
ATOM     29  C   UNL A   1      45.152  30.026  30.349  1.00  0.00     0.049 A 
ATOM     30  C   UNL A   1      43.706  24.959  28.430  1.00  0.00     0.074 A 
ATOM     31  C   UNL A   1      46.483  30.204  30.680  1.00  0.00     0.029 A 
ATOM     32  N   UNL A   1      45.027  28.727  29.877  1.00  0.00    -0.354 N 
ATOM     33  N   UNL A   1      44.195  26.087  28.886  1.00  0.00    -0.248 NA
ATOM     34  C   UNL A   1      44.712  23.918  28.188  1.00  0.00     0.031 C 
ATOM     35  C   UNL A   1      47.176  29.037  30.341  1.00  0.00     0.029 A 
ATOM     36  C   UNL A   1      46.264  28.104  29.872  1.00  0.00     0.049 A 
ATOM     37  H   UNL A   1      44.183  28.308  29.589  1.00  0.00     0.167 HD
ATOM     38  C   UNL A   1      45.562  25.885  29.012  1.00  0.00     0.074 A 
ATOM     39  C   UNL A   1      45.823  24.523  28.589  1.00  0.00     0.031 C 
ATOM     40  C   UNL A   1      46.511  26.749  29.446  1.00  0.00     0.031 A 
BRANCH  27  41
ATOM     41  C   UNL A   1      44.385  32.388  30.846  1.00  0.00    -0.014 A 
ATOM     42  C   UNL A   1      44.469  32.766  32.196  1.00  0.00     0.009 A 
ATOM     43  C   UNL A   1      44.610  33.361  29.858  1.00  0.00     0.009 A 
ATOM     44  C   UNL A   1      44.718  34.095  32.546  1.00  0.00     0.001 A 
ATOM     45  C   UNL A   1      44.892  34.681  30.210  1.00  0.00     0.001 A 
ATOM     46  C   UNL A   1      44.932  35.051  31.554  1.00  0.00     0.000 A 
ENDBRANCH  27  41
BRANCH  28  47
ATOM     47  C   UNL A   1      41.903  23.283  27.573  1.00  0.00    -0.014 A 
ATOM     48  C   UNL A   1      42.032  23.021  26.202  1.00  0.00     0.009 A 
ATOM     49  C   UNL A   1      41.471  22.252  28.425  1.00  0.00     0.009 A 
ATOM     50  C   UNL A   1      41.727  21.756  25.694  1.00  0.00     0.001 A 
ATOM     51  C   UNL A   1      41.197  20.981  27.919  1.00  0.00     0.001 A 
ATOM     52  C   UNL A   1      41.319  20.736  26.553  1.00  0.00     0.000 A 
ENDBRANCH  28  47
BRANCH  40  53
ATOM     53  C   UNL A   1      47.924  26.242  29.531  1.00  0.00    -0.014 A 
ATOM     54  C   UNL A   1      48.455  25.752  30.733  1.00  0.00     0.009 A 
ATOM     55  C   UNL A   1      48.705  26.184  28.365  1.00  0.00     0.009 A 
ATOM     56  C   UNL A   1      49.750  25.228  30.767  1.00  0.00     0.001 A 
ATOM     57  C   UNL A   1      49.986  25.633  28.397  1.00  0.00     0.001 A 
ATOM     58  C   UNL A   1      50.509  25.160  29.599  1.00  0.00     0.000 A 
ENDBRANCH  40  53
ENDBRANCH  14  15
ENDBRANCH   7   9
ENDBRANCH   4   5
ENDBRANCH   3   4
ENDBRANCH   2   3
ENDBRANCH   1   2
BRANCH   1  59
ATOM     59  C   UNL A   1      30.307  26.207  25.976  1.00  0.00     0.021 C 
BRANCH  59  60
ATOM     60  C   UNL A   1      30.381  24.701  25.749  1.00  0.00     0.116 C 
BRANCH  60  61
ATOM     61  N   UNL A   1      31.059  24.068  26.862  1.00  0.00    -0.351 N 
ATOM     62  C   UNL A   1      32.227  23.355  26.875  1.00  0.00     0.278 C 
ATOM     63  H   UNL A   1      30.616  24.163  27.736  1.00  0.00     0.163 HD
ATOM     64  O   UNL A   1      32.516  22.747  27.907  1.00  0.00    -0.268 OA
BRANCH  62  65
ATOM     65  C   UNL A   1      33.164  23.478  25.667  1.00  0.00     0.274 C 
ATOM     66  C   UNL A   1      34.396  24.288  26.126  1.00  0.00     0.085 C 
ATOM     67  N   UNL A   1      33.655  22.152  25.201  1.00  0.00    -0.322 N 
ATOM     68  C   UNL A   1      35.531  23.520  25.492  1.00  0.00     0.054 C 
ATOM     69  C   UNL A   1      35.055  22.077  25.627  1.00  0.00     0.188 C 
ATOM     70  H   UNL A   1      33.159  21.374  25.637  1.00  0.00     0.349 HD
ATOM     71  C   UNL A   1      36.939  23.711  26.012  1.00  0.00     0.010 C 
ATOM     72  C   UNL A   1      35.991  21.016  25.048  1.00  0.00     0.065 C 
ATOM     73  C   UNL A   1      37.864  22.769  25.233  1.00  0.00     0.001 C 
ATOM     74  C   UNL A   1      37.458  21.300  25.393  1.00  0.00     0.006 C 
BRANCH  67  75
ATOM     75  C   UNL A   1      33.292  21.788  23.820  1.00  0.00     0.265 C 
BRANCH  75  76
ATOM     76  C   UNL A   1      32.514  20.485  23.488  1.00  0.00     0.093 C 
BRANCH  76  77
ATOM     77  C   UNL A   1      32.965  19.235  24.231  1.00  0.00     0.123 C 
ATOM     78  C   UNL A   1      32.931  17.961  23.406  1.00  0.00     0.034 C 
ATOM     79  O   UNL A   1      32.154  18.905  25.366  1.00  0.00    -0.378 OA
ATOM     80  C   UNL A   1      33.075  16.900  24.478  1.00  0.00     0.031 C 
ATOM     81  C   UNL A   1      32.597  17.588  25.751  1.00  0.00     0.160 C 
ENDBRANCH  76  77
ENDBRANCH  75  76
ENDBRANCH  67  75
ENDBRANCH  62  65
ENDBRANCH  60  61
ENDBRANCH  59  60
ENDBRANCH   1  59
TORSDOF 16
ENDMDL
MODEL 2
REMARK VINA RESULT:     -10.6      3.729      7.781
REMARK SMILES O=C(NCCCCCCNC(=O)[C@H]1C[C@H]2CCCC[C@@H]2[N@@H+]1CC[C@@H]1CCCO1)c1ccc(-c2c3nc(c(-c4ccccc4)c4ccc([nH]4)c(-c4ccccc4)c4nc(c(-c5ccccc5)c5ccc2[nH]5)C=C4)C=C3)cc1
REMARK SMILES IDX 7 1 6 2 5 3 4 4 3 5 1 6 2 7 29 9 30 10 76 11 31 12 75 13
REMARK SMILES IDX 32 14 33 15 34 16 69 17 35 18 74 19 68 20 70 21 36 22 73 23
REMARK SMILES IDX 67 24 66 25 37 27 59 28 44 29 58 30 45 31 48 32 57 33 71 34
REMARK SMILES IDX 46 35 47 36 56 38 72 39 49 40 38 41 39 42 43 43 40 44 42 45
REMARK SMILES IDX 41 46 60 47 61 48 65 49 62 50 64 51 63 52 50 53 51 54 55 55
REMARK SMILES IDX 52 56 54 57 53 58 8 59 9 60 10 61 11 62 12 64 13 65 14 66
REMARK SMILES IDX 21 67 15 68 20 69 16 71 19 72 17 73 18 74 22 75 23 76 24 77
REMARK SMILES IDX 25 78 28 79 26 80 27 81
REMARK H PARENT 3 8 70 26 48 37 10 63 21 70
REMARK Flexibility Score: inf
ROOT
ATOM      1  C   UNL A   1      32.412  29.874  26.977  1.00  0.00     0.002 C 
ENDROOT
BRANCH   1   2
ATOM      2  C   UNL A   1      31.517  30.748  26.092  1.00  0.00     0.002 C 
BRANCH   2   3
ATOM      3  C   UNL A   1      31.370  32.193  26.572  1.00  0.00     0.021 C 
BRANCH   3   4
ATOM      4  C   UNL A   1      32.641  32.765  27.187  1.00  0.00     0.116 C 
BRANCH   4   5
ATOM      5  N   UNL A   1      32.443  34.132  27.640  1.00  0.00    -0.352 N 
ATOM      6  O   UNL A   1      32.633  35.866  29.073  1.00  0.00    -0.269 OA
ATOM      7  C   UNL A   1      33.080  34.802  28.650  1.00  0.00     0.251 C 
ATOM      8  H   UNL A   1      31.758  34.645  27.156  1.00  0.00     0.163 HD
BRANCH   7   9
ATOM      9  C   UNL A   1      34.307  34.229  29.235  1.00  0.00     0.039 A 
ATOM     10  C   UNL A   1      34.235  33.416  30.370  1.00  0.00     0.014 A 
ATOM     11  C   UNL A   1      35.535  34.493  28.628  1.00  0.00     0.014 A 
ATOM     12  C   UNL A   1      35.402  32.954  30.964  1.00  0.00     0.010 A 
ATOM     13  C   UNL A   1      36.701  33.963  29.180  1.00  0.00     0.010 A 
ATOM     14  C   UNL A   1      36.643  33.204  30.360  1.00  0.00    -0.014 A 
BRANCH  14  15
ATOM     15  C   UNL A   1      37.874  32.603  30.923  1.00  0.00     0.031 A 
ATOM     16  C   UNL A   1      38.497  31.393  30.295  1.00  0.00     0.074 A 
ATOM     17  C   UNL A   1      38.399  33.136  32.042  1.00  0.00     0.049 A 
ATOM     18  N   UNL A   1      39.519  30.686  30.705  1.00  0.00    -0.248 NA
ATOM     19  C   UNL A   1      37.886  30.905  29.049  1.00  0.00     0.031 C 
ATOM     20  C   UNL A   1      37.876  34.311  32.743  1.00  0.00     0.029 A 
ATOM     21  N   UNL A   1      39.478  32.750  32.795  1.00  0.00    -0.354 N 
ATOM     22  C   UNL A   1      39.659  29.654  29.786  1.00  0.00     0.074 A 
ATOM     23  C   UNL A   1      38.601  29.815  28.809  1.00  0.00     0.031 C 
ATOM     24  C   UNL A   1      38.637  34.555  33.817  1.00  0.00     0.029 A 
ATOM     25  C   UNL A   1      39.655  33.515  33.920  1.00  0.00     0.049 A 
ATOM     26  H   UNL A   1      40.067  31.999  32.553  1.00  0.00     0.167 HD
ATOM     27  C   UNL A   1      40.582  28.663  29.765  1.00  0.00     0.031 A 
ATOM     28  C   UNL A   1      40.513  33.377  34.947  1.00  0.00     0.031 A 
ATOM     29  C   UNL A   1      41.615  28.503  30.755  1.00  0.00     0.049 A 
ATOM     30  C   UNL A   1      41.492  32.242  34.933  1.00  0.00     0.074 A 
ATOM     31  C   UNL A   1      42.625  27.559  30.801  1.00  0.00     0.029 A 
ATOM     32  N   UNL A   1      41.757  29.297  31.884  1.00  0.00    -0.354 N 
ATOM     33  N   UNL A   1      41.647  31.302  34.031  1.00  0.00    -0.248 NA
ATOM     34  C   UNL A   1      42.416  32.148  36.070  1.00  0.00     0.031 C 
ATOM     35  C   UNL A   1      43.334  27.737  31.994  1.00  0.00     0.029 A 
ATOM     36  C   UNL A   1      42.814  28.840  32.654  1.00  0.00     0.049 A 
ATOM     37  H   UNL A   1      41.190  30.071  32.107  1.00  0.00     0.167 HD
ATOM     38  C   UNL A   1      42.703  30.520  34.477  1.00  0.00     0.074 A 
ATOM     39  C   UNL A   1      43.154  31.100  35.727  1.00  0.00     0.031 C 
ATOM     40  C   UNL A   1      43.251  29.425  33.897  1.00  0.00     0.031 A 
BRANCH  27  41
ATOM     41  C   UNL A   1      40.476  27.645  28.662  1.00  0.00    -0.014 A 
ATOM     42  C   UNL A   1      41.128  27.819  27.430  1.00  0.00     0.009 A 
ATOM     43  C   UNL A   1      39.715  26.482  28.864  1.00  0.00     0.009 A 
ATOM     44  C   UNL A   1      40.976  26.878  26.408  1.00  0.00     0.001 A 
ATOM     45  C   UNL A   1      39.593  25.527  27.854  1.00  0.00     0.001 A 
ATOM     46  C   UNL A   1      40.211  25.732  26.622  1.00  0.00     0.000 A 
ENDBRANCH  27  41
BRANCH  28  47
ATOM     47  C   UNL A   1      40.443  34.335  36.080  1.00  0.00    -0.014 A 
ATOM     48  C   UNL A   1      41.159  35.539  36.046  1.00  0.00     0.009 A 
ATOM     49  C   UNL A   1      39.604  34.072  37.176  1.00  0.00     0.009 A 
ATOM     50  C   UNL A   1      41.043  36.458  37.092  1.00  0.00     0.001 A 
ATOM     51  C   UNL A   1      39.466  35.006  38.204  1.00  0.00     0.001 A 
ATOM     52  C   UNL A   1      40.190  36.195  38.164  1.00  0.00     0.000 A 
ENDBRANCH  28  47
BRANCH  40  53
ATOM     53  C   UNL A   1      44.434  28.797  34.581  1.00  0.00    -0.014 A 
ATOM     54  C   UNL A   1      45.743  29.233  34.327  1.00  0.00     0.009 A 
ATOM     55  C   UNL A   1      44.221  27.807  35.553  1.00  0.00     0.009 A 
ATOM     56  C   UNL A   1      46.818  28.675  35.024  1.00  0.00     0.001 A 
ATOM     57  C   UNL A   1      45.293  27.273  36.268  1.00  0.00     0.001 A 
ATOM     58  C   UNL A   1      46.591  27.704  36.000  1.00  0.00     0.000 A 
ENDBRANCH  40  53
ENDBRANCH  14  15
ENDBRANCH   7   9
ENDBRANCH   4   5
ENDBRANCH   3   4
ENDBRANCH   2   3
ENDBRANCH   1   2
BRANCH   1  59
ATOM     59  C   UNL A   1      31.770  28.553  27.419  1.00  0.00     0.021 C 
BRANCH  59  60
ATOM     60  C   UNL A   1      31.968  27.427  26.409  1.00  0.00     0.116 C 
BRANCH  60  61
ATOM     61  N   UNL A   1      31.301  26.227  26.872  1.00  0.00    -0.351 N 
ATOM     62  C   UNL A   1      31.357  24.955  26.370  1.00  0.00     0.278 C 
ATOM     63  H   UNL A   1      30.724  26.343  27.660  1.00  0.00     0.163 HD
ATOM     64  O   UNL A   1      30.556  24.129  26.812  1.00  0.00    -0.268 OA
BRANCH  62  65
ATOM     65  C   UNL A   1      32.499  24.605  25.408  1.00  0.00     0.274 C 
ATOM     66  C   UNL A   1      33.698  24.154  26.269  1.00  0.00     0.085 C 
ATOM     67  N   UNL A   1      32.146  23.471  24.510  1.00  0.00    -0.322 N 
ATOM     68  C   UNL A   1      34.203  22.955  25.500  1.00  0.00     0.054 C 
ATOM     69  C   UNL A   1      32.905  22.321  25.010  1.00  0.00     0.188 C 
ATOM     70  H   UNL A   1      31.156  23.228  24.553  1.00  0.00     0.349 HD
ATOM     71  C   UNL A   1      35.105  21.956  26.191  1.00  0.00     0.010 C 
ATOM     72  C   UNL A   1      33.067  21.063  24.157  1.00  0.00     0.065 C 
ATOM     73  C   UNL A   1      35.405  20.826  25.202  1.00  0.00     0.001 C 
ATOM     74  C   UNL A   1      34.130  20.118  24.730  1.00  0.00     0.006 C 
BRANCH  67  75
ATOM     75  C   UNL A   1      32.149  23.776  23.068  1.00  0.00     0.265 C 
BRANCH  75  76
ATOM     76  C   UNL A   1      33.191  24.736  22.430  1.00  0.00     0.093 C 
BRANCH  76  77
ATOM     77  C   UNL A   1      32.725  26.169  22.211  1.00  0.00     0.123 C 
ATOM     78  C   UNL A   1      33.492  27.212  23.002  1.00  0.00     0.034 C 
ATOM     79  O   UNL A   1      31.366  26.407  22.597  1.00  0.00    -0.378 OA
ATOM     80  C   UNL A   1      32.597  28.426  22.856  1.00  0.00     0.031 C 
ATOM     81  C   UNL A   1      31.225  27.841  22.543  1.00  0.00     0.160 C 
ENDBRANCH  76  77
ENDBRANCH  75  76
ENDBRANCH  67  75
ENDBRANCH  62  65
ENDBRANCH  60  61
ENDBRANCH  59  60
ENDBRANCH   1  59
TORSDOF 16
ENDMDL
MODEL 3
REMARK VINA RESULT:     -10.6      1.348      5.992
REMARK SMILES O=C(NCCCCCCNC(=O)[C@H]1C[C@H]2CCCC[C@@H]2[N@@H+]1CC[C@@H]1CCCO1)c1ccc(-c2c3nc(c(-c4ccccc4)c4ccc([nH]4)c(-c4ccccc4)c4nc(c(-c5ccccc5)c5ccc2[nH]5)C=C4)C=C3)cc1
REMARK SMILES IDX 7 1 6 2 5 3 4 4 3 5 1 6 2 7 29 9 30 10 76 11 31 12 75 13
REMARK SMILES IDX 32 14 33 15 34 16 69 17 35 18 74 19 68 20 70 21 36 22 73 23
REMARK SMILES IDX 67 24 66 25 37 27 59 28 44 29 58 30 45 31 48 32 57 33 71 34
REMARK SMILES IDX 46 35 47 36 56 38 72 39 49 40 38 41 39 42 43 43 40 44 42 45
REMARK SMILES IDX 41 46 60 47 61 48 65 49 62 50 64 51 63 52 50 53 51 54 55 55
REMARK SMILES IDX 52 56 54 57 53 58 8 59 9 60 10 61 11 62 12 64 13 65 14 66
REMARK SMILES IDX 21 67 15 68 20 69 16 71 19 72 17 73 18 74 22 75 23 76 24 77
REMARK SMILES IDX 25 78 28 79 26 80 27 81
REMARK H PARENT 3 8 70 26 48 37 10 63 21 70
REMARK Flexibility Score: inf
ROOT
ATOM      1  C   UNL A   1      31.330  27.440  24.926  1.00  0.00     0.002 C 
ENDROOT
BRANCH   1   2
ATOM      2  C   UNL A   1      32.830  27.173  24.753  1.00  0.00     0.002 C 
BRANCH   2   3
ATOM      3  C   UNL A   1      33.732  28.323  25.203  1.00  0.00     0.021 C 
BRANCH   3   4
ATOM      4  C   UNL A   1      33.775  28.512  26.714  1.00  0.00     0.116 C 
BRANCH   4   5
ATOM      5  N   UNL A   1      33.614  29.909  27.081  1.00  0.00    -0.352 N 
ATOM      6  O   UNL A   1      34.017  31.774  28.288  1.00  0.00    -0.269 OA
ATOM      7  C   UNL A   1      34.415  30.687  27.872  1.00  0.00     0.251 C 
ATOM      8  H   UNL A   1      32.820  30.357  26.709  1.00  0.00     0.163 HD
BRANCH   7   9
ATOM      9  C   UNL A   1      35.761  30.205  28.232  1.00  0.00     0.039 A 
ATOM     10  C   UNL A   1      36.820  30.327  27.327  1.00  0.00     0.014 A 
ATOM     11  C   UNL A   1      35.967  29.646  29.494  1.00  0.00     0.014 A 
ATOM     12  C   UNL A   1      38.062  29.791  27.642  1.00  0.00     0.010 A 
ATOM     13  C   UNL A   1      37.234  29.180  29.839  1.00  0.00     0.010 A 
ATOM     14  C   UNL A   1      38.286  29.234  28.909  1.00  0.00    -0.014 A 
BRANCH  14  15
ATOM     15  C   UNL A   1      39.643  28.780  29.290  1.00  0.00     0.031 A 
ATOM     16  C   UNL A   1      40.163  27.447  28.842  1.00  0.00     0.074 A 
ATOM     17  C   UNL A   1      40.387  29.568  30.089  1.00  0.00     0.049 A 
ATOM     18  N   UNL A   1      41.287  26.855  29.155  1.00  0.00    -0.248 NA
ATOM     19  C   UNL A   1      39.304  26.673  27.934  1.00  0.00     0.031 C 
ATOM     20  C   UNL A   1      39.983  30.884  30.589  1.00  0.00     0.029 A 
ATOM     21  N   UNL A   1      41.630  29.370  30.633  1.00  0.00    -0.354 N 
ATOM     22  C   UNL A   1      41.260  25.627  28.506  1.00  0.00     0.074 A 
ATOM     23  C   UNL A   1      39.997  25.551  27.802  1.00  0.00     0.031 C 
ATOM     24  C   UNL A   1      40.960  31.379  31.360  1.00  0.00     0.029 A 
ATOM     25  C   UNL A   1      42.026  30.388  31.464  1.00  0.00     0.049 A 
ATOM     26  H   UNL A   1      42.183  28.578  30.446  1.00  0.00     0.167 HD
ATOM     27  C   UNL A   1      42.202  24.653  28.505  1.00  0.00     0.031 A 
ATOM     28  C   UNL A   1      43.105  30.500  32.259  1.00  0.00     0.031 A 
ATOM     29  C   UNL A   1      43.445  24.734  29.229  1.00  0.00     0.049 A 
ATOM     30  C   UNL A   1      44.110  29.388  32.286  1.00  0.00     0.074 A 
ATOM     31  C   UNL A   1      44.484  23.822  29.259  1.00  0.00     0.029 A 
ATOM     32  N   UNL A   1      43.806  25.780  30.066  1.00  0.00    -0.354 N 
ATOM     33  N   UNL A   1      44.098  28.254  31.628  1.00  0.00    -0.248 NA
ATOM     34  C   UNL A   1      45.277  29.570  33.157  1.00  0.00     0.031 C 
ATOM     35  C   UNL A   1      45.442  24.282  30.170  1.00  0.00     0.029 A 
ATOM     36  C   UNL A   1      45.036  25.518  30.648  1.00  0.00     0.049 A 
ATOM     37  H   UNL A   1      43.268  26.590  30.224  1.00  0.00     0.167 HD
ATOM     38  C   UNL A   1      45.267  27.596  31.984  1.00  0.00     0.074 A 
ATOM     39  C   UNL A   1      45.968  28.462  32.911  1.00  0.00     0.031 C 
ATOM     40  C   UNL A   1      45.720  26.388  31.572  1.00  0.00     0.031 A 
BRANCH  27  41
ATOM     41  C   UNL A   1      41.894  23.396  27.739  1.00  0.00    -0.014 A 
ATOM     42  C   UNL A   1      41.157  22.345  28.310  1.00  0.00     0.009 A 
ATOM     43  C   UNL A   1      42.344  23.263  26.416  1.00  0.00     0.009 A 
ATOM     44  C   UNL A   1      40.924  21.170  27.590  1.00  0.00     0.001 A 
ATOM     45  C   UNL A   1      42.081  22.103  25.687  1.00  0.00     0.001 A 
ATOM     46  C   UNL A   1      41.384  21.051  26.279  1.00  0.00     0.000 A 
ENDBRANCH  27  41
BRANCH  28  47
ATOM     47  C   UNL A   1      43.253  31.708  33.110  1.00  0.00    -0.014 A 
ATOM     48  C   UNL A   1      42.747  31.731  34.416  1.00  0.00     0.009 A 
ATOM     49  C   UNL A   1      43.961  32.824  32.634  1.00  0.00     0.009 A 
ATOM     50  C   UNL A   1      42.940  32.853  35.228  1.00  0.00     0.001 A 
ATOM     51  C   UNL A   1      44.180  33.930  33.457  1.00  0.00     0.001 A 
ATOM     52  C   UNL A   1      43.663  33.945  34.751  1.00  0.00     0.000 A 
ENDBRANCH  28  47
BRANCH  40  53
ATOM     53  C   UNL A   1      47.060  25.938  32.084  1.00  0.00    -0.014 A 
ATOM     54  C   UNL A   1      47.177  25.156  33.243  1.00  0.00     0.009 A 
ATOM     55  C   UNL A   1      48.215  26.237  31.344  1.00  0.00     0.009 A 
ATOM     56  C   UNL A   1      48.429  24.698  33.659  1.00  0.00     0.001 A 
ATOM     57  C   UNL A   1      49.460  25.754  31.747  1.00  0.00     0.001 A 
ATOM     58  C   UNL A   1      49.567  24.989  32.906  1.00  0.00     0.000 A 
ENDBRANCH  40  53
ENDBRANCH  14  15
ENDBRANCH   7   9
ENDBRANCH   4   5
ENDBRANCH   3   4
ENDBRANCH   2   3
ENDBRANCH   1   2
BRANCH   1  59
ATOM     59  C   UNL A   1      30.665  26.619  26.038  1.00  0.00     0.021 C 
BRANCH  59  60
ATOM     60  C   UNL A   1      30.643  25.122  25.743  1.00  0.00     0.116 C 
BRANCH  60  61
ATOM     61  N   UNL A   1      31.220  24.392  26.854  1.00  0.00    -0.351 N 
ATOM     62  C   UNL A   1      32.261  23.505  26.861  1.00  0.00     0.278 C 
ATOM     63  H   UNL A   1      30.802  24.558  27.729  1.00  0.00     0.163 HD
ATOM     64  O   UNL A   1      32.457  22.860  27.893  1.00  0.00    -0.268 OA
BRANCH  62  65
ATOM     65  C   UNL A   1      33.199  23.478  25.648  1.00  0.00     0.274 C 
ATOM     66  C   UNL A   1      34.372  24.432  25.957  1.00  0.00     0.085 C 
ATOM     67  N   UNL A   1      33.777  22.125  25.416  1.00  0.00    -0.322 N 
ATOM     68  C   UNL A   1      35.560  23.641  25.462  1.00  0.00     0.054 C 
ATOM     69  C   UNL A   1      35.175  22.215  25.846  1.00  0.00     0.188 C 
ATOM     70  H   UNL A   1      33.327  21.404  25.981  1.00  0.00     0.349 HD
ATOM     71  C   UNL A   1      36.948  24.009  25.938  1.00  0.00     0.010 C 
ATOM     72  C   UNL A   1      36.182  21.133  25.456  1.00  0.00     0.065 C 
ATOM     73  C   UNL A   1      37.937  23.008  25.331  1.00  0.00     0.001 C 
ATOM     74  C   UNL A   1      37.625  21.565  25.742  1.00  0.00     0.006 C 
BRANCH  67  75
ATOM     75  C   UNL A   1      33.450  21.507  24.120  1.00  0.00     0.265 C 
BRANCH  75  76
ATOM     76  C   UNL A   1      32.580  20.223  24.014  1.00  0.00     0.093 C 
BRANCH  76  77
ATOM     77  C   UNL A   1      33.335  18.933  23.723  1.00  0.00     0.123 C 
ATOM     78  C   UNL A   1      32.454  17.711  23.543  1.00  0.00     0.034 C 
ATOM     79  O   UNL A   1      34.231  18.533  24.767  1.00  0.00    -0.378 OA
ATOM     80  C   UNL A   1      33.467  16.588  23.630  1.00  0.00     0.031 C 
ATOM     81  C   UNL A   1      34.633  17.197  24.401  1.00  0.00     0.160 C 
ENDBRANCH  76  77
ENDBRANCH  75  76
ENDBRANCH  67  75
ENDBRANCH  62  65
ENDBRANCH  60  61
ENDBRANCH  59  60
ENDBRANCH   1  59
TORSDOF 16
ENDMDL
