MODEL 1
REMARK VINA RESULT:     -11.9      0.000      0.000
REMARK SMILES C/C(=N\NC(N)=O)c1nnn(-c2ccc(C(=O)NCCCCCCNC(=O)c3ccc(-c4c5nc(c(-c6ccccc6)c6ccc([nH]6)c(-c6ccccc6)c6nc(c(-c7ccccc7)c7ccc4[nH]7)C=C6)C=C5)cc3)cc2)c1C
REMARK SMILES IDX 21 1 20 2 19 3 18 4 16 5 17 6 15 8 12 9 13 10 77 11 14 12
REMARK SMILES IDX 76 13 11 14 8 15 9 16 78 17 10 18 79 19 2 20 1 21 3 22 4 23
REMARK SMILES IDX 5 24 6 26 7 27 22 30 23 31 24 32 25 33 26 34 27 36 28 37
REMARK SMILES IDX 29 38 75 39 30 40 74 41 31 42 32 43 33 44 68 45 34 46 73 47
REMARK SMILES IDX 67 48 69 49 35 50 72 51 66 52 65 53 36 55 58 56 43 57 57 58
REMARK SMILES IDX 44 59 47 60 56 61 70 62 45 63 46 64 55 66 71 67 48 68 37 69
REMARK SMILES IDX 38 70 42 71 39 72 41 73 40 74 59 75 60 76 64 77 61 78 63 79
REMARK SMILES IDX 62 80 49 81 50 82 54 83 51 84 53 85 52 86
REMARK H PARENT 18 7 4 25 6 28 6 29 25 35 69 54 47 65
REMARK Flexibility Score: inf
ROOT
ATOM      1  C   UNL A   1      40.002  21.630  26.498  1.00  0.00     0.002 C 
ENDROOT
BRANCH   1   2
ATOM      2  C   UNL A   1      39.323  23.006  26.529  1.00  0.00     0.021 C 
BRANCH   2   3
ATOM      3  C   UNL A   1      37.894  22.985  25.976  1.00  0.00     0.116 C 
BRANCH   3   4
ATOM      4  N   UNL A   1      37.526  21.634  25.592  1.00  0.00    -0.352 N 
ATOM      5  C   UNL A   1      36.375  21.086  25.084  1.00  0.00     0.251 C 
ATOM      6  O   UNL A   1      36.376  19.878  24.848  1.00  0.00    -0.269 OA
ATOM      7  H   UNL A   1      38.249  20.979  25.722  1.00  0.00     0.163 HD
BRANCH   5   8
ATOM      8  C   UNL A   1      35.171  21.892  24.733  1.00  0.00     0.039 A 
ATOM      9  C   UNL A   1      33.151  23.715  24.112  1.00  0.00     0.067 A 
ATOM     10  C   UNL A   1      34.187  23.518  23.199  1.00  0.00     0.029 A 
ATOM     11  C   UNL A   1      33.045  22.925  25.258  1.00  0.00     0.029 A 
ATOM     12  C   UNL A   1      35.212  22.627  23.533  1.00  0.00     0.016 A 
ATOM     13  C   UNL A   1      34.026  21.975  25.530  1.00  0.00     0.016 A 
BRANCH   9  14
ATOM     14  N   UNL A   1      32.253  24.781  23.935  1.00  0.00    -0.217 N 
ATOM     15  C   UNL A   1      31.309  26.733  23.819  1.00  0.00     0.132 A 
ATOM     16  N   UNL A   1      30.425  25.786  23.369  1.00  0.00    -0.128 NA
ATOM     17  C   UNL A   1      32.497  26.120  24.169  1.00  0.00     0.071 A 
ATOM     18  N   UNL A   1      31.042  24.611  23.368  1.00  0.00    -0.061 NA
ATOM     19  C   UNL A   1      33.817  26.684  24.539  1.00  0.00     0.069 C 
BRANCH  15  20
ATOM     20  C   UNL A   1      31.056  28.159  23.698  1.00  0.00     0.087 C 
ATOM     21  C   UNL A   1      31.202  28.952  24.970  1.00  0.00     0.071 C 
ATOM     22  N   UNL A   1      30.768  28.583  22.503  1.00  0.00    -0.174 NA
BRANCH  22  23
ATOM     23  N   UNL A   1      30.482  29.892  22.225  1.00  0.00    -0.229 N 
ATOM     24  C   UNL A   1      29.310  30.405  21.709  1.00  0.00     0.332 C 
ATOM     25  H   UNL A   1      31.195  30.543  22.414  1.00  0.00     0.195 HD
ATOM     26  N   UNL A   1      29.352  31.765  21.588  1.00  0.00    -0.350 N 
ATOM     27  O   UNL A   1      28.306  29.796  21.388  1.00  0.00    -0.247 OA
ATOM     28  H   UNL A   1      30.164  32.257  21.848  1.00  0.00     0.161 HD
ATOM     29  H   UNL A   1      28.571  32.252  21.240  1.00  0.00     0.161 HD
ENDBRANCH  22  23
ENDBRANCH  15  20
ENDBRANCH   9  14
ENDBRANCH   5   8
ENDBRANCH   3   4
ENDBRANCH   2   3
ENDBRANCH   1   2
BRANCH   1  30
ATOM     30  C   UNL A   1      41.147  21.444  27.508  1.00  0.00     0.002 C 
BRANCH  30  31
ATOM     31  C   UNL A   1      42.090  20.263  27.236  1.00  0.00     0.021 C 
BRANCH  31  32
ATOM     32  C   UNL A   1      42.110  19.838  25.774  1.00  0.00     0.116 C 
BRANCH  32  33
ATOM     33  N   UNL A   1      43.470  19.610  25.298  1.00  0.00    -0.352 N 
ATOM     34  C   UNL A   1      44.426  20.538  24.962  1.00  0.00     0.251 C 
ATOM     35  H   UNL A   1      43.736  18.667  25.205  1.00  0.00     0.163 HD
ATOM     36  O   UNL A   1      45.368  20.226  24.241  1.00  0.00    -0.269 OA
BRANCH  34  37
ATOM     37  C   UNL A   1      44.315  21.915  25.477  1.00  0.00     0.039 A 
ATOM     38  C   UNL A   1      43.415  22.811  24.894  1.00  0.00     0.014 A 
ATOM     39  C   UNL A   1      45.140  22.321  26.526  1.00  0.00     0.014 A 
ATOM     40  C   UNL A   1      43.301  24.094  25.421  1.00  0.00     0.010 A 
ATOM     41  C   UNL A   1      44.963  23.556  27.111  1.00  0.00     0.010 A 
ATOM     42  C   UNL A   1      44.065  24.454  26.544  1.00  0.00    -0.014 A 
BRANCH  42  43
ATOM     43  C   UNL A   1      43.781  25.704  27.246  1.00  0.00     0.031 A 
ATOM     44  C   UNL A   1      44.696  26.812  26.857  1.00  0.00     0.074 A 
ATOM     45  C   UNL A   1      42.684  25.917  28.005  1.00  0.00     0.049 A 
ATOM     46  N   UNL A   1      45.590  27.382  27.592  1.00  0.00    -0.248 NA
ATOM     47  C   UNL A   1      44.737  27.228  25.442  1.00  0.00     0.031 C 
ATOM     48  C   UNL A   1      41.549  25.014  28.221  1.00  0.00     0.029 A 
ATOM     49  N   UNL A   1      42.292  27.045  28.664  1.00  0.00    -0.354 N 
ATOM     50  C   UNL A   1      46.158  28.378  26.804  1.00  0.00     0.074 A 
ATOM     51  C   UNL A   1      45.734  28.113  25.453  1.00  0.00     0.031 C 
ATOM     52  C   UNL A   1      40.511  25.705  28.748  1.00  0.00     0.029 A 
ATOM     53  C   UNL A   1      40.955  27.053  29.055  1.00  0.00     0.049 A 
ATOM     54  H   UNL A   1      42.905  27.793  28.848  1.00  0.00     0.167 HD
ATOM     55  C   UNL A   1      46.693  29.494  27.372  1.00  0.00     0.031 A 
ATOM     56  C   UNL A   1      40.257  28.097  29.572  1.00  0.00     0.031 A 
ATOM     57  C   UNL A   1      46.906  29.306  28.786  1.00  0.00     0.049 A 
ATOM     58  C   UNL A   1      41.239  29.078  30.078  1.00  0.00     0.074 A 
ATOM     59  C   UNL A   1      47.648  28.441  29.563  1.00  0.00     0.029 A 
ATOM     60  N   UNL A   1      45.955  29.848  29.616  1.00  0.00    -0.354 N 
ATOM     61  N   UNL A   1      41.992  28.865  31.115  1.00  0.00    -0.248 NA
ATOM     62  C   UNL A   1      41.690  30.125  29.177  1.00  0.00     0.031 C 
ATOM     63  C   UNL A   1      46.827  28.169  30.697  1.00  0.00     0.029 A 
ATOM     64  C   UNL A   1      45.670  28.943  30.600  1.00  0.00     0.049 A 
ATOM     65  H   UNL A   1      45.546  30.739  29.518  1.00  0.00     0.167 HD
ATOM     66  C   UNL A   1      43.224  29.389  30.757  1.00  0.00     0.074 A 
ATOM     67  C   UNL A   1      42.945  30.258  29.613  1.00  0.00     0.031 C 
ATOM     68  C   UNL A   1      44.378  28.839  31.238  1.00  0.00     0.031 A 
BRANCH  55  69
ATOM     69  C   UNL A   1      46.547  30.881  26.779  1.00  0.00    -0.014 A 
ATOM     70  C   UNL A   1      47.655  31.750  26.841  1.00  0.00     0.009 A 
ATOM     71  C   UNL A   1      45.308  31.469  26.462  1.00  0.00     0.009 A 
ATOM     72  C   UNL A   1      47.507  33.135  26.707  1.00  0.00     0.001 A 
ATOM     73  C   UNL A   1      45.164  32.848  26.285  1.00  0.00     0.001 A 
ATOM     74  C   UNL A   1      46.258  33.685  26.442  1.00  0.00     0.000 A 
ENDBRANCH  55  69
BRANCH  56  75
ATOM     75  C   UNL A   1      38.821  28.446  29.481  1.00  0.00    -0.014 A 
ATOM     76  C   UNL A   1      38.074  28.715  30.643  1.00  0.00     0.009 A 
ATOM     77  C   UNL A   1      38.261  28.820  28.247  1.00  0.00     0.009 A 
ATOM     78  C   UNL A   1      36.843  29.382  30.576  1.00  0.00     0.001 A 
ATOM     79  C   UNL A   1      37.030  29.485  28.180  1.00  0.00     0.001 A 
ATOM     80  C   UNL A   1      36.330  29.783  29.346  1.00  0.00     0.000 A 
ENDBRANCH  56  75
BRANCH  68  81
ATOM     81  C   UNL A   1      44.271  27.876  32.395  1.00  0.00    -0.014 A 
ATOM     82  C   UNL A   1      44.176  28.272  33.742  1.00  0.00     0.009 A 
ATOM     83  C   UNL A   1      44.142  26.514  32.092  1.00  0.00     0.009 A 
ATOM     84  C   UNL A   1      43.995  27.322  34.753  1.00  0.00     0.001 A 
ATOM     85  C   UNL A   1      43.936  25.569  33.097  1.00  0.00     0.001 A 
ATOM     86  C   UNL A   1      43.872  25.972  34.429  1.00  0.00     0.000 A 
ENDBRANCH  68  81
ENDBRANCH  42  43
ENDBRANCH  34  37
ENDBRANCH  32  33
ENDBRANCH  31  32
ENDBRANCH  30  31
ENDBRANCH   1  30
TORSDOF 16
ENDMDL
MODEL 2
REMARK VINA RESULT:     -11.7      2.198      3.189
REMARK SMILES C/C(=N\NC(N)=O)c1nnn(-c2ccc(C(=O)NCCCCCCNC(=O)c3ccc(-c4c5nc(c(-c6ccccc6)c6ccc([nH]6)c(-c6ccccc6)c6nc(c(-c7ccccc7)c7ccc4[nH]7)C=C6)C=C5)cc3)cc2)c1C
REMARK SMILES IDX 21 1 20 2 19 3 18 4 16 5 17 6 15 8 12 9 13 10 77 11 14 12
REMARK SMILES IDX 76 13 11 14 8 15 9 16 78 17 10 18 79 19 2 20 1 21 3 22 4 23
REMARK SMILES IDX 5 24 6 26 7 27 22 30 23 31 24 32 25 33 26 34 27 36 28 37
REMARK SMILES IDX 29 38 75 39 30 40 74 41 31 42 32 43 33 44 68 45 34 46 73 47
REMARK SMILES IDX 67 48 69 49 35 50 72 51 66 52 65 53 36 55 58 56 43 57 57 58
REMARK SMILES IDX 44 59 47 60 56 61 70 62 45 63 46 64 55 66 71 67 48 68 37 69
REMARK SMILES IDX 38 70 42 71 39 72 41 73 40 74 59 75 60 76 64 77 61 78 63 79
REMARK SMILES IDX 62 80 49 81 50 82 54 83 51 84 53 85 52 86
REMARK H PARENT 18 7 4 25 6 28 6 29 25 35 69 54 47 65
REMARK Flexibility Score: inf
ROOT
ATOM      1  C   UNL A   1      36.006  22.764  25.623  1.00  0.00     0.002 C 
ENDROOT
BRANCH   1   2
ATOM      2  C   UNL A   1      35.645  21.349  26.094  1.00  0.00     0.021 C 
BRANCH   2   3
ATOM      3  C   UNL A   1      35.450  20.361  24.940  1.00  0.00     0.116 C 
BRANCH   3   4
ATOM      4  N   UNL A   1      34.184  19.666  25.083  1.00  0.00    -0.352 N 
ATOM      5  C   UNL A   1      32.876  20.073  24.997  1.00  0.00     0.251 C 
ATOM      6  O   UNL A   1      32.002  19.223  25.166  1.00  0.00    -0.269 OA
ATOM      7  H   UNL A   1      34.283  18.707  25.284  1.00  0.00     0.163 HD
BRANCH   5   8
ATOM      8  C   UNL A   1      32.475  21.461  24.631  1.00  0.00     0.039 A 
ATOM      9  C   UNL A   1      32.093  24.102  23.813  1.00  0.00     0.067 A 
ATOM     10  C   UNL A   1      32.260  23.113  22.845  1.00  0.00     0.029 A 
ATOM     11  C   UNL A   1      31.985  23.772  25.165  1.00  0.00     0.029 A 
ATOM     12  C   UNL A   1      32.484  21.798  23.264  1.00  0.00     0.016 A 
ATOM     13  C   UNL A   1      32.117  22.442  25.559  1.00  0.00     0.016 A 
BRANCH   9  14
ATOM     14  N   UNL A   1      32.128  25.458  23.445  1.00  0.00    -0.217 N 
ATOM     15  C   UNL A   1      31.644  27.536  23.040  1.00  0.00     0.132 A 
ATOM     16  N   UNL A   1      32.982  27.339  22.809  1.00  0.00    -0.128 NA
ATOM     17  C   UNL A   1      31.074  26.352  23.470  1.00  0.00     0.071 A 
ATOM     18  N   UNL A   1      33.278  26.088  23.139  1.00  0.00    -0.061 NA
ATOM     19  C   UNL A   1      29.729  26.055  24.015  1.00  0.00     0.069 C 
BRANCH  15  20
ATOM     20  C   UNL A   1      31.036  28.857  23.041  1.00  0.00     0.087 C 
ATOM     21  C   UNL A   1      30.891  29.501  24.395  1.00  0.00     0.071 C 
ATOM     22  N   UNL A   1      30.724  29.336  21.874  1.00  0.00    -0.174 NA
BRANCH  22  23
ATOM     23  N   UNL A   1      30.126  30.554  21.703  1.00  0.00    -0.229 N 
ATOM     24  C   UNL A   1      28.830  30.806  21.300  1.00  0.00     0.332 C 
ATOM     25  H   UNL A   1      30.683  31.343  21.890  1.00  0.00     0.195 HD
ATOM     26  N   UNL A   1      28.551  32.143  21.269  1.00  0.00    -0.350 N 
ATOM     27  O   UNL A   1      27.971  29.997  21.004  1.00  0.00    -0.247 OA
ATOM     28  H   UNL A   1      29.247  32.796  21.508  1.00  0.00     0.161 HD
ATOM     29  H   UNL A   1      27.654  32.452  21.006  1.00  0.00     0.161 HD
ENDBRANCH  22  23
ENDBRANCH  15  20
ENDBRANCH   9  14
ENDBRANCH   5   8
ENDBRANCH   3   4
ENDBRANCH   2   3
ENDBRANCH   1   2
BRANCH   1  30
ATOM     30  C   UNL A   1      37.463  22.948  25.166  1.00  0.00     0.002 C 
BRANCH  30  31
ATOM     31  C   UNL A   1      38.456  21.886  25.661  1.00  0.00     0.021 C 
BRANCH  31  32
ATOM     32  C   UNL A   1      39.556  22.461  26.541  1.00  0.00     0.116 C 
BRANCH  32  33
ATOM     33  N   UNL A   1      40.882  22.157  26.015  1.00  0.00    -0.352 N 
ATOM     34  C   UNL A   1      41.918  23.020  25.750  1.00  0.00     0.251 C 
ATOM     35  H   UNL A   1      41.057  21.207  25.824  1.00  0.00     0.163 HD
ATOM     36  O   UNL A   1      42.816  22.695  24.982  1.00  0.00    -0.269 OA
BRANCH  34  37
ATOM     37  C   UNL A   1      41.944  24.343  26.399  1.00  0.00     0.039 A 
ATOM     38  C   UNL A   1      41.362  25.446  25.769  1.00  0.00     0.014 A 
ATOM     39  C   UNL A   1      42.584  24.488  27.631  1.00  0.00     0.014 A 
ATOM     40  C   UNL A   1      41.367  26.677  26.417  1.00  0.00     0.010 A 
ATOM     41  C   UNL A   1      42.507  25.680  28.318  1.00  0.00     0.010 A 
ATOM     42  C   UNL A   1      41.924  26.783  27.703  1.00  0.00    -0.014 A 
BRANCH  42  43
ATOM     43  C   UNL A   1      41.722  28.001  28.485  1.00  0.00     0.031 A 
ATOM     44  C   UNL A   1      42.760  29.037  28.229  1.00  0.00     0.074 A 
ATOM     45  C   UNL A   1      40.609  28.266  29.203  1.00  0.00     0.049 A 
ATOM     46  N   UNL A   1      43.661  29.459  29.051  1.00  0.00    -0.248 NA
ATOM     47  C   UNL A   1      42.921  29.548  26.855  1.00  0.00     0.031 C 
ATOM     48  C   UNL A   1      39.382  27.468  29.291  1.00  0.00     0.029 A 
ATOM     49  N   UNL A   1      40.291  29.378  29.928  1.00  0.00    -0.354 N 
ATOM     50  C   UNL A   1      44.366  30.448  28.371  1.00  0.00     0.074 A 
ATOM     51  C   UNL A   1      43.997  30.325  26.984  1.00  0.00     0.031 C 
ATOM     52  C   UNL A   1      38.387  28.220  29.819  1.00  0.00     0.029 A 
ATOM     53  C   UNL A   1      38.940  29.490  30.252  1.00  0.00     0.049 A 
ATOM     54  H   UNL A   1      40.961  30.045  30.200  1.00  0.00     0.167 HD
ATOM     55  C   UNL A   1      44.973  31.461  29.050  1.00  0.00     0.031 A 
ATOM     56  C   UNL A   1      38.317  30.559  30.813  1.00  0.00     0.031 A 
ATOM     57  C   UNL A   1      45.086  31.150  30.455  1.00  0.00     0.049 A 
ATOM     58  C   UNL A   1      39.359  31.397  31.442  1.00  0.00     0.074 A 
ATOM     59  C   UNL A   1      45.696  30.160  31.198  1.00  0.00     0.029 A 
ATOM     60  N   UNL A   1      44.146  31.723  31.276  1.00  0.00    -0.354 N 
ATOM     61  N   UNL A   1      40.028  31.035  32.496  1.00  0.00    -0.248 NA
ATOM     62  C   UNL A   1      39.959  32.456  30.650  1.00  0.00     0.031 C 
ATOM     63  C   UNL A   1      44.790  29.890  32.265  1.00  0.00     0.029 A 
ATOM     64  C   UNL A   1      43.720  30.781  32.172  1.00  0.00     0.049 A 
ATOM     65  H   UNL A   1      43.831  32.654  31.228  1.00  0.00     0.167 HD
ATOM     66  C   UNL A   1      41.323  31.458  32.241  1.00  0.00     0.074 A 
ATOM     67  C   UNL A   1      41.195  32.431  31.156  1.00  0.00     0.031 C 
ATOM     68  C   UNL A   1      42.389  30.761  32.734  1.00  0.00     0.031 A 
BRANCH  55  69
ATOM     69  C   UNL A   1      44.995  32.895  28.561  1.00  0.00    -0.014 A 
ATOM     70  C   UNL A   1      43.763  33.555  28.380  1.00  0.00     0.009 A 
ATOM     71  C   UNL A   1      46.122  33.504  27.980  1.00  0.00     0.009 A 
ATOM     72  C   UNL A   1      43.654  34.690  27.570  1.00  0.00     0.001 A 
ATOM     73  C   UNL A   1      46.023  34.662  27.204  1.00  0.00     0.001 A 
ATOM     74  C   UNL A   1      44.783  35.235  26.970  1.00  0.00     0.000 A 
ENDBRANCH  55  69
BRANCH  56  75
ATOM     75  C   UNL A   1      36.929  31.056  30.678  1.00  0.00    -0.014 A 
ATOM     76  C   UNL A   1      36.215  31.499  31.807  1.00  0.00     0.009 A 
ATOM     77  C   UNL A   1      36.417  31.388  29.412  1.00  0.00     0.009 A 
ATOM     78  C   UNL A   1      35.066  32.290  31.673  1.00  0.00     0.001 A 
ATOM     79  C   UNL A   1      35.267  32.177  29.279  1.00  0.00     0.001 A 
ATOM     80  C   UNL A   1      34.602  32.644  30.409  1.00  0.00     0.000 A 
ENDBRANCH  56  75
BRANCH  68  81
ATOM     81  C   UNL A   1      42.124  29.732  33.806  1.00  0.00    -0.014 A 
ATOM     82  C   UNL A   1      41.793  28.391  33.546  1.00  0.00     0.009 A 
ATOM     83  C   UNL A   1      42.340  30.118  35.137  1.00  0.00     0.009 A 
ATOM     84  C   UNL A   1      41.645  27.476  34.595  1.00  0.00     0.001 A 
ATOM     85  C   UNL A   1      42.217  29.201  36.181  1.00  0.00     0.001 A 
ATOM     86  C   UNL A   1      41.861  27.882  35.911  1.00  0.00     0.000 A 
ENDBRANCH  68  81
ENDBRANCH  42  43
ENDBRANCH  34  37
ENDBRANCH  32  33
ENDBRANCH  31  32
ENDBRANCH  30  31
ENDBRANCH   1  30
TORSDOF 16
ENDMDL
MODEL 3
REMARK VINA RESULT:     -11.5      2.733      8.798
REMARK SMILES C/C(=N\NC(N)=O)c1nnn(-c2ccc(C(=O)NCCCCCCNC(=O)c3ccc(-c4c5nc(c(-c6ccccc6)c6ccc([nH]6)c(-c6ccccc6)c6nc(c(-c7ccccc7)c7ccc4[nH]7)C=C6)C=C5)cc3)cc2)c1C
REMARK SMILES IDX 21 1 20 2 19 3 18 4 16 5 17 6 15 8 12 9 13 10 77 11 14 12
REMARK SMILES IDX 76 13 11 14 8 15 9 16 78 17 10 18 79 19 2 20 1 21 3 22 4 23
REMARK SMILES IDX 5 24 6 26 7 27 22 30 23 31 24 32 25 33 26 34 27 36 28 37
REMARK SMILES IDX 29 38 75 39 30 40 74 41 31 42 32 43 33 44 68 45 34 46 73 47
REMARK SMILES IDX 67 48 69 49 35 50 72 51 66 52 65 53 36 55 58 56 43 57 57 58
REMARK SMILES IDX 44 59 47 60 56 61 70 62 45 63 46 64 55 66 71 67 48 68 37 69
REMARK SMILES IDX 38 70 42 71 39 72 41 73 40 74 59 75 60 76 64 77 61 78 63 79
REMARK SMILES IDX 62 80 49 81 50 82 54 83 51 84 53 85 52 86
REMARK H PARENT 18 7 4 25 6 28 6 29 25 35 69 54 47 65
REMARK Flexibility Score: inf
ROOT
ATOM      1  C   UNL A   1      33.638  28.893  26.297  1.00  0.00     0.002 C 
ENDROOT
BRANCH   1   2
ATOM      2  C   UNL A   1      33.010  29.724  25.169  1.00  0.00     0.021 C 
BRANCH   2   3
ATOM      3  C   UNL A   1      31.491  29.866  25.300  1.00  0.00     0.116 C 
BRANCH   3   4
ATOM      4  N   UNL A   1      30.863  29.757  23.995  1.00  0.00    -0.352 N 
ATOM      5  C   UNL A   1      30.799  28.747  23.069  1.00  0.00     0.251 C 
ATOM      6  O   UNL A   1      30.169  28.963  22.033  1.00  0.00    -0.269 OA
ATOM      7  H   UNL A   1      30.388  30.573  23.719  1.00  0.00     0.163 HD
BRANCH   5   8
ATOM      8  C   UNL A   1      31.379  27.392  23.293  1.00  0.00     0.039 A 
ATOM      9  C   UNL A   1      32.450  24.943  24.098  1.00  0.00     0.067 A 
ATOM     10  C   UNL A   1      31.110  25.216  24.369  1.00  0.00     0.029 A 
ATOM     11  C   UNL A   1      33.217  25.816  23.323  1.00  0.00     0.029 A 
ATOM     12  C   UNL A   1      30.590  26.458  23.992  1.00  0.00     0.016 A 
ATOM     13  C   UNL A   1      32.656  27.009  22.874  1.00  0.00     0.016 A 
BRANCH   9  14
ATOM     14  N   UNL A   1      33.073  23.829  24.685  1.00  0.00    -0.217 N 
ATOM     15  C   UNL A   1      33.946  21.882  25.086  1.00  0.00     0.132 A 
ATOM     16  N   UNL A   1      34.139  22.687  26.179  1.00  0.00    -0.128 NA
ATOM     17  C   UNL A   1      33.284  22.594  24.104  1.00  0.00     0.071 A 
ATOM     18  N   UNL A   1      33.675  23.896  25.889  1.00  0.00    -0.061 NA
ATOM     19  C   UNL A   1      32.989  22.266  22.688  1.00  0.00     0.069 C 
BRANCH  15  20
ATOM     20  C   UNL A   1      34.570  20.575  24.958  1.00  0.00     0.087 C 
ATOM     21  C   UNL A   1      36.075  20.570  25.009  1.00  0.00     0.071 C 
ATOM     22  N   UNL A   1      33.756  19.568  24.848  1.00  0.00    -0.174 NA
BRANCH  22  23
ATOM     23  N   UNL A   1      34.182  18.277  24.697  1.00  0.00    -0.229 N 
ATOM     24  C   UNL A   1      33.745  17.349  23.774  1.00  0.00     0.332 C 
ATOM     25  H   UNL A   1      34.882  17.974  25.319  1.00  0.00     0.195 HD
ATOM     26  N   UNL A   1      34.412  16.162  23.882  1.00  0.00    -0.350 N 
ATOM     27  O   UNL A   1      32.885  17.491  22.924  1.00  0.00    -0.247 OA
ATOM     28  H   UNL A   1      35.106  16.048  24.570  1.00  0.00     0.161 HD
ATOM     29  H   UNL A   1      34.197  15.421  23.271  1.00  0.00     0.161 HD
ENDBRANCH  22  23
ENDBRANCH  15  20
ENDBRANCH   9  14
ENDBRANCH   5   8
ENDBRANCH   3   4
ENDBRANCH   2   3
ENDBRANCH   1   2
BRANCH   1  30
ATOM     30  C   UNL A   1      34.560  29.674  27.248  1.00  0.00     0.002 C 
BRANCH  30  31
ATOM     31  C   UNL A   1      34.018  31.022  27.744  1.00  0.00     0.021 C 
BRANCH  31  32
ATOM     32  C   UNL A   1      35.108  32.061  27.961  1.00  0.00     0.116 C 
BRANCH  32  33
ATOM     33  N   UNL A   1      35.130  32.541  29.339  1.00  0.00    -0.352 N 
ATOM     34  C   UNL A   1      35.768  31.994  30.426  1.00  0.00     0.251 C 
ATOM     35  H   UNL A   1      34.619  33.365  29.511  1.00  0.00     0.163 HD
ATOM     36  O   UNL A   1      35.409  32.277  31.564  1.00  0.00    -0.269 OA
BRANCH  34  37
ATOM     37  C   UNL A   1      36.894  31.066  30.216  1.00  0.00     0.039 A 
ATOM     38  C   UNL A   1      38.176  31.563  29.965  1.00  0.00     0.014 A 
ATOM     39  C   UNL A   1      36.659  29.690  30.238  1.00  0.00     0.014 A 
ATOM     40  C   UNL A   1      39.229  30.668  29.806  1.00  0.00     0.010 A 
ATOM     41  C   UNL A   1      37.713  28.805  30.178  1.00  0.00     0.010 A 
ATOM     42  C   UNL A   1      38.994  29.288  29.934  1.00  0.00    -0.014 A 
BRANCH  42  43
ATOM     43  C   UNL A   1      40.122  28.362  30.008  1.00  0.00     0.031 A 
ATOM     44  C   UNL A   1      40.693  28.247  31.378  1.00  0.00     0.074 A 
ATOM     45  C   UNL A   1      40.488  27.529  29.009  1.00  0.00     0.049 A 
ATOM     46  N   UNL A   1      41.856  28.643  31.775  1.00  0.00    -0.248 NA
ATOM     47  C   UNL A   1      39.815  27.788  32.470  1.00  0.00     0.031 C 
ATOM     48  C   UNL A   1      39.821  27.321  27.719  1.00  0.00     0.029 A 
ATOM     49  N   UNL A   1      41.484  26.598  28.979  1.00  0.00    -0.354 N 
ATOM     50  C   UNL A   1      41.944  28.284  33.117  1.00  0.00     0.074 A 
ATOM     51  C   UNL A   1      40.608  27.941  33.532  1.00  0.00     0.031 C 
ATOM     52  C   UNL A   1      40.278  26.181  27.149  1.00  0.00     0.029 A 
ATOM     53  C   UNL A   1      41.377  25.667  27.948  1.00  0.00     0.049 A 
ATOM     54  H   UNL A   1      42.220  26.585  29.633  1.00  0.00     0.167 HD
ATOM     55  C   UNL A   1      43.153  28.030  33.690  1.00  0.00     0.031 A 
ATOM     56  C   UNL A   1      42.120  24.544  27.775  1.00  0.00     0.031 A 
ATOM     57  C   UNL A   1      44.231  28.527  32.871  1.00  0.00     0.049 A 
ATOM     58  C   UNL A   1      43.348  24.699  28.581  1.00  0.00     0.074 A 
ATOM     59  C   UNL A   1      44.615  29.762  32.390  1.00  0.00     0.029 A 
ATOM     60  N   UNL A   1      44.874  27.595  32.092  1.00  0.00    -0.354 N 
ATOM     61  N   UNL A   1      44.286  25.552  28.298  1.00  0.00    -0.248 NA
ATOM     62  C   UNL A   1      43.339  24.204  29.947  1.00  0.00     0.031 C 
ATOM     63  C   UNL A   1      45.103  29.510  31.074  1.00  0.00     0.029 A 
ATOM     64  C   UNL A   1      45.077  28.132  30.851  1.00  0.00     0.049 A 
ATOM     65  H   UNL A   1      45.144  26.693  32.379  1.00  0.00     0.167 HD
ATOM     66  C   UNL A   1      44.670  26.060  29.529  1.00  0.00     0.074 A 
ATOM     67  C   UNL A   1      44.146  25.108  30.509  1.00  0.00     0.031 C 
ATOM     68  C   UNL A   1      45.117  27.346  29.639  1.00  0.00     0.031 A 
BRANCH  55  69
ATOM     69  C   UNL A   1      43.380  26.919  34.695  1.00  0.00    -0.014 A 
ATOM     70  C   UNL A   1      43.174  25.590  34.274  1.00  0.00     0.009 A 
ATOM     71  C   UNL A   1      43.472  27.128  36.083  1.00  0.00     0.009 A 
ATOM     72  C   UNL A   1      42.958  24.557  35.193  1.00  0.00     0.001 A 
ATOM     73  C   UNL A   1      43.300  26.091  37.004  1.00  0.00     0.001 A 
ATOM     74  C   UNL A   1      43.007  24.811  36.559  1.00  0.00     0.000 A 
ENDBRANCH  55  69
BRANCH  56  75
ATOM     75  C   UNL A   1      41.784  23.242  27.155  1.00  0.00    -0.014 A 
ATOM     76  C   UNL A   1      42.759  22.511  26.452  1.00  0.00     0.009 A 
ATOM     77  C   UNL A   1      40.602  22.572  27.514  1.00  0.00     0.009 A 
ATOM     78  C   UNL A   1      42.582  21.149  26.171  1.00  0.00     0.001 A 
ATOM     79  C   UNL A   1      40.424  21.211  27.231  1.00  0.00     0.001 A 
ATOM     80  C   UNL A   1      41.422  20.495  26.576  1.00  0.00     0.000 A 
ENDBRANCH  56  75
BRANCH  68  81
ATOM     81  C   UNL A   1      45.481  28.077  28.371  1.00  0.00    -0.014 A 
ATOM     82  C   UNL A   1      44.605  28.930  27.675  1.00  0.00     0.009 A 
ATOM     83  C   UNL A   1      46.810  27.988  27.933  1.00  0.00     0.009 A 
ATOM     84  C   UNL A   1      45.044  29.640  26.551  1.00  0.00     0.001 A 
ATOM     85  C   UNL A   1      47.254  28.714  26.828  1.00  0.00     0.001 A 
ATOM     86  C   UNL A   1      46.369  29.534  26.132  1.00  0.00     0.000 A 
ENDBRANCH  68  81
ENDBRANCH  42  43
ENDBRANCH  34  37
ENDBRANCH  32  33
ENDBRANCH  31  32
ENDBRANCH  30  31
ENDBRANCH   1  30
TORSDOF 16
ENDMDL
