MODEL 1
REMARK VINA RESULT:     -10.1      0.000      0.000
REMARK SMILES C[C@H](C(=O)NCCCCCCNC(=O)c1ccc(-c2c3nc(c(-c4ccccc4)c4ccc([nH]4)c(-c4ccccc4)c4nc(c(-c5ccccc5)c5ccc2[nH]5)C=C4)C=C3)cc1)[C@H](C)[NH+]1CCN(S(C)(=O)=O)CC1
REMARK SMILES IDX 8 1 7 2 6 3 5 4 3 5 4 6 2 8 1 9 63 10 64 11 65 12 66 13
REMARK SMILES IDX 74 14 67 16 73 17 68 18 69 19 70 20 71 21 72 22 9 23 10 24
REMARK SMILES IDX 11 25 12 26 13 27 14 29 15 30 16 31 62 32 17 33 61 34 18 35
REMARK SMILES IDX 19 36 20 37 55 38 21 39 60 40 54 41 56 42 22 43 59 44 53 45
REMARK SMILES IDX 52 46 23 48 45 49 30 50 44 51 31 52 34 53 43 54 57 55 32 56
REMARK SMILES IDX 33 57 42 59 58 60 35 61 24 62 25 63 29 64 26 65 28 66 27 67
REMARK SMILES IDX 46 68 47 69 51 70 48 71 50 72 49 73 36 74 37 75 41 76 38 77
REMARK SMILES IDX 40 78 39 79
REMARK H PARENT 5 7 65 15 12 28 56 47 34 58
REMARK Flexibility Score: inf
ROOT
ATOM      1  C   UNL A   1      37.201  21.887  24.327  1.00  0.00     0.002 C 
ENDROOT
BRANCH   1   2
ATOM      2  C   UNL A   1      37.551  22.935  25.390  1.00  0.00     0.021 C 
BRANCH   2   3
ATOM      3  C   UNL A   1      36.358  23.733  25.910  1.00  0.00     0.116 C 
BRANCH   3   4
ATOM      4  N   UNL A   1      35.630  23.002  26.923  1.00  0.00    -0.356 N 
ATOM      5  C   UNL A   1      34.364  22.495  26.903  1.00  0.00     0.228 C 
ATOM      6  O   UNL A   1      33.975  21.895  27.909  1.00  0.00    -0.275 OA
ATOM      7  H   UNL A   1      36.125  22.845  27.759  1.00  0.00     0.163 HD
BRANCH   5   8
ATOM      8  C   UNL A   1      33.485  22.664  25.655  1.00  0.00     0.133 C 
ATOM      9  C   UNL A   1      33.115  21.267  25.121  1.00  0.00     0.024 C 
BRANCH   8  10
ATOM     10  C   UNL A   1      32.210  23.552  25.883  1.00  0.00     0.193 C 
ATOM     11  C   UNL A   1      30.936  22.695  25.880  1.00  0.00     0.076 C 
BRANCH  10  12
ATOM     12  N   UNL A   1      32.206  24.709  24.985  1.00  0.00    -0.330 N 
ATOM     13  C   UNL A   1      31.649  24.634  23.635  1.00  0.00     0.279 C 
ATOM     14  C   UNL A   1      31.950  25.993  25.657  1.00  0.00     0.279 C 
ATOM     15  H   UNL A   1      33.191  24.653  24.724  1.00  0.00     0.348 HD
ATOM     16  C   UNL A   1      30.220  25.178  23.460  1.00  0.00     0.163 C 
ATOM     17  C   UNL A   1      30.493  26.469  25.543  1.00  0.00     0.163 C 
ATOM     18  N   UNL A   1      30.045  26.488  24.130  1.00  0.00    -0.191 NA
BRANCH  18  19
ATOM     19  S   UNL A   1      30.120  27.908  23.242  1.00  0.00     0.211 S 
ATOM     20  C   UNL A   1      28.425  28.428  23.056  1.00  0.00     0.176 C 
ATOM     21  O   UNL A   1      30.784  28.903  24.057  1.00  0.00    -0.212 OA
ATOM     22  O   UNL A   1      30.616  27.578  21.921  1.00  0.00    -0.212 OA
ENDBRANCH  18  19
ENDBRANCH  10  12
ENDBRANCH   8  10
ENDBRANCH   5   8
ENDBRANCH   3   4
ENDBRANCH   2   3
ENDBRANCH   1   2
BRANCH   1  23
ATOM     23  C   UNL A   1      36.996  20.466  24.861  1.00  0.00     0.002 C 
BRANCH  23  24
ATOM     24  C   UNL A   1      38.237  19.571  24.823  1.00  0.00     0.021 C 
BRANCH  24  25
ATOM     25  C   UNL A   1      39.145  19.681  26.044  1.00  0.00     0.116 C 
BRANCH  25  26
ATOM     26  N   UNL A   1      40.442  19.068  25.820  1.00  0.00    -0.352 N 
ATOM     27  C   UNL A   1      41.697  19.616  25.884  1.00  0.00     0.251 C 
ATOM     28  H   UNL A   1      40.417  18.113  25.585  1.00  0.00     0.163 HD
ATOM     29  O   UNL A   1      42.661  18.979  25.468  1.00  0.00    -0.269 OA
BRANCH  27  30
ATOM     30  C   UNL A   1      41.899  20.977  26.432  1.00  0.00     0.039 A 
ATOM     31  C   UNL A   1      41.662  21.186  27.793  1.00  0.00     0.014 A 
ATOM     32  C   UNL A   1      42.282  22.047  25.617  1.00  0.00     0.014 A 
ATOM     33  C   UNL A   1      41.859  22.452  28.343  1.00  0.00     0.010 A 
ATOM     34  C   UNL A   1      42.552  23.293  26.184  1.00  0.00     0.010 A 
ATOM     35  C   UNL A   1      42.341  23.510  27.552  1.00  0.00    -0.014 A 
BRANCH  35  36
ATOM     36  C   UNL A   1      42.639  24.829  28.166  1.00  0.00     0.031 A 
ATOM     37  C   UNL A   1      44.030  25.172  28.627  1.00  0.00     0.074 A 
ATOM     38  C   UNL A   1      41.642  25.723  28.321  1.00  0.00     0.049 A 
ATOM     39  N   UNL A   1      44.471  26.287  29.154  1.00  0.00    -0.248 NA
ATOM     40  C   UNL A   1      45.056  24.125  28.497  1.00  0.00     0.031 C 
ATOM     41  C   UNL A   1      40.240  25.495  27.961  1.00  0.00     0.029 A 
ATOM     42  N   UNL A   1      41.654  27.004  28.812  1.00  0.00    -0.354 N 
ATOM     43  C   UNL A   1      45.821  26.079  29.408  1.00  0.00     0.074 A 
ATOM     44  C   UNL A   1      46.113  24.711  29.041  1.00  0.00     0.031 C 
ATOM     45  C   UNL A   1      39.536  26.612  28.207  1.00  0.00     0.029 A 
ATOM     46  C   UNL A   1      40.425  27.618  28.777  1.00  0.00     0.049 A 
ATOM     47  H   UNL A   1      42.466  27.442  29.156  1.00  0.00     0.167 HD
ATOM     48  C   UNL A   1      46.742  26.954  29.882  1.00  0.00     0.031 A 
ATOM     49  C   UNL A   1      40.051  28.852  29.163  1.00  0.00     0.031 A 
ATOM     50  C   UNL A   1      46.452  28.313  30.258  1.00  0.00     0.049 A 
ATOM     51  C   UNL A   1      41.090  29.794  29.709  1.00  0.00     0.074 A 
ATOM     52  C   UNL A   1      47.324  29.284  30.721  1.00  0.00     0.029 A 
ATOM     53  N   UNL A   1      45.194  28.894  30.217  1.00  0.00    -0.354 N 
ATOM     54  N   UNL A   1      42.375  29.599  29.878  1.00  0.00    -0.248 NA
ATOM     55  C   UNL A   1      40.626  31.132  30.099  1.00  0.00     0.031 C 
ATOM     56  C   UNL A   1      46.583  30.435  31.011  1.00  0.00     0.029 A 
ATOM     57  C   UNL A   1      45.262  30.202  30.667  1.00  0.00     0.049 A 
ATOM     58  H   UNL A   1      44.373  28.442  29.913  1.00  0.00     0.167 HD
ATOM     59  C   UNL A   1      42.876  30.797  30.372  1.00  0.00     0.074 A 
ATOM     60  C   UNL A   1      41.762  31.720  30.442  1.00  0.00     0.031 C 
ATOM     61  C   UNL A   1      44.143  31.105  30.741  1.00  0.00     0.031 A 
BRANCH  48  62
ATOM     62  C   UNL A   1      48.160  26.468  30.013  1.00  0.00    -0.014 A 
ATOM     63  C   UNL A   1      49.090  26.664  28.978  1.00  0.00     0.009 A 
ATOM     64  C   UNL A   1      48.590  25.863  31.204  1.00  0.00     0.009 A 
ATOM     65  C   UNL A   1      50.412  26.238  29.123  1.00  0.00     0.001 A 
ATOM     66  C   UNL A   1      49.920  25.465  31.357  1.00  0.00     0.001 A 
ATOM     67  C   UNL A   1      50.828  25.646  30.314  1.00  0.00     0.000 A 
ENDBRANCH  48  62
BRANCH  49  68
ATOM     68  C   UNL A   1      38.630  29.275  29.056  1.00  0.00    -0.014 A 
ATOM     69  C   UNL A   1      37.770  29.205  30.163  1.00  0.00     0.009 A 
ATOM     70  C   UNL A   1      38.115  29.722  27.828  1.00  0.00     0.009 A 
ATOM     71  C   UNL A   1      36.418  29.534  30.032  1.00  0.00     0.001 A 
ATOM     72  C   UNL A   1      36.773  30.086  27.710  1.00  0.00     0.001 A 
ATOM     73  C   UNL A   1      35.922  29.977  28.808  1.00  0.00     0.000 A 
ENDBRANCH  49  68
BRANCH  61  74
ATOM     74  C   UNL A   1      44.390  32.508  31.227  1.00  0.00    -0.014 A 
ATOM     75  C   UNL A   1      44.730  33.541  30.339  1.00  0.00     0.009 A 
ATOM     76  C   UNL A   1      44.272  32.801  32.595  1.00  0.00     0.009 A 
ATOM     77  C   UNL A   1      44.998  34.825  30.816  1.00  0.00     0.001 A 
ATOM     78  C   UNL A   1      44.505  34.094  33.065  1.00  0.00     0.001 A 
ATOM     79  C   UNL A   1      44.882  35.101  32.178  1.00  0.00     0.000 A 
ENDBRANCH  61  74
ENDBRANCH  35  36
ENDBRANCH  27  30
ENDBRANCH  25  26
ENDBRANCH  24  25
ENDBRANCH  23  24
ENDBRANCH   1  23
TORSDOF 16
ENDMDL
MODEL 2
REMARK VINA RESULT:     -10.0      3.360      8.833
REMARK SMILES C[C@H](C(=O)NCCCCCCNC(=O)c1ccc(-c2c3nc(c(-c4ccccc4)c4ccc([nH]4)c(-c4ccccc4)c4nc(c(-c5ccccc5)c5ccc2[nH]5)C=C4)C=C3)cc1)[C@H](C)[NH+]1CCN(S(C)(=O)=O)CC1
REMARK SMILES IDX 8 1 7 2 6 3 5 4 3 5 4 6 2 8 1 9 63 10 64 11 65 12 66 13
REMARK SMILES IDX 74 14 67 16 73 17 68 18 69 19 70 20 71 21 72 22 9 23 10 24
REMARK SMILES IDX 11 25 12 26 13 27 14 29 15 30 16 31 62 32 17 33 61 34 18 35
REMARK SMILES IDX 19 36 20 37 55 38 21 39 60 40 54 41 56 42 22 43 59 44 53 45
REMARK SMILES IDX 52 46 23 48 45 49 30 50 44 51 31 52 34 53 43 54 57 55 32 56
REMARK SMILES IDX 33 57 42 59 58 60 35 61 24 62 25 63 29 64 26 65 28 66 27 67
REMARK SMILES IDX 46 68 47 69 51 70 48 71 50 72 49 73 36 74 37 75 41 76 38 77
REMARK SMILES IDX 40 78 39 79
REMARK H PARENT 5 7 65 15 12 28 56 47 34 58
REMARK Flexibility Score: inf
ROOT
ATOM      1  C   UNL A   1      30.677  29.610  24.399  1.00  0.00     0.002 C 
ENDROOT
BRANCH   1   2
ATOM      2  C   UNL A   1      31.330  28.611  23.438  1.00  0.00     0.021 C 
BRANCH   2   3
ATOM      3  C   UNL A   1      30.715  27.213  23.462  1.00  0.00     0.116 C 
BRANCH   3   4
ATOM      4  N   UNL A   1      30.535  26.734  24.815  1.00  0.00    -0.356 N 
ATOM      5  C   UNL A   1      31.421  26.134  25.660  1.00  0.00     0.228 C 
ATOM      6  O   UNL A   1      31.015  25.824  26.783  1.00  0.00    -0.275 OA
ATOM      7  H   UNL A   1      29.631  26.861  25.184  1.00  0.00     0.163 HD
BRANCH   5   8
ATOM      8  C   UNL A   1      32.868  25.884  25.210  1.00  0.00     0.133 C 
ATOM      9  C   UNL A   1      33.717  27.118  25.574  1.00  0.00     0.024 C 
BRANCH   8  10
ATOM     10  C   UNL A   1      33.497  24.562  25.778  1.00  0.00     0.193 C 
ATOM     11  C   UNL A   1      35.026  24.574  25.632  1.00  0.00     0.076 C 
BRANCH  10  12
ATOM     12  N   UNL A   1      32.812  23.382  25.246  1.00  0.00    -0.330 N 
ATOM     13  C   UNL A   1      33.083  22.875  23.902  1.00  0.00     0.279 C 
ATOM     14  C   UNL A   1      32.579  22.321  26.239  1.00  0.00     0.279 C 
ATOM     15  H   UNL A   1      31.930  23.849  25.035  1.00  0.00     0.348 HD
ATOM     16  C   UNL A   1      34.052  21.683  23.809  1.00  0.00     0.163 C 
ATOM     17  C   UNL A   1      33.614  21.187  26.184  1.00  0.00     0.163 C 
ATOM     18  N   UNL A   1      33.737  20.639  24.813  1.00  0.00    -0.191 NA
BRANCH  18  19
ATOM     19  S   UNL A   1      32.865  19.277  24.369  1.00  0.00     0.211 S 
ATOM     20  C   UNL A   1      34.090  18.008  24.111  1.00  0.00     0.176 C 
ATOM     21  O   UNL A   1      32.067  18.875  25.506  1.00  0.00    -0.212 OA
ATOM     22  O   UNL A   1      32.248  19.546  23.086  1.00  0.00    -0.212 OA
ENDBRANCH  18  19
ENDBRANCH  10  12
ENDBRANCH   8  10
ENDBRANCH   5   8
ENDBRANCH   3   4
ENDBRANCH   2   3
ENDBRANCH   1   2
BRANCH   1  23
ATOM     23  C   UNL A   1      31.515  29.968  25.630  1.00  0.00     0.002 C 
BRANCH  23  24
ATOM     24  C   UNL A   1      31.335  31.398  26.145  1.00  0.00     0.021 C 
BRANCH  24  25
ATOM     25  C   UNL A   1      32.514  31.945  26.945  1.00  0.00     0.116 C 
BRANCH  25  26
ATOM     26  N   UNL A   1      32.315  33.327  27.340  1.00  0.00    -0.352 N 
ATOM     27  C   UNL A   1      33.040  34.109  28.203  1.00  0.00     0.251 C 
ATOM     28  H   UNL A   1      31.542  33.772  26.926  1.00  0.00     0.163 HD
ATOM     29  O   UNL A   1      32.596  35.198  28.556  1.00  0.00    -0.269 OA
BRANCH  27  30
ATOM     30  C   UNL A   1      34.343  33.643  28.729  1.00  0.00     0.039 A 
ATOM     31  C   UNL A   1      34.343  32.717  29.775  1.00  0.00     0.014 A 
ATOM     32  C   UNL A   1      35.554  34.131  28.229  1.00  0.00     0.014 A 
ATOM     33  C   UNL A   1      35.554  32.245  30.282  1.00  0.00     0.010 A 
ATOM     34  C   UNL A   1      36.762  33.601  28.684  1.00  0.00     0.010 A 
ATOM     35  C   UNL A   1      36.774  32.654  29.717  1.00  0.00    -0.014 A 
BRANCH  35  36
ATOM     36  C   UNL A   1      38.054  32.074  30.199  1.00  0.00     0.031 A 
ATOM     37  C   UNL A   1      38.548  30.750  29.680  1.00  0.00     0.074 A 
ATOM     38  C   UNL A   1      38.773  32.744  31.123  1.00  0.00     0.049 A 
ATOM     39  N   UNL A   1      39.657  30.115  29.969  1.00  0.00    -0.248 NA
ATOM     40  C   UNL A   1      37.680  30.037  28.730  1.00  0.00     0.031 C 
ATOM     41  C   UNL A   1      38.381  34.012  31.742  1.00  0.00     0.029 A 
ATOM     42  N   UNL A   1      39.987  32.456  31.696  1.00  0.00    -0.354 N 
ATOM     43  C   UNL A   1      39.622  28.938  29.232  1.00  0.00     0.074 A 
ATOM     44  C   UNL A   1      38.356  28.914  28.534  1.00  0.00     0.031 C 
ATOM     45  C   UNL A   1      39.353  34.412  32.578  1.00  0.00     0.029 A 
ATOM     46  C   UNL A   1      40.415  33.412  32.585  1.00  0.00     0.049 A 
ATOM     47  H   UNL A   1      40.501  31.642  31.489  1.00  0.00     0.167 HD
ATOM     48  C   UNL A   1      40.570  27.975  29.124  1.00  0.00     0.031 A 
ATOM     49  C   UNL A   1      41.537  33.478  33.327  1.00  0.00     0.031 A 
ATOM     50  C   UNL A   1      41.827  27.991  29.825  1.00  0.00     0.049 A 
ATOM     51  C   UNL A   1      42.559  32.382  33.205  1.00  0.00     0.074 A 
ATOM     52  C   UNL A   1      42.863  27.074  29.758  1.00  0.00     0.029 A 
ATOM     53  N   UNL A   1      42.220  28.971  30.722  1.00  0.00    -0.354 N 
ATOM     54  N   UNL A   1      42.538  31.310  32.450  1.00  0.00    -0.248 NA
ATOM     55  C   UNL A   1      43.769  32.516  34.028  1.00  0.00     0.031 C 
ATOM     56  C   UNL A   1      43.859  27.473  30.657  1.00  0.00     0.029 A 
ATOM     57  C   UNL A   1      43.472  28.671  31.234  1.00  0.00     0.049 A 
ATOM     58  H   UNL A   1      41.686  29.764  30.962  1.00  0.00     0.167 HD
ATOM     59  C   UNL A   1      43.740  30.656  32.690  1.00  0.00     0.074 A 
ATOM     60  C   UNL A   1      44.479  31.469  33.633  1.00  0.00     0.031 C 
ATOM     61  C   UNL A   1      44.190  29.484  32.180  1.00  0.00     0.031 A 
BRANCH  48  62
ATOM     62  C   UNL A   1      40.285  26.819  28.203  1.00  0.00    -0.014 A 
ATOM     63  C   UNL A   1      40.823  26.778  26.906  1.00  0.00     0.009 A 
ATOM     64  C   UNL A   1      39.521  25.731  28.654  1.00  0.00     0.009 A 
ATOM     65  C   UNL A   1      40.579  25.686  26.071  1.00  0.00     0.001 A 
ATOM     66  C   UNL A   1      39.304  24.626  27.827  1.00  0.00     0.001 A 
ATOM     67  C   UNL A   1      39.827  24.608  26.534  1.00  0.00     0.000 A 
ENDBRANCH  48  62
BRANCH  49  68
ATOM     68  C   UNL A   1      41.756  34.618  34.256  1.00  0.00    -0.014 A 
ATOM     69  C   UNL A   1      42.441  35.768  33.837  1.00  0.00     0.009 A 
ATOM     70  C   UNL A   1      41.306  34.546  35.584  1.00  0.00     0.009 A 
ATOM     71  C   UNL A   1      42.708  36.802  34.739  1.00  0.00     0.001 A 
ATOM     72  C   UNL A   1      41.540  35.596  36.473  1.00  0.00     0.001 A 
ATOM     73  C   UNL A   1      42.254  36.716  36.054  1.00  0.00     0.000 A 
ENDBRANCH  49  68
BRANCH  61  74
ATOM     74  C   UNL A   1      45.558  29.031  32.616  1.00  0.00    -0.014 A 
ATOM     75  C   UNL A   1      46.713  29.422  31.921  1.00  0.00     0.009 A 
ATOM     76  C   UNL A   1      45.691  28.208  33.745  1.00  0.00     0.009 A 
ATOM     77  C   UNL A   1      47.968  28.955  32.316  1.00  0.00     0.001 A 
ATOM     78  C   UNL A   1      46.950  27.771  34.159  1.00  0.00     0.001 A 
ATOM     79  C   UNL A   1      48.085  28.133  33.436  1.00  0.00     0.000 A 
ENDBRANCH  61  74
ENDBRANCH  35  36
ENDBRANCH  27  30
ENDBRANCH  25  26
ENDBRANCH  24  25
ENDBRANCH  23  24
ENDBRANCH   1  23
TORSDOF 16
ENDMDL
MODEL 3
REMARK VINA RESULT:      -9.9      3.323      8.883
REMARK SMILES C[C@H](C(=O)NCCCCCCNC(=O)c1ccc(-c2c3nc(c(-c4ccccc4)c4ccc([nH]4)c(-c4ccccc4)c4nc(c(-c5ccccc5)c5ccc2[nH]5)C=C4)C=C3)cc1)[C@H](C)[NH+]1CCN(S(C)(=O)=O)CC1
REMARK SMILES IDX 8 1 7 2 6 3 5 4 3 5 4 6 2 8 1 9 63 10 64 11 65 12 66 13
REMARK SMILES IDX 74 14 67 16 73 17 68 18 69 19 70 20 71 21 72 22 9 23 10 24
REMARK SMILES IDX 11 25 12 26 13 27 14 29 15 30 16 31 62 32 17 33 61 34 18 35
REMARK SMILES IDX 19 36 20 37 55 38 21 39 60 40 54 41 56 42 22 43 59 44 53 45
REMARK SMILES IDX 52 46 23 48 45 49 30 50 44 51 31 52 34 53 43 54 57 55 32 56
REMARK SMILES IDX 33 57 42 59 58 60 35 61 24 62 25 63 29 64 26 65 28 66 27 67
REMARK SMILES IDX 46 68 47 69 51 70 48 71 50 72 49 73 36 74 37 75 41 76 38 77
REMARK SMILES IDX 40 78 39 79
REMARK H PARENT 5 7 65 15 12 28 56 47 34 58
REMARK Flexibility Score: inf
ROOT
ATOM      1  C   UNL A   1      30.663  29.633  24.423  1.00  0.00     0.002 C 
ENDROOT
BRANCH   1   2
ATOM      2  C   UNL A   1      31.264  28.632  23.430  1.00  0.00     0.021 C 
BRANCH   2   3
ATOM      3  C   UNL A   1      30.652  27.234  23.491  1.00  0.00     0.116 C 
BRANCH   3   4
ATOM      4  N   UNL A   1      30.519  26.770  24.855  1.00  0.00    -0.356 N 
ATOM      5  C   UNL A   1      31.428  26.160  25.668  1.00  0.00     0.228 C 
ATOM      6  O   UNL A   1      31.062  25.867  26.810  1.00  0.00    -0.275 OA
ATOM      7  H   UNL A   1      29.634  26.918  25.260  1.00  0.00     0.163 HD
BRANCH   5   8
ATOM      8  C   UNL A   1      32.849  25.877  25.161  1.00  0.00     0.133 C 
ATOM      9  C   UNL A   1      33.723  27.118  25.426  1.00  0.00     0.024 C 
BRANCH   8  10
ATOM     10  C   UNL A   1      33.496  24.576  25.758  1.00  0.00     0.193 C 
ATOM     11  C   UNL A   1      35.012  24.553  25.510  1.00  0.00     0.076 C 
BRANCH  10  12
ATOM     12  N   UNL A   1      32.760  23.381  25.340  1.00  0.00    -0.330 N 
ATOM     13  C   UNL A   1      32.718  22.953  23.943  1.00  0.00     0.279 C 
ATOM     14  C   UNL A   1      32.829  22.265  26.296  1.00  0.00     0.279 C 
ATOM     15  H   UNL A   1      31.832  23.802  25.376  1.00  0.00     0.348 HD
ATOM     16  C   UNL A   1      33.692  21.828  23.548  1.00  0.00     0.163 C 
ATOM     17  C   UNL A   1      33.874  21.200  25.925  1.00  0.00     0.163 C 
ATOM     18  N   UNL A   1      33.683  20.723  24.535  1.00  0.00    -0.191 NA
BRANCH  18  19
ATOM     19  S   UNL A   1      32.797  19.330  24.237  1.00  0.00     0.211 S 
ATOM     20  C   UNL A   1      34.011  18.037  24.066  1.00  0.00     0.176 C 
ATOM     21  O   UNL A   1      32.024  19.037  25.424  1.00  0.00    -0.212 OA
ATOM     22  O   UNL A   1      32.150  19.486  22.949  1.00  0.00    -0.212 OA
ENDBRANCH  18  19
ENDBRANCH  10  12
ENDBRANCH   8  10
ENDBRANCH   5   8
ENDBRANCH   3   4
ENDBRANCH   2   3
ENDBRANCH   1   2
BRANCH   1  23
ATOM     23  C   UNL A   1      31.550  29.965  25.626  1.00  0.00     0.002 C 
BRANCH  23  24
ATOM     24  C   UNL A   1      31.360  31.368  26.207  1.00  0.00     0.021 C 
BRANCH  24  25
ATOM     25  C   UNL A   1      32.553  31.902  26.996  1.00  0.00     0.116 C 
BRANCH  25  26
ATOM     26  N   UNL A   1      32.357  33.277  27.422  1.00  0.00    -0.352 N 
ATOM     27  C   UNL A   1      33.110  34.052  28.266  1.00  0.00     0.251 C 
ATOM     28  H   UNL A   1      31.562  33.720  27.048  1.00  0.00     0.163 HD
ATOM     29  O   UNL A   1      32.671  35.130  28.655  1.00  0.00    -0.269 OA
BRANCH  27  30
ATOM     30  C   UNL A   1      34.439  33.591  28.728  1.00  0.00     0.039 A 
ATOM     31  C   UNL A   1      34.499  32.766  29.854  1.00  0.00     0.014 A 
ATOM     32  C   UNL A   1      35.618  33.989  28.090  1.00  0.00     0.014 A 
ATOM     33  C   UNL A   1      35.735  32.300  30.305  1.00  0.00     0.010 A 
ATOM     34  C   UNL A   1      36.844  33.461  28.496  1.00  0.00     0.010 A 
ATOM     35  C   UNL A   1      36.915  32.613  29.610  1.00  0.00    -0.014 A 
BRANCH  35  36
ATOM     36  C   UNL A   1      38.214  32.035  30.041  1.00  0.00     0.031 A 
ATOM     37  C   UNL A   1      39.086  32.748  31.039  1.00  0.00     0.074 A 
ATOM     38  C   UNL A   1      38.617  30.860  29.516  1.00  0.00     0.049 A 
ATOM     39  N   UNL A   1      40.233  32.371  31.548  1.00  0.00    -0.248 NA
ATOM     40  C   UNL A   1      38.623  34.062  31.515  1.00  0.00     0.031 C 
ATOM     41  C   UNL A   1      37.888  30.092  28.504  1.00  0.00     0.029 A 
ATOM     42  N   UNL A   1      39.733  30.101  29.768  1.00  0.00    -0.354 N 
ATOM     43  C   UNL A   1      40.621  33.392  32.407  1.00  0.00     0.074 A 
ATOM     44  C   UNL A   1      39.623  34.433  32.302  1.00  0.00     0.031 C 
ATOM     45  C   UNL A   1      38.555  28.955  28.250  1.00  0.00     0.029 A 
ATOM     46  C   UNL A   1      39.775  28.932  29.049  1.00  0.00     0.049 A 
ATOM     47  H   UNL A   1      40.435  30.370  30.403  1.00  0.00     0.167 HD
ATOM     48  C   UNL A   1      41.697  33.448  33.229  1.00  0.00     0.031 A 
ATOM     49  C   UNL A   1      40.694  27.948  29.030  1.00  0.00     0.031 A 
ATOM     50  C   UNL A   1      42.697  32.417  33.328  1.00  0.00     0.049 A 
ATOM     51  C   UNL A   1      41.892  28.049  29.935  1.00  0.00     0.074 A 
ATOM     52  C   UNL A   1      43.809  32.370  34.153  1.00  0.00     0.029 A 
ATOM     53  N   UNL A   1      42.710  31.253  32.577  1.00  0.00    -0.354 N 
ATOM     54  N   UNL A   1      42.205  28.991  30.790  1.00  0.00    -0.248 NA
ATOM     55  C   UNL A   1      42.852  26.939  29.882  1.00  0.00     0.031 C 
ATOM     56  C   UNL A   1      44.522  31.203  33.861  1.00  0.00     0.029 A 
ATOM     57  C   UNL A   1      43.821  30.491  32.902  1.00  0.00     0.049 A 
ATOM     58  H   UNL A   1      42.029  31.003  31.909  1.00  0.00     0.167 HD
ATOM     59  C   UNL A   1      43.386  28.576  31.393  1.00  0.00     0.074 A 
ATOM     60  C   UNL A   1      43.712  27.283  30.830  1.00  0.00     0.031 C 
ATOM     61  C   UNL A   1      44.138  29.211  32.326  1.00  0.00     0.031 A 
BRANCH  48  62
ATOM     62  C   UNL A   1      41.846  34.667  34.098  1.00  0.00    -0.014 A 
ATOM     63  C   UNL A   1      41.311  34.699  35.396  1.00  0.00     0.009 A 
ATOM     64  C   UNL A   1      42.579  35.773  33.640  1.00  0.00     0.009 A 
ATOM     65  C   UNL A   1      41.483  35.824  36.206  1.00  0.00     0.001 A 
ATOM     66  C   UNL A   1      42.775  36.885  34.464  1.00  0.00     0.001 A 
ATOM     67  C   UNL A   1      42.220  36.912  35.743  1.00  0.00     0.000 A 
ENDBRANCH  48  62
BRANCH  49  68
ATOM     68  C   UNL A   1      40.528  26.781  28.123  1.00  0.00    -0.014 A 
ATOM     69  C   UNL A   1      39.902  25.606  28.566  1.00  0.00     0.009 A 
ATOM     70  C   UNL A   1      41.026  26.827  26.811  1.00  0.00     0.009 A 
ATOM     71  C   UNL A   1      39.817  24.490  27.730  1.00  0.00     0.001 A 
ATOM     72  C   UNL A   1      40.906  25.724  25.965  1.00  0.00     0.001 A 
ATOM     73  C   UNL A   1      40.316  24.551  26.430  1.00  0.00     0.000 A 
ENDBRANCH  49  68
BRANCH  61  74
ATOM     74  C   UNL A   1      45.370  28.496  32.810  1.00  0.00    -0.014 A 
ATOM     75  C   UNL A   1      45.321  27.609  33.897  1.00  0.00     0.009 A 
ATOM     76  C   UNL A   1      46.597  28.708  32.161  1.00  0.00     0.009 A 
ATOM     77  C   UNL A   1      46.485  26.989  34.357  1.00  0.00     0.001 A 
ATOM     78  C   UNL A   1      47.752  28.060  32.602  1.00  0.00     0.001 A 
ATOM     79  C   UNL A   1      47.698  27.213  33.707  1.00  0.00     0.000 A 
ENDBRANCH  61  74
ENDBRANCH  35  36
ENDBRANCH  27  30
ENDBRANCH  25  26
ENDBRANCH  24  25
ENDBRANCH  23  24
ENDBRANCH   1  23
TORSDOF 16
ENDMDL
