MODEL 1
REMARK VINA RESULT:     -12.7      0.000      0.000
REMARK SMILES Cc1c(C(=O)Nc2ccc(C(=O)Nc3ccccc3C(=O)NCCCCCCNC(=O)c3ccc(-c4c5nc(c(-c6ccccc6)c6ccc([nH]6)c(-c6ccccc6)c6nc(c(-c7ccccc7)c7ccc4[nH]7)C=C6)C=C5)cc3)cc2)cccc1[N+](=O)[O-]
REMARK SMILES IDX 24 1 23 2 22 3 20 4 21 5 19 7 14 8 15 9 16 10 18 11 17 12
REMARK SMILES IDX 13 13 11 14 12 15 10 17 7 18 8 19 81 20 9 21 80 22 6 23 4 24
REMARK SMILES IDX 5 25 3 27 1 28 2 29 85 30 82 31 84 32 83 33 86 34 87 35
REMARK SMILES IDX 88 36 25 37 26 38 27 39 28 40 29 41 30 42 31 44 32 45 33 46
REMARK SMILES IDX 79 47 34 48 78 49 35 50 36 51 37 52 72 53 38 54 77 55 71 56
REMARK SMILES IDX 73 57 39 58 76 59 70 60 69 61 40 63 62 64 47 65 61 66 48 67
REMARK SMILES IDX 51 68 60 69 74 70 49 71 50 72 59 74 75 75 52 76 41 77 42 78
REMARK SMILES IDX 46 79 43 80 45 81 44 82 63 83 64 84 68 85 65 86 67 87 66 88
REMARK SMILES IDX 53 89 54 90 58 91 55 92 57 93 56 94
REMARK H PARENT 22 6 13 16 6 26 29 43 73 62 51 73
REMARK Flexibility Score: inf
ROOT
ATOM      1  C   UNL A   1      41.048  20.271  26.973  1.00  0.00     0.021 C 
ENDROOT
BRANCH   1   2
ATOM      2  C   UNL A   1      39.903  21.032  26.297  1.00  0.00     0.116 C 
BRANCH   2   3
ATOM      3  N   UNL A   1      38.926  20.214  25.607  1.00  0.00    -0.352 N 
ATOM      4  C   UNL A   1      37.640  20.494  25.195  1.00  0.00     0.253 C 
ATOM      5  O   UNL A   1      37.060  19.666  24.496  1.00  0.00    -0.269 OA
ATOM      6  H   UNL A   1      39.233  19.303  25.395  1.00  0.00     0.163 HD
BRANCH   4   7
ATOM      7  C   UNL A   1      36.936  21.743  25.596  1.00  0.00     0.063 A 
ATOM      8  C   UNL A   1      35.541  21.764  25.826  1.00  0.00     0.054 A 
ATOM      9  C   UNL A   1      34.911  22.984  26.127  1.00  0.00     0.027 A 
ATOM     10  C   UNL A   1      35.656  24.153  26.284  1.00  0.00     0.002 A 
ATOM     11  C   UNL A   1      37.655  22.949  25.670  1.00  0.00     0.016 A 
ATOM     12  C   UNL A   1      37.027  24.136  26.054  1.00  0.00     0.001 A 
BRANCH   8  13
ATOM     13  N   UNL A   1      34.686  20.643  25.865  1.00  0.00    -0.321 N 
ATOM     14  C   UNL A   1      33.358  20.488  25.530  1.00  0.00     0.255 C 
ATOM     15  O   UNL A   1      32.782  19.447  25.853  1.00  0.00    -0.269 OA
ATOM     16  H   UNL A   1      35.117  19.820  26.192  1.00  0.00     0.170 HD
BRANCH  14  17
ATOM     17  C   UNL A   1      32.648  21.436  24.618  1.00  0.00     0.040 A 
ATOM     18  C   UNL A   1      31.617  23.488  22.986  1.00  0.00     0.041 A 
ATOM     19  C   UNL A   1      31.037  23.200  24.212  1.00  0.00     0.027 A 
ATOM     20  C   UNL A   1      32.609  22.636  22.496  1.00  0.00     0.027 A 
ATOM     21  C   UNL A   1      31.616  22.262  25.054  1.00  0.00     0.016 A 
ATOM     22  C   UNL A   1      33.120  21.609  23.308  1.00  0.00     0.016 A 
BRANCH  18  23
ATOM     23  N   UNL A   1      31.321  24.666  22.279  1.00  0.00    -0.322 N 
ATOM     24  C   UNL A   1      31.470  25.998  22.629  1.00  0.00     0.256 C 
ATOM     25  O   UNL A   1      31.022  26.870  21.886  1.00  0.00    -0.269 OA
ATOM     26  H   UNL A   1      30.943  24.519  21.382  1.00  0.00     0.170 HD
BRANCH  24  27
ATOM     27  C   UNL A   1      32.150  26.435  23.887  1.00  0.00     0.049 A 
ATOM     28  C   UNL A   1      30.020  26.530  25.283  1.00  0.00     0.053 C 
ATOM     29  C   UNL A   1      31.480  26.836  25.068  1.00  0.00     0.039 A 
ATOM     30  C   UNL A   1      32.245  27.532  26.034  1.00  0.00     0.273 A 
ATOM     31  C   UNL A   1      33.556  26.482  23.824  1.00  0.00     0.014 A 
ATOM     32  C   UNL A   1      33.647  27.602  25.950  1.00  0.00     0.086 A 
ATOM     33  C   UNL A   1      34.302  27.026  24.868  1.00  0.00     0.008 A 
BRANCH  30  34
ATOM     34  N   UNL A   1      31.606  28.322  27.095  1.00  0.00     0.063 N 
ATOM     35  O   UNL A   1      31.234  27.722  28.112  1.00  0.00    -0.258 OA
ATOM     36  O   UNL A   1      31.553  29.551  26.944  1.00  0.00    -0.258 OA
ENDBRANCH  30  34
ENDBRANCH  24  27
ENDBRANCH  18  23
ENDBRANCH  14  17
ENDBRANCH   8  13
ENDBRANCH   4   7
ENDBRANCH   2   3
ENDBRANCH   1   2
BRANCH   1  37
ATOM     37  C   UNL A   1      41.763  19.172  26.184  1.00  0.00     0.002 C 
BRANCH  37  38
ATOM     38  C   UNL A   1      42.976  18.499  26.834  1.00  0.00     0.002 C 
BRANCH  38  39
ATOM     39  C   UNL A   1      44.161  18.188  25.924  1.00  0.00     0.021 C 
BRANCH  39  40
ATOM     40  C   UNL A   1      44.268  19.061  24.683  1.00  0.00     0.116 C 
BRANCH  40  41
ATOM     41  N   UNL A   1      45.522  19.777  24.559  1.00  0.00    -0.352 N 
ATOM     42  C   UNL A   1      45.793  21.138  24.638  1.00  0.00     0.251 C 
ATOM     43  H   UNL A   1      46.308  19.208  24.394  1.00  0.00     0.163 HD
ATOM     44  O   UNL A   1      46.905  21.533  24.372  1.00  0.00    -0.269 OA
BRANCH  42  45
ATOM     45  C   UNL A   1      44.778  22.083  25.192  1.00  0.00     0.039 A 
ATOM     46  C   UNL A   1      44.494  23.224  24.427  1.00  0.00     0.014 A 
ATOM     47  C   UNL A   1      44.272  21.985  26.484  1.00  0.00     0.014 A 
ATOM     48  C   UNL A   1      43.950  24.351  25.040  1.00  0.00     0.010 A 
ATOM     49  C   UNL A   1      43.823  23.122  27.121  1.00  0.00     0.010 A 
ATOM     50  C   UNL A   1      43.734  24.319  26.413  1.00  0.00    -0.014 A 
BRANCH  50  51
ATOM     51  C   UNL A   1      43.519  25.506  27.221  1.00  0.00     0.031 A 
ATOM     52  C   UNL A   1      42.232  26.213  27.173  1.00  0.00     0.074 A 
ATOM     53  C   UNL A   1      44.491  25.910  28.066  1.00  0.00     0.049 A 
ATOM     54  N   UNL A   1      42.091  27.463  27.449  1.00  0.00    -0.248 NA
ATOM     55  C   UNL A   1      40.996  25.565  26.754  1.00  0.00     0.031 C 
ATOM     56  C   UNL A   1      44.396  26.892  29.140  1.00  0.00     0.029 A 
ATOM     57  N   UNL A   1      45.851  25.643  27.961  1.00  0.00    -0.354 N 
ATOM     58  C   UNL A   1      40.743  27.711  27.537  1.00  0.00     0.074 A 
ATOM     59  C   UNL A   1      40.104  26.529  27.003  1.00  0.00     0.031 C 
ATOM     60  C   UNL A   1      45.631  27.328  29.437  1.00  0.00     0.029 A 
ATOM     61  C   UNL A   1      46.543  26.756  28.458  1.00  0.00     0.049 A 
ATOM     62  H   UNL A   1      46.256  24.820  27.602  1.00  0.00     0.167 HD
ATOM     63  C   UNL A   1      40.314  28.824  28.193  1.00  0.00     0.031 A 
ATOM     64  C   UNL A   1      47.362  27.483  27.642  1.00  0.00     0.031 A 
ATOM     65  C   UNL A   1      41.430  29.640  28.666  1.00  0.00     0.049 A 
ATOM     66  C   UNL A   1      46.911  28.914  27.446  1.00  0.00     0.074 A 
ATOM     67  C   UNL A   1      42.042  29.770  29.902  1.00  0.00     0.029 A 
ATOM     68  N   UNL A   1      42.282  30.229  27.741  1.00  0.00    -0.354 N 
ATOM     69  N   UNL A   1      45.711  29.349  27.716  1.00  0.00    -0.248 NA
ATOM     70  C   UNL A   1      47.768  29.962  26.900  1.00  0.00     0.031 C 
ATOM     71  C   UNL A   1      43.296  30.408  29.706  1.00  0.00     0.029 A 
ATOM     72  C   UNL A   1      43.430  30.687  28.358  1.00  0.00     0.049 A 
ATOM     73  H   UNL A   1      42.095  30.309  26.778  1.00  0.00     0.167 HD
ATOM     74  C   UNL A   1      45.618  30.683  27.406  1.00  0.00     0.074 A 
ATOM     75  C   UNL A   1      46.939  31.022  26.907  1.00  0.00     0.031 C 
ATOM     76  C   UNL A   1      44.453  31.376  27.581  1.00  0.00     0.031 A 
BRANCH  63  77
ATOM     77  C   UNL A   1      38.891  29.009  28.660  1.00  0.00    -0.014 A 
ATOM     78  C   UNL A   1      37.935  29.544  27.778  1.00  0.00     0.009 A 
ATOM     79  C   UNL A   1      38.438  28.721  29.958  1.00  0.00     0.009 A 
ATOM     80  C   UNL A   1      36.637  29.869  28.195  1.00  0.00     0.001 A 
ATOM     81  C   UNL A   1      37.156  29.080  30.395  1.00  0.00     0.001 A 
ATOM     82  C   UNL A   1      36.257  29.664  29.514  1.00  0.00     0.000 A 
ENDBRANCH  63  77
BRANCH  64  83
ATOM     83  C   UNL A   1      48.047  26.652  26.610  1.00  0.00    -0.014 A 
ATOM     84  C   UNL A   1      47.561  26.705  25.287  1.00  0.00     0.009 A 
ATOM     85  C   UNL A   1      49.342  26.160  26.826  1.00  0.00     0.009 A 
ATOM     86  C   UNL A   1      48.392  26.399  24.205  1.00  0.00     0.001 A 
ATOM     87  C   UNL A   1      50.167  25.842  25.739  1.00  0.00     0.001 A 
ATOM     88  C   UNL A   1      49.706  25.998  24.431  1.00  0.00     0.000 A 
ENDBRANCH  64  83
BRANCH  76  89
ATOM     89  C   UNL A   1      44.133  32.780  27.104  1.00  0.00    -0.014 A 
ATOM     90  C   UNL A   1      44.040  33.177  25.766  1.00  0.00     0.009 A 
ATOM     91  C   UNL A   1      43.787  33.760  28.068  1.00  0.00     0.009 A 
ATOM     92  C   UNL A   1      43.648  34.479  25.413  1.00  0.00     0.001 A 
ATOM     93  C   UNL A   1      43.351  35.041  27.722  1.00  0.00     0.001 A 
ATOM     94  C   UNL A   1      43.290  35.404  26.387  1.00  0.00     0.000 A 
ENDBRANCH  76  89
ENDBRANCH  50  51
ENDBRANCH  42  45
ENDBRANCH  40  41
ENDBRANCH  39  40
ENDBRANCH  38  39
ENDBRANCH  37  38
ENDBRANCH   1  37
TORSDOF 18
ENDMDL
MODEL 2
REMARK VINA RESULT:     -11.7      1.038      2.084
REMARK SMILES Cc1c(C(=O)Nc2ccc(C(=O)Nc3ccccc3C(=O)NCCCCCCNC(=O)c3ccc(-c4c5nc(c(-c6ccccc6)c6ccc([nH]6)c(-c6ccccc6)c6nc(c(-c7ccccc7)c7ccc4[nH]7)C=C6)C=C5)cc3)cc2)cccc1[N+](=O)[O-]
REMARK SMILES IDX 24 1 23 2 22 3 20 4 21 5 19 7 14 8 15 9 16 10 18 11 17 12
REMARK SMILES IDX 13 13 11 14 12 15 10 17 7 18 8 19 81 20 9 21 80 22 6 23 4 24
REMARK SMILES IDX 5 25 3 27 1 28 2 29 85 30 82 31 84 32 83 33 86 34 87 35
REMARK SMILES IDX 88 36 25 37 26 38 27 39 28 40 29 41 30 42 31 44 32 45 33 46
REMARK SMILES IDX 79 47 34 48 78 49 35 50 36 51 37 52 72 53 38 54 77 55 71 56
REMARK SMILES IDX 73 57 39 58 76 59 70 60 69 61 40 63 62 64 47 65 61 66 48 67
REMARK SMILES IDX 51 68 60 69 74 70 49 71 50 72 59 74 75 75 52 76 41 77 42 78
REMARK SMILES IDX 46 79 43 80 45 81 44 82 63 83 64 84 68 85 65 86 67 87 66 88
REMARK SMILES IDX 53 89 54 90 58 91 55 92 57 93 56 94
REMARK H PARENT 22 6 13 16 6 26 29 43 73 62 51 73
REMARK Flexibility Score: inf
ROOT
ATOM      1  C   UNL A   1      41.700  20.731  26.228  1.00  0.00     0.021 C 
ENDROOT
BRANCH   1   2
ATOM      2  C   UNL A   1      40.214  21.093  26.300  1.00  0.00     0.116 C 
BRANCH   2   3
ATOM      3  N   UNL A   1      39.294  20.072  25.840  1.00  0.00    -0.352 N 
ATOM      4  C   UNL A   1      38.029  20.170  25.301  1.00  0.00     0.253 C 
ATOM      5  O   UNL A   1      37.507  19.150  24.855  1.00  0.00    -0.269 OA
ATOM      6  H   UNL A   1      39.631  19.151  25.927  1.00  0.00     0.163 HD
BRANCH   4   7
ATOM      7  C   UNL A   1      37.278  21.455  25.273  1.00  0.00     0.063 A 
ATOM      8  C   UNL A   1      35.921  21.510  24.880  1.00  0.00     0.054 A 
ATOM      9  C   UNL A   1      35.279  22.758  24.796  1.00  0.00     0.027 A 
ATOM     10  C   UNL A   1      35.937  23.927  25.177  1.00  0.00     0.002 A 
ATOM     11  C   UNL A   1      37.950  22.655  25.565  1.00  0.00     0.016 A 
ATOM     12  C   UNL A   1      37.273  23.876  25.559  1.00  0.00     0.001 A 
BRANCH   8  13
ATOM     13  N   UNL A   1      35.082  20.405  24.626  1.00  0.00    -0.321 N 
ATOM     14  C   UNL A   1      33.844  20.059  25.124  1.00  0.00     0.255 C 
ATOM     15  O   UNL A   1      33.408  18.928  24.896  1.00  0.00    -0.269 OA
ATOM     16  H   UNL A   1      35.447  19.764  23.974  1.00  0.00     0.170 HD
BRANCH  14  17
ATOM     17  C   UNL A   1      32.925  21.060  25.747  1.00  0.00     0.040 A 
ATOM     18  C   UNL A   1      31.347  23.213  26.647  1.00  0.00     0.041 A 
ATOM     19  C   UNL A   1      32.447  22.789  27.376  1.00  0.00     0.027 A 
ATOM     20  C   UNL A   1      30.932  22.450  25.552  1.00  0.00     0.027 A 
ATOM     21  C   UNL A   1      33.279  21.800  26.872  1.00  0.00     0.016 A 
ATOM     22  C   UNL A   1      31.716  21.372  25.107  1.00  0.00     0.016 A 
BRANCH  18  23
ATOM     23  N   UNL A   1      30.709  24.439  26.901  1.00  0.00    -0.322 N 
ATOM     24  C   UNL A   1      30.936  25.706  26.386  1.00  0.00     0.256 C 
ATOM     25  O   UNL A   1      30.325  26.665  26.855  1.00  0.00    -0.269 OA
ATOM     26  H   UNL A   1      29.978  24.391  27.559  1.00  0.00     0.170 HD
BRANCH  24  27
ATOM     27  C   UNL A   1      31.905  25.970  25.279  1.00  0.00     0.049 A 
ATOM     28  C   UNL A   1      30.431  24.998  23.441  1.00  0.00     0.053 C 
ATOM     29  C   UNL A   1      31.756  25.508  23.949  1.00  0.00     0.039 A 
ATOM     30  C   UNL A   1      32.902  25.551  23.123  1.00  0.00     0.273 A 
ATOM     31  C   UNL A   1      33.057  26.690  25.649  1.00  0.00     0.014 A 
ATOM     32  C   UNL A   1      34.062  26.246  23.510  1.00  0.00     0.086 A 
ATOM     33  C   UNL A   1      34.113  26.862  24.754  1.00  0.00     0.008 A 
BRANCH  30  34
ATOM     34  N   UNL A   1      32.986  24.766  21.883  1.00  0.00     0.063 N 
ATOM     35  O   UNL A   1      33.055  25.388  20.815  1.00  0.00    -0.258 OA
ATOM     36  O   UNL A   1      33.066  23.534  21.987  1.00  0.00    -0.258 OA
ENDBRANCH  30  34
ENDBRANCH  24  27
ENDBRANCH  18  23
ENDBRANCH  14  17
ENDBRANCH   8  13
ENDBRANCH   4   7
ENDBRANCH   2   3
ENDBRANCH   1   2
BRANCH   1  37
ATOM     37  C   UNL A   1      42.090  19.324  25.770  1.00  0.00     0.002 C 
BRANCH  37  38
ATOM     38  C   UNL A   1      43.285  18.654  26.456  1.00  0.00     0.002 C 
BRANCH  38  39
ATOM     39  C   UNL A   1      44.581  18.571  25.656  1.00  0.00     0.021 C 
BRANCH  39  40
ATOM     40  C   UNL A   1      44.603  19.392  24.376  1.00  0.00     0.116 C 
BRANCH  40  41
ATOM     41  N   UNL A   1      45.791  20.202  24.202  1.00  0.00    -0.352 N 
ATOM     42  C   UNL A   1      45.995  21.560  24.422  1.00  0.00     0.251 C 
ATOM     43  H   UNL A   1      46.581  19.713  23.878  1.00  0.00     0.163 HD
ATOM     44  O   UNL A   1      47.043  22.060  24.085  1.00  0.00    -0.269 OA
BRANCH  42  45
ATOM     45  C   UNL A   1      45.004  22.359  25.203  1.00  0.00     0.039 A 
ATOM     46  C   UNL A   1      44.343  23.388  24.518  1.00  0.00     0.014 A 
ATOM     47  C   UNL A   1      44.865  22.261  26.584  1.00  0.00     0.014 A 
ATOM     48  C   UNL A   1      43.784  24.447  25.230  1.00  0.00     0.010 A 
ATOM     49  C   UNL A   1      44.401  23.346  27.295  1.00  0.00     0.010 A 
ATOM     50  C   UNL A   1      43.930  24.467  26.613  1.00  0.00    -0.014 A 
BRANCH  50  51
ATOM     51  C   UNL A   1      43.723  25.650  27.427  1.00  0.00     0.031 A 
ATOM     52  C   UNL A   1      42.447  26.377  27.370  1.00  0.00     0.074 A 
ATOM     53  C   UNL A   1      44.690  26.033  28.286  1.00  0.00     0.049 A 
ATOM     54  N   UNL A   1      42.321  27.627  27.654  1.00  0.00    -0.248 NA
ATOM     55  C   UNL A   1      41.206  25.751  26.931  1.00  0.00     0.031 C 
ATOM     56  C   UNL A   1      44.598  27.008  29.366  1.00  0.00     0.029 A 
ATOM     57  N   UNL A   1      46.048  25.747  28.195  1.00  0.00    -0.354 N 
ATOM     58  C   UNL A   1      40.976  27.894  27.728  1.00  0.00     0.074 A 
ATOM     59  C   UNL A   1      40.326  26.726  27.177  1.00  0.00     0.031 C 
ATOM     60  C   UNL A   1      45.835  27.425  29.681  1.00  0.00     0.029 A 
ATOM     61  C   UNL A   1      46.750  26.846  28.709  1.00  0.00     0.049 A 
ATOM     62  H   UNL A   1      46.445  24.921  27.835  1.00  0.00     0.167 HD
ATOM     63  C   UNL A   1      40.555  29.008  28.387  1.00  0.00     0.031 A 
ATOM     64  C   UNL A   1      47.589  27.567  27.908  1.00  0.00     0.031 A 
ATOM     65  C   UNL A   1      41.679  29.804  28.879  1.00  0.00     0.049 A 
ATOM     66  C   UNL A   1      47.162  29.006  27.718  1.00  0.00     0.074 A 
ATOM     67  C   UNL A   1      42.277  29.916  30.124  1.00  0.00     0.029 A 
ATOM     68  N   UNL A   1      42.550  30.387  27.968  1.00  0.00    -0.354 N 
ATOM     69  N   UNL A   1      45.965  29.457  27.977  1.00  0.00    -0.248 NA
ATOM     70  C   UNL A   1      48.041  30.045  27.190  1.00  0.00     0.031 C 
ATOM     71  C   UNL A   1      43.543  30.536  29.947  1.00  0.00     0.029 A 
ATOM     72  C   UNL A   1      43.696  30.823  28.603  1.00  0.00     0.049 A 
ATOM     73  H   UNL A   1      42.375  30.477  27.004  1.00  0.00     0.167 HD
ATOM     74  C   UNL A   1      45.895  30.794  27.677  1.00  0.00     0.074 A 
ATOM     75  C   UNL A   1      47.227  31.117  27.196  1.00  0.00     0.031 C 
ATOM     76  C   UNL A   1      44.739  31.503  27.844  1.00  0.00     0.031 A 
BRANCH  63  77
ATOM     77  C   UNL A   1      39.131  29.211  28.839  1.00  0.00    -0.014 A 
ATOM     78  C   UNL A   1      38.770  28.891  30.161  1.00  0.00     0.009 A 
ATOM     79  C   UNL A   1      38.092  29.666  28.011  1.00  0.00     0.009 A 
ATOM     80  C   UNL A   1      37.439  28.925  30.598  1.00  0.00     0.001 A 
ATOM     81  C   UNL A   1      36.753  29.664  28.426  1.00  0.00     0.001 A 
ATOM     82  C   UNL A   1      36.426  29.283  29.720  1.00  0.00     0.000 A 
ENDBRANCH  63  77
BRANCH  64  83
ATOM     83  C   UNL A   1      48.274  26.733  26.877  1.00  0.00    -0.014 A 
ATOM     84  C   UNL A   1      47.800  26.798  25.551  1.00  0.00     0.009 A 
ATOM     85  C   UNL A   1      49.562  26.227  27.103  1.00  0.00     0.009 A 
ATOM     86  C   UNL A   1      48.637  26.488  24.474  1.00  0.00     0.001 A 
ATOM     87  C   UNL A   1      50.392  25.905  26.021  1.00  0.00     0.001 A 
ATOM     88  C   UNL A   1      49.944  26.073  24.710  1.00  0.00     0.000 A 
ENDBRANCH  64  83
BRANCH  76  89
ATOM     89  C   UNL A   1      44.445  32.915  27.373  1.00  0.00    -0.014 A 
ATOM     90  C   UNL A   1      44.511  34.063  28.169  1.00  0.00     0.009 A 
ATOM     91  C   UNL A   1      44.188  33.129  25.996  1.00  0.00     0.009 A 
ATOM     92  C   UNL A   1      44.310  35.344  27.629  1.00  0.00     0.001 A 
ATOM     93  C   UNL A   1      44.035  34.403  25.444  1.00  0.00     0.001 A 
ATOM     94  C   UNL A   1      44.088  35.515  26.267  1.00  0.00     0.000 A 
ENDBRANCH  76  89
ENDBRANCH  50  51
ENDBRANCH  42  45
ENDBRANCH  40  41
ENDBRANCH  39  40
ENDBRANCH  38  39
ENDBRANCH  37  38
ENDBRANCH   1  37
TORSDOF 18
ENDMDL
MODEL 3
REMARK VINA RESULT:     -11.7      1.439      2.490
REMARK SMILES Cc1c(C(=O)Nc2ccc(C(=O)Nc3ccccc3C(=O)NCCCCCCNC(=O)c3ccc(-c4c5nc(c(-c6ccccc6)c6ccc([nH]6)c(-c6ccccc6)c6nc(c(-c7ccccc7)c7ccc4[nH]7)C=C6)C=C5)cc3)cc2)cccc1[N+](=O)[O-]
REMARK SMILES IDX 24 1 23 2 22 3 20 4 21 5 19 7 14 8 15 9 16 10 18 11 17 12
REMARK SMILES IDX 13 13 11 14 12 15 10 17 7 18 8 19 81 20 9 21 80 22 6 23 4 24
REMARK SMILES IDX 5 25 3 27 1 28 2 29 85 30 82 31 84 32 83 33 86 34 87 35
REMARK SMILES IDX 88 36 25 37 26 38 27 39 28 40 29 41 30 42 31 44 32 45 33 46
REMARK SMILES IDX 79 47 34 48 78 49 35 50 36 51 37 52 72 53 38 54 77 55 71 56
REMARK SMILES IDX 73 57 39 58 76 59 70 60 69 61 40 63 62 64 47 65 61 66 48 67
REMARK SMILES IDX 51 68 60 69 74 70 49 71 50 72 59 74 75 75 52 76 41 77 42 78
REMARK SMILES IDX 46 79 43 80 45 81 44 82 63 83 64 84 68 85 65 86 67 87 66 88
REMARK SMILES IDX 53 89 54 90 58 91 55 92 57 93 56 94
REMARK H PARENT 22 6 13 16 6 26 29 43 73 62 51 73
REMARK Flexibility Score: inf
ROOT
ATOM      1  C   UNL A   1      37.781  22.745  25.674  1.00  0.00     0.021 C 
ENDROOT
BRANCH   1   2
ATOM      2  C   UNL A   1      36.595  21.810  25.420  1.00  0.00     0.116 C 
BRANCH   2   3
ATOM      3  N   UNL A   1      35.555  21.827  26.429  1.00  0.00    -0.352 N 
ATOM      4  C   UNL A   1      34.435  21.037  26.588  1.00  0.00     0.253 C 
ATOM      5  O   UNL A   1      33.776  21.163  27.618  1.00  0.00    -0.269 OA
ATOM      6  H   UNL A   1      35.666  22.520  27.119  1.00  0.00     0.163 HD
BRANCH   4   7
ATOM      7  C   UNL A   1      33.994  20.071  25.545  1.00  0.00     0.063 A 
ATOM      8  C   UNL A   1      32.641  19.978  25.148  1.00  0.00     0.054 A 
ATOM      9  C   UNL A   1      32.263  18.996  24.215  1.00  0.00     0.027 A 
ATOM     10  C   UNL A   1      33.217  18.174  23.617  1.00  0.00     0.002 A 
ATOM     11  C   UNL A   1      34.927  19.172  24.997  1.00  0.00     0.016 A 
ATOM     12  C   UNL A   1      34.548  18.260  24.009  1.00  0.00     0.001 A 
BRANCH   8  13
ATOM     13  N   UNL A   1      31.597  20.842  25.538  1.00  0.00    -0.321 N 
ATOM     14  C   UNL A   1      31.471  22.214  25.482  1.00  0.00     0.255 C 
ATOM     15  O   UNL A   1      30.536  22.749  26.082  1.00  0.00    -0.269 OA
ATOM     16  H   UNL A   1      30.815  20.382  25.921  1.00  0.00     0.170 HD
BRANCH  14  17
ATOM     17  C   UNL A   1      32.294  23.055  24.561  1.00  0.00     0.040 A 
ATOM     18  C   UNL A   1      33.596  24.953  22.936  1.00  0.00     0.041 A 
ATOM     19  C   UNL A   1      32.749  24.008  22.379  1.00  0.00     0.027 A 
ATOM     20  C   UNL A   1      33.929  24.843  24.289  1.00  0.00     0.027 A 
ATOM     21  C   UNL A   1      32.030  23.148  23.197  1.00  0.00     0.016 A 
ATOM     22  C   UNL A   1      33.283  23.893  25.098  1.00  0.00     0.016 A 
BRANCH  18  23
ATOM     23  N   UNL A   1      34.037  26.077  22.216  1.00  0.00    -0.322 N 
ATOM     24  C   UNL A   1      33.547  27.372  22.163  1.00  0.00     0.256 C 
ATOM     25  O   UNL A   1      34.030  28.166  21.357  1.00  0.00    -0.269 OA
ATOM     26  H   UNL A   1      34.829  25.916  21.653  1.00  0.00     0.170 HD
BRANCH  24  27
ATOM     27  C   UNL A   1      32.440  27.857  23.044  1.00  0.00     0.049 A 
ATOM     28  C   UNL A   1      33.967  28.643  24.927  1.00  0.00     0.053 C 
ATOM     29  C   UNL A   1      32.606  28.296  24.379  1.00  0.00     0.039 A 
ATOM     30  C   UNL A   1      31.438  28.398  25.170  1.00  0.00     0.273 A 
ATOM     31  C   UNL A   1      31.153  27.805  22.474  1.00  0.00     0.014 A 
ATOM     32  C   UNL A   1      30.155  28.315  24.601  1.00  0.00     0.086 A 
ATOM     33  C   UNL A   1      30.020  28.073  23.239  1.00  0.00     0.008 A 
BRANCH  30  34
ATOM     34  N   UNL A   1      31.507  28.463  26.637  1.00  0.00     0.063 N 
ATOM     35  O   UNL A   1      31.381  27.402  27.264  1.00  0.00    -0.258 OA
ATOM     36  O   UNL A   1      31.769  29.558  27.152  1.00  0.00    -0.258 OA
ENDBRANCH  30  34
ENDBRANCH  24  27
ENDBRANCH  18  23
ENDBRANCH  14  17
ENDBRANCH   8  13
ENDBRANCH   4   7
ENDBRANCH   2   3
ENDBRANCH   1   2
BRANCH   1  37
ATOM     37  C   UNL A   1      39.111  22.135  26.123  1.00  0.00     0.002 C 
BRANCH  37  38
ATOM     38  C   UNL A   1      39.331  20.639  25.878  1.00  0.00     0.002 C 
BRANCH  38  39
ATOM     39  C   UNL A   1      40.621  20.033  26.424  1.00  0.00     0.021 C 
BRANCH  39  40
ATOM     40  C   UNL A   1      41.861  20.899  26.259  1.00  0.00     0.116 C 
BRANCH  40  41
ATOM     41  N   UNL A   1      42.870  20.341  25.382  1.00  0.00    -0.352 N 
ATOM     42  C   UNL A   1      44.008  20.924  24.834  1.00  0.00     0.251 C 
ATOM     43  H   UNL A   1      42.728  19.400  25.135  1.00  0.00     0.163 HD
ATOM     44  O   UNL A   1      44.649  20.307  24.015  1.00  0.00    -0.269 OA
BRANCH  42  45
ATOM     45  C   UNL A   1      44.523  22.223  25.361  1.00  0.00     0.039 A 
ATOM     46  C   UNL A   1      45.026  22.218  26.670  1.00  0.00     0.014 A 
ATOM     47  C   UNL A   1      44.342  23.436  24.704  1.00  0.00     0.014 A 
ATOM     48  C   UNL A   1      45.085  23.408  27.394  1.00  0.00     0.010 A 
ATOM     49  C   UNL A   1      44.306  24.603  25.438  1.00  0.00     0.010 A 
ATOM     50  C   UNL A   1      44.606  24.570  26.799  1.00  0.00    -0.014 A 
BRANCH  50  51
ATOM     51  C   UNL A   1      44.279  25.776  27.538  1.00  0.00     0.031 A 
ATOM     52  C   UNL A   1      42.927  26.346  27.466  1.00  0.00     0.074 A 
ATOM     53  C   UNL A   1      45.212  26.326  28.342  1.00  0.00     0.049 A 
ATOM     54  N   UNL A   1      42.662  27.590  27.669  1.00  0.00    -0.248 NA
ATOM     55  C   UNL A   1      41.759  25.553  27.104  1.00  0.00     0.031 C 
ATOM     56  C   UNL A   1      45.027  27.357  29.357  1.00  0.00     0.029 A 
ATOM     57  N   UNL A   1      46.592  26.191  28.234  1.00  0.00    -0.354 N 
ATOM     58  C   UNL A   1      41.297  27.706  27.761  1.00  0.00     0.074 A 
ATOM     59  C   UNL A   1      40.776  26.436  27.307  1.00  0.00     0.031 C 
ATOM     60  C   UNL A   1      46.214  27.933  29.610  1.00  0.00     0.029 A 
ATOM     61  C   UNL A   1      47.171  27.397  28.654  1.00  0.00     0.049 A 
ATOM     62  H   UNL A   1      47.074  25.393  27.919  1.00  0.00     0.167 HD
ATOM     63  C   UNL A   1      40.762  28.808  28.355  1.00  0.00     0.031 A 
ATOM     64  C   UNL A   1      47.906  28.151  27.784  1.00  0.00     0.031 A 
ATOM     65  C   UNL A   1      41.795  29.759  28.763  1.00  0.00     0.049 A 
ATOM     66  C   UNL A   1      47.311  29.515  27.509  1.00  0.00     0.074 A 
ATOM     67  C   UNL A   1      42.400  30.025  29.980  1.00  0.00     0.029 A 
ATOM     68  N   UNL A   1      42.575  30.374  27.792  1.00  0.00    -0.354 N 
ATOM     69  N   UNL A   1      46.075  29.843  27.771  1.00  0.00    -0.248 NA
ATOM     70  C   UNL A   1      48.053  30.609  26.890  1.00  0.00     0.031 C 
ATOM     71  C   UNL A   1      43.582  30.773  29.729  1.00  0.00     0.029 A 
ATOM     72  C   UNL A   1      43.675  30.981  28.365  1.00  0.00     0.049 A 
ATOM     73  H   UNL A   1      42.372  30.376  26.829  1.00  0.00     0.167 HD
ATOM     74  C   UNL A   1      45.844  31.139  27.383  1.00  0.00     0.074 A 
ATOM     75  C   UNL A   1      47.120  31.578  26.846  1.00  0.00     0.031 C 
ATOM     76  C   UNL A   1      44.617  31.722  27.533  1.00  0.00     0.031 A 
BRANCH  63  77
ATOM     77  C   UNL A   1      39.333  28.877  28.831  1.00  0.00    -0.014 A 
ATOM     78  C   UNL A   1      38.333  29.348  27.960  1.00  0.00     0.009 A 
ATOM     79  C   UNL A   1      38.910  28.540  30.128  1.00  0.00     0.009 A 
ATOM     80  C   UNL A   1      37.016  29.566  28.386  1.00  0.00     0.001 A 
ATOM     81  C   UNL A   1      37.606  28.794  30.575  1.00  0.00     0.001 A 
ATOM     82  C   UNL A   1      36.660  29.317  29.705  1.00  0.00     0.000 A 
ENDBRANCH  63  77
BRANCH  64  83
ATOM     83  C   UNL A   1      48.662  27.332  26.794  1.00  0.00    -0.014 A 
ATOM     84  C   UNL A   1      48.014  26.980  25.592  1.00  0.00     0.009 A 
ATOM     85  C   UNL A   1      50.061  27.252  26.847  1.00  0.00     0.009 A 
ATOM     86  C   UNL A   1      48.751  26.683  24.440  1.00  0.00     0.001 A 
ATOM     87  C   UNL A   1      50.794  26.941  25.693  1.00  0.00     0.001 A 
ATOM     88  C   UNL A   1      50.141  26.696  24.485  1.00  0.00     0.000 A 
ENDBRANCH  64  83
BRANCH  76  89
ATOM     89  C   UNL A   1      44.152  33.055  26.978  1.00  0.00    -0.014 A 
ATOM     90  C   UNL A   1      43.954  33.341  25.623  1.00  0.00     0.009 A 
ATOM     91  C   UNL A   1      43.775  34.072  27.889  1.00  0.00     0.009 A 
ATOM     92  C   UNL A   1      43.434  34.576  25.202  1.00  0.00     0.001 A 
ATOM     93  C   UNL A   1      43.214  35.284  27.480  1.00  0.00     0.001 A 
ATOM     94  C   UNL A   1      43.051  35.539  26.129  1.00  0.00     0.000 A 
ENDBRANCH  76  89
ENDBRANCH  50  51
ENDBRANCH  42  45
ENDBRANCH  40  41
ENDBRANCH  39  40
ENDBRANCH  38  39
ENDBRANCH  37  38
ENDBRANCH   1  37
TORSDOF 18
ENDMDL
