MODEL 1
REMARK VINA RESULT:     -12.6      0.000      0.000
REMARK SMILES COc1cc(OC)cc(-c2cc3nc(C)c(CCC(=O)NCCCCCCNC(=O)c4ccc(-c5c6nc(c(-c7ccccc7)c7ccc([nH]7)c(-c7ccccc7)c7nc(c(-c8ccccc8)c8ccc5[nH]8)C=C7)C=C6)cc4)c(C)n3n2)c1
REMARK SMILES IDX 23 1 22 2 21 3 19 4 20 5 18 7 17 8 16 9 10 10 11 11 82 12
REMARK SMILES IDX 12 13 81 14 13 15 79 16 14 17 80 18 15 19 9 20 3 21 4 22
REMARK SMILES IDX 83 23 5 24 8 25 2 26 1 27 6 28 7 29 24 30 25 31 26 32 27 33
REMARK SMILES IDX 28 34 29 35 30 37 31 38 32 39 78 40 33 41 77 42 34 43 35 44
REMARK SMILES IDX 36 45 71 46 37 47 76 48 70 49 72 50 38 51 75 52 69 53 68 54
REMARK SMILES IDX 39 56 61 57 46 58 60 59 47 60 50 61 59 62 73 63 48 64 49 65
REMARK SMILES IDX 58 67 74 68 51 69 40 70 41 71 45 72 42 73 44 74 43 75 62 76
REMARK SMILES IDX 63 77 67 78 64 79 66 80 65 81 52 82 53 83 57 84 54 85 56 86
REMARK SMILES IDX 55 87
REMARK H PARENT 21 6 28 36 72 55 50 66
REMARK Flexibility Score: inf
ROOT
ATOM      1  C   UNL A   1      45.461  23.158  35.532  1.00  0.00     0.021 C 
ENDROOT
BRANCH   1   2
ATOM      2  C   UNL A   1      45.572  22.312  36.783  1.00  0.00     0.116 C 
BRANCH   2   3
ATOM      3  N   UNL A   1      46.800  22.668  37.475  1.00  0.00    -0.356 N 
ATOM      4  C   UNL A   1      47.233  22.251  38.703  1.00  0.00     0.220 C 
ATOM      5  O   UNL A   1      48.058  22.942  39.301  1.00  0.00    -0.275 OA
ATOM      6  H   UNL A   1      47.396  23.288  36.997  1.00  0.00     0.163 HD
BRANCH   4   7
ATOM      7  C   UNL A   1      46.756  20.928  39.284  1.00  0.00     0.105 C 
BRANCH   7   8
ATOM      8  C   UNL A   1      47.344  19.666  38.628  1.00  0.00     0.049 C 
BRANCH   8   9
ATOM      9  C   UNL A   1      46.462  18.451  38.715  1.00  0.00    -0.005 A 
ATOM     10  C   UNL A   1      43.617  16.117  41.139  1.00  0.00     0.095 A 
ATOM     11  C   UNL A   1      43.300  16.269  39.697  1.00  0.00     0.080 A 
ATOM     12  N   UNL A   1      44.962  16.177  41.211  1.00  0.00    -0.166 NA
ATOM     13  C   UNL A   1      44.382  16.737  39.041  1.00  0.00     0.156 A 
ATOM     14  N   UNL A   1      45.370  16.755  39.996  1.00  0.00    -0.219 N 
ATOM     15  N   UNL A   1      44.447  17.314  37.813  1.00  0.00    -0.234 NA
ATOM     16  C   UNL A   1      46.483  17.580  39.765  1.00  0.00     0.046 A 
ATOM     17  C   UNL A   1      45.396  18.188  37.659  1.00  0.00     0.045 A 
ATOM     18  C   UNL A   1      47.470  17.559  40.883  1.00  0.00     0.067 C 
ATOM     19  C   UNL A   1      45.379  18.923  36.324  1.00  0.00     0.067 C 
BRANCH  10  20
ATOM     20  C   UNL A   1      42.607  15.468  42.283  1.00  0.00     0.009 A 
ATOM     21  C   UNL A   1      42.688  12.502  43.533  1.00  0.00     0.123 A 
ATOM     22  C   UNL A   1      44.014  13.075  44.656  1.00  0.00     0.092 A 
ATOM     23  C   UNL A   1      42.006  13.760  42.387  1.00  0.00     0.057 A 
ATOM     24  C   UNL A   1      44.360  14.959  44.582  1.00  0.00     0.123 A 
ATOM     25  C   UNL A   1      43.596  16.021  43.454  1.00  0.00     0.057 A 
BRANCH  21  26
ATOM     26  O   UNL A   1      41.967  11.389  43.867  1.00  0.00    -0.497 OA
ATOM     27  C   UNL A   1      42.430  10.212  43.224  1.00  0.00     0.278 C 
ENDBRANCH  21  26
BRANCH  24  28
ATOM     28  O   UNL A   1      44.051  15.867  45.701  1.00  0.00    -0.497 OA
ATOM     29  C   UNL A   1      44.257  15.713  47.112  1.00  0.00     0.278 C 
ENDBRANCH  24  28
ENDBRANCH  10  20
ENDBRANCH   8   9
ENDBRANCH   7   8
ENDBRANCH   4   7
ENDBRANCH   2   3
ENDBRANCH   1   2
BRANCH   1  30
ATOM     30  C   UNL A   1      44.704  22.570  34.351  1.00  0.00     0.002 C 
BRANCH  30  31
ATOM     31  C   UNL A   1      43.386  23.284  34.068  1.00  0.00     0.002 C 
BRANCH  31  32
ATOM     32  C   UNL A   1      42.516  23.890  35.220  1.00  0.00     0.021 C 
BRANCH  32  33
ATOM     33  C   UNL A   1      41.810  25.510  35.513  1.00  0.00     0.116 C 
BRANCH  33  34
ATOM     34  N   UNL A   1      41.967  27.397  34.642  1.00  0.00    -0.352 N 
ATOM     35  C   UNL A   1      43.409  28.396  34.283  1.00  0.00     0.251 C 
ATOM     36  H   UNL A   1      41.108  27.806  34.385  1.00  0.00     0.163 HD
ATOM     37  O   UNL A   1      43.186  29.596  34.083  1.00  0.00    -0.269 OA
BRANCH  35  38
ATOM     38  C   UNL A   1      45.161  27.773  34.034  1.00  0.00     0.039 A 
ATOM     39  C   UNL A   1      45.875  28.386  32.975  1.00  0.00     0.014 A 
ATOM     40  C   UNL A   1      45.549  26.386  34.004  1.00  0.00     0.014 A 
ATOM     41  C   UNL A   1      46.149  27.678  31.711  1.00  0.00     0.010 A 
ATOM     42  C   UNL A   1      45.663  25.673  32.746  1.00  0.00     0.010 A 
ATOM     43  C   UNL A   1      45.715  26.354  31.508  1.00  0.00    -0.014 A 
BRANCH  43  44
ATOM     44  C   UNL A   1      45.474  25.607  30.164  1.00  0.00     0.031 A 
ATOM     45  C   UNL A   1      46.578  26.103  29.312  1.00  0.00     0.074 A 
ATOM     46  C   UNL A   1      44.663  24.665  29.527  1.00  0.00     0.049 A 
ATOM     47  N   UNL A   1      46.518  27.281  28.797  1.00  0.00    -0.248 NA
ATOM     48  C   UNL A   1      47.927  25.513  29.335  1.00  0.00     0.031 C 
ATOM     49  C   UNL A   1      43.581  23.730  29.918  1.00  0.00     0.029 A 
ATOM     50  N   UNL A   1      44.670  24.368  28.152  1.00  0.00    -0.354 N 
ATOM     51  C   UNL A   1      47.757  27.521  28.264  1.00  0.00     0.074 A 
ATOM     52  C   UNL A   1      48.636  26.539  28.849  1.00  0.00     0.031 C 
ATOM     53  C   UNL A   1      43.238  22.858  28.931  1.00  0.00     0.029 A 
ATOM     54  C   UNL A   1      43.886  23.275  27.716  1.00  0.00     0.049 A 
ATOM     55  H   UNL A   1      45.199  24.902  27.516  1.00  0.00     0.167 HD
ATOM     56  C   UNL A   1      47.869  28.333  27.184  1.00  0.00     0.031 A 
ATOM     57  C   UNL A   1      43.531  22.861  26.457  1.00  0.00     0.031 A 
ATOM     58  C   UNL A   1      46.609  28.992  26.900  1.00  0.00     0.049 A 
ATOM     59  C   UNL A   1      43.693  24.021  25.566  1.00  0.00     0.074 A 
ATOM     60  C   UNL A   1      45.803  29.886  27.581  1.00  0.00     0.029 A 
ATOM     61  N   UNL A   1      45.788  28.358  25.994  1.00  0.00    -0.354 N 
ATOM     62  N   UNL A   1      42.929  25.070  25.630  1.00  0.00    -0.248 NA
ATOM     63  C   UNL A   1      45.012  24.212  24.997  1.00  0.00     0.031 C 
ATOM     64  C   UNL A   1      44.469  29.420  27.373  1.00  0.00     0.029 A 
ATOM     65  C   UNL A   1      44.510  28.337  26.494  1.00  0.00     0.049 A 
ATOM     66  H   UNL A   1      46.072  27.981  25.129  1.00  0.00     0.167 HD
ATOM     67  C   UNL A   1      43.820  26.127  25.578  1.00  0.00     0.074 A 
ATOM     68  C   UNL A   1      45.089  25.536  25.143  1.00  0.00     0.031 C 
ATOM     69  C   UNL A   1      43.532  27.320  26.175  1.00  0.00     0.031 A 
BRANCH  56  70
ATOM     70  C   UNL A   1      48.936  28.161  26.150  1.00  0.00    -0.014 A 
ATOM     71  C   UNL A   1      48.789  27.120  25.222  1.00  0.00     0.009 A 
ATOM     72  C   UNL A   1      50.191  28.797  26.210  1.00  0.00     0.009 A 
ATOM     73  C   UNL A   1      49.867  26.691  24.445  1.00  0.00     0.001 A 
ATOM     74  C   UNL A   1      51.260  28.393  25.412  1.00  0.00     0.001 A 
ATOM     75  C   UNL A   1      51.104  27.322  24.547  1.00  0.00     0.000 A 
ENDBRANCH  56  70
BRANCH  57  76
ATOM     76  C   UNL A   1      43.377  21.489  25.869  1.00  0.00    -0.014 A 
ATOM     77  C   UNL A   1      44.459  20.802  25.266  1.00  0.00     0.009 A 
ATOM     78  C   UNL A   1      42.253  20.719  26.206  1.00  0.00     0.009 A 
ATOM     79  C   UNL A   1      44.428  19.407  25.063  1.00  0.00     0.001 A 
ATOM     80  C   UNL A   1      42.227  19.327  26.012  1.00  0.00     0.001 A 
ATOM     81  C   UNL A   1      43.318  18.667  25.456  1.00  0.00     0.000 A 
ENDBRANCH  57  76
BRANCH  69  82
ATOM     82  C   UNL A   1      42.128  27.534  26.697  1.00  0.00    -0.014 A 
ATOM     83  C   UNL A   1      41.585  26.870  27.813  1.00  0.00     0.009 A 
ATOM     84  C   UNL A   1      41.379  28.567  26.115  1.00  0.00     0.009 A 
ATOM     85  C   UNL A   1      40.327  27.230  28.319  1.00  0.00     0.001 A 
ATOM     86  C   UNL A   1      40.136  28.937  26.630  1.00  0.00     0.001 A 
ATOM     87  C   UNL A   1      39.608  28.269  27.730  1.00  0.00     0.000 A 
ENDBRANCH  69  82
ENDBRANCH  43  44
ENDBRANCH  35  38
ENDBRANCH  33  34
ENDBRANCH  32  33
ENDBRANCH  31  32
ENDBRANCH  30  31
ENDBRANCH   1  30
TORSDOF 18
ENDMDL
MODEL 2
REMARK VINA RESULT:     -12.2     10.191     20.397
REMARK SMILES COc1cc(OC)cc(-c2cc3nc(C)c(CCC(=O)NCCCCCCNC(=O)c4ccc(-c5c6nc(c(-c7ccccc7)c7ccc([nH]7)c(-c7ccccc7)c7nc(c(-c8ccccc8)c8ccc5[nH]8)C=C7)C=C6)cc4)c(C)n3n2)c1
REMARK SMILES IDX 23 1 22 2 21 3 19 4 20 5 18 7 17 8 16 9 10 10 11 11 82 12
REMARK SMILES IDX 12 13 81 14 13 15 79 16 14 17 80 18 15 19 9 20 3 21 4 22
REMARK SMILES IDX 83 23 5 24 8 25 2 26 1 27 6 28 7 29 24 30 25 31 26 32 27 33
REMARK SMILES IDX 28 34 29 35 30 37 31 38 32 39 78 40 33 41 77 42 34 43 35 44
REMARK SMILES IDX 36 45 71 46 37 47 76 48 70 49 72 50 38 51 75 52 69 53 68 54
REMARK SMILES IDX 39 56 61 57 46 58 60 59 47 60 50 61 59 62 73 63 48 64 49 65
REMARK SMILES IDX 58 67 74 68 51 69 40 70 41 71 45 72 42 73 44 74 43 75 62 76
REMARK SMILES IDX 63 77 67 78 64 79 66 80 65 81 52 82 53 83 57 84 54 85 56 86
REMARK SMILES IDX 55 87
REMARK H PARENT 21 6 28 36 72 55 50 66
REMARK Flexibility Score: inf
ROOT
ATOM      1  C   UNL A   1      45.413  35.464  28.362  1.00  0.00     0.021 C 
ENDROOT
BRANCH   1   2
ATOM      2  C   UNL A   1      45.142  36.762  27.632  1.00  0.00     0.116 C 
BRANCH   2   3
ATOM      3  N   UNL A   1      43.745  36.786  27.233  1.00  0.00    -0.356 N 
ATOM      4  C   UNL A   1      42.660  37.183  27.964  1.00  0.00     0.220 C 
ATOM      5  O   UNL A   1      41.548  36.763  27.641  1.00  0.00    -0.275 OA
ATOM      6  H   UNL A   1      43.556  36.476  26.318  1.00  0.00     0.163 HD
BRANCH   4   7
ATOM      7  C   UNL A   1      42.818  38.175  29.107  1.00  0.00     0.105 C 
BRANCH   7   8
ATOM      8  C   UNL A   1      42.563  39.649  28.744  1.00  0.00     0.049 C 
BRANCH   8   9
ATOM      9  C   UNL A   1      43.318  40.131  27.536  1.00  0.00    -0.005 A 
ATOM     10  C   UNL A   1      43.567  43.082  24.273  1.00  0.00     0.095 A 
ATOM     11  C   UNL A   1      44.839  42.721  24.946  1.00  0.00     0.080 A 
ATOM     12  N   UNL A   1      42.787  41.990  24.386  1.00  0.00    -0.166 NA
ATOM     13  C   UNL A   1      44.657  41.616  25.699  1.00  0.00     0.156 A 
ATOM     14  N   UNL A   1      43.371  41.225  25.412  1.00  0.00    -0.219 N 
ATOM     15  N   UNL A   1      45.432  41.136  26.706  1.00  0.00    -0.234 NA
ATOM     16  C   UNL A   1      42.727  40.381  26.331  1.00  0.00     0.046 A 
ATOM     17  C   UNL A   1      44.797  40.480  27.631  1.00  0.00     0.045 A 
ATOM     18  C   UNL A   1      41.322  40.057  25.945  1.00  0.00     0.067 C 
ATOM     19  C   UNL A   1      45.654  40.060  28.819  1.00  0.00     0.067 C 
BRANCH  10  20
ATOM     20  C   UNL A   1      43.376  44.308  23.171  1.00  0.00     0.009 A 
ATOM     21  C   UNL A   1      45.101  44.852  20.508  1.00  0.00     0.123 A 
ATOM     22  C   UNL A   1      44.086  43.585  19.662  1.00  0.00     0.092 A 
ATOM     23  C   UNL A   1      44.675  45.187  22.259  1.00  0.00     0.057 A 
ATOM     24  C   UNL A   1      42.609  42.931  20.694  1.00  0.00     0.123 A 
ATOM     25  C   UNL A   1      42.327  43.380  22.338  1.00  0.00     0.057 A 
BRANCH  21  26
ATOM     26  O   UNL A   1      45.773  45.778  19.757  1.00  0.00    -0.497 OA
ATOM     27  C   UNL A   1      46.721  45.198  18.876  1.00  0.00     0.278 C 
ENDBRANCH  21  26
BRANCH  24  28
ATOM     28  O   UNL A   1      41.207  43.213  20.339  1.00  0.00    -0.497 OA
ATOM     29  C   UNL A   1      40.628  43.656  19.104  1.00  0.00     0.278 C 
ENDBRANCH  24  28
ENDBRANCH  10  20
ENDBRANCH   8   9
ENDBRANCH   7   8
ENDBRANCH   4   7
ENDBRANCH   2   3
ENDBRANCH   1   2
BRANCH   1  30
ATOM     30  C   UNL A   1      45.215  34.169  27.588  1.00  0.00     0.002 C 
BRANCH  30  31
ATOM     31  C   UNL A   1      44.114  33.286  28.168  1.00  0.00     0.002 C 
BRANCH  31  32
ATOM     32  C   UNL A   1      44.300  31.740  28.330  1.00  0.00     0.021 C 
BRANCH  32  33
ATOM     33  C   UNL A   1      43.162  30.359  28.400  1.00  0.00     0.116 C 
BRANCH  33  34
ATOM     34  N   UNL A   1      43.318  28.281  28.390  1.00  0.00    -0.352 N 
ATOM     35  C   UNL A   1      42.093  27.021  28.730  1.00  0.00     0.251 C 
ATOM     36  H   UNL A   1      44.212  27.936  28.161  1.00  0.00     0.163 HD
ATOM     37  O   UNL A   1      42.544  25.898  28.982  1.00  0.00    -0.269 OA
BRANCH  35  38
ATOM     38  C   UNL A   1      40.232  27.210  28.585  1.00  0.00     0.039 A 
ATOM     39  C   UNL A   1      39.785  28.492  28.180  1.00  0.00     0.014 A 
ATOM     40  C   UNL A   1      39.276  26.765  29.567  1.00  0.00     0.014 A 
ATOM     41  C   UNL A   1      39.142  29.424  29.124  1.00  0.00     0.010 A 
ATOM     42  C   UNL A   1      38.776  27.673  30.582  1.00  0.00     0.010 A 
ATOM     43  C   UNL A   1      38.940  29.073  30.472  1.00  0.00    -0.014 A 
BRANCH  43  44
ATOM     44  C   UNL A   1      38.737  30.009  31.699  1.00  0.00     0.031 A 
ATOM     45  C   UNL A   1      37.581  30.838  31.289  1.00  0.00     0.074 A 
ATOM     46  C   UNL A   1      39.199  30.300  32.984  1.00  0.00     0.049 A 
ATOM     47  N   UNL A   1      37.741  31.796  30.443  1.00  0.00    -0.248 NA
ATOM     48  C   UNL A   1      36.186  30.400  31.462  1.00  0.00     0.031 C 
ATOM     49  C   UNL A   1      40.151  29.702  33.952  1.00  0.00     0.029 A 
ATOM     50  N   UNL A   1      38.834  31.418  33.757  1.00  0.00    -0.354 N 
ATOM     51  C   UNL A   1      36.480  32.215  30.110  1.00  0.00     0.074 A 
ATOM     52  C   UNL A   1      35.588  31.169  30.543  1.00  0.00     0.031 C 
ATOM     53  C   UNL A   1      40.101  30.278  35.183  1.00  0.00     0.029 A 
ATOM     54  C   UNL A   1      39.289  31.462  35.096  1.00  0.00     0.049 A 
ATOM     55  H   UNL A   1      38.284  32.143  33.380  1.00  0.00     0.167 HD
ATOM     56  C   UNL A   1      36.283  33.509  29.757  1.00  0.00     0.031 A 
ATOM     57  C   UNL A   1      39.274  32.473  36.023  1.00  0.00     0.031 A 
ATOM     58  C   UNL A   1      37.548  34.200  29.596  1.00  0.00     0.049 A 
ATOM     59  C   UNL A   1      39.134  33.733  35.276  1.00  0.00     0.074 A 
ATOM     60  C   UNL A   1      38.634  34.058  28.753  1.00  0.00     0.029 A 
ATOM     61  N   UNL A   1      38.017  34.862  30.709  1.00  0.00    -0.354 N 
ATOM     62  N   UNL A   1      40.073  34.207  34.512  1.00  0.00    -0.248 NA
ATOM     63  C   UNL A   1      37.780  34.155  34.979  1.00  0.00     0.031 C 
ATOM     64  C   UNL A   1      39.781  34.227  29.588  1.00  0.00     0.029 A 
ATOM     65  C   UNL A   1      39.349  34.568  30.869  1.00  0.00     0.049 A 
ATOM     66  H   UNL A   1      37.486  35.450  31.293  1.00  0.00     0.167 HD
ATOM     67  C   UNL A   1      39.402  34.573  33.359  1.00  0.00     0.074 A 
ATOM     68  C   UNL A   1      37.981  34.558  33.722  1.00  0.00     0.031 C 
ATOM     69  C   UNL A   1      40.028  34.564  32.147  1.00  0.00     0.031 A 
BRANCH  56  70
ATOM     70  C   UNL A   1      35.000  34.233  30.020  1.00  0.00    -0.014 A 
ATOM     71  C   UNL A   1      34.329  34.796  28.925  1.00  0.00     0.009 A 
ATOM     72  C   UNL A   1      34.565  34.608  31.305  1.00  0.00     0.009 A 
ATOM     73  C   UNL A   1      33.321  35.745  29.110  1.00  0.00     0.001 A 
ATOM     74  C   UNL A   1      33.537  35.530  31.494  1.00  0.00     0.001 A 
ATOM     75  C   UNL A   1      32.932  36.117  30.394  1.00  0.00     0.000 A 
ENDBRANCH  56  70
BRANCH  57  76
ATOM     76  C   UNL A   1      39.040  32.458  37.504  1.00  0.00    -0.014 A 
ATOM     77  C   UNL A   1      39.895  33.132  38.410  1.00  0.00     0.009 A 
ATOM     78  C   UNL A   1      37.785  32.067  37.998  1.00  0.00     0.009 A 
ATOM     79  C   UNL A   1      39.486  33.442  39.724  1.00  0.00     0.001 A 
ATOM     80  C   UNL A   1      37.373  32.385  39.304  1.00  0.00     0.001 A 
ATOM     81  C   UNL A   1      38.215  33.085  40.162  1.00  0.00     0.000 A 
ENDBRANCH  57  76
BRANCH  69  82
ATOM     82  C   UNL A   1      41.528  34.363  32.122  1.00  0.00    -0.014 A 
ATOM     83  C   UNL A   1      42.161  33.105  32.102  1.00  0.00     0.009 A 
ATOM     84  C   UNL A   1      42.325  35.506  31.962  1.00  0.00     0.009 A 
ATOM     85  C   UNL A   1      43.550  33.006  31.935  1.00  0.00     0.001 A 
ATOM     86  C   UNL A   1      43.704  35.405  31.776  1.00  0.00     0.001 A 
ATOM     87  C   UNL A   1      44.318  34.156  31.764  1.00  0.00     0.000 A 
ENDBRANCH  69  82
ENDBRANCH  43  44
ENDBRANCH  35  38
ENDBRANCH  33  34
ENDBRANCH  32  33
ENDBRANCH  31  32
ENDBRANCH  30  31
ENDBRANCH   1  30
TORSDOF 18
ENDMDL
MODEL 3
REMARK VINA RESULT:     -11.9      6.906     14.811
REMARK SMILES COc1cc(OC)cc(-c2cc3nc(C)c(CCC(=O)NCCCCCCNC(=O)c4ccc(-c5c6nc(c(-c7ccccc7)c7ccc([nH]7)c(-c7ccccc7)c7nc(c(-c8ccccc8)c8ccc5[nH]8)C=C7)C=C6)cc4)c(C)n3n2)c1
REMARK SMILES IDX 23 1 22 2 21 3 19 4 20 5 18 7 17 8 16 9 10 10 11 11 82 12
REMARK SMILES IDX 12 13 81 14 13 15 79 16 14 17 80 18 15 19 9 20 3 21 4 22
REMARK SMILES IDX 83 23 5 24 8 25 2 26 1 27 6 28 7 29 24 30 25 31 26 32 27 33
REMARK SMILES IDX 28 34 29 35 30 37 31 38 32 39 78 40 33 41 77 42 34 43 35 44
REMARK SMILES IDX 36 45 71 46 37 47 76 48 70 49 72 50 38 51 75 52 69 53 68 54
REMARK SMILES IDX 39 56 61 57 46 58 60 59 47 60 50 61 59 62 73 63 48 64 49 65
REMARK SMILES IDX 58 67 74 68 51 69 40 70 41 71 45 72 42 73 44 74 43 75 62 76
REMARK SMILES IDX 63 77 67 78 64 79 66 80 65 81 52 82 53 83 57 84 54 85 56 86
REMARK SMILES IDX 55 87
REMARK H PARENT 21 6 28 36 72 55 50 66
REMARK Flexibility Score: inf
ROOT
ATOM      1  C   UNL A   1      32.981  37.017  31.412  1.00  0.00     0.021 C 
ENDROOT
BRANCH   1   2
ATOM      2  C   UNL A   1      33.029  36.224  30.123  1.00  0.00     0.116 C 
BRANCH   2   3
ATOM      3  N   UNL A   1      34.279  35.484  30.082  1.00  0.00    -0.356 N 
ATOM      4  C   UNL A   1      34.485  34.186  29.704  1.00  0.00     0.220 C 
ATOM      5  O   UNL A   1      35.495  33.608  30.110  1.00  0.00    -0.275 OA
ATOM      6  H   UNL A   1      35.081  35.981  30.361  1.00  0.00     0.163 HD
BRANCH   4   7
ATOM      7  C   UNL A   1      33.521  33.495  28.750  1.00  0.00     0.105 C 
BRANCH   7   8
ATOM      8  C   UNL A   1      34.178  32.698  27.608  1.00  0.00     0.049 C 
BRANCH   8   9
ATOM      9  C   UNL A   1      33.729  31.266  27.512  1.00  0.00    -0.005 A 
ATOM     10  C   UNL A   1      32.119  28.065  24.948  1.00  0.00     0.095 A 
ATOM     11  C   UNL A   1      33.195  27.684  25.896  1.00  0.00     0.080 A 
ATOM     12  N   UNL A   1      31.483  29.098  25.534  1.00  0.00    -0.166 NA
ATOM     13  C   UNL A   1      33.374  28.670  26.799  1.00  0.00     0.156 A 
ATOM     14  N   UNL A   1      32.374  29.569  26.515  1.00  0.00    -0.219 N 
ATOM     15  N   UNL A   1      34.432  28.887  27.623  1.00  0.00    -0.234 NA
ATOM     16  C   UNL A   1      32.534  30.887  26.973  1.00  0.00     0.046 A 
ATOM     17  C   UNL A   1      34.660  30.131  27.920  1.00  0.00     0.045 A 
ATOM     18  C   UNL A   1      31.415  31.788  26.570  1.00  0.00     0.067 C 
ATOM     19  C   UNL A   1      35.924  30.374  28.736  1.00  0.00     0.067 C 
BRANCH  10  20
ATOM     20  C   UNL A   1      31.506  27.095  23.749  1.00  0.00     0.009 A 
ATOM     21  C   UNL A   1      33.141  25.372  21.577  1.00  0.00     0.123 A 
ATOM     22  C   UNL A   1      33.371  24.084  22.856  1.00  0.00     0.092 A 
ATOM     23  C   UNL A   1      32.172  26.844  22.081  1.00  0.00     0.057 A 
ATOM     24  C   UNL A   1      32.402  24.397  24.481  1.00  0.00     0.123 A 
ATOM     25  C   UNL A   1      31.499  25.838  24.785  1.00  0.00     0.057 A 
BRANCH  21  26
ATOM     26  O   UNL A   1      33.269  25.031  20.258  1.00  0.00    -0.497 OA
ATOM     27  C   UNL A   1      32.197  25.500  19.456  1.00  0.00     0.278 C 
ENDBRANCH  21  26
BRANCH  24  28
ATOM     28  O   UNL A   1      31.270  23.554  24.904  1.00  0.00    -0.497 OA
ATOM     29  C   UNL A   1      31.237  22.195  25.358  1.00  0.00     0.278 C 
ENDBRANCH  24  28
ENDBRANCH  10  20
ENDBRANCH   8   9
ENDBRANCH   7   8
ENDBRANCH   4   7
ENDBRANCH   2   3
ENDBRANCH   1   2
BRANCH   1  30
ATOM     30  C   UNL A   1      32.792  36.241  32.707  1.00  0.00     0.002 C 
BRANCH  30  31
ATOM     31  C   UNL A   1      34.033  36.242  33.594  1.00  0.00     0.002 C 
BRANCH  31  32
ATOM     32  C   UNL A   1      34.970  34.991  33.698  1.00  0.00     0.021 C 
BRANCH  32  33
ATOM     33  C   UNL A   1      36.623  34.633  33.108  1.00  0.00     0.116 C 
BRANCH  33  34
ATOM     34  N   UNL A   1      38.273  33.574  33.815  1.00  0.00    -0.352 N 
ATOM     35  C   UNL A   1      39.484  32.589  32.938  1.00  0.00     0.251 C 
ATOM     36  H   UNL A   1      38.409  33.624  34.789  1.00  0.00     0.163 HD
ATOM     37  O   UNL A   1      40.140  31.809  33.639  1.00  0.00    -0.269 OA
BRANCH  35  38
ATOM     38  C   UNL A   1      39.945  32.743  31.126  1.00  0.00     0.039 A 
ATOM     39  C   UNL A   1      39.029  32.157  30.218  1.00  0.00     0.014 A 
ATOM     40  C   UNL A   1      41.251  32.475  30.579  1.00  0.00     0.014 A 
ATOM     41  C   UNL A   1      39.335  30.903  29.507  1.00  0.00     0.010 A 
ATOM     42  C   UNL A   1      41.568  31.174  30.021  1.00  0.00     0.010 A 
ATOM     43  C   UNL A   1      40.560  30.237  29.698  1.00  0.00    -0.014 A 
BRANCH  43  44
ATOM     44  C   UNL A   1      40.900  28.739  29.448  1.00  0.00     0.031 A 
ATOM     45  C   UNL A   1      41.092  28.214  30.819  1.00  0.00     0.074 A 
ATOM     46  C   UNL A   1      41.038  27.764  28.457  1.00  0.00     0.049 A 
ATOM     47  N   UNL A   1      42.178  28.468  31.461  1.00  0.00    -0.248 NA
ATOM     48  C   UNL A   1      39.973  27.763  31.662  1.00  0.00     0.031 C 
ATOM     49  C   UNL A   1      40.785  27.661  26.999  1.00  0.00     0.029 A 
ATOM     50  N   UNL A   1      41.562  26.471  28.641  1.00  0.00    -0.354 N 
ATOM     51  C   UNL A   1      41.961  28.045  32.746  1.00  0.00     0.074 A 
ATOM     52  C   UNL A   1      40.534  27.878  32.871  1.00  0.00     0.031 C 
ATOM     53  C   UNL A   1      40.907  26.394  26.519  1.00  0.00     0.029 A 
ATOM     54  C   UNL A   1      41.481  25.573  27.552  1.00  0.00     0.049 A 
ATOM     55  H   UNL A   1      41.971  26.202  29.496  1.00  0.00     0.167 HD
ATOM     56  C   UNL A   1      43.010  27.612  33.488  1.00  0.00     0.031 A 
ATOM     57  C   UNL A   1      42.056  24.344  27.347  1.00  0.00     0.031 A 
ATOM     58  C   UNL A   1      44.266  27.881  32.814  1.00  0.00     0.049 A 
ATOM     59  C   UNL A   1      43.210  24.259  28.257  1.00  0.00     0.074 A 
ATOM     60  C   UNL A   1      44.928  29.025  32.409  1.00  0.00     0.029 A 
ATOM     61  N   UNL A   1      44.757  26.862  32.027  1.00  0.00    -0.354 N 
ATOM     62  N   UNL A   1      44.279  24.983  28.108  1.00  0.00    -0.248 NA
ATOM     63  C   UNL A   1      42.938  23.770  29.593  1.00  0.00     0.031 C 
ATOM     64  C   UNL A   1      45.436  28.723  31.109  1.00  0.00     0.029 A 
ATOM     65  C   UNL A   1      45.157  27.387  30.823  1.00  0.00     0.049 A 
ATOM     66  H   UNL A   1      44.811  25.913  32.286  1.00  0.00     0.167 HD
ATOM     67  C   UNL A   1      44.537  25.452  29.384  1.00  0.00     0.074 A 
ATOM     68  C   UNL A   1      43.700  24.634  30.268  1.00  0.00     0.031 C 
ATOM     69  C   UNL A   1      45.168  26.646  29.581  1.00  0.00     0.031 A 
BRANCH  56  70
ATOM     70  C   UNL A   1      42.874  26.563  34.546  1.00  0.00    -0.014 A 
ATOM     71  C   UNL A   1      43.993  25.766  34.826  1.00  0.00     0.009 A 
ATOM     72  C   UNL A   1      41.640  26.153  35.084  1.00  0.00     0.009 A 
ATOM     73  C   UNL A   1      43.866  24.578  35.548  1.00  0.00     0.001 A 
ATOM     74  C   UNL A   1      41.515  24.984  35.834  1.00  0.00     0.001 A 
ATOM     75  C   UNL A   1      42.626  24.183  36.044  1.00  0.00     0.000 A 
ENDBRANCH  56  70
BRANCH  57  76
ATOM     76  C   UNL A   1      41.536  23.101  26.690  1.00  0.00    -0.014 A 
ATOM     77  C   UNL A   1      42.388  22.035  26.311  1.00  0.00     0.009 A 
ATOM     78  C   UNL A   1      40.162  22.817  26.746  1.00  0.00     0.009 A 
ATOM     79  C   UNL A   1      41.887  20.742  26.055  1.00  0.00     0.001 A 
ATOM     80  C   UNL A   1      39.664  21.525  26.500  1.00  0.00     0.001 A 
ATOM     81  C   UNL A   1      40.525  20.484  26.171  1.00  0.00     0.000 A 
ENDBRANCH  57  76
BRANCH  69  82
ATOM     82  C   UNL A   1      45.780  27.334  28.380  1.00  0.00    -0.014 A 
ATOM     83  C   UNL A   1      47.055  27.039  27.860  1.00  0.00     0.009 A 
ATOM     84  C   UNL A   1      44.960  28.214  27.659  1.00  0.00     0.009 A 
ATOM     85  C   UNL A   1      47.490  27.620  26.659  1.00  0.00     0.001 A 
ATOM     86  C   UNL A   1      45.386  28.776  26.455  1.00  0.00     0.001 A 
ATOM     87  C   UNL A   1      46.650  28.482  25.955  1.00  0.00     0.000 A 
ENDBRANCH  69  82
ENDBRANCH  43  44
ENDBRANCH  35  38
ENDBRANCH  33  34
ENDBRANCH  32  33
ENDBRANCH  31  32
ENDBRANCH  30  31
ENDBRANCH   1  30
TORSDOF 18
ENDMDL
