MODEL 1
REMARK VINA RESULT:      -9.7      0.000      0.000
REMARK SMILES CC(C)C[C@H](NC(=O)[C@H](Cc1ccccc1)NC(=O)CNC(=O)CNC(=O)OCc1ccccc1)C(=O)NCCCCCCNC(=O)c1ccc(-c2c3nc(c(-c4ccccc4)c4ccc([nH]4)c(-c4ccccc4)c4nc(c(-c5ccccc5)c5ccc2[nH]5)C=C4)C=C3)cc1
REMARK SMILES IDX 36 1 37 2 38 3 5 5 4 6 2 7 1 8 3 9 6 10 7 11 8 13 9 14 17 15
REMARK SMILES IDX 18 16 19 18 20 19 21 20 22 21 23 23 24 24 25 25 26 26 27 28
REMARK SMILES IDX 28 29 29 30 30 31 31 32 35 33 32 34 34 35 33 36 10 37 11 38
REMARK SMILES IDX 12 39 16 40 13 41 15 42 14 43 39 44 40 45 41 46 42 47 43 48
REMARK SMILES IDX 44 49 45 50 46 51 47 53 48 54 49 55 95 56 50 57 94 58 51 59
REMARK SMILES IDX 52 60 53 61 88 62 54 63 93 64 87 65 89 66 55 67 92 68 86 69
REMARK SMILES IDX 85 70 56 72 78 73 63 74 77 75 64 76 67 77 76 78 90 79 65 80
REMARK SMILES IDX 66 81 75 83 91 84 68 85 57 86 58 87 62 88 59 89 61 90 60 91
REMARK SMILES IDX 79 92 80 93 84 94 81 95 83 96 82 97 69 98 70 99 74 100
REMARK SMILES IDX 71 101 73 102 72 103
REMARK H PARENT 38 4 6 12 17 17 21 22 25 27 45 52 89 71 67 82
REMARK Flexibility Score: inf
ROOT
ATOM      1  C   UNL A   1      34.513  24.399  25.494  1.00  0.00     0.242 C 
ATOM      2  O   UNL A   1      33.782  24.051  26.440  1.00  0.00    -0.273 OA
ATOM      3  N   UNL A   1      35.857  24.125  25.730  1.00  0.00    -0.354 N 
ATOM      4  H   UNL A   1      36.156  24.421  26.619  1.00  0.00     0.163 HD
ENDROOT
BRANCH   1   5
ATOM      5  C   UNL A   1      33.769  25.245  24.291  1.00  0.00     0.171 C 
BRANCH   5   6
ATOM      6  C   UNL A   1      32.935  24.486  23.057  1.00  0.00     0.038 C 
BRANCH   6   7
ATOM      7  C   UNL A   1      31.599  23.568  23.208  1.00  0.00    -0.015 C 
ATOM      8  C   UNL A   1      31.542  22.518  24.359  1.00  0.00     0.007 C 
ATOM      9  C   UNL A   1      30.335  24.405  23.465  1.00  0.00     0.007 C 
ENDBRANCH   6   7
ENDBRANCH   5   6
BRANCH   5  10
ATOM     10  N   UNL A   1      34.125  26.641  24.022  1.00  0.00    -0.343 N 
ATOM     11  C   UNL A   1      33.493  27.832  24.150  1.00  0.00     0.243 C 
ATOM     12  H   UNL A   1      35.037  26.736  23.665  1.00  0.00     0.164 HD
ATOM     13  O   UNL A   1      34.195  28.838  24.030  1.00  0.00    -0.273 OA
BRANCH  11  14
ATOM     14  C   UNL A   1      31.980  27.941  24.410  1.00  0.00     0.175 C 
BRANCH  14  15
ATOM     15  N   UNL A   1      31.714  27.799  25.822  1.00  0.00    -0.342 N 
ATOM     16  C   UNL A   1      31.672  28.497  26.955  1.00  0.00     0.240 C 
ATOM     17  H   UNL A   1      31.484  26.861  26.014  1.00  0.00     0.164 HD
ATOM     18  O   UNL A   1      31.184  27.923  27.934  1.00  0.00    -0.273 OA
BRANCH  16  19
ATOM     19  C   UNL A   1      32.110  29.912  27.052  1.00  0.00     0.216 C 
BRANCH  19  20
ATOM     20  N   UNL A   1      33.478  30.266  26.728  1.00  0.00    -0.346 N 
ATOM     21  C   UNL A   1      34.566  30.775  27.348  1.00  0.00     0.239 C 
ATOM     22  H   UNL A   1      33.671  30.085  25.780  1.00  0.00     0.164 HD
ATOM     23  O   UNL A   1      35.579  30.126  27.013  1.00  0.00    -0.273 OA
BRANCH  21  24
ATOM     24  C   UNL A   1      34.792  31.899  28.470  1.00  0.00     0.219 C 
BRANCH  24  25
ATOM     25  N   UNL A   1      34.534  32.040  29.933  1.00  0.00    -0.312 N 
ATOM     26  C   UNL A   1      34.796  32.974  30.903  1.00  0.00     0.407 C 
ATOM     27  H   UNL A   1      34.051  31.262  30.295  1.00  0.00     0.167 HD
ATOM     28  O   UNL A   1      34.102  33.013  31.928  1.00  0.00    -0.225 OA
BRANCH  26  29
ATOM     29  O   UNL A   1      35.870  33.750  30.719  1.00  0.00    -0.445 OA
BRANCH  29  30
ATOM     30  C   UNL A   1      37.202  33.157  30.785  1.00  0.00     0.270 C 
BRANCH  30  31
ATOM     31  C   UNL A   1      37.856  33.224  32.134  1.00  0.00    -0.011 A 
ATOM     32  C   UNL A   1      38.426  32.091  32.725  1.00  0.00     0.007 A 
ATOM     33  C   UNL A   1      37.860  34.439  32.833  1.00  0.00     0.007 A 
ATOM     34  C   UNL A   1      39.124  32.208  33.924  1.00  0.00     0.000 A 
ATOM     35  C   UNL A   1      38.556  34.554  34.032  1.00  0.00     0.000 A 
ATOM     36  C   UNL A   1      39.216  33.446  34.560  1.00  0.00     0.000 A 
ENDBRANCH  30  31
ENDBRANCH  29  30
ENDBRANCH  26  29
ENDBRANCH  24  25
ENDBRANCH  21  24
ENDBRANCH  19  20
ENDBRANCH  16  19
ENDBRANCH  14  15
BRANCH  14  37
ATOM     37  C   UNL A   1      31.442  29.219  23.745  1.00  0.00     0.070 C 
BRANCH  37  38
ATOM     38  C   UNL A   1      29.938  29.167  23.580  1.00  0.00    -0.045 A 
ATOM     39  C   UNL A   1      29.297  27.929  23.470  1.00  0.00     0.004 A 
ATOM     40  C   UNL A   1      29.175  30.340  23.462  1.00  0.00     0.004 A 
ATOM     41  C   UNL A   1      27.932  27.862  23.194  1.00  0.00     0.000 A 
ATOM     42  C   UNL A   1      27.809  30.270  23.183  1.00  0.00     0.000 A 
ATOM     43  C   UNL A   1      27.191  29.031  23.041  1.00  0.00     0.000 A 
ENDBRANCH  37  38
ENDBRANCH  14  37
ENDBRANCH  11  14
ENDBRANCH   5  10
ENDBRANCH   1   5
BRANCH   3  44
ATOM     44  C   UNL A   1      36.941  23.486  24.939  1.00  0.00     0.116 C 
BRANCH  44  45
ATOM     45  C   UNL A   1      36.812  22.022  24.398  1.00  0.00     0.021 C 
BRANCH  45  46
ATOM     46  C   UNL A   1      37.636  20.813  24.839  1.00  0.00     0.002 C 
BRANCH  46  47
ATOM     47  C   UNL A   1      38.914  21.006  25.647  1.00  0.00     0.002 C 
BRANCH  47  48
ATOM     48  C   UNL A   1      39.877  19.829  25.801  1.00  0.00     0.021 C 
BRANCH  48  49
ATOM     49  C   UNL A   1      41.229  20.051  26.456  1.00  0.00     0.116 C 
BRANCH  49  50
ATOM     50  N   UNL A   1      42.345  19.725  25.606  1.00  0.00    -0.352 N 
ATOM     51  C   UNL A   1      43.395  20.523  25.229  1.00  0.00     0.251 C 
ATOM     52  H   UNL A   1      42.355  18.809  25.248  1.00  0.00     0.163 HD
ATOM     53  O   UNL A   1      44.207  20.126  24.400  1.00  0.00    -0.269 OA
BRANCH  51  54
ATOM     54  C   UNL A   1      43.536  21.877  25.806  1.00  0.00     0.039 A 
ATOM     55  C   UNL A   1      44.055  22.001  27.096  1.00  0.00     0.014 A 
ATOM     56  C   UNL A   1      43.143  23.014  25.090  1.00  0.00     0.014 A 
ATOM     57  C   UNL A   1      44.203  23.267  27.664  1.00  0.00     0.010 A 
ATOM     58  C   UNL A   1      43.352  24.280  25.635  1.00  0.00     0.010 A 
ATOM     59  C   UNL A   1      43.864  24.419  26.935  1.00  0.00    -0.014 A 
BRANCH  59  60
ATOM     60  C   UNL A   1      43.986  25.769  27.544  1.00  0.00     0.031 A 
ATOM     61  C   UNL A   1      45.322  26.465  27.550  1.00  0.00     0.074 A 
ATOM     62  C   UNL A   1      42.912  26.358  28.107  1.00  0.00     0.049 A 
ATOM     63  N   UNL A   1      45.646  27.627  28.060  1.00  0.00    -0.248 NA
ATOM     64  C   UNL A   1      46.447  25.757  26.915  1.00  0.00     0.031 C 
ATOM     65  C   UNL A   1      41.569  25.778  28.179  1.00  0.00     0.029 A 
ATOM     66  N   UNL A   1      42.781  27.575  28.727  1.00  0.00    -0.354 N 
ATOM     67  C   UNL A   1      47.009  27.773  27.831  1.00  0.00     0.074 A 
ATOM     68  C   UNL A   1      47.462  26.569  27.171  1.00  0.00     0.031 C 
ATOM     69  C   UNL A   1      40.745  26.652  28.784  1.00  0.00     0.029 A 
ATOM     70  C   UNL A   1      41.509  27.830  29.183  1.00  0.00     0.049 A 
ATOM     71  H   UNL A   1      43.528  28.208  28.834  1.00  0.00     0.167 HD
ATOM     72  C   UNL A   1      47.810  28.822  28.130  1.00  0.00     0.031 A 
ATOM     73  C   UNL A   1      41.020  28.888  29.859  1.00  0.00     0.031 A 
ATOM     74  C   UNL A   1      47.352  30.029  28.762  1.00  0.00     0.049 A 
ATOM     75  C   UNL A   1      41.944  30.029  30.200  1.00  0.00     0.074 A 
ATOM     76  C   UNL A   1      48.073  31.175  29.048  1.00  0.00     0.029 A 
ATOM     77  N   UNL A   1      46.059  30.244  29.209  1.00  0.00    -0.354 N 
ATOM     78  N   UNL A   1      43.213  30.181  29.907  1.00  0.00    -0.248 NA
ATOM     79  C   UNL A   1      41.363  31.148  30.957  1.00  0.00     0.031 C 
ATOM     80  C   UNL A   1      47.231  32.059  29.727  1.00  0.00     0.029 A 
ATOM     81  C   UNL A   1      45.969  31.493  29.797  1.00  0.00     0.049 A 
ATOM     82  H   UNL A   1      45.316  29.604  29.120  1.00  0.00     0.167 HD
ATOM     83  C   UNL A   1      43.569  31.428  30.406  1.00  0.00     0.074 A 
ATOM     84  C   UNL A   1      42.380  31.996  31.007  1.00  0.00     0.031 C 
ATOM     85  C   UNL A   1      44.772  32.050  30.369  1.00  0.00     0.031 A 
BRANCH  72  86
ATOM     86  C   UNL A   1      49.271  28.716  27.791  1.00  0.00    -0.014 A 
ATOM     87  C   UNL A   1      49.807  29.337  26.652  1.00  0.00     0.009 A 
ATOM     88  C   UNL A   1      50.139  28.049  28.671  1.00  0.00     0.009 A 
ATOM     89  C   UNL A   1      51.177  29.274  26.390  1.00  0.00     0.001 A 
ATOM     90  C   UNL A   1      51.512  28.013  28.423  1.00  0.00     0.001 A 
ATOM     91  C   UNL A   1      52.029  28.620  27.280  1.00  0.00     0.000 A 
ENDBRANCH  72  86
BRANCH  73  92
ATOM     92  C   UNL A   1      39.591  28.930  30.278  1.00  0.00    -0.014 A 
ATOM     93  C   UNL A   1      38.609  29.455  29.424  1.00  0.00     0.009 A 
ATOM     94  C   UNL A   1      39.211  28.499  31.559  1.00  0.00     0.009 A 
ATOM     95  C   UNL A   1      37.288  29.596  29.862  1.00  0.00     0.001 A 
ATOM     96  C   UNL A   1      37.883  28.605  31.980  1.00  0.00     0.001 A 
ATOM     97  C   UNL A   1      36.926  29.168  31.138  1.00  0.00     0.000 A 
ENDBRANCH  73  92
BRANCH  85  98
ATOM     98  C   UNL A   1      44.855  33.439  30.937  1.00  0.00    -0.014 A 
ATOM     99  C   UNL A   1      44.399  34.555  30.220  1.00  0.00     0.009 A 
ATOM    100  C   UNL A   1      45.338  33.619  32.243  1.00  0.00     0.009 A 
ATOM    101  C   UNL A   1      44.456  35.829  30.788  1.00  0.00     0.001 A 
ATOM    102  C   UNL A   1      45.361  34.888  32.822  1.00  0.00     0.001 A 
ATOM    103  C   UNL A   1      44.930  35.993  32.091  1.00  0.00     0.000 A 
ENDBRANCH  85  98
ENDBRANCH  59  60
ENDBRANCH  51  54
ENDBRANCH  49  50
ENDBRANCH  48  49
ENDBRANCH  47  48
ENDBRANCH  46  47
ENDBRANCH  45  46
ENDBRANCH  44  45
ENDBRANCH   3  44
TORSDOF 27
ENDMDL
MODEL 2
REMARK VINA RESULT:      -9.2      1.425      2.083
REMARK SMILES CC(C)C[C@H](NC(=O)[C@H](Cc1ccccc1)NC(=O)CNC(=O)CNC(=O)OCc1ccccc1)C(=O)NCCCCCCNC(=O)c1ccc(-c2c3nc(c(-c4ccccc4)c4ccc([nH]4)c(-c4ccccc4)c4nc(c(-c5ccccc5)c5ccc2[nH]5)C=C4)C=C3)cc1
REMARK SMILES IDX 36 1 37 2 38 3 5 5 4 6 2 7 1 8 3 9 6 10 7 11 8 13 9 14 17 15
REMARK SMILES IDX 18 16 19 18 20 19 21 20 22 21 23 23 24 24 25 25 26 26 27 28
REMARK SMILES IDX 28 29 29 30 30 31 31 32 35 33 32 34 34 35 33 36 10 37 11 38
REMARK SMILES IDX 12 39 16 40 13 41 15 42 14 43 39 44 40 45 41 46 42 47 43 48
REMARK SMILES IDX 44 49 45 50 46 51 47 53 48 54 49 55 95 56 50 57 94 58 51 59
REMARK SMILES IDX 52 60 53 61 88 62 54 63 93 64 87 65 89 66 55 67 92 68 86 69
REMARK SMILES IDX 85 70 56 72 78 73 63 74 77 75 64 76 67 77 76 78 90 79 65 80
REMARK SMILES IDX 66 81 75 83 91 84 68 85 57 86 58 87 62 88 59 89 61 90 60 91
REMARK SMILES IDX 79 92 80 93 84 94 81 95 83 96 82 97 69 98 70 99 74 100
REMARK SMILES IDX 71 101 73 102 72 103
REMARK H PARENT 38 4 6 12 17 17 21 22 25 27 45 52 89 71 67 82
REMARK Flexibility Score: inf
ROOT
ATOM      1  C   UNL A   1      34.486  24.411  25.710  1.00  0.00     0.242 C 
ATOM      2  O   UNL A   1      33.822  24.039  26.697  1.00  0.00    -0.273 OA
ATOM      3  N   UNL A   1      35.848  24.174  25.862  1.00  0.00    -0.354 N 
ATOM      4  H   UNL A   1      36.192  24.474  26.733  1.00  0.00     0.163 HD
ENDROOT
BRANCH   1   5
ATOM      5  C   UNL A   1      33.647  25.242  24.559  1.00  0.00     0.171 C 
BRANCH   5   6
ATOM      6  C   UNL A   1      32.646  24.473  23.462  1.00  0.00     0.038 C 
BRANCH   6   7
ATOM      7  C   UNL A   1      33.110  23.530  22.219  1.00  0.00    -0.015 C 
ATOM      8  C   UNL A   1      32.497  22.101  22.099  1.00  0.00     0.007 C 
ATOM      9  C   UNL A   1      32.772  24.147  20.852  1.00  0.00     0.007 C 
ENDBRANCH   6   7
ENDBRANCH   5   6
BRANCH   5  10
ATOM     10  N   UNL A   1      34.029  26.607  24.188  1.00  0.00    -0.343 N 
ATOM     11  C   UNL A   1      33.416  27.814  24.216  1.00  0.00     0.243 C 
ATOM     12  H   UNL A   1      34.947  26.660  23.836  1.00  0.00     0.164 HD
ATOM     13  O   UNL A   1      34.136  28.797  24.027  1.00  0.00    -0.273 OA
BRANCH  11  14
ATOM     14  C   UNL A   1      31.903  27.967  24.448  1.00  0.00     0.175 C 
BRANCH  14  15
ATOM     15  N   UNL A   1      31.615  27.909  25.862  1.00  0.00    -0.342 N 
ATOM     16  C   UNL A   1      31.730  28.616  26.983  1.00  0.00     0.240 C 
ATOM     17  H   UNL A   1      31.184  27.048  26.068  1.00  0.00     0.164 HD
ATOM     18  O   UNL A   1      31.130  28.179  27.971  1.00  0.00    -0.273 OA
BRANCH  16  19
ATOM     19  C   UNL A   1      32.470  29.901  27.059  1.00  0.00     0.216 C 
BRANCH  19  20
ATOM     20  N   UNL A   1      33.919  29.902  27.013  1.00  0.00    -0.346 N 
ATOM     21  C   UNL A   1      34.956  30.292  27.787  1.00  0.00     0.239 C 
ATOM     22  H   UNL A   1      34.242  29.502  26.174  1.00  0.00     0.164 HD
ATOM     23  O   UNL A   1      35.829  29.400  27.797  1.00  0.00    -0.273 OA
BRANCH  21  24
ATOM     24  C   UNL A   1      35.224  31.546  28.751  1.00  0.00     0.219 C 
BRANCH  24  25
ATOM     25  N   UNL A   1      34.546  32.182  29.919  1.00  0.00    -0.312 N 
ATOM     26  C   UNL A   1      34.669  33.352  30.624  1.00  0.00     0.407 C 
ATOM     27  H   UNL A   1      33.825  31.614  30.276  1.00  0.00     0.167 HD
ATOM     28  O   UNL A   1      33.708  33.790  31.270  1.00  0.00    -0.225 OA
BRANCH  26  29
ATOM     29  O   UNL A   1      35.880  33.920  30.643  1.00  0.00    -0.445 OA
BRANCH  29  30
ATOM     30  C   UNL A   1      36.767  33.678  31.776  1.00  0.00     0.270 C 
BRANCH  30  31
ATOM     31  C   UNL A   1      38.232  33.705  31.447  1.00  0.00    -0.011 A 
ATOM     32  C   UNL A   1      38.684  33.605  30.127  1.00  0.00     0.007 A 
ATOM     33  C   UNL A   1      39.166  33.793  32.489  1.00  0.00     0.007 A 
ATOM     34  C   UNL A   1      40.040  33.747  29.844  1.00  0.00     0.000 A 
ATOM     35  C   UNL A   1      40.520  33.933  32.204  1.00  0.00     0.000 A 
ATOM     36  C   UNL A   1      40.953  33.943  30.880  1.00  0.00     0.000 A 
ENDBRANCH  30  31
ENDBRANCH  29  30
ENDBRANCH  26  29
ENDBRANCH  24  25
ENDBRANCH  21  24
ENDBRANCH  19  20
ENDBRANCH  16  19
ENDBRANCH  14  15
BRANCH  14  37
ATOM     37  C   UNL A   1      31.399  29.217  23.705  1.00  0.00     0.070 C 
BRANCH  37  38
ATOM     38  C   UNL A   1      29.915  29.132  23.418  1.00  0.00    -0.045 A 
ATOM     39  C   UNL A   1      29.161  30.306  23.326  1.00  0.00     0.004 A 
ATOM     40  C   UNL A   1      29.261  27.894  23.315  1.00  0.00     0.004 A 
ATOM     41  C   UNL A   1      27.775  30.246  23.186  1.00  0.00     0.000 A 
ATOM     42  C   UNL A   1      27.873  27.837  23.178  1.00  0.00     0.000 A 
ATOM     43  C   UNL A   1      27.131  29.013  23.123  1.00  0.00     0.000 A 
ENDBRANCH  37  38
ENDBRANCH  14  37
ENDBRANCH  11  14
ENDBRANCH   5  10
ENDBRANCH   1   5
BRANCH   3  44
ATOM     44  C   UNL A   1      36.899  23.568  25.003  1.00  0.00     0.116 C 
BRANCH  44  45
ATOM     45  C   UNL A   1      36.811  22.081  24.521  1.00  0.00     0.021 C 
BRANCH  45  46
ATOM     46  C   UNL A   1      37.690  20.920  24.985  1.00  0.00     0.002 C 
BRANCH  46  47
ATOM     47  C   UNL A   1      38.966  21.189  25.773  1.00  0.00     0.002 C 
BRANCH  47  48
ATOM     48  C   UNL A   1      39.877  20.014  26.128  1.00  0.00     0.021 C 
BRANCH  48  49
ATOM     49  C   UNL A   1      41.299  20.285  26.590  1.00  0.00     0.116 C 
BRANCH  49  50
ATOM     50  N   UNL A   1      42.304  19.671  25.760  1.00  0.00    -0.352 N 
ATOM     51  C   UNL A   1      43.431  20.237  25.221  1.00  0.00     0.251 C 
ATOM     52  H   UNL A   1      42.163  18.720  25.552  1.00  0.00     0.163 HD
ATOM     53  O   UNL A   1      44.127  19.603  24.435  1.00  0.00    -0.269 OA
BRANCH  51  54
ATOM     54  C   UNL A   1      43.795  21.628  25.569  1.00  0.00     0.039 A 
ATOM     55  C   UNL A   1      44.454  21.861  26.777  1.00  0.00     0.014 A 
ATOM     56  C   UNL A   1      43.475  22.694  24.722  1.00  0.00     0.014 A 
ATOM     57  C   UNL A   1      44.815  23.162  27.129  1.00  0.00     0.010 A 
ATOM     58  C   UNL A   1      43.893  23.984  25.046  1.00  0.00     0.010 A 
ATOM     59  C   UNL A   1      44.548  24.235  26.262  1.00  0.00    -0.014 A 
BRANCH  59  60
ATOM     60  C   UNL A   1      44.897  25.627  26.645  1.00  0.00     0.031 A 
ATOM     61  C   UNL A   1      46.295  26.136  26.410  1.00  0.00     0.074 A 
ATOM     62  C   UNL A   1      43.973  26.424  27.217  1.00  0.00     0.049 A 
ATOM     63  N   UNL A   1      46.811  27.304  26.703  1.00  0.00    -0.248 NA
ATOM     64  C   UNL A   1      47.247  25.205  25.779  1.00  0.00     0.031 C 
ATOM     65  C   UNL A   1      42.590  26.043  27.512  1.00  0.00     0.029 A 
ATOM     66  N   UNL A   1      44.058  27.723  27.656  1.00  0.00    -0.354 N 
ATOM     67  C   UNL A   1      48.144  27.236  26.318  1.00  0.00     0.074 A 
ATOM     68  C   UNL A   1      48.373  25.903  25.806  1.00  0.00     0.031 C 
ATOM     69  C   UNL A   1      41.951  27.092  28.057  1.00  0.00     0.029 A 
ATOM     70  C   UNL A   1      42.888  28.203  28.195  1.00  0.00     0.049 A 
ATOM     71  H   UNL A   1      44.881  28.260  27.590  1.00  0.00     0.167 HD
ATOM     72  C   UNL A   1      49.091  28.201  26.372  1.00  0.00     0.031 A 
ATOM     73  C   UNL A   1      42.608  29.399  28.748  1.00  0.00     0.031 A 
ATOM     74  C   UNL A   1      48.854  29.534  26.857  1.00  0.00     0.049 A 
ATOM     75  C   UNL A   1      43.692  30.444  28.817  1.00  0.00     0.074 A 
ATOM     76  C   UNL A   1      49.732  30.603  26.892  1.00  0.00     0.029 A 
ATOM     77  N   UNL A   1      47.657  29.977  27.394  1.00  0.00    -0.354 N 
ATOM     78  N   UNL A   1      44.926  30.386  28.378  1.00  0.00    -0.248 NA
ATOM     79  C   UNL A   1      43.339  31.723  29.450  1.00  0.00     0.031 C 
ATOM     80  C   UNL A   1      49.085  31.676  27.511  1.00  0.00     0.029 A 
ATOM     81  C   UNL A   1      47.783  31.295  27.793  1.00  0.00     0.049 A 
ATOM     82  H   UNL A   1      46.840  29.434  27.479  1.00  0.00     0.167 HD
ATOM     83  C   UNL A   1      45.481  31.632  28.643  1.00  0.00     0.074 A 
ATOM     84  C   UNL A   1      44.446  32.429  29.268  1.00  0.00     0.031 C 
ATOM     85  C   UNL A   1      46.735  32.079  28.392  1.00  0.00     0.031 A 
BRANCH  72  86
ATOM     86  C   UNL A   1      50.479  27.859  25.907  1.00  0.00    -0.014 A 
ATOM     87  C   UNL A   1      50.847  27.963  24.557  1.00  0.00     0.009 A 
ATOM     88  C   UNL A   1      51.456  27.501  26.851  1.00  0.00     0.009 A 
ATOM     89  C   UNL A   1      52.158  27.695  24.159  1.00  0.00     0.001 A 
ATOM     90  C   UNL A   1      52.773  27.263  26.454  1.00  0.00     0.001 A 
ATOM     91  C   UNL A   1      53.122  27.354  25.108  1.00  0.00     0.000 A 
ENDBRANCH  72  86
BRANCH  73  92
ATOM     92  C   UNL A   1      41.254  29.687  29.298  1.00  0.00    -0.014 A 
ATOM     93  C   UNL A   1      41.055  29.820  30.681  1.00  0.00     0.009 A 
ATOM     94  C   UNL A   1      40.142  29.770  28.445  1.00  0.00     0.009 A 
ATOM     95  C   UNL A   1      39.767  29.979  31.201  1.00  0.00     0.001 A 
ATOM     96  C   UNL A   1      38.860  29.968  28.965  1.00  0.00     0.001 A 
ATOM     97  C   UNL A   1      38.671  30.055  30.343  1.00  0.00     0.000 A 
ENDBRANCH  73  92
BRANCH  85  98
ATOM     98  C   UNL A   1      47.045  33.510  28.732  1.00  0.00    -0.014 A 
ATOM     99  C   UNL A   1      47.591  33.870  29.972  1.00  0.00     0.009 A 
ATOM    100  C   UNL A   1      46.845  34.505  27.761  1.00  0.00     0.009 A 
ATOM    101  C   UNL A   1      47.901  35.203  30.245  1.00  0.00     0.001 A 
ATOM    102  C   UNL A   1      47.188  35.831  28.024  1.00  0.00     0.001 A 
ATOM    103  C   UNL A   1      47.707  36.180  29.269  1.00  0.00     0.000 A 
ENDBRANCH  85  98
ENDBRANCH  59  60
ENDBRANCH  51  54
ENDBRANCH  49  50
ENDBRANCH  48  49
ENDBRANCH  47  48
ENDBRANCH  46  47
ENDBRANCH  45  46
ENDBRANCH  44  45
ENDBRANCH   3  44
TORSDOF 27
ENDMDL
MODEL 3
REMARK VINA RESULT:      -9.1      5.422     11.364
REMARK SMILES CC(C)C[C@H](NC(=O)[C@H](Cc1ccccc1)NC(=O)CNC(=O)CNC(=O)OCc1ccccc1)C(=O)NCCCCCCNC(=O)c1ccc(-c2c3nc(c(-c4ccccc4)c4ccc([nH]4)c(-c4ccccc4)c4nc(c(-c5ccccc5)c5ccc2[nH]5)C=C4)C=C3)cc1
REMARK SMILES IDX 36 1 37 2 38 3 5 5 4 6 2 7 1 8 3 9 6 10 7 11 8 13 9 14 17 15
REMARK SMILES IDX 18 16 19 18 20 19 21 20 22 21 23 23 24 24 25 25 26 26 27 28
REMARK SMILES IDX 28 29 29 30 30 31 31 32 35 33 32 34 34 35 33 36 10 37 11 38
REMARK SMILES IDX 12 39 16 40 13 41 15 42 14 43 39 44 40 45 41 46 42 47 43 48
REMARK SMILES IDX 44 49 45 50 46 51 47 53 48 54 49 55 95 56 50 57 94 58 51 59
REMARK SMILES IDX 52 60 53 61 88 62 54 63 93 64 87 65 89 66 55 67 92 68 86 69
REMARK SMILES IDX 85 70 56 72 78 73 63 74 77 75 64 76 67 77 76 78 90 79 65 80
REMARK SMILES IDX 66 81 75 83 91 84 68 85 57 86 58 87 62 88 59 89 61 90 60 91
REMARK SMILES IDX 79 92 80 93 84 94 81 95 83 96 82 97 69 98 70 99 74 100
REMARK SMILES IDX 71 101 73 102 72 103
REMARK H PARENT 38 4 6 12 17 17 21 22 25 27 45 52 89 71 67 82
REMARK Flexibility Score: inf
ROOT
ATOM      1  C   UNL A   1      43.089  31.967  32.556  1.00  0.00     0.242 C 
ATOM      2  O   UNL A   1      44.292  32.240  32.382  1.00  0.00    -0.273 OA
ATOM      3  N   UNL A   1      42.304  33.102  32.733  1.00  0.00    -0.354 N 
ATOM      4  H   UNL A   1      42.687  33.733  33.384  1.00  0.00     0.163 HD
ENDROOT
BRANCH   1   5
ATOM      5  C   UNL A   1      42.737  30.364  32.716  1.00  0.00     0.171 C 
BRANCH   5   6
ATOM      6  C   UNL A   1      43.508  29.192  31.807  1.00  0.00     0.038 C 
BRANCH   6   7
ATOM      7  C   UNL A   1      45.083  28.786  31.879  1.00  0.00    -0.015 C 
ATOM      8  C   UNL A   1      46.103  29.602  31.028  1.00  0.00     0.007 C 
ATOM      9  C   UNL A   1      45.661  28.918  33.298  1.00  0.00     0.007 C 
ENDBRANCH   6   7
ENDBRANCH   5   6
BRANCH   5  10
ATOM     10  N   UNL A   1      41.490  29.926  33.349  1.00  0.00    -0.343 N 
ATOM     11  C   UNL A   1      41.142  29.499  34.585  1.00  0.00     0.243 C 
ATOM     12  H   UNL A   1      40.725  29.949  32.730  1.00  0.00     0.164 HD
ATOM     13  O   UNL A   1      39.933  29.425  34.818  1.00  0.00    -0.273 OA
BRANCH  11  14
ATOM     14  C   UNL A   1      42.184  29.103  35.646  1.00  0.00     0.175 C 
BRANCH  14  15
ATOM     15  N   UNL A   1      42.078  29.980  36.788  1.00  0.00    -0.342 N 
ATOM     16  C   UNL A   1      42.172  31.260  37.137  1.00  0.00     0.240 C 
ATOM     17  H   UNL A   1      41.861  29.445  37.586  1.00  0.00     0.164 HD
ATOM     18  O   UNL A   1      41.791  31.547  38.277  1.00  0.00    -0.273 OA
BRANCH  16  19
ATOM     19  C   UNL A   1      42.632  32.322  36.209  1.00  0.00     0.216 C 
BRANCH  19  20
ATOM     20  N   UNL A   1      42.132  33.675  36.356  1.00  0.00    -0.346 N 
ATOM     21  C   UNL A   1      41.111  34.316  36.967  1.00  0.00     0.239 C 
ATOM     22  H   UNL A   1      42.702  34.313  35.868  1.00  0.00     0.164 HD
ATOM     23  O   UNL A   1      41.540  35.348  37.525  1.00  0.00    -0.273 OA
BRANCH  21  24
ATOM     24  C   UNL A   1      39.565  33.971  37.222  1.00  0.00     0.219 C 
BRANCH  24  25
ATOM     25  N   UNL A   1      38.744  32.740  37.414  1.00  0.00    -0.312 N 
ATOM     26  C   UNL A   1      37.992  31.913  36.619  1.00  0.00     0.407 C 
ATOM     27  H   UNL A   1      38.741  32.446  38.354  1.00  0.00     0.167 HD
ATOM     28  O   UNL A   1      37.773  30.747  36.972  1.00  0.00    -0.225 OA
BRANCH  26  29
ATOM     29  O   UNL A   1      37.453  32.457  35.522  1.00  0.00    -0.445 OA
BRANCH  29  30
ATOM     30  C   UNL A   1      37.980  32.095  34.210  1.00  0.00     0.270 C 
BRANCH  30  31
ATOM     31  C   UNL A   1      37.073  32.410  33.057  1.00  0.00    -0.011 A 
ATOM     32  C   UNL A   1      35.681  32.344  33.186  1.00  0.00     0.007 A 
ATOM     33  C   UNL A   1      37.633  32.739  31.815  1.00  0.00     0.007 A 
ATOM     34  C   UNL A   1      34.864  32.751  32.135  1.00  0.00     0.000 A 
ATOM     35  C   UNL A   1      36.815  33.143  30.764  1.00  0.00     0.000 A 
ATOM     36  C   UNL A   1      35.433  33.181  30.936  1.00  0.00     0.000 A 
ENDBRANCH  30  31
ENDBRANCH  29  30
ENDBRANCH  26  29
ENDBRANCH  24  25
ENDBRANCH  21  24
ENDBRANCH  19  20
ENDBRANCH  16  19
ENDBRANCH  14  15
BRANCH  14  37
ATOM     37  C   UNL A   1      42.068  27.597  35.934  1.00  0.00     0.070 C 
BRANCH  37  38
ATOM     38  C   UNL A   1      43.324  26.855  35.531  1.00  0.00    -0.045 A 
ATOM     39  C   UNL A   1      43.290  25.981  34.441  1.00  0.00     0.004 A 
ATOM     40  C   UNL A   1      44.510  26.969  36.274  1.00  0.00     0.004 A 
ATOM     41  C   UNL A   1      44.400  25.196  34.129  1.00  0.00     0.000 A 
ATOM     42  C   UNL A   1      45.619  26.181  35.962  1.00  0.00     0.000 A 
ATOM     43  C   UNL A   1      45.559  25.288  34.895  1.00  0.00     0.000 A 
ENDBRANCH  37  38
ENDBRANCH  14  37
ENDBRANCH  11  14
ENDBRANCH   5  10
ENDBRANCH   1   5
BRANCH   3  44
ATOM     44  C   UNL A   1      41.017  33.574  32.159  1.00  0.00     0.116 C 
BRANCH  44  45
ATOM     45  C   UNL A   1      40.970  34.498  30.895  1.00  0.00     0.021 C 
BRANCH  45  46
ATOM     46  C   UNL A   1      42.123  34.786  29.935  1.00  0.00     0.002 C 
BRANCH  46  47
ATOM     47  C   UNL A   1      41.926  35.739  28.761  1.00  0.00     0.002 C 
BRANCH  47  48
ATOM     48  C   UNL A   1      42.807  36.984  28.664  1.00  0.00     0.021 C 
BRANCH  48  49
ATOM     49  C   UNL A   1      43.898  37.210  29.697  1.00  0.00     0.116 C 
BRANCH  49  50
ATOM     50  N   UNL A   1      45.203  37.417  29.126  1.00  0.00    -0.352 N 
ATOM     51  C   UNL A   1      46.064  36.488  28.600  1.00  0.00     0.251 C 
ATOM     52  H   UNL A   1      45.520  38.349  29.111  1.00  0.00     0.163 HD
ATOM     53  O   UNL A   1      47.195  36.816  28.258  1.00  0.00    -0.269 OA
BRANCH  51  54
ATOM     54  C   UNL A   1      45.636  35.078  28.468  1.00  0.00     0.039 A 
ATOM     55  C   UNL A   1      45.061  34.667  27.265  1.00  0.00     0.014 A 
ATOM     56  C   UNL A   1      45.782  34.175  29.526  1.00  0.00     0.014 A 
ATOM     57  C   UNL A   1      44.652  33.342  27.110  1.00  0.00     0.010 A 
ATOM     58  C   UNL A   1      45.432  32.837  29.347  1.00  0.00     0.010 A 
ATOM     59  C   UNL A   1      44.844  32.412  28.145  1.00  0.00    -0.014 A 
BRANCH  59  60
ATOM     60  C   UNL A   1      44.380  31.008  28.002  1.00  0.00     0.031 A 
ATOM     61  C   UNL A   1      45.264  29.997  27.320  1.00  0.00     0.074 A 
ATOM     62  C   UNL A   1      43.165  30.645  28.461  1.00  0.00     0.049 A 
ATOM     63  N   UNL A   1      45.032  28.733  27.065  1.00  0.00    -0.248 NA
ATOM     64  C   UNL A   1      46.577  30.470  26.846  1.00  0.00     0.031 C 
ATOM     65  C   UNL A   1      42.210  31.535  29.124  1.00  0.00     0.029 A 
ATOM     66  N   UNL A   1      42.525  29.431  28.439  1.00  0.00    -0.354 N 
ATOM     67  C   UNL A   1      46.151  28.274  26.382  1.00  0.00     0.074 A 
ATOM     68  C   UNL A   1      47.047  29.398  26.227  1.00  0.00     0.031 C 
ATOM     69  C   UNL A   1      41.118  30.831  29.469  1.00  0.00     0.029 A 
ATOM     70  C   UNL A   1      41.275  29.453  29.011  1.00  0.00     0.049 A 
ATOM     71  H   UNL A   1      42.924  28.619  28.050  1.00  0.00     0.167 HD
ATOM     72  C   UNL A   1      46.416  27.024  25.935  1.00  0.00     0.031 A 
ATOM     73  C   UNL A   1      40.355  28.477  29.138  1.00  0.00     0.031 A 
ATOM     74  C   UNL A   1      45.536  25.902  26.114  1.00  0.00     0.049 A 
ATOM     75  C   UNL A   1      40.671  27.102  28.608  1.00  0.00     0.074 A 
ATOM     76  C   UNL A   1      45.743  24.582  25.756  1.00  0.00     0.029 A 
ATOM     77  N   UNL A   1      44.280  25.970  26.696  1.00  0.00    -0.354 N 
ATOM     78  N   UNL A   1      41.767  26.669  28.033  1.00  0.00    -0.248 NA
ATOM     79  C   UNL A   1      39.624  26.080  28.753  1.00  0.00     0.031 C 
ATOM     80  C   UNL A   1      44.586  23.862  26.062  1.00  0.00     0.029 A 
ATOM     81  C   UNL A   1      43.689  24.719  26.678  1.00  0.00     0.049 A 
ATOM     82  H   UNL A   1      43.872  26.785  27.067  1.00  0.00     0.167 HD
ATOM     83  C   UNL A   1      41.557  25.318  27.788  1.00  0.00     0.074 A 
ATOM     84  C   UNL A   1      40.236  24.999  28.289  1.00  0.00     0.031 C 
ATOM     85  C   UNL A   1      42.383  24.417  27.201  1.00  0.00     0.031 A 
BRANCH  72  86
ATOM     86  C   UNL A   1      47.707  26.794  25.198  1.00  0.00    -0.014 A 
ATOM     87  C   UNL A   1      47.856  27.156  23.851  1.00  0.00     0.009 A 
ATOM     88  C   UNL A   1      48.816  26.279  25.889  1.00  0.00     0.009 A 
ATOM     89  C   UNL A   1      49.082  26.986  23.204  1.00  0.00     0.001 A 
ATOM     90  C   UNL A   1      50.048  26.138  25.249  1.00  0.00     0.001 A 
ATOM     91  C   UNL A   1      50.179  26.486  23.906  1.00  0.00     0.000 A 
ENDBRANCH  72  86
BRANCH  73  92
ATOM     92  C   UNL A   1      39.039  28.748  29.781  1.00  0.00    -0.014 A 
ATOM     93  C   UNL A   1      37.954  29.215  29.024  1.00  0.00     0.009 A 
ATOM     94  C   UNL A   1      38.879  28.598  31.168  1.00  0.00     0.009 A 
ATOM     95  C   UNL A   1      36.755  29.574  29.646  1.00  0.00     0.001 A 
ATOM     96  C   UNL A   1      37.667  28.921  31.783  1.00  0.00     0.001 A 
ATOM     97  C   UNL A   1      36.612  29.424  31.024  1.00  0.00     0.000 A 
ENDBRANCH  73  92
BRANCH  85  98
ATOM     98  C   UNL A   1      41.916  22.991  27.124  1.00  0.00    -0.014 A 
ATOM     99  C   UNL A   1      42.349  22.025  28.044  1.00  0.00     0.009 A 
ATOM    100  C   UNL A   1      40.972  22.629  26.149  1.00  0.00     0.009 A 
ATOM    101  C   UNL A   1      41.869  20.716  27.968  1.00  0.00     0.001 A 
ATOM    102  C   UNL A   1      40.468  21.330  26.098  1.00  0.00     0.001 A 
ATOM    103  C   UNL A   1      40.924  20.372  27.001  1.00  0.00     0.000 A 
ENDBRANCH  85  98
ENDBRANCH  59  60
ENDBRANCH  51  54
ENDBRANCH  49  50
ENDBRANCH  48  49
ENDBRANCH  47  48
ENDBRANCH  46  47
ENDBRANCH  45  46
ENDBRANCH  44  45
ENDBRANCH   3  44
TORSDOF 27
ENDMDL
