MODEL 1
REMARK VINA RESULT:     -10.0      0.000      0.000
REMARK SMILES CC[NH2+][C@@]1(C(=O)NCCCCCCNC(=O)c2ccc(-c3c4nc(c(-c5ccccc5)c5ccc([nH]5)c(-c5ccccc5)c5nc(c(-c6ccccc6)c6ccc3[nH]6)C=C5)C=C4)cc2)CCC[C@@H]1CC[N@@H+](C)C1CCCC1
REMARK SMILES IDX 9 1 8 2 7 3 5 4 6 5 4 7 65 8 68 9 66 10 67 11 3 12 2 15 1 16
REMARK SMILES IDX 69 17 70 18 71 19 72 20 73 22 74 23 77 24 75 25 76 26 10 27
REMARK SMILES IDX 11 28 12 29 13 30 14 31 15 32 16 34 17 35 18 36 64 37 19 38
REMARK SMILES IDX 63 39 20 40 21 41 22 42 57 43 23 44 62 45 56 46 58 47 24 48
REMARK SMILES IDX 61 49 55 50 54 51 25 53 47 54 32 55 46 56 33 57 36 58 45 59
REMARK SMILES IDX 59 60 34 61 35 62 44 64 60 65 37 66 26 67 27 68 31 69 28 70
REMARK SMILES IDX 30 71 29 72 48 73 49 74 53 75 50 76 52 77 51 78 38 79 39 80
REMARK SMILES IDX 43 81 40 82 42 83 41 84
REMARK H PARENT 7 6 3 13 3 14 71 21 14 33 58 52 36 63
REMARK Flexibility Score: inf
ROOT
ATOM      1  C   UNL A   1      30.500  24.637  26.576  1.00  0.00     0.021 C 
ENDROOT
BRANCH   1   2
ATOM      2  C   UNL A   1      31.767  23.824  26.864  1.00  0.00     0.116 C 
BRANCH   2   3
ATOM      3  N   UNL A   1      31.739  22.549  26.180  1.00  0.00    -0.351 N 
ATOM      4  C   UNL A   1      32.603  21.794  25.459  1.00  0.00     0.281 C 
ATOM      5  O   UNL A   1      32.079  20.740  25.063  1.00  0.00    -0.268 OA
ATOM      6  H   UNL A   1      30.859  22.116  26.258  1.00  0.00     0.163 HD
BRANCH   4   7
ATOM      7  C   UNL A   1      34.115  22.147  25.111  1.00  0.00     0.178 C 
ATOM      8  C   UNL A   1      34.890  22.756  26.300  1.00  0.00     0.079 C 
ATOM      9  C   UNL A   1      34.312  23.197  23.964  1.00  0.00     0.066 C 
ATOM     10  C   UNL A   1      35.074  24.241  26.045  1.00  0.00     0.008 C 
ATOM     11  C   UNL A   1      34.480  24.532  24.681  1.00  0.00     0.011 C 
BRANCH   7  12
ATOM     12  N   UNL A   1      34.775  20.877  24.650  1.00  0.00    -0.334 N 
ATOM     13  H   UNL A   1      34.136  20.105  24.839  1.00  0.00     0.347 HD
ATOM     14  H   UNL A   1      34.979  21.010  23.660  1.00  0.00     0.347 HD
BRANCH  12  15
ATOM     15  C   UNL A   1      36.059  20.567  25.286  1.00  0.00     0.257 C 
ATOM     16  C   UNL A   1      37.202  21.117  24.444  1.00  0.00     0.071 C 
ENDBRANCH  12  15
ENDBRANCH   7  12
BRANCH   9  17
ATOM     17  C   UNL A   1      33.362  23.080  22.732  1.00  0.00     0.072 C 
BRANCH  17  18
ATOM     18  C   UNL A   1      32.894  24.329  21.945  1.00  0.00     0.262 C 
BRANCH  18  19
ATOM     19  N   UNL A   1      31.589  25.010  22.178  1.00  0.00    -0.335 N 
ATOM     20  C   UNL A   1      30.779  24.132  23.038  1.00  0.00     0.332 C 
ATOM     21  H   UNL A   1      31.140  25.162  21.274  1.00  0.00     0.348 HD
BRANCH  19  22
ATOM     22  C   UNL A   1      31.711  26.347  22.753  1.00  0.00     0.183 C 
ATOM     23  C   UNL A   1      33.032  27.028  22.382  1.00  0.00     0.065 C 
ATOM     24  C   UNL A   1      30.735  27.473  22.372  1.00  0.00     0.065 C 
ATOM     25  C   UNL A   1      32.896  28.440  22.943  1.00  0.00     0.006 C 
ATOM     26  C   UNL A   1      31.392  28.698  23.018  1.00  0.00     0.006 C 
ENDBRANCH  19  22
ENDBRANCH  18  19
ENDBRANCH  17  18
ENDBRANCH   9  17
ENDBRANCH   4   7
ENDBRANCH   2   3
ENDBRANCH   1   2
BRANCH   1  27
ATOM     27  C   UNL A   1      30.780  26.068  26.112  1.00  0.00     0.002 C 
BRANCH  27  28
ATOM     28  C   UNL A   1      32.167  26.602  26.489  1.00  0.00     0.002 C 
BRANCH  28  29
ATOM     29  C   UNL A   1      32.205  28.059  26.957  1.00  0.00     0.021 C 
BRANCH  29  30
ATOM     30  C   UNL A   1      33.601  28.603  27.255  1.00  0.00     0.116 C 
BRANCH  30  31
ATOM     31  N   UNL A   1      33.575  30.017  27.594  1.00  0.00    -0.352 N 
ATOM     32  C   UNL A   1      34.510  30.778  28.251  1.00  0.00     0.251 C 
ATOM     33  H   UNL A   1      32.765  30.501  27.310  1.00  0.00     0.163 HD
ATOM     34  O   UNL A   1      34.225  31.897  28.660  1.00  0.00    -0.269 OA
BRANCH  32  35
ATOM     35  C   UNL A   1      35.867  30.240  28.463  1.00  0.00     0.039 A 
ATOM     36  C   UNL A   1      36.785  30.265  27.411  1.00  0.00     0.014 A 
ATOM     37  C   UNL A   1      36.219  29.689  29.698  1.00  0.00     0.014 A 
ATOM     38  C   UNL A   1      38.082  29.784  27.614  1.00  0.00     0.010 A 
ATOM     39  C   UNL A   1      37.527  29.273  29.918  1.00  0.00     0.010 A 
ATOM     40  C   UNL A   1      38.466  29.308  28.877  1.00  0.00    -0.014 A 
BRANCH  40  41
ATOM     41  C   UNL A   1      39.838  28.805  29.136  1.00  0.00     0.031 A 
ATOM     42  C   UNL A   1      40.871  29.733  29.712  1.00  0.00     0.074 A 
ATOM     43  C   UNL A   1      40.175  27.553  28.773  1.00  0.00     0.049 A 
ATOM     44  N   UNL A   1      42.153  29.536  29.887  1.00  0.00    -0.248 NA
ATOM     45  C   UNL A   1      40.406  31.070  30.115  1.00  0.00     0.031 C 
ATOM     46  C   UNL A   1      39.271  26.567  28.179  1.00  0.00     0.029 A 
ATOM     47  N   UNL A   1      41.381  26.903  28.837  1.00  0.00    -0.354 N 
ATOM     48  C   UNL A   1      42.649  30.731  30.394  1.00  0.00     0.074 A 
ATOM     49  C   UNL A   1      41.542  31.659  30.457  1.00  0.00     0.031 C 
ATOM     50  C   UNL A   1      39.952  25.435  27.941  1.00  0.00     0.029 A 
ATOM     51  C   UNL A   1      41.346  25.628  28.328  1.00  0.00     0.049 A 
ATOM     52  H   UNL A   1      42.195  27.311  29.213  1.00  0.00     0.167 HD
ATOM     53  C   UNL A   1      43.910  31.023  30.790  1.00  0.00     0.031 A 
ATOM     54  C   UNL A   1      42.331  24.723  28.175  1.00  0.00     0.031 A 
ATOM     55  C   UNL A   1      45.006  30.094  30.744  1.00  0.00     0.049 A 
ATOM     56  C   UNL A   1      43.724  25.071  28.618  1.00  0.00     0.074 A 
ATOM     57  C   UNL A   1      46.312  30.277  31.162  1.00  0.00     0.029 A 
ATOM     58  N   UNL A   1      44.919  28.801  30.252  1.00  0.00    -0.354 N 
ATOM     59  N   UNL A   1      44.169  26.189  29.140  1.00  0.00    -0.248 NA
ATOM     60  C   UNL A   1      44.750  24.030  28.461  1.00  0.00     0.031 C 
ATOM     61  C   UNL A   1      47.026  29.108  30.887  1.00  0.00     0.029 A 
ATOM     62  C   UNL A   1      46.152  28.179  30.344  1.00  0.00     0.049 A 
ATOM     63  H   UNL A   1      44.103  28.387  29.888  1.00  0.00     0.167 HD
ATOM     64  C   UNL A   1      45.515  25.974  29.404  1.00  0.00     0.074 A 
ATOM     65  C   UNL A   1      45.813  24.618  28.992  1.00  0.00     0.031 C 
ATOM     66  C   UNL A   1      46.424  26.824  29.941  1.00  0.00     0.031 A 
BRANCH  53  67
ATOM     67  C   UNL A   1      44.167  32.412  31.304  1.00  0.00    -0.014 A 
ATOM     68  C   UNL A   1      44.104  32.702  32.677  1.00  0.00     0.009 A 
ATOM     69  C   UNL A   1      44.502  33.440  30.410  1.00  0.00     0.009 A 
ATOM     70  C   UNL A   1      44.329  34.000  33.138  1.00  0.00     0.001 A 
ATOM     71  C   UNL A   1      44.757  34.730  30.876  1.00  0.00     0.001 A 
ATOM     72  C   UNL A   1      44.660  35.012  32.238  1.00  0.00     0.000 A 
ENDBRANCH  53  67
BRANCH  54  73
ATOM     73  C   UNL A   1      42.032  23.392  27.585  1.00  0.00    -0.014 A 
ATOM     74  C   UNL A   1      42.297  23.140  26.229  1.00  0.00     0.009 A 
ATOM     75  C   UNL A   1      41.477  22.370  28.369  1.00  0.00     0.009 A 
ATOM     76  C   UNL A   1      41.988  21.899  25.667  1.00  0.00     0.001 A 
ATOM     77  C   UNL A   1      41.195  21.121  27.811  1.00  0.00     0.001 A 
ATOM     78  C   UNL A   1      41.441  20.890  26.458  1.00  0.00     0.000 A 
ENDBRANCH  54  73
BRANCH  66  79
ATOM     79  C   UNL A   1      47.813  26.299  30.160  1.00  0.00    -0.014 A 
ATOM     80  C   UNL A   1      48.216  25.792  31.404  1.00  0.00     0.009 A 
ATOM     81  C   UNL A   1      48.713  26.259  29.083  1.00  0.00     0.009 A 
ATOM     82  C   UNL A   1      49.503  25.278  31.572  1.00  0.00     0.001 A 
ATOM     83  C   UNL A   1      49.990  25.722  29.248  1.00  0.00     0.001 A 
ATOM     84  C   UNL A   1      50.386  25.239  30.493  1.00  0.00     0.000 A 
ENDBRANCH  66  79
ENDBRANCH  40  41
ENDBRANCH  32  35
ENDBRANCH  30  31
ENDBRANCH  29  30
ENDBRANCH  28  29
ENDBRANCH  27  28
ENDBRANCH   1  27
TORSDOF 19
ENDMDL
MODEL 2
REMARK VINA RESULT:      -9.8      2.265      7.789
REMARK SMILES CC[NH2+][C@@]1(C(=O)NCCCCCCNC(=O)c2ccc(-c3c4nc(c(-c5ccccc5)c5ccc([nH]5)c(-c5ccccc5)c5nc(c(-c6ccccc6)c6ccc3[nH]6)C=C5)C=C4)cc2)CCC[C@@H]1CC[N@@H+](C)C1CCCC1
REMARK SMILES IDX 9 1 8 2 7 3 5 4 6 5 4 7 65 8 68 9 66 10 67 11 3 12 2 15 1 16
REMARK SMILES IDX 69 17 70 18 71 19 72 20 73 22 74 23 77 24 75 25 76 26 10 27
REMARK SMILES IDX 11 28 12 29 13 30 14 31 15 32 16 34 17 35 18 36 64 37 19 38
REMARK SMILES IDX 63 39 20 40 21 41 22 42 57 43 23 44 62 45 56 46 58 47 24 48
REMARK SMILES IDX 61 49 55 50 54 51 25 53 47 54 32 55 46 56 33 57 36 58 45 59
REMARK SMILES IDX 59 60 34 61 35 62 44 64 60 65 37 66 26 67 27 68 31 69 28 70
REMARK SMILES IDX 30 71 29 72 48 73 49 74 53 75 50 76 52 77 51 78 38 79 39 80
REMARK SMILES IDX 43 81 40 82 42 83 41 84
REMARK H PARENT 7 6 3 13 3 14 71 21 14 33 58 52 36 63
REMARK Flexibility Score: inf
ROOT
ATOM      1  C   UNL A   1      37.731  22.657  25.656  1.00  0.00     0.021 C 
ENDROOT
BRANCH   1   2
ATOM      2  C   UNL A   1      36.638  23.694  25.934  1.00  0.00     0.116 C 
BRANCH   2   3
ATOM      3  N   UNL A   1      35.821  23.923  24.762  1.00  0.00    -0.351 N 
ATOM      4  C   UNL A   1      34.515  23.797  24.427  1.00  0.00     0.281 C 
ATOM      5  O   UNL A   1      34.303  24.127  23.249  1.00  0.00    -0.268 OA
ATOM      6  H   UNL A   1      36.357  24.258  24.007  1.00  0.00     0.163 HD
BRANCH   4   7
ATOM      7  C   UNL A   1      33.335  23.288  25.367  1.00  0.00     0.178 C 
ATOM      8  C   UNL A   1      33.471  23.764  26.830  1.00  0.00     0.079 C 
ATOM      9  C   UNL A   1      33.203  21.732  25.494  1.00  0.00     0.066 C 
ATOM     10  C   UNL A   1      33.903  22.584  27.681  1.00  0.00     0.008 C 
ATOM     11  C   UNL A   1      33.965  21.377  26.766  1.00  0.00     0.011 C 
BRANCH   7  12
ATOM     12  N   UNL A   1      32.046  23.784  24.772  1.00  0.00    -0.334 N 
ATOM     13  H   UNL A   1      32.133  23.746  23.757  1.00  0.00     0.347 HD
ATOM     14  H   UNL A   1      31.315  23.178  25.146  1.00  0.00     0.347 HD
BRANCH  12  15
ATOM     15  C   UNL A   1      31.664  25.149  25.143  1.00  0.00     0.257 C 
ATOM     16  C   UNL A   1      30.226  25.170  25.642  1.00  0.00     0.071 C 
ENDBRANCH  12  15
ENDBRANCH   7  12
BRANCH   9  17
ATOM     17  C   UNL A   1      33.414  20.899  24.192  1.00  0.00     0.072 C 
BRANCH  17  18
ATOM     18  C   UNL A   1      32.239  20.168  23.496  1.00  0.00     0.262 C 
BRANCH  18  19
ATOM     19  N   UNL A   1      32.199  18.695  23.272  1.00  0.00    -0.335 N 
ATOM     20  C   UNL A   1      32.391  18.461  21.831  1.00  0.00     0.332 C 
ATOM     21  H   UNL A   1      31.294  18.347  23.588  1.00  0.00     0.348 HD
BRANCH  19  22
ATOM     22  C   UNL A   1      33.174  17.948  24.063  1.00  0.00     0.183 C 
ATOM     23  C   UNL A   1      32.513  17.067  25.128  1.00  0.00     0.065 C 
ATOM     24  C   UNL A   1      34.098  16.904  23.414  1.00  0.00     0.065 C 
ATOM     25  C   UNL A   1      33.670  16.273  25.727  1.00  0.00     0.006 C 
ATOM     26  C   UNL A   1      34.740  16.241  24.637  1.00  0.00     0.006 C 
ENDBRANCH  19  22
ENDBRANCH  18  19
ENDBRANCH  17  18
ENDBRANCH   9  17
ENDBRANCH   4   7
ENDBRANCH   2   3
ENDBRANCH   1   2
BRANCH   1  27
ATOM     27  C   UNL A   1      37.393  21.698  24.512  1.00  0.00     0.002 C 
BRANCH  27  28
ATOM     28  C   UNL A   1      37.144  20.249  24.946  1.00  0.00     0.002 C 
BRANCH  28  29
ATOM     29  C   UNL A   1      38.385  19.354  24.992  1.00  0.00     0.021 C 
BRANCH  29  30
ATOM     30  C   UNL A   1      39.366  19.669  26.120  1.00  0.00     0.116 C 
BRANCH  30  31
ATOM     31  N   UNL A   1      40.651  19.018  25.923  1.00  0.00    -0.352 N 
ATOM     32  C   UNL A   1      41.915  19.554  25.931  1.00  0.00     0.251 C 
ATOM     33  H   UNL A   1      40.609  18.047  25.760  1.00  0.00     0.163 HD
ATOM     34  O   UNL A   1      42.869  18.907  25.514  1.00  0.00    -0.269 OA
BRANCH  32  35
ATOM     35  C   UNL A   1      42.123  20.921  26.445  1.00  0.00     0.039 A 
ATOM     36  C   UNL A   1      42.076  21.149  27.822  1.00  0.00     0.014 A 
ATOM     37  C   UNL A   1      42.339  21.979  25.559  1.00  0.00     0.014 A 
ATOM     38  C   UNL A   1      42.300  22.436  28.318  1.00  0.00     0.010 A 
ATOM     39  C   UNL A   1      42.628  23.245  26.056  1.00  0.00     0.010 A 
ATOM     40  C   UNL A   1      42.602  23.486  27.438  1.00  0.00    -0.014 A 
BRANCH  40  41
ATOM     41  C   UNL A   1      42.864  24.862  27.927  1.00  0.00     0.031 A 
ATOM     42  C   UNL A   1      44.254  25.246  28.354  1.00  0.00     0.074 A 
ATOM     43  C   UNL A   1      41.845  25.731  28.070  1.00  0.00     0.049 A 
ATOM     44  N   UNL A   1      44.667  26.343  28.935  1.00  0.00    -0.248 NA
ATOM     45  C   UNL A   1      45.313  24.249  28.126  1.00  0.00     0.031 C 
ATOM     46  C   UNL A   1      40.449  25.468  27.719  1.00  0.00     0.029 A 
ATOM     47  N   UNL A   1      41.829  27.008  28.569  1.00  0.00    -0.354 N 
ATOM     48  C   UNL A   1      46.025  26.157  29.164  1.00  0.00     0.074 A 
ATOM     49  C   UNL A   1      46.356  24.828  28.702  1.00  0.00     0.031 C 
ATOM     50  C   UNL A   1      39.713  26.554  28.004  1.00  0.00     0.029 A 
ATOM     51  C   UNL A   1      40.577  27.571  28.595  1.00  0.00     0.049 A 
ATOM     52  H   UNL A   1      42.637  27.477  28.879  1.00  0.00     0.167 HD
ATOM     53  C   UNL A   1      46.920  27.023  29.695  1.00  0.00     0.031 A 
ATOM     54  C   UNL A   1      40.169  28.768  29.058  1.00  0.00     0.031 A 
ATOM     55  C   UNL A   1      46.592  28.351  30.137  1.00  0.00     0.049 A 
ATOM     56  C   UNL A   1      41.180  29.712  29.647  1.00  0.00     0.074 A 
ATOM     57  C   UNL A   1      47.434  29.323  30.649  1.00  0.00     0.029 A 
ATOM     58  N   UNL A   1      45.318  28.895  30.115  1.00  0.00    -0.354 N 
ATOM     59  N   UNL A   1      42.469  29.540  29.814  1.00  0.00    -0.248 NA
ATOM     60  C   UNL A   1      40.682  31.018  30.101  1.00  0.00     0.031 C 
ATOM     61  C   UNL A   1      46.662  30.442  30.973  1.00  0.00     0.029 A 
ATOM     62  C   UNL A   1      45.348  30.185  30.615  1.00  0.00     0.049 A 
ATOM     63  H   UNL A   1      44.510  28.432  29.792  1.00  0.00     0.167 HD
ATOM     64  C   UNL A   1      42.941  30.726  30.362  1.00  0.00     0.074 A 
ATOM     65  C   UNL A   1      41.802  31.611  30.490  1.00  0.00     0.031 C 
ATOM     66  C   UNL A   1      44.205  31.054  30.723  1.00  0.00     0.031 A 
BRANCH  53  67
ATOM     67  C   UNL A   1      48.341  26.551  29.828  1.00  0.00    -0.014 A 
ATOM     68  C   UNL A   1      48.730  25.708  30.882  1.00  0.00     0.009 A 
ATOM     69  C   UNL A   1      49.298  26.933  28.877  1.00  0.00     0.009 A 
ATOM     70  C   UNL A   1      50.056  25.290  31.002  1.00  0.00     0.001 A 
ATOM     71  C   UNL A   1      50.618  26.489  28.982  1.00  0.00     0.001 A 
ATOM     72  C   UNL A   1      50.998  25.678  30.049  1.00  0.00     0.000 A 
ENDBRANCH  53  67
BRANCH  54  73
ATOM     73  C   UNL A   1      38.735  29.148  28.973  1.00  0.00    -0.014 A 
ATOM     74  C   UNL A   1      38.210  29.687  27.788  1.00  0.00     0.009 A 
ATOM     75  C   UNL A   1      37.884  28.980  30.077  1.00  0.00     0.009 A 
ATOM     76  C   UNL A   1      36.869  30.072  27.719  1.00  0.00     0.001 A 
ATOM     77  C   UNL A   1      36.537  29.340  29.996  1.00  0.00     0.001 A 
ATOM     78  C   UNL A   1      36.033  29.896  28.820  1.00  0.00     0.000 A 
ENDBRANCH  54  73
BRANCH  66  79
ATOM     79  C   UNL A   1      44.435  32.442  31.247  1.00  0.00    -0.014 A 
ATOM     80  C   UNL A   1      44.394  32.722  32.620  1.00  0.00     0.009 A 
ATOM     81  C   UNL A   1      44.756  33.473  30.349  1.00  0.00     0.009 A 
ATOM     82  C   UNL A   1      44.645  34.015  33.083  1.00  0.00     0.001 A 
ATOM     83  C   UNL A   1      45.031  34.758  30.817  1.00  0.00     0.001 A 
ATOM     84  C   UNL A   1      44.968  35.029  32.182  1.00  0.00     0.000 A 
ENDBRANCH  66  79
ENDBRANCH  40  41
ENDBRANCH  32  35
ENDBRANCH  30  31
ENDBRANCH  29  30
ENDBRANCH  28  29
ENDBRANCH  27  28
ENDBRANCH   1  27
TORSDOF 19
ENDMDL
MODEL 3
REMARK VINA RESULT:      -9.8      2.623      7.488
REMARK SMILES CC[NH2+][C@@]1(C(=O)NCCCCCCNC(=O)c2ccc(-c3c4nc(c(-c5ccccc5)c5ccc([nH]5)c(-c5ccccc5)c5nc(c(-c6ccccc6)c6ccc3[nH]6)C=C5)C=C4)cc2)CCC[C@@H]1CC[N@@H+](C)C1CCCC1
REMARK SMILES IDX 9 1 8 2 7 3 5 4 6 5 4 7 65 8 68 9 66 10 67 11 3 12 2 15 1 16
REMARK SMILES IDX 69 17 70 18 71 19 72 20 73 22 74 23 77 24 75 25 76 26 10 27
REMARK SMILES IDX 11 28 12 29 13 30 14 31 15 32 16 34 17 35 18 36 64 37 19 38
REMARK SMILES IDX 63 39 20 40 21 41 22 42 57 43 23 44 62 45 56 46 58 47 24 48
REMARK SMILES IDX 61 49 55 50 54 51 25 53 47 54 32 55 46 56 33 57 36 58 45 59
REMARK SMILES IDX 59 60 34 61 35 62 44 64 60 65 37 66 26 67 27 68 31 69 28 70
REMARK SMILES IDX 30 71 29 72 48 73 49 74 53 75 50 76 52 77 51 78 38 79 39 80
REMARK SMILES IDX 43 81 40 82 42 83 41 84
REMARK H PARENT 7 6 3 13 3 14 71 21 14 33 58 52 36 63
REMARK Flexibility Score: inf
ROOT
ATOM      1  C   UNL A   1      32.969  21.718  24.556  1.00  0.00     0.021 C 
ENDROOT
BRANCH   1   2
ATOM      2  C   UNL A   1      32.131  22.753  23.798  1.00  0.00     0.116 C 
BRANCH   2   3
ATOM      3  N   UNL A   1      32.969  23.756  23.179  1.00  0.00    -0.351 N 
ATOM      4  C   UNL A   1      33.273  25.059  23.389  1.00  0.00     0.281 C 
ATOM      5  O   UNL A   1      34.073  25.493  22.543  1.00  0.00    -0.268 OA
ATOM      6  H   UNL A   1      33.446  23.396  22.396  1.00  0.00     0.163 HD
BRANCH   4   7
ATOM      7  C   UNL A   1      32.710  25.993  24.548  1.00  0.00     0.178 C 
ATOM      8  C   UNL A   1      32.589  25.273  25.909  1.00  0.00     0.079 C 
ATOM      9  C   UNL A   1      31.273  26.570  24.306  1.00  0.00     0.066 C 
ATOM     10  C   UNL A   1      31.120  25.003  26.182  1.00  0.00     0.008 C 
ATOM     11  C   UNL A   1      30.338  25.612  25.035  1.00  0.00     0.011 C 
BRANCH   7  12
ATOM     12  N   UNL A   1      33.636  27.173  24.660  1.00  0.00    -0.334 N 
ATOM     13  H   UNL A   1      34.550  26.829  24.954  1.00  0.00     0.347 HD
ATOM     14  H   UNL A   1      33.638  27.615  23.740  1.00  0.00     0.347 HD
BRANCH  12  15
ATOM     15  C   UNL A   1      33.220  28.214  25.604  1.00  0.00     0.257 C 
ATOM     16  C   UNL A   1      34.369  28.554  26.543  1.00  0.00     0.071 C 
ENDBRANCH  12  15
ENDBRANCH   7  12
BRANCH   9  17
ATOM     17  C   UNL A   1      30.941  27.045  22.858  1.00  0.00     0.072 C 
BRANCH  17  18
ATOM     18  C   UNL A   1      30.644  28.532  22.538  1.00  0.00     0.262 C 
BRANCH  18  19
ATOM     19  N   UNL A   1      29.294  29.043  22.168  1.00  0.00    -0.335 N 
ATOM     20  C   UNL A   1      28.336  28.519  23.156  1.00  0.00     0.332 C 
ATOM     21  H   UNL A   1      29.073  28.714  21.227  1.00  0.00     0.348 HD
BRANCH  19  22
ATOM     22  C   UNL A   1      29.214  30.498  22.075  1.00  0.00     0.183 C 
ATOM     23  C   UNL A   1      28.096  30.965  21.137  1.00  0.00     0.065 C 
ATOM     24  C   UNL A   1      28.883  31.361  23.305  1.00  0.00     0.065 C 
ATOM     25  C   UNL A   1      28.084  32.482  21.297  1.00  0.00     0.006 C 
ATOM     26  C   UNL A   1      28.679  32.744  22.679  1.00  0.00     0.006 C 
ENDBRANCH  19  22
ENDBRANCH  18  19
ENDBRANCH  17  18
ENDBRANCH   9  17
ENDBRANCH   4   7
ENDBRANCH   2   3
ENDBRANCH   1   2
BRANCH   1  27
ATOM     27  C   UNL A   1      34.474  21.991  24.507  1.00  0.00     0.002 C 
BRANCH  27  28
ATOM     28  C   UNL A   1      35.105  22.334  25.861  1.00  0.00     0.002 C 
BRANCH  28  29
ATOM     29  C   UNL A   1      35.872  23.658  25.912  1.00  0.00     0.021 C 
BRANCH  29  30
ATOM     30  C   UNL A   1      37.151  23.695  25.077  1.00  0.00     0.116 C 
BRANCH  30  31
ATOM     31  N   UNL A   1      38.122  22.708  25.522  1.00  0.00    -0.352 N 
ATOM     32  C   UNL A   1      39.296  22.882  26.209  1.00  0.00     0.251 C 
ATOM     33  H   UNL A   1      37.903  21.774  25.295  1.00  0.00     0.163 HD
ATOM     34  O   UNL A   1      40.109  21.969  26.296  1.00  0.00    -0.269 OA
BRANCH  32  35
ATOM     35  C   UNL A   1      39.580  24.182  26.848  1.00  0.00     0.039 A 
ATOM     36  C   UNL A   1      39.121  24.422  28.145  1.00  0.00     0.014 A 
ATOM     37  C   UNL A   1      40.279  25.169  26.149  1.00  0.00     0.014 A 
ATOM     38  C   UNL A   1      39.411  25.639  28.766  1.00  0.00     0.010 A 
ATOM     39  C   UNL A   1      40.625  26.353  26.792  1.00  0.00     0.010 A 
ATOM     40  C   UNL A   1      40.186  26.602  28.101  1.00  0.00    -0.014 A 
BRANCH  40  41
ATOM     41  C   UNL A   1      40.530  27.899  28.734  1.00  0.00     0.031 A 
ATOM     42  C   UNL A   1      41.875  28.075  29.381  1.00  0.00     0.074 A 
ATOM     43  C   UNL A   1      39.608  28.878  28.805  1.00  0.00     0.049 A 
ATOM     44  N   UNL A   1      42.322  29.071  30.103  1.00  0.00    -0.248 NA
ATOM     45  C   UNL A   1      42.834  26.969  29.222  1.00  0.00     0.031 C 
ATOM     46  C   UNL A   1      38.258  28.817  28.242  1.00  0.00     0.029 A 
ATOM     47  N   UNL A   1      39.666  30.112  29.401  1.00  0.00    -0.354 N 
ATOM     48  C   UNL A   1      43.600  28.701  30.503  1.00  0.00     0.074 A 
ATOM     49  C   UNL A   1      43.840  27.373  29.984  1.00  0.00     0.031 C 
ATOM     50  C   UNL A   1      37.619  29.967  28.511  1.00  0.00     0.029 A 
ATOM     51  C   UNL A   1      38.497  30.826  29.298  1.00  0.00     0.049 A 
ATOM     52  H   UNL A   1      40.468  30.454  29.858  1.00  0.00     0.167 HD
ATOM     53  C   UNL A   1      44.500  29.410  31.223  1.00  0.00     0.031 A 
ATOM     54  C   UNL A   1      38.166  32.032  29.797  1.00  0.00     0.031 A 
ATOM     55  C   UNL A   1      44.266  30.737  31.724  1.00  0.00     0.049 A 
ATOM     56  C   UNL A   1      39.181  32.800  30.598  1.00  0.00     0.074 A 
ATOM     57  C   UNL A   1      45.130  31.559  32.426  1.00  0.00     0.029 A 
ATOM     58  N   UNL A   1      43.081  31.438  31.569  1.00  0.00    -0.354 N 
ATOM     59  N   UNL A   1      40.402  32.456  30.928  1.00  0.00    -0.248 NA
ATOM     60  C   UNL A   1      38.776  34.126  31.085  1.00  0.00     0.031 C 
ATOM     61  C   UNL A   1      44.453  32.743  32.731  1.00  0.00     0.029 A 
ATOM     62  C   UNL A   1      43.185  32.678  32.173  1.00  0.00     0.049 A 
ATOM     63  H   UNL A   1      42.282  31.103  31.100  1.00  0.00     0.167 HD
ATOM     64  C   UNL A   1      40.922  33.535  31.632  1.00  0.00     0.074 A 
ATOM     65  C   UNL A   1      39.887  34.547  31.673  1.00  0.00     0.031 C 
ATOM     66  C   UNL A   1      42.147  33.676  32.192  1.00  0.00     0.031 A 
BRANCH  53  67
ATOM     67  C   UNL A   1      45.821  28.754  31.514  1.00  0.00    -0.014 A 
ATOM     68  C   UNL A   1      46.039  28.062  32.716  1.00  0.00     0.009 A 
ATOM     69  C   UNL A   1      46.854  28.807  30.566  1.00  0.00     0.009 A 
ATOM     70  C   UNL A   1      47.276  27.471  32.980  1.00  0.00     0.001 A 
ATOM     71  C   UNL A   1      48.080  28.190  30.818  1.00  0.00     0.001 A 
ATOM     72  C   UNL A   1      48.295  27.532  32.028  1.00  0.00     0.000 A 
ENDBRANCH  53  67
BRANCH  54  73
ATOM     73  C   UNL A   1      36.814  32.595  29.545  1.00  0.00    -0.014 A 
ATOM     74  C   UNL A   1      36.549  33.308  28.365  1.00  0.00     0.009 A 
ATOM     75  C   UNL A   1      35.784  32.428  30.483  1.00  0.00     0.009 A 
ATOM     76  C   UNL A   1      35.286  33.863  28.143  1.00  0.00     0.001 A 
ATOM     77  C   UNL A   1      34.514  32.960  30.245  1.00  0.00     0.001 A 
ATOM     78  C   UNL A   1      34.270  33.686  29.079  1.00  0.00     0.000 A 
ENDBRANCH  54  73
BRANCH  66  79
ATOM     79  C   UNL A   1      42.456  34.987  32.856  1.00  0.00    -0.014 A 
ATOM     80  C   UNL A   1      42.035  35.261  34.165  1.00  0.00     0.009 A 
ATOM     81  C   UNL A   1      43.232  35.938  32.175  1.00  0.00     0.009 A 
ATOM     82  C   UNL A   1      42.364  36.475  34.772  1.00  0.00     0.001 A 
ATOM     83  C   UNL A   1      43.582  37.139  32.793  1.00  0.00     0.001 A 
ATOM     84  C   UNL A   1      43.141  37.409  34.087  1.00  0.00     0.000 A 
ENDBRANCH  66  79
ENDBRANCH  40  41
ENDBRANCH  32  35
ENDBRANCH  30  31
ENDBRANCH  29  30
ENDBRANCH  28  29
ENDBRANCH  27  28
ENDBRANCH   1  27
TORSDOF 19
ENDMDL
