MODEL 1
REMARK VINA RESULT:      -9.7      0.000      0.000
REMARK SMILES COC(=O)C1=C(C)N(c2cccc(OC)c2)C(=O)/C1=C\c1ccc(C(=O)NCCCCCCNC(=O)c2ccc(-c3c4nc(c(-c5ccccc5)c5ccc([nH]5)c(-c5ccccc5)c5nc(c(-c6ccccc6)c6ccc3[nH]6)C=C5)C=C4)cc2)cc1
REMARK SMILES IDX 30 1 29 2 28 3 27 4 25 5 26 6 24 8 21 9 22 10 86 11 23 12
REMARK SMILES IDX 85 13 20 14 5 15 6 16 19 17 7 18 8 19 17 20 18 21 3 22 4 23
REMARK SMILES IDX 2 24 1 25 9 26 10 27 16 28 11 29 13 30 12 31 14 32 15 33
REMARK SMILES IDX 31 34 32 35 33 36 34 37 35 38 36 40 37 41 38 42 84 43 39 44
REMARK SMILES IDX 83 45 40 46 41 47 42 48 77 49 43 50 82 51 76 52 78 53 44 54
REMARK SMILES IDX 81 55 75 56 74 57 45 59 67 60 52 61 66 62 53 63 56 64 65 65
REMARK SMILES IDX 79 66 54 67 55 68 64 70 80 71 57 72 46 73 47 74 51 75 48 76
REMARK SMILES IDX 50 77 49 78 68 79 69 80 73 81 70 82 72 83 71 84 58 85 59 86
REMARK SMILES IDX 63 87 60 88 62 89 61 90
REMARK H PARENT 27 7 34 39 78 58 56 69
REMARK Flexibility Score: inf
ROOT
ATOM      1  C   UNL A   1      35.937  30.488  29.588  1.00  0.00     0.002 C 
ENDROOT
BRANCH   1   2
ATOM      2  C   UNL A   1      36.999  29.383  29.500  1.00  0.00     0.021 C 
BRANCH   2   3
ATOM      3  C   UNL A   1      37.600  29.247  28.099  1.00  0.00     0.116 C 
BRANCH   3   4
ATOM      4  N   UNL A   1      38.949  29.778  28.094  1.00  0.00    -0.352 N 
ATOM      5  C   UNL A   1      40.180  29.177  28.049  1.00  0.00     0.251 C 
ATOM      6  O   UNL A   1      41.172  29.906  28.084  1.00  0.00    -0.269 OA
ATOM      7  H   UNL A   1      38.988  30.761  28.130  1.00  0.00     0.163 HD
BRANCH   5   8
ATOM      8  C   UNL A   1      40.365  27.708  27.892  1.00  0.00     0.039 A 
ATOM      9  C   UNL A   1      40.640  24.962  27.348  1.00  0.00    -0.025 A 
ATOM     10  C   UNL A   1      41.129  25.904  26.442  1.00  0.00     0.009 A 
ATOM     11  C   UNL A   1      40.079  25.394  28.553  1.00  0.00     0.009 A 
ATOM     12  C   UNL A   1      40.987  27.269  26.712  1.00  0.00     0.014 A 
ATOM     13  C   UNL A   1      39.975  26.758  28.838  1.00  0.00     0.014 A 
BRANCH   9  14
ATOM     14  C   UNL A   1      40.704  23.529  27.071  1.00  0.00     0.023 C 
ATOM     15  C   UNL A   1      39.695  21.362  26.329  1.00  0.00     0.092 C 
ATOM     16  C   UNL A   1      38.528  21.020  25.741  1.00  0.00     0.039 C 
ATOM     17  C   UNL A   1      39.695  22.791  26.581  1.00  0.00     0.057 C 
ATOM     18  C   UNL A   1      38.186  19.653  25.242  1.00  0.00     0.066 C 
ATOM     19  N   UNL A   1      37.730  22.154  25.565  1.00  0.00    -0.280 N 
ATOM     20  C   UNL A   1      38.362  23.300  26.112  1.00  0.00     0.263 C 
ATOM     21  O   UNL A   1      37.953  24.442  26.193  1.00  0.00    -0.268 OA
BRANCH  15  22
ATOM     22  C   UNL A   1      40.824  20.471  26.641  1.00  0.00     0.340 C 
ATOM     23  O   UNL A   1      40.963  19.901  27.713  1.00  0.00    -0.246 OA
BRANCH  22  24
ATOM     24  O   UNL A   1      41.697  20.442  25.604  1.00  0.00    -0.465 OA
ATOM     25  C   UNL A   1      43.007  20.906  25.930  1.00  0.00     0.282 C 
ENDBRANCH  22  24
ENDBRANCH  15  22
BRANCH  19  26
ATOM     26  C   UNL A   1      36.528  22.280  24.813  1.00  0.00     0.053 A 
ATOM     27  C   UNL A   1      36.505  22.795  23.513  1.00  0.00     0.027 A 
ATOM     28  C   UNL A   1      35.311  21.953  25.432  1.00  0.00     0.073 A 
ATOM     29  C   UNL A   1      35.287  23.031  22.871  1.00  0.00     0.006 A 
ATOM     30  C   UNL A   1      34.091  22.214  24.810  1.00  0.00     0.120 A 
ATOM     31  C   UNL A   1      34.086  22.756  23.525  1.00  0.00     0.046 A 
BRANCH  30  32
ATOM     32  O   UNL A   1      32.856  22.009  25.363  1.00  0.00    -0.497 OA
ATOM     33  C   UNL A   1      32.622  22.605  26.636  1.00  0.00     0.278 C 
ENDBRANCH  30  32
ENDBRANCH  19  26
ENDBRANCH   9  14
ENDBRANCH   5   8
ENDBRANCH   3   4
ENDBRANCH   2   3
ENDBRANCH   1   2
BRANCH   1  34
ATOM     34  C   UNL A   1      35.574  31.130  28.243  1.00  0.00     0.002 C 
BRANCH  34  35
ATOM     35  C   UNL A   1      34.339  32.034  28.279  1.00  0.00     0.021 C 
BRANCH  35  36
ATOM     36  C   UNL A   1      34.663  33.524  28.306  1.00  0.00     0.116 C 
BRANCH  36  37
ATOM     37  N   UNL A   1      33.852  34.228  29.288  1.00  0.00    -0.352 N 
ATOM     38  C   UNL A   1      33.945  34.223  30.657  1.00  0.00     0.251 C 
ATOM     39  H   UNL A   1      33.134  34.789  28.917  1.00  0.00     0.163 HD
ATOM     40  O   UNL A   1      33.029  34.664  31.343  1.00  0.00    -0.269 OA
BRANCH  38  41
ATOM     41  C   UNL A   1      35.152  33.669  31.305  1.00  0.00     0.039 A 
ATOM     42  C   UNL A   1      36.391  34.257  31.043  1.00  0.00     0.014 A 
ATOM     43  C   UNL A   1      35.059  32.571  32.165  1.00  0.00     0.014 A 
ATOM     44  C   UNL A   1      37.529  33.784  31.698  1.00  0.00     0.010 A 
ATOM     45  C   UNL A   1      36.180  32.150  32.873  1.00  0.00     0.010 A 
ATOM     46  C   UNL A   1      37.426  32.755  32.649  1.00  0.00    -0.014 A 
BRANCH  46  47
ATOM     47  C   UNL A   1      38.605  32.326  33.442  1.00  0.00     0.031 A 
ATOM     48  C   UNL A   1      38.824  32.853  34.833  1.00  0.00     0.074 A 
ATOM     49  C   UNL A   1      39.515  31.509  32.876  1.00  0.00     0.049 A 
ATOM     50  N   UNL A   1      39.821  32.626  35.651  1.00  0.00    -0.248 NA
ATOM     51  C   UNL A   1      37.806  33.770  35.368  1.00  0.00     0.031 C 
ATOM     52  C   UNL A   1      39.439  30.967  31.517  1.00  0.00     0.029 A 
ATOM     53  N   UNL A   1      40.691  30.999  33.370  1.00  0.00    -0.354 N 
ATOM     54  C   UNL A   1      39.559  33.382  36.786  1.00  0.00     0.074 A 
ATOM     55  C   UNL A   1      38.332  34.108  36.536  1.00  0.00     0.031 C 
ATOM     56  C   UNL A   1      40.506  30.181  31.296  1.00  0.00     0.029 A 
ATOM     57  C   UNL A   1      41.365  30.204  32.475  1.00  0.00     0.049 A 
ATOM     58  H   UNL A   1      41.018  31.184  34.279  1.00  0.00     0.167 HD
ATOM     59  C   UNL A   1      40.268  33.454  37.937  1.00  0.00     0.031 A 
ATOM     60  C   UNL A   1      42.550  29.575  32.582  1.00  0.00     0.031 A 
ATOM     61  C   UNL A   1      41.484  32.726  38.184  1.00  0.00     0.049 A 
ATOM     62  C   UNL A   1      43.326  29.691  33.865  1.00  0.00     0.074 A 
ATOM     63  C   UNL A   1      42.237  32.679  39.344  1.00  0.00     0.029 A 
ATOM     64  N   UNL A   1      42.133  31.928  37.254  1.00  0.00    -0.354 N 
ATOM     65  N   UNL A   1      43.017  30.339  34.962  1.00  0.00    -0.248 NA
ATOM     66  C   UNL A   1      44.612  28.980  33.927  1.00  0.00     0.031 C 
ATOM     67  C   UNL A   1      43.378  31.912  39.094  1.00  0.00     0.029 A 
ATOM     68  C   UNL A   1      43.299  31.420  37.801  1.00  0.00     0.049 A 
ATOM     69  H   UNL A   1      41.811  31.751  36.341  1.00  0.00     0.167 HD
ATOM     70  C   UNL A   1      44.056  30.094  35.851  1.00  0.00     0.074 A 
ATOM     71  C   UNL A   1      44.990  29.219  35.174  1.00  0.00     0.031 C 
ATOM     72  C   UNL A   1      44.223  30.556  37.115  1.00  0.00     0.031 A 
BRANCH  59  73
ATOM     73  C   UNL A   1      39.758  34.365  39.020  1.00  0.00    -0.014 A 
ATOM     74  C   UNL A   1      40.088  35.729  39.045  1.00  0.00     0.009 A 
ATOM     75  C   UNL A   1      38.878  33.863  39.992  1.00  0.00     0.009 A 
ATOM     76  C   UNL A   1      39.570  36.564  40.039  1.00  0.00     0.001 A 
ATOM     77  C   UNL A   1      38.338  34.706  40.965  1.00  0.00     0.001 A 
ATOM     78  C   UNL A   1      38.691  36.053  40.992  1.00  0.00     0.000 A 
ENDBRANCH  59  73
BRANCH  60  79
ATOM     79  C   UNL A   1      43.088  28.790  31.438  1.00  0.00    -0.014 A 
ATOM     80  C   UNL A   1      42.881  27.404  31.357  1.00  0.00     0.009 A 
ATOM     81  C   UNL A   1      43.831  29.423  30.429  1.00  0.00     0.009 A 
ATOM     82  C   UNL A   1      43.438  26.666  30.310  1.00  0.00     0.001 A 
ATOM     83  C   UNL A   1      44.356  28.688  29.365  1.00  0.00     0.001 A 
ATOM     84  C   UNL A   1      44.171  27.309  29.313  1.00  0.00     0.000 A 
ENDBRANCH  60  79
BRANCH  72  85
ATOM     85  C   UNL A   1      45.448  30.100  37.858  1.00  0.00    -0.014 A 
ATOM     86  C   UNL A   1      46.671  30.777  37.736  1.00  0.00     0.009 A 
ATOM     87  C   UNL A   1      45.365  28.999  38.726  1.00  0.00     0.009 A 
ATOM     88  C   UNL A   1      47.794  30.339  38.440  1.00  0.00     0.001 A 
ATOM     89  C   UNL A   1      46.480  28.585  39.455  1.00  0.00     0.001 A 
ATOM     90  C   UNL A   1      47.696  29.248  39.302  1.00  0.00     0.000 A 
ENDBRANCH  72  85
ENDBRANCH  46  47
ENDBRANCH  38  41
ENDBRANCH  36  37
ENDBRANCH  35  36
ENDBRANCH  34  35
ENDBRANCH   1  34
TORSDOF 18
ENDMDL
MODEL 2
REMARK VINA RESULT:      -9.5      1.779      4.535
REMARK SMILES COC(=O)C1=C(C)N(c2cccc(OC)c2)C(=O)/C1=C\c1ccc(C(=O)NCCCCCCNC(=O)c2ccc(-c3c4nc(c(-c5ccccc5)c5ccc([nH]5)c(-c5ccccc5)c5nc(c(-c6ccccc6)c6ccc3[nH]6)C=C5)C=C4)cc2)cc1
REMARK SMILES IDX 30 1 29 2 28 3 27 4 25 5 26 6 24 8 21 9 22 10 86 11 23 12
REMARK SMILES IDX 85 13 20 14 5 15 6 16 19 17 7 18 8 19 17 20 18 21 3 22 4 23
REMARK SMILES IDX 2 24 1 25 9 26 10 27 16 28 11 29 13 30 12 31 14 32 15 33
REMARK SMILES IDX 31 34 32 35 33 36 34 37 35 38 36 40 37 41 38 42 84 43 39 44
REMARK SMILES IDX 83 45 40 46 41 47 42 48 77 49 43 50 82 51 76 52 78 53 44 54
REMARK SMILES IDX 81 55 75 56 74 57 45 59 67 60 52 61 66 62 53 63 56 64 65 65
REMARK SMILES IDX 79 66 54 67 55 68 64 70 80 71 57 72 46 73 47 74 51 75 48 76
REMARK SMILES IDX 50 77 49 78 68 79 69 80 73 81 70 82 72 83 71 84 58 85 59 86
REMARK SMILES IDX 63 87 60 88 62 89 61 90
REMARK H PARENT 27 7 34 39 78 58 56 69
REMARK Flexibility Score: inf
ROOT
ATOM      1  C   UNL A   1      33.774  27.830  25.545  1.00  0.00     0.002 C 
ENDROOT
BRANCH   1   2
ATOM      2  C   UNL A   1      33.685  26.323  25.270  1.00  0.00     0.021 C 
BRANCH   2   3
ATOM      3  C   UNL A   1      33.701  25.989  23.776  1.00  0.00     0.116 C 
BRANCH   3   4
ATOM      4  N   UNL A   1      32.898  24.807  23.533  1.00  0.00    -0.352 N 
ATOM      5  C   UNL A   1      33.180  23.467  23.601  1.00  0.00     0.251 C 
ATOM      6  O   UNL A   1      32.280  22.680  23.307  1.00  0.00    -0.269 OA
ATOM      7  H   UNL A   1      31.971  25.004  23.267  1.00  0.00     0.163 HD
BRANCH   5   8
ATOM      8  C   UNL A   1      34.486  22.932  24.074  1.00  0.00     0.039 A 
ATOM      9  C   UNL A   1      36.909  22.044  25.194  1.00  0.00    -0.025 A 
ATOM     10  C   UNL A   1      35.734  21.993  25.946  1.00  0.00     0.009 A 
ATOM     11  C   UNL A   1      36.856  22.472  23.865  1.00  0.00     0.009 A 
ATOM     12  C   UNL A   1      34.531  22.439  25.388  1.00  0.00     0.014 A 
ATOM     13  C   UNL A   1      35.646  22.879  23.299  1.00  0.00     0.014 A 
BRANCH   9  14
ATOM     14  C   UNL A   1      38.198  21.654  25.761  1.00  0.00     0.023 C 
ATOM     15  C   UNL A   1      40.398  22.168  26.837  1.00  0.00     0.092 C 
ATOM     16  C   UNL A   1      40.945  23.278  27.377  1.00  0.00     0.039 C 
ATOM     17  C   UNL A   1      39.091  22.498  26.301  1.00  0.00     0.057 C 
ATOM     18  C   UNL A   1      42.246  23.325  28.112  1.00  0.00     0.066 C 
ATOM     19  N   UNL A   1      40.065  24.357  27.248  1.00  0.00    -0.280 N 
ATOM     20  C   UNL A   1      38.901  23.969  26.537  1.00  0.00     0.263 C 
ATOM     21  O   UNL A   1      37.949  24.641  26.190  1.00  0.00    -0.268 OA
BRANCH  15  22
ATOM     22  C   UNL A   1      40.980  20.815  26.813  1.00  0.00     0.340 C 
ATOM     23  O   UNL A   1      40.771  19.972  27.672  1.00  0.00    -0.246 OA
BRANCH  22  24
ATOM     24  O   UNL A   1      41.817  20.685  25.756  1.00  0.00    -0.465 OA
ATOM     25  C   UNL A   1      42.706  19.572  25.847  1.00  0.00     0.282 C 
ENDBRANCH  22  24
ENDBRANCH  15  22
BRANCH  19  26
ATOM     26  C   UNL A   1      40.151  25.643  27.850  1.00  0.00     0.053 A 
ATOM     27  C   UNL A   1      39.464  25.973  29.022  1.00  0.00     0.027 A 
ATOM     28  C   UNL A   1      40.888  26.643  27.194  1.00  0.00     0.073 A 
ATOM     29  C   UNL A   1      39.467  27.288  29.494  1.00  0.00     0.006 A 
ATOM     30  C   UNL A   1      40.870  27.964  27.642  1.00  0.00     0.120 A 
ATOM     31  C   UNL A   1      40.155  28.280  28.796  1.00  0.00     0.046 A 
BRANCH  30  32
ATOM     32  O   UNL A   1      41.486  29.020  27.027  1.00  0.00    -0.497 OA
ATOM     33  C   UNL A   1      42.179  28.735  25.815  1.00  0.00     0.278 C 
ENDBRANCH  30  32
ENDBRANCH  19  26
ENDBRANCH   9  14
ENDBRANCH   5   8
ENDBRANCH   3   4
ENDBRANCH   2   3
ENDBRANCH   1   2
BRANCH   1  34
ATOM     34  C   UNL A   1      34.230  28.192  26.964  1.00  0.00     0.002 C 
BRANCH  34  35
ATOM     35  C   UNL A   1      35.069  29.468  27.060  1.00  0.00     0.021 C 
BRANCH  35  36
ATOM     36  C   UNL A   1      35.431  29.866  28.488  1.00  0.00     0.116 C 
BRANCH  36  37
ATOM     37  N   UNL A   1      34.862  31.158  28.841  1.00  0.00    -0.352 N 
ATOM     38  C   UNL A   1      35.080  31.929  29.955  1.00  0.00     0.251 C 
ATOM     39  H   UNL A   1      34.230  31.533  28.187  1.00  0.00     0.163 HD
ATOM     40  O   UNL A   1      34.333  32.864  30.218  1.00  0.00    -0.269 OA
BRANCH  38  41
ATOM     41  C   UNL A   1      36.218  31.619  30.847  1.00  0.00     0.039 A 
ATOM     42  C   UNL A   1      37.449  32.234  30.611  1.00  0.00     0.014 A 
ATOM     43  C   UNL A   1      36.067  30.722  31.908  1.00  0.00     0.014 A 
ATOM     44  C   UNL A   1      38.513  31.999  31.483  1.00  0.00     0.010 A 
ATOM     45  C   UNL A   1      37.105  30.547  32.818  1.00  0.00     0.010 A 
ATOM     46  C   UNL A   1      38.337  31.188  32.617  1.00  0.00    -0.014 A 
BRANCH  46  47
ATOM     47  C   UNL A   1      39.421  31.027  33.618  1.00  0.00     0.031 A 
ATOM     48  C   UNL A   1      39.520  31.959  34.794  1.00  0.00     0.074 A 
ATOM     49  C   UNL A   1      40.357  30.077  33.426  1.00  0.00     0.049 A 
ATOM     50  N   UNL A   1      40.426  31.999  35.738  1.00  0.00    -0.248 NA
ATOM     51  C   UNL A   1      38.482  32.995  34.914  1.00  0.00     0.031 C 
ATOM     52  C   UNL A   1      40.397  29.141  32.300  1.00  0.00     0.029 A 
ATOM     53  N   UNL A   1      41.464  29.748  34.170  1.00  0.00    -0.354 N 
ATOM     54  C   UNL A   1      40.078  33.069  36.552  1.00  0.00     0.074 A 
ATOM     55  C   UNL A   1      38.902  33.679  35.968  1.00  0.00     0.031 C 
ATOM     56  C   UNL A   1      41.456  28.328  32.441  1.00  0.00     0.029 A 
ATOM     57  C   UNL A   1      42.198  28.716  33.636  1.00  0.00     0.049 A 
ATOM     58  H   UNL A   1      41.708  30.206  35.005  1.00  0.00     0.167 HD
ATOM     59  C   UNL A   1      40.674  33.495  37.691  1.00  0.00     0.031 A 
ATOM     60  C   UNL A   1      43.348  28.154  34.050  1.00  0.00     0.031 A 
ATOM     61  C   UNL A   1      41.839  32.882  38.271  1.00  0.00     0.049 A 
ATOM     62  C   UNL A   1      44.000  28.663  35.306  1.00  0.00     0.074 A 
ATOM     63  C   UNL A   1      42.475  33.198  39.459  1.00  0.00     0.029 A 
ATOM     64  N   UNL A   1      42.551  31.837  37.702  1.00  0.00    -0.354 N 
ATOM     65  N   UNL A   1      43.605  29.618  36.114  1.00  0.00    -0.248 NA
ATOM     66  C   UNL A   1      45.252  28.009  35.714  1.00  0.00     0.031 C 
ATOM     67  C   UNL A   1      43.612  32.394  39.574  1.00  0.00     0.029 A 
ATOM     68  C   UNL A   1      43.644  31.526  38.495  1.00  0.00     0.049 A 
ATOM     69  H   UNL A   1      42.314  31.385  36.861  1.00  0.00     0.167 HD
ATOM     70  C   UNL A   1      44.546  29.662  37.135  1.00  0.00     0.074 A 
ATOM     71  C   UNL A   1      45.516  28.623  36.858  1.00  0.00     0.031 C 
ATOM     72  C   UNL A   1      44.604  30.493  38.205  1.00  0.00     0.031 A 
BRANCH  59  73
ATOM     73  C   UNL A   1      40.088  34.696  38.382  1.00  0.00    -0.014 A 
ATOM     74  C   UNL A   1      39.175  34.558  39.439  1.00  0.00     0.009 A 
ATOM     75  C   UNL A   1      40.509  35.983  38.013  1.00  0.00     0.009 A 
ATOM     76  C   UNL A   1      38.674  35.688  40.092  1.00  0.00     0.001 A 
ATOM     77  C   UNL A   1      40.030  37.108  38.687  1.00  0.00     0.001 A 
ATOM     78  C   UNL A   1      39.108  36.960  39.721  1.00  0.00     0.000 A 
ENDBRANCH  59  73
BRANCH  60  79
ATOM     79  C   UNL A   1      43.971  27.055  33.265  1.00  0.00    -0.014 A 
ATOM     80  C   UNL A   1      43.732  25.711  33.593  1.00  0.00     0.009 A 
ATOM     81  C   UNL A   1      44.827  27.345  32.191  1.00  0.00     0.009 A 
ATOM     82  C   UNL A   1      44.365  24.686  32.887  1.00  0.00     0.001 A 
ATOM     83  C   UNL A   1      45.430  26.318  31.463  1.00  0.00     0.001 A 
ATOM     84  C   UNL A   1      45.210  24.990  31.820  1.00  0.00     0.000 A 
ENDBRANCH  60  79
BRANCH  72  85
ATOM     85  C   UNL A   1      45.737  30.293  39.172  1.00  0.00    -0.014 A 
ATOM     86  C   UNL A   1      45.629  29.401  40.250  1.00  0.00     0.009 A 
ATOM     87  C   UNL A   1      46.947  30.978  38.976  1.00  0.00     0.009 A 
ATOM     88  C   UNL A   1      46.697  29.227  41.133  1.00  0.00     0.001 A 
ATOM     89  C   UNL A   1      48.025  30.776  39.839  1.00  0.00     0.001 A 
ATOM     90  C   UNL A   1      47.894  29.910  40.923  1.00  0.00     0.000 A 
ENDBRANCH  72  85
ENDBRANCH  46  47
ENDBRANCH  38  41
ENDBRANCH  36  37
ENDBRANCH  35  36
ENDBRANCH  34  35
ENDBRANCH   1  34
TORSDOF 18
ENDMDL
MODEL 3
REMARK VINA RESULT:      -9.5      6.885     11.748
REMARK SMILES COC(=O)C1=C(C)N(c2cccc(OC)c2)C(=O)/C1=C\c1ccc(C(=O)NCCCCCCNC(=O)c2ccc(-c3c4nc(c(-c5ccccc5)c5ccc([nH]5)c(-c5ccccc5)c5nc(c(-c6ccccc6)c6ccc3[nH]6)C=C5)C=C4)cc2)cc1
REMARK SMILES IDX 30 1 29 2 28 3 27 4 25 5 26 6 24 8 21 9 22 10 86 11 23 12
REMARK SMILES IDX 85 13 20 14 5 15 6 16 19 17 7 18 8 19 17 20 18 21 3 22 4 23
REMARK SMILES IDX 2 24 1 25 9 26 10 27 16 28 11 29 13 30 12 31 14 32 15 33
REMARK SMILES IDX 31 34 32 35 33 36 34 37 35 38 36 40 37 41 38 42 84 43 39 44
REMARK SMILES IDX 83 45 40 46 41 47 42 48 77 49 43 50 82 51 76 52 78 53 44 54
REMARK SMILES IDX 81 55 75 56 74 57 45 59 67 60 52 61 66 62 53 63 56 64 65 65
REMARK SMILES IDX 79 66 54 67 55 68 64 70 80 71 57 72 46 73 47 74 51 75 48 76
REMARK SMILES IDX 50 77 49 78 68 79 69 80 73 81 70 82 72 83 71 84 58 85 59 86
REMARK SMILES IDX 63 87 60 88 62 89 61 90
REMARK H PARENT 27 7 34 39 78 58 56 69
REMARK Flexibility Score: inf
ROOT
ATOM      1  C   UNL A   1      36.630  23.350  25.583  1.00  0.00     0.002 C 
ENDROOT
BRANCH   1   2
ATOM      2  C   UNL A   1      35.694  22.211  26.010  1.00  0.00     0.021 C 
BRANCH   2   3
ATOM      3  C   UNL A   1      35.674  21.051  25.011  1.00  0.00     0.116 C 
BRANCH   3   4
ATOM      4  N   UNL A   1      34.456  20.285  25.179  1.00  0.00    -0.352 N 
ATOM      5  C   UNL A   1      33.130  20.628  25.117  1.00  0.00     0.251 C 
ATOM      6  O   UNL A   1      32.301  19.744  25.333  1.00  0.00    -0.269 OA
ATOM      7  H   UNL A   1      34.610  19.332  25.377  1.00  0.00     0.163 HD
BRANCH   5   8
ATOM      8  C   UNL A   1      32.657  21.987  24.736  1.00  0.00     0.039 A 
ATOM      9  C   UNL A   1      31.521  24.468  24.049  1.00  0.00    -0.025 A 
ATOM     10  C   UNL A   1      31.038  23.761  25.152  1.00  0.00     0.009 A 
ATOM     11  C   UNL A   1      32.614  23.966  23.337  1.00  0.00     0.009 A 
ATOM     12  C   UNL A   1      31.601  22.526  25.488  1.00  0.00     0.014 A 
ATOM     13  C   UNL A   1      33.201  22.751  23.701  1.00  0.00     0.014 A 
BRANCH   9  14
ATOM     14  C   UNL A   1      30.915  25.726  23.621  1.00  0.00     0.023 C 
ATOM     15  C   UNL A   1      30.472  28.177  23.870  1.00  0.00     0.092 C 
ATOM     16  C   UNL A   1      30.974  29.148  24.664  1.00  0.00     0.039 C 
ATOM     17  C   UNL A   1      31.084  26.911  24.230  1.00  0.00     0.057 C 
ATOM     18  C   UNL A   1      30.662  30.604  24.542  1.00  0.00     0.066 C 
ATOM     19  N   UNL A   1      31.914  28.607  25.547  1.00  0.00    -0.280 N 
ATOM     20  C   UNL A   1      32.005  27.202  25.380  1.00  0.00     0.263 C 
ATOM     21  O   UNL A   1      32.669  26.392  25.999  1.00  0.00    -0.268 OA
BRANCH  15  22
ATOM     22  C   UNL A   1      29.498  28.340  22.779  1.00  0.00     0.340 C 
ATOM     23  O   UNL A   1      29.771  28.827  21.692  1.00  0.00    -0.246 OA
BRANCH  22  24
ATOM     24  O   UNL A   1      28.268  27.942  23.187  1.00  0.00    -0.465 OA
ATOM     25  C   UNL A   1      27.285  28.976  23.173  1.00  0.00     0.282 C 
ENDBRANCH  22  24
ENDBRANCH  15  22
BRANCH  19  26
ATOM     26  C   UNL A   1      32.819  29.294  26.403  1.00  0.00     0.053 A 
ATOM     27  C   UNL A   1      32.507  30.518  27.001  1.00  0.00     0.027 A 
ATOM     28  C   UNL A   1      34.106  28.761  26.586  1.00  0.00     0.073 A 
ATOM     29  C   UNL A   1      33.478  31.221  27.717  1.00  0.00     0.006 A 
ATOM     30  C   UNL A   1      35.090  29.471  27.273  1.00  0.00     0.120 A 
ATOM     31  C   UNL A   1      34.769  30.705  27.837  1.00  0.00     0.046 A 
BRANCH  30  32
ATOM     32  O   UNL A   1      36.390  29.075  27.432  1.00  0.00    -0.497 OA
ATOM     33  C   UNL A   1      37.081  29.599  28.564  1.00  0.00     0.278 C 
ENDBRANCH  30  32
ENDBRANCH  19  26
ENDBRANCH   9  14
ENDBRANCH   5   8
ENDBRANCH   3   4
ENDBRANCH   2   3
ENDBRANCH   1   2
BRANCH   1  34
ATOM     34  C   UNL A   1      38.061  23.233  26.123  1.00  0.00     0.002 C 
BRANCH  34  35
ATOM     35  C   UNL A   1      38.584  24.489  26.824  1.00  0.00     0.021 C 
BRANCH  35  36
ATOM     36  C   UNL A   1      40.047  24.802  26.523  1.00  0.00     0.116 C 
BRANCH  36  37
ATOM     37  N   UNL A   1      40.842  23.587  26.426  1.00  0.00    -0.352 N 
ATOM     38  C   UNL A   1      42.183  23.443  26.174  1.00  0.00     0.251 C 
ATOM     39  H   UNL A   1      40.347  22.748  26.561  1.00  0.00     0.163 HD
ATOM     40  O   UNL A   1      42.644  22.348  25.873  1.00  0.00    -0.269 OA
BRANCH  38  41
ATOM     41  C   UNL A   1      43.072  24.621  26.255  1.00  0.00     0.039 A 
ATOM     42  C   UNL A   1      43.602  24.985  27.495  1.00  0.00     0.014 A 
ATOM     43  C   UNL A   1      43.377  25.364  25.111  1.00  0.00     0.014 A 
ATOM     44  C   UNL A   1      44.493  26.056  27.575  1.00  0.00     0.010 A 
ATOM     45  C   UNL A   1      44.322  26.383  25.179  1.00  0.00     0.010 A 
ATOM     46  C   UNL A   1      44.892  26.736  26.412  1.00  0.00    -0.014 A 
BRANCH  46  47
ATOM     47  C   UNL A   1      45.931  27.796  26.464  1.00  0.00     0.031 A 
ATOM     48  C   UNL A   1      45.541  29.241  26.605  1.00  0.00     0.074 A 
ATOM     49  C   UNL A   1      47.226  27.455  26.316  1.00  0.00     0.049 A 
ATOM     50  N   UNL A   1      46.308  30.302  26.619  1.00  0.00    -0.248 NA
ATOM     51  C   UNL A   1      44.105  29.538  26.723  1.00  0.00     0.031 C 
ATOM     52  C   UNL A   1      47.727  26.091  26.126  1.00  0.00     0.029 A 
ATOM     53  N   UNL A   1      48.359  28.230  26.293  1.00  0.00    -0.354 N 
ATOM     54  C   UNL A   1      45.450  31.388  26.731  1.00  0.00     0.074 A 
ATOM     55  C   UNL A   1      44.102  30.862  26.738  1.00  0.00     0.031 C 
ATOM     56  C   UNL A   1      49.066  26.124  26.031  1.00  0.00     0.029 A 
ATOM     57  C   UNL A   1      49.514  27.511  26.103  1.00  0.00     0.049 A 
ATOM     58  H   UNL A   1      48.345  29.208  26.402  1.00  0.00     0.167 HD
ATOM     59  C   UNL A   1      45.757  32.703  26.833  1.00  0.00     0.031 A 
ATOM     60  C   UNL A   1      50.791  27.920  25.982  1.00  0.00     0.031 A 
ATOM     61  C   UNL A   1      47.100  33.221  26.831  1.00  0.00     0.049 A 
ATOM     62  C   UNL A   1      51.100  29.388  26.078  1.00  0.00     0.074 A 
ATOM     63  C   UNL A   1      47.515  34.531  27.000  1.00  0.00     0.029 A 
ATOM     64  N   UNL A   1      48.243  32.460  26.641  1.00  0.00    -0.354 N 
ATOM     65  N   UNL A   1      50.282  30.394  26.275  1.00  0.00    -0.248 NA
ATOM     66  C   UNL A   1      52.512  29.777  25.943  1.00  0.00     0.031 C 
ATOM     67  C   UNL A   1      48.903  34.573  26.840  1.00  0.00     0.029 A 
ATOM     68  C   UNL A   1      49.360  33.279  26.645  1.00  0.00     0.049 A 
ATOM     69  H   UNL A   1      48.257  31.483  26.520  1.00  0.00     0.167 HD
ATOM     70  C   UNL A   1      51.081  31.530  26.312  1.00  0.00     0.074 A 
ATOM     71  C   UNL A   1      52.449  31.086  26.142  1.00  0.00     0.031 C 
ATOM     72  C   UNL A   1      50.714  32.825  26.469  1.00  0.00     0.031 A 
BRANCH  59  73
ATOM     73  C   UNL A   1      44.622  33.683  26.939  1.00  0.00    -0.014 A 
ATOM     74  C   UNL A   1      44.006  34.217  25.796  1.00  0.00     0.009 A 
ATOM     75  C   UNL A   1      44.117  34.026  28.204  1.00  0.00     0.009 A 
ATOM     76  C   UNL A   1      42.926  35.096  25.920  1.00  0.00     0.001 A 
ATOM     77  C   UNL A   1      43.019  34.880  28.323  1.00  0.00     0.001 A 
ATOM     78  C   UNL A   1      42.430  35.420  27.182  1.00  0.00     0.000 A 
ENDBRANCH  59  73
BRANCH  60  79
ATOM     79  C   UNL A   1      51.875  26.930  25.743  1.00  0.00    -0.014 A 
ATOM     80  C   UNL A   1      52.543  26.321  26.817  1.00  0.00     0.009 A 
ATOM     81  C   UNL A   1      52.263  26.604  24.434  1.00  0.00     0.009 A 
ATOM     82  C   UNL A   1      53.599  25.436  26.584  1.00  0.00     0.001 A 
ATOM     83  C   UNL A   1      53.295  25.692  24.204  1.00  0.00     0.001 A 
ATOM     84  C   UNL A   1      53.971  25.119  25.278  1.00  0.00     0.000 A 
ENDBRANCH  60  79
BRANCH  72  85
ATOM     85  C   UNL A   1      51.811  33.854  26.494  1.00  0.00    -0.014 A 
ATOM     86  C   UNL A   1      52.234  34.500  25.322  1.00  0.00     0.009 A 
ATOM     87  C   UNL A   1      52.402  34.210  27.717  1.00  0.00     0.009 A 
ATOM     88  C   UNL A   1      53.251  35.454  25.370  1.00  0.00     0.001 A 
ATOM     89  C   UNL A   1      53.394  35.190  27.767  1.00  0.00     0.001 A 
ATOM     90  C   UNL A   1      53.826  35.803  26.592  1.00  0.00     0.000 A 
ENDBRANCH  72  85
ENDBRANCH  46  47
ENDBRANCH  38  41
ENDBRANCH  36  37
ENDBRANCH  35  36
ENDBRANCH  34  35
ENDBRANCH   1  34
TORSDOF 18
ENDMDL
