MODEL 1
REMARK VINA RESULT:     -11.3      0.000      0.000
REMARK SMILES O=C(NCCCCCCNC(=O)c1cc(Cl)c2c(c1)[C@H]1C=CC[C@H]1[C@H](c1ccc(S(=O)(=O)N3CCOCC3)cc1)N2)c1ccc(-c2c3nc(c(-c4ccccc4)c4ccc([nH]4)c(-c4ccccc4)c4nc(c(-c5ccccc5)c5ccc2[nH]5)C=C4)C=C3)cc1
REMARK SMILES IDX 7 1 6 2 5 3 4 4 3 5 1 6 2 7 42 9 43 10 89 11 44 12 88 13
REMARK SMILES IDX 45 14 46 15 47 16 82 17 48 18 87 19 81 20 83 21 49 22 86 23
REMARK SMILES IDX 80 24 79 25 50 27 72 28 57 29 71 30 58 31 61 32 70 33 84 34
REMARK SMILES IDX 59 35 60 36 69 38 85 39 62 40 51 41 52 42 56 43 53 44 55 45
REMARK SMILES IDX 54 46 73 47 74 48 78 49 75 50 77 51 76 52 63 53 64 54 68 55
REMARK SMILES IDX 65 56 67 57 66 58 8 59 9 60 10 61 11 62 12 64 13 65 14 66
REMARK SMILES IDX 19 67 15 68 18 69 16 70 17 71 20 72 41 73 21 74 24 75 25 76
REMARK SMILES IDX 22 78 23 79 26 80 27 81 40 82 28 83 39 84 29 85 30 86 31 87
REMARK SMILES IDX 32 88 33 89 34 90 38 91 35 92 37 93 36 94
REMARK H PARENT 3 8 83 26 61 37 10 63 41 77
REMARK Flexibility Score: inf
ROOT
ATOM      1  C   UNL A   1      45.470  23.370  24.341  1.00  0.00     0.002 C 
ENDROOT
BRANCH   1   2
ATOM      2  C   UNL A   1      45.567  24.029  25.720  1.00  0.00     0.002 C 
BRANCH   2   3
ATOM      3  C   UNL A   1      46.436  25.288  25.778  1.00  0.00     0.021 C 
BRANCH   3   4
ATOM      4  C   UNL A   1      45.684  26.566  26.134  1.00  0.00     0.116 C 
BRANCH   4   5
ATOM      5  N   UNL A   1      44.727  26.933  25.103  1.00  0.00    -0.352 N 
ATOM      6  O   UNL A   1      42.716  27.546  24.286  1.00  0.00    -0.269 OA
ATOM      7  C   UNL A   1      43.488  27.502  25.237  1.00  0.00     0.251 C 
ATOM      8  H   UNL A   1      45.009  26.744  24.179  1.00  0.00     0.163 HD
BRANCH   7   9
ATOM      9  C   UNL A   1      43.083  28.070  26.538  1.00  0.00     0.039 A 
ATOM     10  C   UNL A   1      43.371  29.403  26.848  1.00  0.00     0.014 A 
ATOM     11  C   UNL A   1      42.363  27.273  27.433  1.00  0.00     0.014 A 
ATOM     12  C   UNL A   1      43.006  29.916  28.088  1.00  0.00     0.010 A 
ATOM     13  C   UNL A   1      41.954  27.804  28.658  1.00  0.00     0.010 A 
ATOM     14  C   UNL A   1      42.285  29.124  28.998  1.00  0.00    -0.014 A 
BRANCH  14  15
ATOM     15  C   UNL A   1      41.816  29.731  30.263  1.00  0.00     0.031 A 
ATOM     16  C   UNL A   1      42.665  29.717  31.496  1.00  0.00     0.074 A 
ATOM     17  C   UNL A   1      40.612  30.333  30.275  1.00  0.00     0.049 A 
ATOM     18  N   UNL A   1      42.453  30.318  32.638  1.00  0.00    -0.248 NA
ATOM     19  C   UNL A   1      43.905  28.929  31.448  1.00  0.00     0.031 C 
ATOM     20  C   UNL A   1      39.689  30.387  29.140  1.00  0.00     0.029 A 
ATOM     21  N   UNL A   1      39.971  31.035  31.264  1.00  0.00    -0.354 N 
ATOM     22  C   UNL A   1      43.532  29.985  33.446  1.00  0.00     0.074 A 
ATOM     23  C   UNL A   1      44.382  29.104  32.675  1.00  0.00     0.031 C 
ATOM     24  C   UNL A   1      38.621  31.121  29.481  1.00  0.00     0.029 A 
ATOM     25  C   UNL A   1      38.771  31.566  30.863  1.00  0.00     0.049 A 
ATOM     26  H   UNL A   1      40.336  31.146  32.171  1.00  0.00     0.167 HD
ATOM     27  C   UNL A   1      43.790  30.389  34.710  1.00  0.00     0.031 A 
ATOM     28  C   UNL A   1      37.888  32.336  31.528  1.00  0.00     0.031 A 
ATOM     29  C   UNL A   1      42.940  31.264  35.472  1.00  0.00     0.049 A 
ATOM     30  C   UNL A   1      38.184  32.754  32.936  1.00  0.00     0.074 A 
ATOM     31  C   UNL A   1      43.158  31.782  36.737  1.00  0.00     0.029 A 
ATOM     32  N   UNL A   1      41.709  31.737  35.050  1.00  0.00    -0.354 N 
ATOM     33  N   UNL A   1      39.248  32.497  33.657  1.00  0.00    -0.248 NA
ATOM     34  C   UNL A   1      37.170  33.567  33.620  1.00  0.00     0.031 C 
ATOM     35  C   UNL A   1      42.033  32.525  37.102  1.00  0.00     0.029 A 
ATOM     36  C   UNL A   1      41.137  32.510  36.045  1.00  0.00     0.049 A 
ATOM     37  H   UNL A   1      41.301  31.552  34.173  1.00  0.00     0.167 HD
ATOM     38  C   UNL A   1      39.037  33.122  34.878  1.00  0.00     0.074 A 
ATOM     39  C   UNL A   1      37.748  33.778  34.798  1.00  0.00     0.031 C 
ATOM     40  C   UNL A   1      39.848  33.148  35.961  1.00  0.00     0.031 A 
BRANCH  27  41
ATOM     41  C   UNL A   1      45.043  29.889  35.366  1.00  0.00    -0.014 A 
ATOM     42  C   UNL A   1      46.243  30.612  35.275  1.00  0.00     0.009 A 
ATOM     43  C   UNL A   1      45.000  28.732  36.159  1.00  0.00     0.009 A 
ATOM     44  C   UNL A   1      47.381  30.175  35.956  1.00  0.00     0.001 A 
ATOM     45  C   UNL A   1      46.135  28.310  36.854  1.00  0.00     0.001 A 
ATOM     46  C   UNL A   1      47.323  29.029  36.750  1.00  0.00     0.000 A 
ENDBRANCH  27  41
BRANCH  28  47
ATOM     47  C   UNL A   1      36.661  32.775  30.821  1.00  0.00    -0.014 A 
ATOM     48  C   UNL A   1      36.640  33.999  30.135  1.00  0.00     0.009 A 
ATOM     49  C   UNL A   1      35.550  31.922  30.730  1.00  0.00     0.009 A 
ATOM     50  C   UNL A   1      35.533  34.352  29.361  1.00  0.00     0.001 A 
ATOM     51  C   UNL A   1      34.453  32.270  29.943  1.00  0.00     0.001 A 
ATOM     52  C   UNL A   1      34.445  33.484  29.257  1.00  0.00     0.000 A 
ENDBRANCH  28  47
BRANCH  40  53
ATOM     53  C   UNL A   1      39.385  33.903  37.172  1.00  0.00    -0.014 A 
ATOM     54  C   UNL A   1      38.731  33.238  38.219  1.00  0.00     0.009 A 
ATOM     55  C   UNL A   1      39.737  35.253  37.329  1.00  0.00     0.009 A 
ATOM     56  C   UNL A   1      38.442  33.914  39.407  1.00  0.00     0.001 A 
ATOM     57  C   UNL A   1      39.463  35.919  38.523  1.00  0.00     0.001 A 
ATOM     58  C   UNL A   1      38.818  35.248  39.562  1.00  0.00     0.000 A 
ENDBRANCH  40  53
ENDBRANCH  14  15
ENDBRANCH   7   9
ENDBRANCH   4   5
ENDBRANCH   3   4
ENDBRANCH   2   3
ENDBRANCH   1   2
BRANCH   1  59
ATOM     59  C   UNL A   1      44.175  22.597  24.080  1.00  0.00     0.021 C 
BRANCH  59  60
ATOM     60  C   UNL A   1      43.104  22.767  25.153  1.00  0.00     0.116 C 
BRANCH  60  61
ATOM     61  N   UNL A   1      43.013  21.607  26.025  1.00  0.00    -0.352 N 
ATOM     62  C   UNL A   1      41.950  21.196  26.788  1.00  0.00     0.251 C 
ATOM     63  H   UNL A   1      43.819  21.044  26.074  1.00  0.00     0.163 HD
ATOM     64  O   UNL A   1      42.062  20.287  27.601  1.00  0.00    -0.269 OA
BRANCH  62  65
ATOM     65  C   UNL A   1      40.664  21.893  26.630  1.00  0.00     0.041 A 
ATOM     66  C   UNL A   1      40.430  23.091  27.302  1.00  0.00     0.036 A 
ATOM     67  C   UNL A   1      39.681  21.323  25.823  1.00  0.00     0.020 A 
ATOM     68  C   UNL A   1      39.166  23.664  27.238  1.00  0.00     0.065 A 
ATOM     69  C   UNL A   1      38.410  21.914  25.739  1.00  0.00    -0.015 A 
ATOM     70  Cl  UNL A   1      38.881  25.109  28.149  1.00  0.00    -0.082 Cl
ATOM     71  C   UNL A   1      38.129  23.068  26.491  1.00  0.00     0.057 A 
ATOM     72  C   UNL A   1      37.382  21.322  24.811  1.00  0.00     0.049 C 
ATOM     73  N   UNL A   1      36.869  23.646  26.444  1.00  0.00    -0.376 N 
ATOM     74  C   UNL A   1      36.817  19.994  25.244  1.00  0.00    -0.023 C 
ATOM     75  C   UNL A   1      36.100  22.169  24.635  1.00  0.00     0.031 C 
ATOM     76  C   UNL A   1      35.738  22.871  25.962  1.00  0.00     0.114 C 
ATOM     77  H   UNL A   1      36.740  24.577  26.737  1.00  0.00     0.161 HD
ATOM     78  C   UNL A   1      35.530  19.882  24.893  1.00  0.00    -0.030 C 
ATOM     79  C   UNL A   1      35.053  21.123  24.204  1.00  0.00     0.034 C 
BRANCH  76  80
ATOM     80  C   UNL A   1      34.539  23.799  25.828  1.00  0.00    -0.025 A 
ATOM     81  C   UNL A   1      33.286  23.491  26.388  1.00  0.00     0.007 A 
ATOM     82  C   UNL A   1      34.684  25.004  25.126  1.00  0.00     0.007 A 
ATOM     83  C   UNL A   1      32.219  24.389  26.291  1.00  0.00     0.022 A 
ATOM     84  C   UNL A   1      33.616  25.890  25.012  1.00  0.00     0.022 A 
ATOM     85  C   UNL A   1      32.400  25.602  25.626  1.00  0.00     0.082 A 
BRANCH  85  86
ATOM     86  S   UNL A   1      31.094  26.813  25.627  1.00  0.00     0.243 S 
ATOM     87  O   UNL A   1      30.678  26.976  24.251  1.00  0.00    -0.207 OA
ATOM     88  O   UNL A   1      30.164  26.421  26.665  1.00  0.00    -0.207 OA
BRANCH  86  89
ATOM     89  N   UNL A   1      31.843  28.220  26.143  1.00  0.00    -0.193 NA
ATOM     90  C   UNL A   1      32.130  29.352  25.239  1.00  0.00     0.131 C 
ATOM     91  C   UNL A   1      32.423  28.336  27.494  1.00  0.00     0.131 C 
ATOM     92  C   UNL A   1      33.601  29.794  25.317  1.00  0.00     0.177 C 
ATOM     93  C   UNL A   1      33.905  28.700  27.392  1.00  0.00     0.177 C 
ATOM     94  O   UNL A   1      34.078  29.924  26.662  1.00  0.00    -0.379 OA
ENDBRANCH  86  89
ENDBRANCH  85  86
ENDBRANCH  76  80
ENDBRANCH  62  65
ENDBRANCH  60  61
ENDBRANCH  59  60
ENDBRANCH   1  59
TORSDOF 16
ENDMDL
MODEL 2
REMARK VINA RESULT:     -11.1      9.688     14.623
REMARK SMILES O=C(NCCCCCCNC(=O)c1cc(Cl)c2c(c1)[C@H]1C=CC[C@H]1[C@H](c1ccc(S(=O)(=O)N3CCOCC3)cc1)N2)c1ccc(-c2c3nc(c(-c4ccccc4)c4ccc([nH]4)c(-c4ccccc4)c4nc(c(-c5ccccc5)c5ccc2[nH]5)C=C4)C=C3)cc1
REMARK SMILES IDX 7 1 6 2 5 3 4 4 3 5 1 6 2 7 42 9 43 10 89 11 44 12 88 13
REMARK SMILES IDX 45 14 46 15 47 16 82 17 48 18 87 19 81 20 83 21 49 22 86 23
REMARK SMILES IDX 80 24 79 25 50 27 72 28 57 29 71 30 58 31 61 32 70 33 84 34
REMARK SMILES IDX 59 35 60 36 69 38 85 39 62 40 51 41 52 42 56 43 53 44 55 45
REMARK SMILES IDX 54 46 73 47 74 48 78 49 75 50 77 51 76 52 63 53 64 54 68 55
REMARK SMILES IDX 65 56 67 57 66 58 8 59 9 60 10 61 11 62 12 64 13 65 14 66
REMARK SMILES IDX 19 67 15 68 18 69 16 70 17 71 20 72 41 73 21 74 24 75 25 76
REMARK SMILES IDX 22 78 23 79 26 80 27 81 40 82 28 83 39 84 29 85 30 86 31 87
REMARK SMILES IDX 32 88 33 89 34 90 38 91 35 92 37 93 36 94
REMARK H PARENT 3 8 83 26 61 37 10 63 41 77
REMARK Flexibility Score: inf
ROOT
ATOM      1  C   UNL A   1      47.343  38.261  28.106  1.00  0.00     0.002 C 
ENDROOT
BRANCH   1   2
ATOM      2  C   UNL A   1      46.748  38.356  26.698  1.00  0.00     0.002 C 
BRANCH   2   3
ATOM      3  C   UNL A   1      47.293  37.337  25.694  1.00  0.00     0.021 C 
BRANCH   3   4
ATOM      4  C   UNL A   1      47.103  35.878  26.098  1.00  0.00     0.116 C 
BRANCH   4   5
ATOM      5  N   UNL A   1      46.211  35.179  25.188  1.00  0.00    -0.352 N 
ATOM      6  O   UNL A   1      44.529  33.789  24.618  1.00  0.00    -0.269 OA
ATOM      7  C   UNL A   1      45.046  34.512  25.462  1.00  0.00     0.251 C 
ATOM      8  H   UNL A   1      46.483  35.185  24.242  1.00  0.00     0.163 HD
BRANCH   7   9
ATOM      9  C   UNL A   1      44.410  34.668  26.785  1.00  0.00     0.039 A 
ATOM     10  C   UNL A   1      44.546  33.671  27.756  1.00  0.00     0.014 A 
ATOM     11  C   UNL A   1      43.716  35.848  27.070  1.00  0.00     0.014 A 
ATOM     12  C   UNL A   1      43.919  33.821  28.989  1.00  0.00     0.010 A 
ATOM     13  C   UNL A   1      43.128  36.018  28.325  1.00  0.00     0.010 A 
ATOM     14  C   UNL A   1      43.215  35.000  29.286  1.00  0.00    -0.014 A 
BRANCH  14  15
ATOM     15  C   UNL A   1      42.653  35.176  30.644  1.00  0.00     0.031 A 
ATOM     16  C   UNL A   1      41.264  34.726  30.975  1.00  0.00     0.074 A 
ATOM     17  C   UNL A   1      43.433  35.724  31.593  1.00  0.00     0.049 A 
ATOM     18  N   UNL A   1      40.677  34.689  32.144  1.00  0.00    -0.248 NA
ATOM     19  C   UNL A   1      40.424  34.260  29.862  1.00  0.00     0.031 C 
ATOM     20  C   UNL A   1      44.793  36.223  31.377  1.00  0.00     0.029 A 
ATOM     21  N   UNL A   1      43.207  35.931  32.930  1.00  0.00    -0.354 N 
ATOM     22  C   UNL A   1      39.401  34.196  31.910  1.00  0.00     0.074 A 
ATOM     23  C   UNL A   1      39.287  33.975  30.485  1.00  0.00     0.031 C 
ATOM     24  C   UNL A   1      45.297  36.635  32.549  1.00  0.00     0.029 A 
ATOM     25  C   UNL A   1      44.290  36.457  33.590  1.00  0.00     0.049 A 
ATOM     26  H   UNL A   1      42.353  35.722  33.372  1.00  0.00     0.167 HD
ATOM     27  C   UNL A   1      38.421  33.942  32.807  1.00  0.00     0.031 A 
ATOM     28  C   UNL A   1      44.462  36.755  34.892  1.00  0.00     0.031 A 
ATOM     29  C   UNL A   1      38.540  34.164  34.223  1.00  0.00     0.049 A 
ATOM     30  C   UNL A   1      43.355  36.485  35.865  1.00  0.00     0.074 A 
ATOM     31  C   UNL A   1      37.622  33.871  35.216  1.00  0.00     0.029 A 
ATOM     32  N   UNL A   1      39.632  34.747  34.844  1.00  0.00    -0.354 N 
ATOM     33  N   UNL A   1      42.184  35.943  35.640  1.00  0.00    -0.248 NA
ATOM     34  C   UNL A   1      43.589  36.861  37.266  1.00  0.00     0.031 C 
ATOM     35  C   UNL A   1      38.136  34.325  36.432  1.00  0.00     0.029 A 
ATOM     36  C   UNL A   1      39.395  34.857  36.204  1.00  0.00     0.049 A 
ATOM     37  H   UNL A   1      40.454  35.040  34.388  1.00  0.00     0.167 HD
ATOM     38  C   UNL A   1      41.542  35.903  36.869  1.00  0.00     0.074 A 
ATOM     39  C   UNL A   1      42.457  36.469  37.840  1.00  0.00     0.031 C 
ATOM     40  C   UNL A   1      40.307  35.433  37.159  1.00  0.00     0.031 A 
BRANCH  27  41
ATOM     41  C   UNL A   1      37.122  33.396  32.294  1.00  0.00    -0.014 A 
ATOM     42  C   UNL A   1      36.042  34.248  32.013  1.00  0.00     0.009 A 
ATOM     43  C   UNL A   1      37.007  32.028  32.001  1.00  0.00     0.009 A 
ATOM     44  C   UNL A   1      34.866  33.735  31.461  1.00  0.00     0.001 A 
ATOM     45  C   UNL A   1      35.838  31.523  31.431  1.00  0.00     0.001 A 
ATOM     46  C   UNL A   1      34.768  32.375  31.164  1.00  0.00     0.000 A 
ENDBRANCH  27  41
BRANCH  28  47
ATOM     47  C   UNL A   1      45.767  37.312  35.322  1.00  0.00    -0.014 A 
ATOM     48  C   UNL A   1      45.990  38.696  35.290  1.00  0.00     0.009 A 
ATOM     49  C   UNL A   1      46.747  36.474  35.877  1.00  0.00     0.009 A 
ATOM     50  C   UNL A   1      47.168  39.230  35.818  1.00  0.00     0.001 A 
ATOM     51  C   UNL A   1      47.915  37.013  36.418  1.00  0.00     0.001 A 
ATOM     52  C   UNL A   1      48.124  38.391  36.390  1.00  0.00     0.000 A 
ENDBRANCH  28  47
BRANCH  40  53
ATOM     53  C   UNL A   1      39.839  35.504  38.583  1.00  0.00    -0.014 A 
ATOM     54  C   UNL A   1      39.222  36.664  39.074  1.00  0.00     0.009 A 
ATOM     55  C   UNL A   1      39.885  34.356  39.389  1.00  0.00     0.009 A 
ATOM     56  C   UNL A   1      38.652  36.669  40.348  1.00  0.00     0.001 A 
ATOM     57  C   UNL A   1      39.298  34.360  40.655  1.00  0.00     0.001 A 
ATOM     58  C   UNL A   1      38.681  35.516  41.132  1.00  0.00     0.000 A 
ENDBRANCH  40  53
ENDBRANCH  14  15
ENDBRANCH   7   9
ENDBRANCH   4   5
ENDBRANCH   3   4
ENDBRANCH   2   3
ENDBRANCH   1   2
BRANCH   1  59
ATOM     59  C   UNL A   1      46.324  38.324  29.247  1.00  0.00     0.021 C 
BRANCH  59  60
ATOM     60  C   UNL A   1      46.300  39.645  30.009  1.00  0.00     0.116 C 
BRANCH  60  61
ATOM     61  N   UNL A   1      45.135  39.757  30.873  1.00  0.00    -0.352 N 
ATOM     62  C   UNL A   1      43.915  40.313  30.590  1.00  0.00     0.251 C 
ATOM     63  H   UNL A   1      45.237  39.385  31.780  1.00  0.00     0.163 HD
ATOM     64  O   UNL A   1      43.073  40.484  31.463  1.00  0.00    -0.269 OA
BRANCH  62  65
ATOM     65  C   UNL A   1      43.640  40.731  29.206  1.00  0.00     0.041 A 
ATOM     66  C   UNL A   1      42.675  40.065  28.452  1.00  0.00     0.036 A 
ATOM     67  C   UNL A   1      44.378  41.780  28.658  1.00  0.00     0.020 A 
ATOM     68  C   UNL A   1      42.523  40.395  27.111  1.00  0.00     0.065 A 
ATOM     69  C   UNL A   1      44.208  42.127  27.308  1.00  0.00    -0.015 A 
ATOM     70  Cl  UNL A   1      41.373  39.495  26.179  1.00  0.00    -0.082 Cl
ATOM     71  C   UNL A   1      43.310  41.398  26.510  1.00  0.00     0.057 A 
ATOM     72  C   UNL A   1      44.963  43.305  26.750  1.00  0.00     0.049 C 
ATOM     73  N   UNL A   1      43.154  41.710  25.166  1.00  0.00    -0.376 N 
ATOM     74  C   UNL A   1      46.447  43.096  26.587  1.00  0.00    -0.023 C 
ATOM     75  C   UNL A   1      44.545  43.731  25.324  1.00  0.00     0.031 C 
ATOM     76  C   UNL A   1      44.172  42.489  24.484  1.00  0.00     0.114 C 
ATOM     77  H   UNL A   1      42.357  41.403  24.677  1.00  0.00     0.161 HD
ATOM     78  C   UNL A   1      46.908  43.747  25.512  1.00  0.00    -0.030 C 
ATOM     79  C   UNL A   1      45.799  44.457  24.799  1.00  0.00     0.034 C 
BRANCH  76  80
ATOM     80  C   UNL A   1      43.657  42.850  23.099  1.00  0.00    -0.025 A 
ATOM     81  C   UNL A   1      44.482  42.820  21.960  1.00  0.00     0.007 A 
ATOM     82  C   UNL A   1      42.314  43.223  22.946  1.00  0.00     0.007 A 
ATOM     83  C   UNL A   1      43.964  43.107  20.693  1.00  0.00     0.022 A 
ATOM     84  C   UNL A   1      41.802  43.528  21.688  1.00  0.00     0.022 A 
ATOM     85  C   UNL A   1      42.614  43.432  20.560  1.00  0.00     0.082 A 
BRANCH  85  86
ATOM     86  S   UNL A   1      41.915  43.652  18.938  1.00  0.00     0.243 S 
ATOM     87  O   UNL A   1      42.536  42.667  18.080  1.00  0.00    -0.207 OA
ATOM     88  O   UNL A   1      40.479  43.719  19.108  1.00  0.00    -0.207 OA
BRANCH  86  89
ATOM     89  N   UNL A   1      42.427  45.180  18.477  1.00  0.00    -0.193 NA
ATOM     90  C   UNL A   1      41.545  46.147  17.794  1.00  0.00     0.131 C 
ATOM     91  C   UNL A   1      43.844  45.580  18.567  1.00  0.00     0.131 C 
ATOM     92  C   UNL A   1      42.182  46.701  16.508  1.00  0.00     0.177 C 
ATOM     93  C   UNL A   1      44.344  46.026  17.191  1.00  0.00     0.177 C 
ATOM     94  O   UNL A   1      43.545  47.106  16.687  1.00  0.00    -0.379 OA
ENDBRANCH  86  89
ENDBRANCH  85  86
ENDBRANCH  76  80
ENDBRANCH  62  65
ENDBRANCH  60  61
ENDBRANCH  59  60
ENDBRANCH   1  59
TORSDOF 16
ENDMDL
MODEL 3
REMARK VINA RESULT:     -10.8      3.698     10.313
REMARK SMILES O=C(NCCCCCCNC(=O)c1cc(Cl)c2c(c1)[C@H]1C=CC[C@H]1[C@H](c1ccc(S(=O)(=O)N3CCOCC3)cc1)N2)c1ccc(-c2c3nc(c(-c4ccccc4)c4ccc([nH]4)c(-c4ccccc4)c4nc(c(-c5ccccc5)c5ccc2[nH]5)C=C4)C=C3)cc1
REMARK SMILES IDX 7 1 6 2 5 3 4 4 3 5 1 6 2 7 42 9 43 10 89 11 44 12 88 13
REMARK SMILES IDX 45 14 46 15 47 16 82 17 48 18 87 19 81 20 83 21 49 22 86 23
REMARK SMILES IDX 80 24 79 25 50 27 72 28 57 29 71 30 58 31 61 32 70 33 84 34
REMARK SMILES IDX 59 35 60 36 69 38 85 39 62 40 51 41 52 42 56 43 53 44 55 45
REMARK SMILES IDX 54 46 73 47 74 48 78 49 75 50 77 51 76 52 63 53 64 54 68 55
REMARK SMILES IDX 65 56 67 57 66 58 8 59 9 60 10 61 11 62 12 64 13 65 14 66
REMARK SMILES IDX 19 67 15 68 18 69 16 70 17 71 20 72 41 73 21 74 24 75 25 76
REMARK SMILES IDX 22 78 23 79 26 80 27 81 40 82 28 83 39 84 29 85 30 86 31 87
REMARK SMILES IDX 32 88 33 89 34 90 38 91 35 92 37 93 36 94
REMARK H PARENT 3 8 83 26 61 37 10 63 41 77
REMARK Flexibility Score: inf
ROOT
ATOM      1  C   UNL A   1      36.377  32.727  30.902  1.00  0.00     0.002 C 
ENDROOT
BRANCH   1   2
ATOM      2  C   UNL A   1      35.182  32.339  31.778  1.00  0.00     0.002 C 
BRANCH   2   3
ATOM      3  C   UNL A   1      35.331  32.674  33.264  1.00  0.00     0.021 C 
BRANCH   3   4
ATOM      4  C   UNL A   1      36.749  32.533  33.811  1.00  0.00     0.116 C 
BRANCH   4   5
ATOM      5  N   UNL A   1      37.303  33.817  34.208  1.00  0.00    -0.352 N 
ATOM      6  O   UNL A   1      38.936  35.323  34.594  1.00  0.00    -0.269 OA
ATOM      7  C   UNL A   1      38.562  34.315  34.005  1.00  0.00     0.251 C 
ATOM      8  H   UNL A   1      36.685  34.412  34.692  1.00  0.00     0.163 HD
BRANCH   7   9
ATOM      9  C   UNL A   1      39.474  33.632  33.067  1.00  0.00     0.039 A 
ATOM     10  C   UNL A   1      39.458  33.952  31.706  1.00  0.00     0.014 A 
ATOM     11  C   UNL A   1      40.389  32.700  33.566  1.00  0.00     0.014 A 
ATOM     12  C   UNL A   1      40.305  33.281  30.830  1.00  0.00     0.010 A 
ATOM     13  C   UNL A   1      41.273  32.063  32.693  1.00  0.00     0.010 A 
ATOM     14  C   UNL A   1      41.226  32.339  31.318  1.00  0.00    -0.014 A 
BRANCH  14  15
ATOM     15  C   UNL A   1      42.189  31.724  30.378  1.00  0.00     0.031 A 
ATOM     16  C   UNL A   1      43.505  32.372  30.076  1.00  0.00     0.074 A 
ATOM     17  C   UNL A   1      41.872  30.541  29.821  1.00  0.00     0.049 A 
ATOM     18  N   UNL A   1      44.507  31.896  29.381  1.00  0.00    -0.248 NA
ATOM     19  C   UNL A   1      43.728  33.722  30.613  1.00  0.00     0.031 C 
ATOM     20  C   UNL A   1      40.608  29.830  30.024  1.00  0.00     0.029 A 
ATOM     21  N   UNL A   1      42.592  29.717  28.994  1.00  0.00    -0.354 N 
ATOM     22  C   UNL A   1      45.480  32.885  29.399  1.00  0.00     0.074 A 
ATOM     23  C   UNL A   1      44.939  34.000  30.146  1.00  0.00     0.031 C 
ATOM     24  C   UNL A   1      40.659  28.657  29.377  1.00  0.00     0.029 A 
ATOM     25  C   UNL A   1      41.944  28.545  28.693  1.00  0.00     0.049 A 
ATOM     26  H   UNL A   1      43.485  29.945  28.649  1.00  0.00     0.167 HD
ATOM     27  C   UNL A   1      46.716  32.856  28.849  1.00  0.00     0.031 A 
ATOM     28  C   UNL A   1      42.339  27.489  27.958  1.00  0.00     0.031 A 
ATOM     29  C   UNL A   1      47.248  31.746  28.106  1.00  0.00     0.049 A 
ATOM     30  C   UNL A   1      43.704  27.488  27.340  1.00  0.00     0.074 A 
ATOM     31  C   UNL A   1      48.516  31.602  27.572  1.00  0.00     0.029 A 
ATOM     32  N   UNL A   1      46.541  30.600  27.780  1.00  0.00    -0.354 N 
ATOM     33  N   UNL A   1      44.644  28.396  27.434  1.00  0.00    -0.248 NA
ATOM     34  C   UNL A   1      44.068  26.323  26.523  1.00  0.00     0.031 C 
ATOM     35  C   UNL A   1      48.560  30.392  26.875  1.00  0.00     0.029 A 
ATOM     36  C   UNL A   1      47.334  29.760  27.017  1.00  0.00     0.049 A 
ATOM     37  H   UNL A   1      45.612  30.411  28.049  1.00  0.00     0.167 HD
ATOM     38  C   UNL A   1      45.714  27.912  26.695  1.00  0.00     0.074 A 
ATOM     39  C   UNL A   1      45.311  26.625  26.166  1.00  0.00     0.031 C 
ATOM     40  C   UNL A   1      46.920  28.487  26.485  1.00  0.00     0.031 A 
BRANCH  27  41
ATOM     41  C   UNL A   1      47.590  34.063  29.020  1.00  0.00    -0.014 A 
ATOM     42  C   UNL A   1      48.478  34.163  30.102  1.00  0.00     0.009 A 
ATOM     43  C   UNL A   1      47.591  35.068  28.040  1.00  0.00     0.009 A 
ATOM     44  C   UNL A   1      49.342  35.255  30.205  1.00  0.00     0.001 A 
ATOM     45  C   UNL A   1      48.470  36.148  28.136  1.00  0.00     0.001 A 
ATOM     46  C   UNL A   1      49.341  36.242  29.219  1.00  0.00     0.000 A 
ENDBRANCH  27  41
BRANCH  28  47
ATOM     47  C   UNL A   1      41.413  26.340  27.816  1.00  0.00    -0.014 A 
ATOM     48  C   UNL A   1      40.436  26.340  26.809  1.00  0.00     0.009 A 
ATOM     49  C   UNL A   1      41.579  25.193  28.608  1.00  0.00     0.009 A 
ATOM     50  C   UNL A   1      39.651  25.206  26.591  1.00  0.00     0.001 A 
ATOM     51  C   UNL A   1      40.804  24.056  28.376  1.00  0.00     0.001 A 
ATOM     52  C   UNL A   1      39.843  24.062  27.366  1.00  0.00     0.000 A 
ENDBRANCH  28  47
BRANCH  40  53
ATOM     53  C   UNL A   1      47.917  27.751  25.639  1.00  0.00    -0.014 A 
ATOM     54  C   UNL A   1      48.848  26.883  26.227  1.00  0.00     0.009 A 
ATOM     55  C   UNL A   1      47.826  27.816  24.240  1.00  0.00     0.009 A 
ATOM     56  C   UNL A   1      49.668  26.086  25.425  1.00  0.00     0.001 A 
ATOM     57  C   UNL A   1      48.634  27.004  23.443  1.00  0.00     0.001 A 
ATOM     58  C   UNL A   1      49.552  26.139  24.037  1.00  0.00     0.000 A 
ENDBRANCH  40  53
ENDBRANCH  14  15
ENDBRANCH   7   9
ENDBRANCH   4   5
ENDBRANCH   3   4
ENDBRANCH   2   3
ENDBRANCH   1   2
BRANCH   1  59
ATOM     59  C   UNL A   1      36.212  34.033  30.120  1.00  0.00     0.021 C 
BRANCH  59  60
ATOM     60  C   UNL A   1      35.793  33.855  28.664  1.00  0.00     0.116 C 
BRANCH  60  61
ATOM     61  N   UNL A   1      34.425  34.292  28.431  1.00  0.00    -0.352 N 
ATOM     62  C   UNL A   1      33.374  33.569  27.930  1.00  0.00     0.251 C 
ATOM     63  H   UNL A   1      34.229  35.229  28.663  1.00  0.00     0.163 HD
ATOM     64  O   UNL A   1      32.313  34.106  27.636  1.00  0.00    -0.269 OA
BRANCH  62  65
ATOM     65  C   UNL A   1      33.554  32.123  27.724  1.00  0.00     0.041 A 
ATOM     66  C   UNL A   1      34.736  31.502  28.122  1.00  0.00     0.036 A 
ATOM     67  C   UNL A   1      32.538  31.398  27.103  1.00  0.00     0.020 A 
ATOM     68  C   UNL A   1      34.933  30.164  27.803  1.00  0.00     0.065 A 
ATOM     69  C   UNL A   1      32.728  30.040  26.801  1.00  0.00    -0.015 A 
ATOM     70  Cl  UNL A   1      36.445  29.439  28.239  1.00  0.00    -0.082 Cl
ATOM     71  C   UNL A   1      33.955  29.425  27.107  1.00  0.00     0.057 A 
ATOM     72  C   UNL A   1      31.597  29.255  26.191  1.00  0.00     0.049 C 
ATOM     73  N   UNL A   1      34.169  28.092  26.787  1.00  0.00    -0.376 N 
ATOM     74  C   UNL A   1      31.272  29.604  24.762  1.00  0.00    -0.023 C 
ATOM     75  C   UNL A   1      31.837  27.731  26.098  1.00  0.00     0.031 C 
ATOM     76  C   UNL A   1      33.325  27.442  25.799  1.00  0.00     0.114 C 
ATOM     77  H   UNL A   1      34.893  27.588  27.226  1.00  0.00     0.161 HD
ATOM     78  C   UNL A   1      30.874  28.522  24.082  1.00  0.00    -0.030 C 
ATOM     79  C   UNL A   1      30.900  27.303  24.951  1.00  0.00     0.034 C 
BRANCH  76  80
ATOM     80  C   UNL A   1      33.646  25.955  25.793  1.00  0.00    -0.025 A 
ATOM     81  C   UNL A   1      34.791  25.437  25.160  1.00  0.00     0.007 A 
ATOM     82  C   UNL A   1      32.776  25.066  26.440  1.00  0.00     0.007 A 
ATOM     83  C   UNL A   1      35.084  24.071  25.217  1.00  0.00     0.022 A 
ATOM     84  C   UNL A   1      33.056  23.703  26.480  1.00  0.00     0.022 A 
ATOM     85  C   UNL A   1      34.226  23.213  25.905  1.00  0.00     0.082 A 
BRANCH  85  86
ATOM     86  S   UNL A   1      34.669  21.500  26.109  1.00  0.00     0.243 S 
ATOM     87  O   UNL A   1      36.114  21.444  26.130  1.00  0.00    -0.207 OA
ATOM     88  O   UNL A   1      33.868  20.990  27.202  1.00  0.00    -0.207 OA
BRANCH  86  89
ATOM     89  N   UNL A   1      34.112  20.766  24.709  1.00  0.00    -0.193 NA
ATOM     90  C   UNL A   1      33.522  21.525  23.588  1.00  0.00     0.131 C 
ATOM     91  C   UNL A   1      34.016  19.300  24.590  1.00  0.00     0.131 C 
ATOM     92  C   UNL A   1      32.154  20.961  23.167  1.00  0.00     0.177 C 
ATOM     93  C   UNL A   1      32.580  18.901  24.248  1.00  0.00     0.177 C 
ATOM     94  O   UNL A   1      32.153  19.534  23.033  1.00  0.00    -0.379 OA
ENDBRANCH  86  89
ENDBRANCH  85  86
ENDBRANCH  76  80
ENDBRANCH  62  65
ENDBRANCH  60  61
ENDBRANCH  59  60
ENDBRANCH   1  59
TORSDOF 16
ENDMDL
