MODEL 1
REMARK VINA RESULT:     -10.9      0.000      0.000
REMARK SMILES O=C(NCCCCCCNC(=O)c1ccc(C(F)(F)F)cc1NC(=O)c1ccon1)c1ccc(-c2c3nc(c(-c4ccccc4)c4ccc([nH]4)c(-c4ccccc4)c4nc(c(-c5ccccc5)c5ccc2[nH]5)C=C4)C=C3)cc1
REMARK SMILES IDX 6 1 5 2 4 3 3 4 1 5 2 6 31 8 32 9 78 10 33 11 77 12 34 13
REMARK SMILES IDX 35 14 36 15 71 16 37 17 76 18 70 19 72 20 38 21 75 22 69 23
REMARK SMILES IDX 68 24 39 26 61 27 46 28 60 29 47 30 50 31 59 32 73 33 48 34
REMARK SMILES IDX 49 35 58 37 74 38 51 39 40 40 41 41 45 42 42 43 44 44 43 45
REMARK SMILES IDX 62 46 63 47 67 48 64 49 66 50 65 51 52 52 53 53 57 54 54 55
REMARK SMILES IDX 56 56 55 57 7 58 8 59 9 60 10 61 11 62 12 64 13 65 14 66
REMARK SMILES IDX 22 67 15 68 21 69 16 70 23 71 24 72 25 74 26 75 27 76 30 77
REMARK SMILES IDX 28 78 29 79 17 80 18 81 19 82 20 83
REMARK H PARENT 3 7 72 25 50 36 10 63 23 73
REMARK Flexibility Score: inf
ROOT
ATOM      1  C   UNL A   1      34.420  30.591  27.388  1.00  0.00     0.002 C 
ENDROOT
BRANCH   1   2
ATOM      2  C   UNL A   1      33.097  31.310  27.650  1.00  0.00     0.021 C 
BRANCH   2   3
ATOM      3  C   UNL A   1      32.911  32.615  26.887  1.00  0.00     0.116 C 
BRANCH   3   4
ATOM      4  N   UNL A   1      32.526  33.719  27.750  1.00  0.00    -0.352 N 
ATOM      5  O   UNL A   1      32.613  35.059  29.564  1.00  0.00    -0.269 OA
ATOM      6  C   UNL A   1      33.162  34.216  28.860  1.00  0.00     0.251 C 
ATOM      7  H   UNL A   1      31.690  34.176  27.503  1.00  0.00     0.163 HD
BRANCH   6   8
ATOM      8  C   UNL A   1      34.505  33.716  29.222  1.00  0.00     0.039 A 
ATOM      9  C   UNL A   1      35.624  34.044  28.451  1.00  0.00     0.014 A 
ATOM     10  C   UNL A   1      34.643  32.914  30.358  1.00  0.00     0.014 A 
ATOM     11  C   UNL A   1      36.854  33.464  28.738  1.00  0.00     0.010 A 
ATOM     12  C   UNL A   1      35.896  32.397  30.691  1.00  0.00     0.010 A 
ATOM     13  C   UNL A   1      37.006  32.644  29.867  1.00  0.00    -0.014 A 
BRANCH  13  14
ATOM     14  C   UNL A   1      38.340  32.090  30.210  1.00  0.00     0.031 A 
ATOM     15  C   UNL A   1      38.803  30.780  29.637  1.00  0.00     0.074 A 
ATOM     16  C   UNL A   1      39.131  32.774  31.058  1.00  0.00     0.049 A 
ATOM     17  N   UNL A   1      39.913  30.127  29.870  1.00  0.00    -0.248 NA
ATOM     18  C   UNL A   1      37.900  30.114  28.687  1.00  0.00     0.031 C 
ATOM     19  C   UNL A   1      38.795  34.059  31.675  1.00  0.00     0.029 A 
ATOM     20  N   UNL A   1      40.377  32.484  31.549  1.00  0.00    -0.354 N 
ATOM     21  C   UNL A   1      39.833  28.963  29.116  1.00  0.00     0.074 A 
ATOM     22  C   UNL A   1      38.554  28.989  28.438  1.00  0.00     0.031 C 
ATOM     23  C   UNL A   1      39.819  34.457  32.443  1.00  0.00     0.029 A 
ATOM     24  C   UNL A   1      40.853  33.428  32.425  1.00  0.00     0.049 A 
ATOM     25  H   UNL A   1      40.882  31.676  31.299  1.00  0.00     0.167 HD
ATOM     26  C   UNL A   1      40.742  27.965  29.000  1.00  0.00     0.031 A 
ATOM     27  C   UNL A   1      41.979  33.455  33.159  1.00  0.00     0.031 A 
ATOM     28  C   UNL A   1      42.008  27.939  29.688  1.00  0.00     0.049 A 
ATOM     29  C   UNL A   1      42.945  32.312  33.056  1.00  0.00     0.074 A 
ATOM     30  C   UNL A   1      43.010  26.986  29.614  1.00  0.00     0.029 A 
ATOM     31  N   UNL A   1      42.440  28.902  30.586  1.00  0.00    -0.354 N 
ATOM     32  N   UNL A   1      42.871  31.234  32.313  1.00  0.00    -0.248 NA
ATOM     33  C   UNL A   1      44.153  32.391  33.888  1.00  0.00     0.031 C 
ATOM     34  C   UNL A   1      44.020  27.343  30.513  1.00  0.00     0.029 A 
ATOM     35  C   UNL A   1      43.679  28.554  31.095  1.00  0.00     0.049 A 
ATOM     36  H   UNL A   1      41.938  29.715  30.828  1.00  0.00     0.167 HD
ATOM     37  C   UNL A   1      44.034  30.520  32.567  1.00  0.00     0.074 A 
ATOM     38  C   UNL A   1      44.800  31.293  33.523  1.00  0.00     0.031 C 
ATOM     39  C   UNL A   1      44.432  29.332  32.047  1.00  0.00     0.031 A 
BRANCH  26  40
ATOM     40  C   UNL A   1      40.378  26.795  28.126  1.00  0.00    -0.014 A 
ATOM     41  C   UNL A   1      40.844  26.690  26.805  1.00  0.00     0.009 A 
ATOM     42  C   UNL A   1      39.574  25.765  28.641  1.00  0.00     0.009 A 
ATOM     43  C   UNL A   1      40.477  25.604  26.007  1.00  0.00     0.001 A 
ATOM     44  C   UNL A   1      39.234  24.665  27.852  1.00  0.00     0.001 A 
ATOM     45  C   UNL A   1      39.675  24.592  26.532  1.00  0.00     0.000 A 
ENDBRANCH  26  40
BRANCH  27  46
ATOM     46  C   UNL A   1      42.237  34.603  34.065  1.00  0.00    -0.014 A 
ATOM     47  C   UNL A   1      42.856  35.766  33.585  1.00  0.00     0.009 A 
ATOM     48  C   UNL A   1      41.834  34.552  35.408  1.00  0.00     0.009 A 
ATOM     49  C   UNL A   1      43.081  36.849  34.438  1.00  0.00     0.001 A 
ATOM     50  C   UNL A   1      42.032  35.647  36.251  1.00  0.00     0.001 A 
ATOM     51  C   UNL A   1      42.663  36.791  35.767  1.00  0.00     0.000 A 
ENDBRANCH  27  46
BRANCH  39  52
ATOM     52  C   UNL A   1      45.781  28.815  32.466  1.00  0.00    -0.014 A 
ATOM     53  C   UNL A   1      45.929  27.957  33.566  1.00  0.00     0.009 A 
ATOM     54  C   UNL A   1      46.914  29.163  31.715  1.00  0.00     0.009 A 
ATOM     55  C   UNL A   1      47.193  27.480  33.923  1.00  0.00     0.001 A 
ATOM     56  C   UNL A   1      48.171  28.660  32.055  1.00  0.00     0.001 A 
ATOM     57  C   UNL A   1      48.311  27.827  33.163  1.00  0.00     0.000 A 
ENDBRANCH  39  52
ENDBRANCH  13  14
ENDBRANCH   6   8
ENDBRANCH   3   4
ENDBRANCH   2   3
ENDBRANCH   1   2
BRANCH   1  58
ATOM     58  C   UNL A   1      34.385  29.069  27.554  1.00  0.00     0.002 C 
BRANCH  58  59
ATOM     59  C   UNL A   1      33.041  28.394  27.259  1.00  0.00     0.021 C 
BRANCH  59  60
ATOM     60  C   UNL A   1      33.040  27.443  26.064  1.00  0.00     0.116 C 
BRANCH  60  61
ATOM     61  N   UNL A   1      33.861  27.934  24.972  1.00  0.00    -0.352 N 
ATOM     62  C   UNL A   1      33.488  28.410  23.744  1.00  0.00     0.253 C 
ATOM     63  H   UNL A   1      34.832  27.923  25.140  1.00  0.00     0.163 HD
ATOM     64  O   UNL A   1      34.335  28.619  22.881  1.00  0.00    -0.269 OA
BRANCH  62  65
ATOM     65  C   UNL A   1      32.066  28.680  23.439  1.00  0.00     0.063 A 
ATOM     66  C   UNL A   1      31.448  29.663  24.227  1.00  0.00     0.016 A 
ATOM     67  C   UNL A   1      31.338  27.974  22.458  1.00  0.00     0.054 A 
ATOM     68  C   UNL A   1      30.107  29.983  24.023  1.00  0.00     0.014 A 
ATOM     69  C   UNL A   1      29.971  28.242  22.350  1.00  0.00     0.040 A 
ATOM     70  C   UNL A   1      29.356  29.278  23.077  1.00  0.00     0.058 A 
BRANCH  67  71
ATOM     71  N   UNL A   1      32.004  27.037  21.635  1.00  0.00    -0.320 N 
ATOM     72  C   UNL A   1      32.354  25.709  21.794  1.00  0.00     0.277 C 
ATOM     73  H   UNL A   1      32.276  27.410  20.765  1.00  0.00     0.170 HD
ATOM     74  O   UNL A   1      32.918  25.155  20.848  1.00  0.00    -0.267 OA
BRANCH  72  75
ATOM     75  C   UNL A   1      31.984  24.975  22.997  1.00  0.00     0.171 A 
ATOM     76  C   UNL A   1      30.722  24.433  23.365  1.00  0.00     0.079 A 
ATOM     77  N   UNL A   1      32.893  24.745  23.960  1.00  0.00    -0.075 NA
ATOM     78  C   UNL A   1      30.919  23.937  24.627  1.00  0.00     0.232 A 
ATOM     79  O   UNL A   1      32.214  24.110  24.982  1.00  0.00    -0.364 OA
ENDBRANCH  72  75
ENDBRANCH  67  71
BRANCH  70  80
ATOM     80  C   UNL A   1      27.907  29.630  22.833  1.00  0.00     0.416 C 
ATOM     81  F   UNL A   1      27.086  28.548  22.871  1.00  0.00    -0.166 F 
ATOM     82  F   UNL A   1      27.429  30.504  23.762  1.00  0.00    -0.166 F 
ATOM     83  F   UNL A   1      27.695  30.228  21.627  1.00  0.00    -0.166 F 
ENDBRANCH  70  80
ENDBRANCH  62  65
ENDBRANCH  60  61
ENDBRANCH  59  60
ENDBRANCH  58  59
ENDBRANCH   1  58
TORSDOF 16
ENDMDL
MODEL 2
REMARK VINA RESULT:     -10.8      0.439      5.880
REMARK SMILES O=C(NCCCCCCNC(=O)c1ccc(C(F)(F)F)cc1NC(=O)c1ccon1)c1ccc(-c2c3nc(c(-c4ccccc4)c4ccc([nH]4)c(-c4ccccc4)c4nc(c(-c5ccccc5)c5ccc2[nH]5)C=C4)C=C3)cc1
REMARK SMILES IDX 6 1 5 2 4 3 3 4 1 5 2 6 31 8 32 9 78 10 33 11 77 12 34 13
REMARK SMILES IDX 35 14 36 15 71 16 37 17 76 18 70 19 72 20 38 21 75 22 69 23
REMARK SMILES IDX 68 24 39 26 61 27 46 28 60 29 47 30 50 31 59 32 73 33 48 34
REMARK SMILES IDX 49 35 58 37 74 38 51 39 40 40 41 41 45 42 42 43 44 44 43 45
REMARK SMILES IDX 62 46 63 47 67 48 64 49 66 50 65 51 52 52 53 53 57 54 54 55
REMARK SMILES IDX 56 56 55 57 7 58 8 59 9 60 10 61 11 62 12 64 13 65 14 66
REMARK SMILES IDX 22 67 15 68 21 69 16 70 23 71 24 72 25 74 26 75 27 76 30 77
REMARK SMILES IDX 28 78 29 79 17 80 18 81 19 82 20 83
REMARK H PARENT 3 7 72 25 50 36 10 63 23 73
REMARK Flexibility Score: inf
ROOT
ATOM      1  C   UNL A   1      32.077  30.480  27.206  1.00  0.00     0.002 C 
ENDROOT
BRANCH   1   2
ATOM      2  C   UNL A   1      31.580  31.910  26.993  1.00  0.00     0.021 C 
BRANCH   2   3
ATOM      3  C   UNL A   1      32.676  32.957  26.845  1.00  0.00     0.116 C 
BRANCH   3   4
ATOM      4  N   UNL A   1      32.451  34.125  27.679  1.00  0.00    -0.352 N 
ATOM      5  O   UNL A   1      32.723  35.483  29.462  1.00  0.00    -0.269 OA
ATOM      6  C   UNL A   1      33.147  34.552  28.781  1.00  0.00     0.251 C 
ATOM      7  H   UNL A   1      31.690  34.692  27.414  1.00  0.00     0.163 HD
BRANCH   6   8
ATOM      8  C   UNL A   1      34.402  33.872  29.166  1.00  0.00     0.039 A 
ATOM      9  C   UNL A   1      34.414  32.910  30.180  1.00  0.00     0.014 A 
ATOM     10  C   UNL A   1      35.581  34.200  28.492  1.00  0.00     0.014 A 
ATOM     11  C   UNL A   1      35.623  32.374  30.609  1.00  0.00     0.010 A 
ATOM     12  C   UNL A   1      36.783  33.600  28.871  1.00  0.00     0.010 A 
ATOM     13  C   UNL A   1      36.818  32.704  29.952  1.00  0.00    -0.014 A 
BRANCH  13  14
ATOM     14  C   UNL A   1      38.094  32.070  30.367  1.00  0.00     0.031 A 
ATOM     15  C   UNL A   1      39.010  32.745  31.348  1.00  0.00     0.074 A 
ATOM     16  C   UNL A   1      38.431  30.878  29.838  1.00  0.00     0.049 A 
ATOM     17  N   UNL A   1      40.183  32.358  31.780  1.00  0.00    -0.248 NA
ATOM     18  C   UNL A   1      38.553  34.025  31.912  1.00  0.00     0.031 C 
ATOM     19  C   UNL A   1      37.623  30.121  28.880  1.00  0.00     0.029 A 
ATOM     20  N   UNL A   1      39.541  30.097  30.029  1.00  0.00    -0.354 N 
ATOM     21  C   UNL A   1      40.617  33.355  32.645  1.00  0.00     0.074 A 
ATOM     22  C   UNL A   1      39.590  34.375  32.658  1.00  0.00     0.031 C 
ATOM     23  C   UNL A   1      38.252  28.974  28.586  1.00  0.00     0.029 A 
ATOM     24  C   UNL A   1      39.534  28.946  29.280  1.00  0.00     0.049 A 
ATOM     25  H   UNL A   1      40.272  30.338  30.643  1.00  0.00     0.167 HD
ATOM     26  C   UNL A   1      41.765  33.413  33.363  1.00  0.00     0.031 A 
ATOM     27  C   UNL A   1      40.465  27.986  29.140  1.00  0.00     0.031 A 
ATOM     28  C   UNL A   1      42.788  32.399  33.336  1.00  0.00     0.049 A 
ATOM     29  C   UNL A   1      41.752  28.100  29.903  1.00  0.00     0.074 A 
ATOM     30  C   UNL A   1      43.974  32.352  34.049  1.00  0.00     0.029 A 
ATOM     31  N   UNL A   1      42.754  31.262  32.544  1.00  0.00    -0.354 N 
ATOM     32  N   UNL A   1      42.133  29.032  30.743  1.00  0.00    -0.248 NA
ATOM     33  C   UNL A   1      42.736  27.028  29.702  1.00  0.00     0.031 C 
ATOM     34  C   UNL A   1      44.685  31.217  33.643  1.00  0.00     0.029 A 
ATOM     35  C   UNL A   1      43.909  30.521  32.729  1.00  0.00     0.049 A 
ATOM     36  H   UNL A   1      42.017  31.016  31.938  1.00  0.00     0.167 HD
ATOM     37  C   UNL A   1      43.388  28.644  31.193  1.00  0.00     0.074 A 
ATOM     38  C   UNL A   1      43.698  27.388  30.540  1.00  0.00     0.031 C 
ATOM     39  C   UNL A   1      44.207  29.272  32.073  1.00  0.00     0.031 A 
BRANCH  26  40
ATOM     40  C   UNL A   1      41.992  34.637  34.208  1.00  0.00    -0.014 A 
ATOM     41  C   UNL A   1      42.605  35.788  33.687  1.00  0.00     0.009 A 
ATOM     42  C   UNL A   1      41.561  34.649  35.544  1.00  0.00     0.009 A 
ATOM     43  C   UNL A   1      42.822  36.905  34.497  1.00  0.00     0.001 A 
ATOM     44  C   UNL A   1      41.750  35.778  36.344  1.00  0.00     0.001 A 
ATOM     45  C   UNL A   1      42.392  36.900  35.823  1.00  0.00     0.000 A 
ENDBRANCH  26  40
BRANCH  27  46
ATOM     46  C   UNL A   1      40.210  26.845  28.225  1.00  0.00    -0.014 A 
ATOM     47  C   UNL A   1      39.499  25.720  28.669  1.00  0.00     0.009 A 
ATOM     48  C   UNL A   1      40.648  26.891  26.893  1.00  0.00     0.009 A 
ATOM     49  C   UNL A   1      39.248  24.656  27.798  1.00  0.00     0.001 A 
ATOM     50  C   UNL A   1      40.368  25.840  26.016  1.00  0.00     0.001 A 
ATOM     51  C   UNL A   1      39.676  24.721  26.473  1.00  0.00     0.000 A 
ENDBRANCH  27  46
BRANCH  39  52
ATOM     52  C   UNL A   1      45.499  28.586  32.420  1.00  0.00    -0.014 A 
ATOM     53  C   UNL A   1      46.684  28.854  31.719  1.00  0.00     0.009 A 
ATOM     54  C   UNL A   1      45.534  27.690  33.500  1.00  0.00     0.009 A 
ATOM     55  C   UNL A   1      47.873  28.213  32.073  1.00  0.00     0.001 A 
ATOM     56  C   UNL A   1      46.730  27.075  33.873  1.00  0.00     0.001 A 
ATOM     57  C   UNL A   1      47.897  27.330  33.153  1.00  0.00     0.000 A 
ENDBRANCH  39  52
ENDBRANCH  13  14
ENDBRANCH   6   8
ENDBRANCH   3   4
ENDBRANCH   2   3
ENDBRANCH   1   2
BRANCH   1  58
ATOM     58  C   UNL A   1      33.576  30.339  27.490  1.00  0.00     0.002 C 
BRANCH  58  59
ATOM     59  C   UNL A   1      34.215  29.012  27.067  1.00  0.00     0.021 C 
BRANCH  59  60
ATOM     60  C   UNL A   1      33.504  28.280  25.932  1.00  0.00     0.116 C 
BRANCH  60  61
ATOM     61  N   UNL A   1      34.167  28.474  24.654  1.00  0.00    -0.352 N 
ATOM     62  C   UNL A   1      33.633  28.561  23.397  1.00  0.00     0.253 C 
ATOM     63  H   UNL A   1      35.148  28.556  24.700  1.00  0.00     0.163 HD
ATOM     64  O   UNL A   1      34.368  28.552  22.414  1.00  0.00    -0.269 OA
BRANCH  62  65
ATOM     65  C   UNL A   1      32.171  28.667  23.204  1.00  0.00     0.063 A 
ATOM     66  C   UNL A   1      31.530  29.681  23.931  1.00  0.00     0.016 A 
ATOM     67  C   UNL A   1      31.434  27.786  22.384  1.00  0.00     0.054 A 
ATOM     68  C   UNL A   1      30.152  29.856  23.824  1.00  0.00     0.014 A 
ATOM     69  C   UNL A   1      30.043  27.918  22.380  1.00  0.00     0.040 A 
ATOM     70  C   UNL A   1      29.394  28.978  23.042  1.00  0.00     0.058 A 
BRANCH  67  71
ATOM     71  N   UNL A   1      32.115  26.817  21.612  1.00  0.00    -0.320 N 
ATOM     72  C   UNL A   1      32.468  25.500  21.833  1.00  0.00     0.277 C 
ATOM     73  H   UNL A   1      32.396  27.153  20.730  1.00  0.00     0.170 HD
ATOM     74  O   UNL A   1      33.047  24.907  20.920  1.00  0.00    -0.267 OA
BRANCH  72  75
ATOM     75  C   UNL A   1      32.087  24.817  23.063  1.00  0.00     0.171 A 
ATOM     76  C   UNL A   1      30.895  24.099  23.357  1.00  0.00     0.079 A 
ATOM     77  N   UNL A   1      32.904  24.829  24.129  1.00  0.00    -0.075 NA
ATOM     78  C   UNL A   1      31.023  23.752  24.677  1.00  0.00     0.232 A 
ATOM     79  O   UNL A   1      32.224  24.176  25.139  1.00  0.00    -0.364 OA
ENDBRANCH  72  75
ENDBRANCH  67  71
BRANCH  70  80
ATOM     80  C   UNL A   1      27.902  29.170  22.902  1.00  0.00     0.416 C 
ATOM     81  F   UNL A   1      27.411  30.124  23.736  1.00  0.00    -0.166 F 
ATOM     82  F   UNL A   1      27.550  29.547  21.641  1.00  0.00    -0.166 F 
ATOM     83  F   UNL A   1      27.189  28.037  23.155  1.00  0.00    -0.166 F 
ENDBRANCH  70  80
ENDBRANCH  62  65
ENDBRANCH  60  61
ENDBRANCH  59  60
ENDBRANCH  58  59
ENDBRANCH   1  58
TORSDOF 16
ENDMDL
MODEL 3
REMARK VINA RESULT:     -10.8      3.781      7.845
REMARK SMILES O=C(NCCCCCCNC(=O)c1ccc(C(F)(F)F)cc1NC(=O)c1ccon1)c1ccc(-c2c3nc(c(-c4ccccc4)c4ccc([nH]4)c(-c4ccccc4)c4nc(c(-c5ccccc5)c5ccc2[nH]5)C=C4)C=C3)cc1
REMARK SMILES IDX 6 1 5 2 4 3 3 4 1 5 2 6 31 8 32 9 78 10 33 11 77 12 34 13
REMARK SMILES IDX 35 14 36 15 71 16 37 17 76 18 70 19 72 20 38 21 75 22 69 23
REMARK SMILES IDX 68 24 39 26 61 27 46 28 60 29 47 30 50 31 59 32 73 33 48 34
REMARK SMILES IDX 49 35 58 37 74 38 51 39 40 40 41 41 45 42 42 43 44 44 43 45
REMARK SMILES IDX 62 46 63 47 67 48 64 49 66 50 65 51 52 52 53 53 57 54 54 55
REMARK SMILES IDX 56 56 55 57 7 58 8 59 9 60 10 61 11 62 12 64 13 65 14 66
REMARK SMILES IDX 22 67 15 68 21 69 16 70 23 71 24 72 25 74 26 75 27 76 30 77
REMARK SMILES IDX 28 78 29 79 17 80 18 81 19 82 20 83
REMARK H PARENT 3 7 72 25 50 36 10 63 23 73
REMARK Flexibility Score: inf
ROOT
ATOM      1  C   UNL A   1      31.983  27.611  25.621  1.00  0.00     0.002 C 
ENDROOT
BRANCH   1   2
ATOM      2  C   UNL A   1      32.429  27.932  27.048  1.00  0.00     0.021 C 
BRANCH   2   3
ATOM      3  C   UNL A   1      33.792  28.600  27.162  1.00  0.00     0.116 C 
BRANCH   3   4
ATOM      4  N   UNL A   1      33.702  29.985  27.593  1.00  0.00    -0.352 N 
ATOM      5  O   UNL A   1      34.322  31.861  28.685  1.00  0.00    -0.269 OA
ATOM      6  C   UNL A   1      34.625  30.748  28.261  1.00  0.00     0.251 C 
ATOM      7  H   UNL A   1      32.858  30.441  27.373  1.00  0.00     0.163 HD
BRANCH   6   8
ATOM      8  C   UNL A   1      35.985  30.219  28.493  1.00  0.00     0.039 A 
ATOM      9  C   UNL A   1      36.343  29.681  29.733  1.00  0.00     0.014 A 
ATOM     10  C   UNL A   1      36.912  30.255  27.449  1.00  0.00     0.014 A 
ATOM     11  C   UNL A   1      37.660  29.303  29.968  1.00  0.00     0.010 A 
ATOM     12  C   UNL A   1      38.214  29.800  27.663  1.00  0.00     0.010 A 
ATOM     13  C   UNL A   1      38.606  29.346  28.933  1.00  0.00    -0.014 A 
BRANCH  13  14
ATOM     14  C   UNL A   1      39.991  28.869  29.171  1.00  0.00     0.031 A 
ATOM     15  C   UNL A   1      41.023  29.769  29.791  1.00  0.00     0.074 A 
ATOM     16  C   UNL A   1      40.319  27.615  28.808  1.00  0.00     0.049 A 
ATOM     17  N   UNL A   1      42.289  29.532  30.022  1.00  0.00    -0.248 NA
ATOM     18  C   UNL A   1      40.577  31.111  30.197  1.00  0.00     0.031 C 
ATOM     19  C   UNL A   1      39.404  26.645  28.202  1.00  0.00     0.029 A 
ATOM     20  N   UNL A   1      41.510  26.942  28.894  1.00  0.00    -0.354 N 
ATOM     21  C   UNL A   1      42.798  30.701  30.577  1.00  0.00     0.074 A 
ATOM     22  C   UNL A   1      41.708  31.652  30.625  1.00  0.00     0.031 C 
ATOM     23  C   UNL A   1      40.061  25.495  27.993  1.00  0.00     0.029 A 
ATOM     24  C   UNL A   1      41.455  25.667  28.387  1.00  0.00     0.049 A 
ATOM     25  H   UNL A   1      42.327  27.334  29.280  1.00  0.00     0.167 HD
ATOM     26  C   UNL A   1      44.058  30.954  31.006  1.00  0.00     0.031 A 
ATOM     27  C   UNL A   1      42.420  24.745  28.226  1.00  0.00     0.031 A 
ATOM     28  C   UNL A   1      45.141  30.007  30.944  1.00  0.00     0.049 A 
ATOM     29  C   UNL A   1      43.820  25.070  28.659  1.00  0.00     0.074 A 
ATOM     30  C   UNL A   1      46.447  30.159  31.380  1.00  0.00     0.029 A 
ATOM     31  N   UNL A   1      45.049  28.735  30.399  1.00  0.00    -0.354 N 
ATOM     32  N   UNL A   1      44.278  26.166  29.213  1.00  0.00    -0.248 NA
ATOM     33  C   UNL A   1      44.834  24.028  28.449  1.00  0.00     0.031 C 
ATOM     34  C   UNL A   1      47.158  29.003  31.044  1.00  0.00     0.029 A 
ATOM     35  C   UNL A   1      46.280  28.103  30.462  1.00  0.00     0.049 A 
ATOM     36  H   UNL A   1      44.230  28.340  30.022  1.00  0.00     0.167 HD
ATOM     37  C   UNL A   1      45.628  25.937  29.443  1.00  0.00     0.074 A 
ATOM     38  C   UNL A   1      45.910  24.593  28.980  1.00  0.00     0.031 C 
ATOM     39  C   UNL A   1      46.548  26.765  29.996  1.00  0.00     0.031 A 
BRANCH  26  40
ATOM     40  C   UNL A   1      44.341  32.331  31.544  1.00  0.00    -0.014 A 
ATOM     41  C   UNL A   1      44.213  32.629  32.911  1.00  0.00     0.009 A 
ATOM     42  C   UNL A   1      44.769  33.344  30.671  1.00  0.00     0.009 A 
ATOM     43  C   UNL A   1      44.463  33.920  33.383  1.00  0.00     0.001 A 
ATOM     44  C   UNL A   1      45.049  34.626  31.150  1.00  0.00     0.001 A 
ATOM     45  C   UNL A   1      44.883  34.916  32.503  1.00  0.00     0.000 A 
ENDBRANCH  26  40
BRANCH  27  46
ATOM     46  C   UNL A   1      42.088  23.435  27.612  1.00  0.00    -0.014 A 
ATOM     47  C   UNL A   1      42.219  23.240  26.229  1.00  0.00     0.009 A 
ATOM     48  C   UNL A   1      41.668  22.361  28.413  1.00  0.00     0.009 A 
ATOM     49  C   UNL A   1      41.920  22.000  25.660  1.00  0.00     0.001 A 
ATOM     50  C   UNL A   1      41.400  21.114  27.846  1.00  0.00     0.001 A 
ATOM     51  C   UNL A   1      41.518  20.937  26.469  1.00  0.00     0.000 A 
ENDBRANCH  27  46
BRANCH  39  52
ATOM     52  C   UNL A   1      47.940  26.225  30.175  1.00  0.00    -0.014 A 
ATOM     53  C   UNL A   1      48.879  26.256  29.133  1.00  0.00     0.009 A 
ATOM     54  C   UNL A   1      48.326  25.719  31.426  1.00  0.00     0.009 A 
ATOM     55  C   UNL A   1      50.170  25.761  29.333  1.00  0.00     0.001 A 
ATOM     56  C   UNL A   1      49.626  25.254  31.632  1.00  0.00     0.001 A 
ATOM     57  C   UNL A   1      50.544  25.267  30.583  1.00  0.00     0.000 A 
ENDBRANCH  39  52
ENDBRANCH  13  14
ENDBRANCH   6   8
ENDBRANCH   3   4
ENDBRANCH   2   3
ENDBRANCH   1   2
BRANCH   1  58
ATOM     58  C   UNL A   1      30.711  26.768  25.502  1.00  0.00     0.002 C 
BRANCH  58  59
ATOM     59  C   UNL A   1      30.342  26.309  24.087  1.00  0.00     0.021 C 
BRANCH  59  60
ATOM     60  C   UNL A   1      30.829  24.912  23.708  1.00  0.00     0.116 C 
BRANCH  60  61
ATOM     61  N   UNL A   1      30.363  23.899  24.639  1.00  0.00    -0.352 N 
ATOM     62  C   UNL A   1      31.071  22.940  25.312  1.00  0.00     0.253 C 
ATOM     63  H   UNL A   1      29.394  23.902  24.810  1.00  0.00     0.163 HD
ATOM     64  O   UNL A   1      30.482  22.056  25.924  1.00  0.00    -0.269 OA
BRANCH  62  65
ATOM     65  C   UNL A   1      32.551  22.956  25.313  1.00  0.00     0.063 A 
ATOM     66  C   UNL A   1      33.155  23.590  26.409  1.00  0.00     0.016 A 
ATOM     67  C   UNL A   1      33.329  22.419  24.266  1.00  0.00     0.054 A 
ATOM     68  C   UNL A   1      34.543  23.665  26.497  1.00  0.00     0.014 A 
ATOM     69  C   UNL A   1      34.713  22.603  24.330  1.00  0.00     0.040 A 
ATOM     70  C   UNL A   1      35.337  23.166  25.459  1.00  0.00     0.058 A 
BRANCH  67  71
ATOM     71  N   UNL A   1      32.695  21.728  23.209  1.00  0.00    -0.320 N 
ATOM     72  C   UNL A   1      32.394  20.397  22.986  1.00  0.00     0.277 C 
ATOM     73  H   UNL A   1      32.407  22.319  22.477  1.00  0.00     0.170 HD
ATOM     74  O   UNL A   1      31.792  20.118  21.947  1.00  0.00    -0.267 OA
BRANCH  72  75
ATOM     75  C   UNL A   1      32.696  19.382  23.987  1.00  0.00     0.171 A 
ATOM     76  C   UNL A   1      33.645  18.323  23.933  1.00  0.00     0.079 A 
ATOM     77  N   UNL A   1      32.021  19.350  25.149  1.00  0.00    -0.075 NA
ATOM     78  C   UNL A   1      33.440  17.624  25.094  1.00  0.00     0.232 A 
ATOM     79  O   UNL A   1      32.481  18.238  25.828  1.00  0.00    -0.364 OA
ENDBRANCH  72  75
ENDBRANCH  67  71
BRANCH  70  80
ATOM     80  C   UNL A   1      36.845  23.224  25.553  1.00  0.00     0.416 C 
ATOM     81  F   UNL A   1      37.384  22.101  26.095  1.00  0.00    -0.166 F 
ATOM     82  F   UNL A   1      37.428  23.377  24.332  1.00  0.00    -0.166 F 
ATOM     83  F   UNL A   1      37.296  24.266  26.306  1.00  0.00    -0.166 F 
ENDBRANCH  70  80
ENDBRANCH  62  65
ENDBRANCH  60  61
ENDBRANCH  59  60
ENDBRANCH  58  59
ENDBRANCH   1  58
TORSDOF 16
ENDMDL
