MODEL 1
REMARK VINA RESULT:     -10.2      0.000      0.000
REMARK SMILES CCC1(CC)CCN(C(=O)NC(CC)(CC)C(=O)NCCCCCCNC(=O)c2ccc(-c3c4nc(c(-c5ccccc5)c5ccc([nH]5)c(-c5ccccc5)c5nc(c(-c6ccccc6)c6ccc3[nH]6)C=C5)C=C4)cc2)CC1
REMARK SMILES IDX 22 1 21 2 20 3 19 4 17 5 18 6 12 8 11 9 3 10 6 11 78 12 7 13
REMARK SMILES IDX 77 14 8 15 9 16 10 17 2 19 1 20 4 21 5 22 13 23 14 24 15 25
REMARK SMILES IDX 16 26 23 27 24 28 25 29 26 30 27 31 28 33 29 34 30 35 76 36
REMARK SMILES IDX 31 37 75 38 32 39 33 40 34 41 69 42 35 43 74 44 68 45 70 46
REMARK SMILES IDX 36 47 73 48 67 49 66 50 37 52 59 53 44 54 58 55 45 56 48 57
REMARK SMILES IDX 57 58 71 59 46 60 47 61 56 63 72 64 49 65 38 66 39 67 43 68
REMARK SMILES IDX 40 69 42 70 41 71 60 72 61 73 65 74 62 75 64 76 63 77 50 78
REMARK SMILES IDX 51 79 55 80 52 81 54 82 53 83
REMARK H PARENT 19 7 11 18 26 32 70 51 48 62
REMARK Flexibility Score: inf
ROOT
ATOM      1  C   UNL A   1      37.796  22.081  25.233  1.00  0.00     0.002 C 
ENDROOT
BRANCH   1   2
ATOM      2  C   UNL A   1      36.731  23.159  24.977  1.00  0.00     0.021 C 
BRANCH   2   3
ATOM      3  C   UNL A   1      35.679  23.284  26.080  1.00  0.00     0.116 C 
BRANCH   3   4
ATOM      4  N   UNL A   1      34.489  22.524  25.771  1.00  0.00    -0.354 N 
ATOM      5  C   UNL A   1      33.327  22.831  26.444  1.00  0.00     0.245 C 
ATOM      6  O   UNL A   1      33.176  22.379  27.575  1.00  0.00    -0.272 OA
ATOM      7  H   UNL A   1      34.509  21.806  25.098  1.00  0.00     0.163 HD
BRANCH   5   8
ATOM      8  C   UNL A   1      32.306  23.755  25.721  1.00  0.00     0.120 C 
BRANCH   8   9
ATOM      9  N   UNL A   1      32.637  24.092  24.301  1.00  0.00    -0.323 N 
ATOM     10  C   UNL A   1      30.066  28.186  23.411  1.00  0.00    -0.027 C 
ATOM     11  C   UNL A   1      31.069  27.771  22.291  1.00  0.00     0.028 C 
ATOM     12  C   UNL A   1      30.096  27.074  24.508  1.00  0.00     0.028 C 
ATOM     13  C   UNL A   1      30.978  26.292  21.866  1.00  0.00     0.122 C 
ATOM     14  C   UNL A   1      29.995  25.647  23.968  1.00  0.00     0.122 C 
ATOM     15  N   UNL A   1      31.072  25.412  23.038  1.00  0.00    -0.325 N 
ATOM     16  C   UNL A   1      32.168  24.618  23.163  1.00  0.00     0.318 C 
ATOM     17  O   UNL A   1      32.898  24.387  22.189  1.00  0.00    -0.249 OA
ATOM     18  H   UNL A   1      33.570  23.820  24.141  1.00  0.00     0.166 HD
BRANCH  10  19
ATOM     19  C   UNL A   1      28.600  28.291  22.904  1.00  0.00     0.004 C 
ATOM     20  C   UNL A   1      27.947  29.662  22.869  1.00  0.00     0.004 C 
ENDBRANCH  10  19
BRANCH  10  21
ATOM     21  C   UNL A   1      30.554  29.493  24.126  1.00  0.00     0.004 C 
ATOM     22  C   UNL A   1      31.605  29.381  25.221  1.00  0.00     0.004 C 
ENDBRANCH  10  21
ENDBRANCH   8   9
BRANCH   8  23
ATOM     23  C   UNL A   1      32.033  25.081  26.511  1.00  0.00     0.035 C 
ATOM     24  C   UNL A   1      33.079  26.185  26.370  1.00  0.00     0.007 C 
ENDBRANCH   8  23
BRANCH   8  25
ATOM     25  C   UNL A   1      31.006  22.863  25.667  1.00  0.00     0.035 C 
ATOM     26  C   UNL A   1      29.990  23.085  26.795  1.00  0.00     0.007 C 
ENDBRANCH   8  25
ENDBRANCH   5   8
ENDBRANCH   3   4
ENDBRANCH   2   3
ENDBRANCH   1   2
BRANCH   1  27
ATOM     27  C   UNL A   1      37.354  20.643  24.944  1.00  0.00     0.002 C 
BRANCH  27  28
ATOM     28  C   UNL A   1      38.430  19.583  25.169  1.00  0.00     0.021 C 
BRANCH  28  29
ATOM     29  C   UNL A   1      39.589  20.039  26.042  1.00  0.00     0.116 C 
BRANCH  29  30
ATOM     30  N   UNL A   1      40.731  19.148  25.955  1.00  0.00    -0.352 N 
ATOM     31  C   UNL A   1      42.057  19.463  26.121  1.00  0.00     0.251 C 
ATOM     32  H   UNL A   1      40.532  18.206  25.753  1.00  0.00     0.163 HD
ATOM     33  O   UNL A   1      42.935  18.646  25.857  1.00  0.00    -0.269 OA
BRANCH  31  34
ATOM     34  C   UNL A   1      42.418  20.816  26.591  1.00  0.00     0.039 A 
ATOM     35  C   UNL A   1      42.756  21.791  25.653  1.00  0.00     0.014 A 
ATOM     36  C   UNL A   1      42.383  21.126  27.955  1.00  0.00     0.014 A 
ATOM     37  C   UNL A   1      43.017  23.095  26.077  1.00  0.00     0.010 A 
ATOM     38  C   UNL A   1      42.566  22.442  28.367  1.00  0.00     0.010 A 
ATOM     39  C   UNL A   1      42.899  23.436  27.434  1.00  0.00    -0.014 A 
BRANCH  39  40
ATOM     40  C   UNL A   1      43.148  24.821  27.903  1.00  0.00     0.031 A 
ATOM     41  C   UNL A   1      44.552  25.264  28.214  1.00  0.00     0.074 A 
ATOM     42  C   UNL A   1      42.115  25.663  28.103  1.00  0.00     0.049 A 
ATOM     43  N   UNL A   1      44.971  26.409  28.692  1.00  0.00    -0.248 NA
ATOM     44  C   UNL A   1      45.623  24.280  27.984  1.00  0.00     0.031 C 
ATOM     45  C   UNL A   1      40.705  25.345  27.872  1.00  0.00     0.029 A 
ATOM     46  N   UNL A   1      42.095  26.959  28.552  1.00  0.00    -0.354 N 
ATOM     47  C   UNL A   1      46.346  26.275  28.835  1.00  0.00     0.074 A 
ATOM     48  C   UNL A   1      46.684  24.923  28.447  1.00  0.00     0.031 C 
ATOM     49  C   UNL A   1      39.960  26.425  28.159  1.00  0.00     0.029 A 
ATOM     50  C   UNL A   1      40.834  27.495  28.628  1.00  0.00     0.049 A 
ATOM     51  H   UNL A   1      42.909  27.456  28.797  1.00  0.00     0.167 HD
ATOM     52  C   UNL A   1      47.252  27.199  29.233  1.00  0.00     0.031 A 
ATOM     53  C   UNL A   1      40.426  28.711  29.038  1.00  0.00     0.031 A 
ATOM     54  C   UNL A   1      46.920  28.547  29.608  1.00  0.00     0.049 A 
ATOM     55  C   UNL A   1      41.448  29.717  29.488  1.00  0.00     0.074 A 
ATOM     56  C   UNL A   1      47.770  29.574  29.976  1.00  0.00     0.029 A 
ATOM     57  N   UNL A   1      45.630  29.052  29.664  1.00  0.00    -0.354 N 
ATOM     58  N   UNL A   1      42.751  29.596  29.559  1.00  0.00    -0.248 NA
ATOM     59  C   UNL A   1      40.942  31.033  29.906  1.00  0.00     0.031 C 
ATOM     60  C   UNL A   1      46.990  30.689  30.303  1.00  0.00     0.029 A 
ATOM     61  C   UNL A   1      45.659  30.372  30.082  1.00  0.00     0.049 A 
ATOM     62  H   UNL A   1      44.814  28.549  29.439  1.00  0.00     0.167 HD
ATOM     63  C   UNL A   1      43.223  30.825  30.001  1.00  0.00     0.074 A 
ATOM     64  C   UNL A   1      42.068  31.683  30.168  1.00  0.00     0.031 C 
ATOM     65  C   UNL A   1      44.500  31.211  30.245  1.00  0.00     0.031 A 
BRANCH  52  66
ATOM     66  C   UNL A   1      48.693  26.771  29.290  1.00  0.00    -0.014 A 
ATOM     67  C   UNL A   1      49.537  26.907  28.176  1.00  0.00     0.009 A 
ATOM     68  C   UNL A   1      49.218  26.241  30.479  1.00  0.00     0.009 A 
ATOM     69  C   UNL A   1      50.866  26.481  28.239  1.00  0.00     0.001 A 
ATOM     70  C   UNL A   1      50.555  25.845  30.548  1.00  0.00     0.001 A 
ATOM     71  C   UNL A   1      51.374  25.954  29.426  1.00  0.00     0.000 A 
ENDBRANCH  52  66
BRANCH  53  72
ATOM     72  C   UNL A   1      38.979  29.054  29.025  1.00  0.00    -0.014 A 
ATOM     73  C   UNL A   1      38.381  29.576  27.869  1.00  0.00     0.009 A 
ATOM     74  C   UNL A   1      38.190  28.860  30.170  1.00  0.00     0.009 A 
ATOM     75  C   UNL A   1      37.028  29.922  27.867  1.00  0.00     0.001 A 
ATOM     76  C   UNL A   1      36.831  29.181  30.156  1.00  0.00     0.001 A 
ATOM     77  C   UNL A   1      36.253  29.720  29.008  1.00  0.00     0.000 A 
ENDBRANCH  53  72
BRANCH  65  78
ATOM     78  C   UNL A   1      44.717  32.632  30.683  1.00  0.00    -0.014 A 
ATOM     79  C   UNL A   1      44.892  33.665  29.750  1.00  0.00     0.009 A 
ATOM     80  C   UNL A   1      44.701  32.944  32.052  1.00  0.00     0.009 A 
ATOM     81  C   UNL A   1      45.080  34.980  30.182  1.00  0.00     0.001 A 
ATOM     82  C   UNL A   1      44.859  34.264  32.479  1.00  0.00     0.001 A 
ATOM     83  C   UNL A   1      45.058  35.278  31.545  1.00  0.00     0.000 A 
ENDBRANCH  65  78
ENDBRANCH  39  40
ENDBRANCH  31  34
ENDBRANCH  29  30
ENDBRANCH  28  29
ENDBRANCH  27  28
ENDBRANCH   1  27
TORSDOF 18
ENDMDL
MODEL 2
REMARK VINA RESULT:     -10.2      3.455      8.744
REMARK SMILES CCC1(CC)CCN(C(=O)NC(CC)(CC)C(=O)NCCCCCCNC(=O)c2ccc(-c3c4nc(c(-c5ccccc5)c5ccc([nH]5)c(-c5ccccc5)c5nc(c(-c6ccccc6)c6ccc3[nH]6)C=C5)C=C4)cc2)CC1
REMARK SMILES IDX 22 1 21 2 20 3 19 4 17 5 18 6 12 8 11 9 3 10 6 11 78 12 7 13
REMARK SMILES IDX 77 14 8 15 9 16 10 17 2 19 1 20 4 21 5 22 13 23 14 24 15 25
REMARK SMILES IDX 16 26 23 27 24 28 25 29 26 30 27 31 28 33 29 34 30 35 76 36
REMARK SMILES IDX 31 37 75 38 32 39 33 40 34 41 69 42 35 43 74 44 68 45 70 46
REMARK SMILES IDX 36 47 73 48 67 49 66 50 37 52 59 53 44 54 58 55 45 56 48 57
REMARK SMILES IDX 57 58 71 59 46 60 47 61 56 63 72 64 49 65 38 66 39 67 43 68
REMARK SMILES IDX 40 69 42 70 41 71 60 72 61 73 65 74 62 75 64 76 63 77 50 78
REMARK SMILES IDX 51 79 55 80 52 81 54 82 53 83
REMARK H PARENT 19 7 11 18 26 32 70 51 48 62
REMARK Flexibility Score: inf
ROOT
ATOM      1  C   UNL A   1      34.683  29.829  27.754  1.00  0.00     0.002 C 
ENDROOT
BRANCH   1   2
ATOM      2  C   UNL A   1      34.387  29.267  26.356  1.00  0.00     0.021 C 
BRANCH   2   3
ATOM      3  C   UNL A   1      32.908  28.991  26.085  1.00  0.00     0.116 C 
BRANCH   3   4
ATOM      4  N   UNL A   1      32.454  29.647  24.879  1.00  0.00    -0.354 N 
ATOM      5  C   UNL A   1      32.743  29.057  23.668  1.00  0.00     0.245 C 
ATOM      6  O   UNL A   1      33.863  29.224  23.194  1.00  0.00    -0.272 OA
ATOM      7  H   UNL A   1      31.953  30.493  24.922  1.00  0.00     0.163 HD
BRANCH   5   8
ATOM      8  C   UNL A   1      31.627  28.197  23.009  1.00  0.00     0.120 C 
BRANCH   8   9
ATOM      9  N   UNL A   1      32.107  27.063  22.158  1.00  0.00    -0.323 N 
ATOM     10  C   UNL A   1      33.588  23.678  25.401  1.00  0.00    -0.027 C 
ATOM     11  C   UNL A   1      33.563  23.211  23.912  1.00  0.00     0.028 C 
ATOM     12  C   UNL A   1      33.209  25.194  25.427  1.00  0.00     0.028 C 
ATOM     13  C   UNL A   1      34.251  24.176  22.927  1.00  0.00     0.122 C 
ATOM     14  C   UNL A   1      33.959  26.053  24.408  1.00  0.00     0.122 C 
ATOM     15  N   UNL A   1      33.721  25.537  23.082  1.00  0.00    -0.325 N 
ATOM     16  C   UNL A   1      32.998  26.069  22.061  1.00  0.00     0.318 C 
ATOM     17  O   UNL A   1      33.054  25.581  20.924  1.00  0.00    -0.249 OA
ATOM     18  H   UNL A   1      31.545  27.038  21.350  1.00  0.00     0.166 HD
BRANCH  10  19
ATOM     19  C   UNL A   1      34.993  23.545  26.054  1.00  0.00     0.004 C 
ATOM     20  C   UNL A   1      35.802  22.291  25.771  1.00  0.00     0.004 C 
ENDBRANCH  10  19
BRANCH  10  21
ATOM     21  C   UNL A   1      32.468  22.952  26.221  1.00  0.00     0.004 C 
ATOM     22  C   UNL A   1      31.082  22.813  25.608  1.00  0.00     0.004 C 
ENDBRANCH  10  21
ENDBRANCH   8   9
BRANCH   8  23
ATOM     23  C   UNL A   1      30.614  29.062  22.184  1.00  0.00     0.035 C 
ATOM     24  C   UNL A   1      29.592  29.864  22.986  1.00  0.00     0.007 C 
ENDBRANCH   8  23
BRANCH   8  25
ATOM     25  C   UNL A   1      30.914  27.539  24.252  1.00  0.00     0.035 C 
ATOM     26  C   UNL A   1      29.988  26.354  23.947  1.00  0.00     0.007 C 
ENDBRANCH   8  25
ENDBRANCH   5   8
ENDBRANCH   3   4
ENDBRANCH   2   3
ENDBRANCH   1   2
BRANCH   1  27
ATOM     27  C   UNL A   1      34.923  31.340  27.816  1.00  0.00     0.002 C 
BRANCH  27  28
ATOM     28  C   UNL A   1      33.665  32.184  28.006  1.00  0.00     0.021 C 
BRANCH  28  29
ATOM     29  C   UNL A   1      33.890  33.684  27.891  1.00  0.00     0.116 C 
BRANCH  29  30
ATOM     30  N   UNL A   1      33.370  34.411  29.034  1.00  0.00    -0.352 N 
ATOM     31  C   UNL A   1      33.837  34.393  30.325  1.00  0.00     0.251 C 
ATOM     32  H   UNL A   1      32.590  34.987  28.864  1.00  0.00     0.163 HD
ATOM     33  O   UNL A   1      33.203  34.928  31.230  1.00  0.00    -0.269 OA
BRANCH  31  34
ATOM     34  C   UNL A   1      35.101  33.688  30.619  1.00  0.00     0.039 A 
ATOM     35  C   UNL A   1      35.078  32.585  31.473  1.00  0.00     0.014 A 
ATOM     36  C   UNL A   1      36.298  34.096  30.020  1.00  0.00     0.014 A 
ATOM     37  C   UNL A   1      36.249  31.859  31.692  1.00  0.00     0.010 A 
ATOM     38  C   UNL A   1      37.445  33.326  30.178  1.00  0.00     0.010 A 
ATOM     39  C   UNL A   1      37.436  32.208  31.027  1.00  0.00    -0.014 A 
BRANCH  39  40
ATOM     40  C   UNL A   1      38.687  31.436  31.228  1.00  0.00     0.031 A 
ATOM     41  C   UNL A   1      39.710  31.915  32.220  1.00  0.00     0.074 A 
ATOM     42  C   UNL A   1      38.929  30.339  30.484  1.00  0.00     0.049 A 
ATOM     43  N   UNL A   1      40.890  31.418  32.496  1.00  0.00    -0.248 NA
ATOM     44  C   UNL A   1      39.376  33.130  32.982  1.00  0.00     0.031 C 
ATOM     45  C   UNL A   1      38.034  29.789  29.464  1.00  0.00     0.029 A 
ATOM     46  N   UNL A   1      40.010  29.493  30.469  1.00  0.00    -0.354 N 
ATOM     47  C   UNL A   1      41.441  32.267  33.448  1.00  0.00     0.074 A 
ATOM     48  C   UNL A   1      40.495  33.339  33.660  1.00  0.00     0.031 C 
ATOM     49  C   UNL A   1      38.591  28.686  28.941  1.00  0.00     0.029 A 
ATOM     50  C   UNL A   1      39.896  28.472  29.559  1.00  0.00     0.049 A 
ATOM     51  H   UNL A   1      40.792  29.608  31.056  1.00  0.00     0.167 HD
ATOM     52  C   UNL A   1      42.621  32.156  34.103  1.00  0.00     0.031 A 
ATOM     53  C   UNL A   1      40.750  27.478  29.251  1.00  0.00     0.031 A 
ATOM     54  C   UNL A   1      43.559  31.084  33.902  1.00  0.00     0.049 A 
ATOM     55  C   UNL A   1      42.060  27.381  29.982  1.00  0.00     0.074 A 
ATOM     56  C   UNL A   1      44.757  30.853  34.553  1.00  0.00     0.029 A 
ATOM     57  N   UNL A   1      43.401  30.065  32.975  1.00  0.00    -0.354 N 
ATOM     58  N   UNL A   1      42.541  28.157  30.923  1.00  0.00    -0.248 NA
ATOM     59  C   UNL A   1      42.942  26.264  29.615  1.00  0.00     0.031 C 
ATOM     60  C   UNL A   1      45.349  29.720  33.987  1.00  0.00     0.029 A 
ATOM     61  C   UNL A   1      44.492  29.214  33.022  1.00  0.00     0.049 A 
ATOM     62  H   UNL A   1      42.629  29.961  32.374  1.00  0.00     0.167 HD
ATOM     63  C   UNL A   1      43.765  27.607  31.280  1.00  0.00     0.074 A 
ATOM     64  C   UNL A   1      43.947  26.424  30.464  1.00  0.00     0.031 C 
ATOM     65  C   UNL A   1      44.659  28.041  32.202  1.00  0.00     0.031 A 
BRANCH  52  66
ATOM     66  C   UNL A   1      42.962  33.234  35.095  1.00  0.00    -0.014 A 
ATOM     67  C   UNL A   1      43.671  34.382  34.707  1.00  0.00     0.009 A 
ATOM     68  C   UNL A   1      42.553  33.108  36.431  1.00  0.00     0.009 A 
ATOM     69  C   UNL A   1      44.000  35.361  35.646  1.00  0.00     0.001 A 
ATOM     70  C   UNL A   1      42.857  34.104  37.362  1.00  0.00     0.001 A 
ATOM     71  C   UNL A   1      43.590  35.223  36.972  1.00  0.00     0.000 A 
ENDBRANCH  52  66
BRANCH  53  72
ATOM     72  C   UNL A   1      40.387  26.480  28.211  1.00  0.00    -0.014 A 
ATOM     73  C   UNL A   1      39.498  25.436  28.504  1.00  0.00     0.009 A 
ATOM     74  C   UNL A   1      40.929  26.567  26.919  1.00  0.00     0.009 A 
ATOM     75  C   UNL A   1      39.179  24.484  27.533  1.00  0.00     0.001 A 
ATOM     76  C   UNL A   1      40.586  25.631  25.941  1.00  0.00     0.001 A 
ATOM     77  C   UNL A   1      39.719  24.584  26.251  1.00  0.00     0.000 A 
ENDBRANCH  53  72
BRANCH  65  78
ATOM     78  C   UNL A   1      45.896  27.213  32.404  1.00  0.00    -0.014 A 
ATOM     79  C   UNL A   1      47.078  27.484  31.699  1.00  0.00     0.009 A 
ATOM     80  C   UNL A   1      45.888  26.175  33.349  1.00  0.00     0.009 A 
ATOM     81  C   UNL A   1      48.220  26.708  31.913  1.00  0.00     0.001 A 
ATOM     82  C   UNL A   1      47.039  25.420  33.581  1.00  0.00     0.001 A 
ATOM     83  C   UNL A   1      48.200  25.682  32.857  1.00  0.00     0.000 A 
ENDBRANCH  65  78
ENDBRANCH  39  40
ENDBRANCH  31  34
ENDBRANCH  29  30
ENDBRANCH  28  29
ENDBRANCH  27  28
ENDBRANCH   1  27
TORSDOF 18
ENDMDL
MODEL 3
REMARK VINA RESULT:      -9.9      1.157      6.001
REMARK SMILES CCC1(CC)CCN(C(=O)NC(CC)(CC)C(=O)NCCCCCCNC(=O)c2ccc(-c3c4nc(c(-c5ccccc5)c5ccc([nH]5)c(-c5ccccc5)c5nc(c(-c6ccccc6)c6ccc3[nH]6)C=C5)C=C4)cc2)CC1
REMARK SMILES IDX 22 1 21 2 20 3 19 4 17 5 18 6 12 8 11 9 3 10 6 11 78 12 7 13
REMARK SMILES IDX 77 14 8 15 9 16 10 17 2 19 1 20 4 21 5 22 13 23 14 24 15 25
REMARK SMILES IDX 16 26 23 27 24 28 25 29 26 30 27 31 28 33 29 34 30 35 76 36
REMARK SMILES IDX 31 37 75 38 32 39 33 40 34 41 69 42 35 43 74 44 68 45 70 46
REMARK SMILES IDX 36 47 73 48 67 49 66 50 37 52 59 53 44 54 58 55 45 56 48 57
REMARK SMILES IDX 57 58 71 59 46 60 47 61 56 63 72 64 49 65 38 66 39 67 43 68
REMARK SMILES IDX 40 69 42 70 41 71 60 72 61 73 65 74 62 75 64 76 63 77 50 78
REMARK SMILES IDX 51 79 55 80 52 81 54 82 53 83
REMARK H PARENT 19 7 11 18 26 32 70 51 48 62
REMARK Flexibility Score: inf
ROOT
ATOM      1  C   UNL A   1      37.040  21.569  24.176  1.00  0.00     0.002 C 
ENDROOT
BRANCH   1   2
ATOM      2  C   UNL A   1      36.716  23.048  23.917  1.00  0.00     0.021 C 
BRANCH   2   3
ATOM      3  C   UNL A   1      35.985  23.746  25.065  1.00  0.00     0.116 C 
BRANCH   3   4
ATOM      4  N   UNL A   1      34.769  23.052  25.423  1.00  0.00    -0.354 N 
ATOM      5  C   UNL A   1      33.583  23.753  25.386  1.00  0.00     0.245 C 
ATOM      6  O   UNL A   1      33.308  24.477  26.338  1.00  0.00    -0.272 OA
ATOM      7  H   UNL A   1      34.787  22.104  25.688  1.00  0.00     0.163 HD
BRANCH   5   8
ATOM      8  C   UNL A   1      32.697  23.590  24.118  1.00  0.00     0.120 C 
BRANCH   8   9
ATOM      9  N   UNL A   1      33.031  24.501  22.979  1.00  0.00    -0.323 N 
ATOM     10  C   UNL A   1      32.637  29.010  24.901  1.00  0.00    -0.027 C 
ATOM     11  C   UNL A   1      33.229  28.947  23.459  1.00  0.00     0.028 C 
ATOM     12  C   UNL A   1      32.228  27.557  25.307  1.00  0.00     0.028 C 
ATOM     13  C   UNL A   1      32.415  28.091  22.469  1.00  0.00     0.122 C 
ATOM     14  C   UNL A   1      31.420  26.807  24.247  1.00  0.00     0.122 C 
ATOM     15  N   UNL A   1      32.178  26.751  23.020  1.00  0.00    -0.325 N 
ATOM     16  C   UNL A   1      32.774  25.689  22.416  1.00  0.00     0.318 C 
ATOM     17  O   UNL A   1      33.225  25.785  21.268  1.00  0.00    -0.249 OA
ATOM     18  H   UNL A   1      33.707  24.050  22.425  1.00  0.00     0.166 HD
BRANCH  10  19
ATOM     19  C   UNL A   1      31.359  29.889  24.995  1.00  0.00     0.004 C 
ATOM     20  C   UNL A   1      31.322  30.995  26.036  1.00  0.00     0.004 C 
ENDBRANCH  10  19
BRANCH  10  21
ATOM     21  C   UNL A   1      33.741  29.435  25.929  1.00  0.00     0.004 C 
ATOM     22  C   UNL A   1      34.230  28.413  26.946  1.00  0.00     0.004 C 
ENDBRANCH  10  21
ENDBRANCH   8   9
BRANCH   8  23
ATOM     23  C   UNL A   1      31.167  23.708  24.437  1.00  0.00     0.035 C 
ATOM     24  C   UNL A   1      30.643  22.854  25.589  1.00  0.00     0.007 C 
ENDBRANCH   8  23
BRANCH   8  25
ATOM     25  C   UNL A   1      33.052  22.132  23.630  1.00  0.00     0.035 C 
ATOM     26  C   UNL A   1      32.223  21.595  22.456  1.00  0.00     0.007 C 
ENDBRANCH   8  25
ENDBRANCH   5   8
ENDBRANCH   3   4
ENDBRANCH   2   3
ENDBRANCH   1   2
BRANCH   1  27
ATOM     27  C   UNL A   1      37.979  21.300  25.356  1.00  0.00     0.002 C 
BRANCH  27  28
ATOM     28  C   UNL A   1      38.730  19.972  25.290  1.00  0.00     0.021 C 
BRANCH  28  29
ATOM     29  C   UNL A   1      39.794  19.798  26.363  1.00  0.00     0.116 C 
BRANCH  29  30
ATOM     30  N   UNL A   1      40.989  19.149  25.857  1.00  0.00    -0.352 N 
ATOM     31  C   UNL A   1      42.241  19.691  25.709  1.00  0.00     0.251 C 
ATOM     32  H   UNL A   1      40.891  18.207  25.589  1.00  0.00     0.163 HD
ATOM     33  O   UNL A   1      43.125  19.080  25.115  1.00  0.00    -0.269 OA
BRANCH  31  34
ATOM     34  C   UNL A   1      42.505  21.042  26.248  1.00  0.00     0.039 A 
ATOM     35  C   UNL A   1      42.596  21.213  27.629  1.00  0.00     0.014 A 
ATOM     36  C   UNL A   1      42.699  22.125  25.385  1.00  0.00     0.014 A 
ATOM     37  C   UNL A   1      42.928  22.465  28.148  1.00  0.00     0.010 A 
ATOM     38  C   UNL A   1      43.106  23.352  25.898  1.00  0.00     0.010 A 
ATOM     39  C   UNL A   1      43.210  23.538  27.286  1.00  0.00    -0.014 A 
BRANCH  39  40
ATOM     40  C   UNL A   1      43.588  24.871  27.816  1.00  0.00     0.031 A 
ATOM     41  C   UNL A   1      42.519  25.880  28.134  1.00  0.00     0.074 A 
ATOM     42  C   UNL A   1      44.888  25.197  27.958  1.00  0.00     0.049 A 
ATOM     43  N   UNL A   1      42.645  27.116  28.546  1.00  0.00    -0.248 NA
ATOM     44  C   UNL A   1      41.124  25.451  27.936  1.00  0.00     0.031 C 
ATOM     45  C   UNL A   1      46.021  24.322  27.652  1.00  0.00     0.029 A 
ATOM     46  N   UNL A   1      45.472  26.360  28.393  1.00  0.00    -0.354 N 
ATOM     47  C   UNL A   1      41.352  27.615  28.639  1.00  0.00     0.074 A 
ATOM     48  C   UNL A   1      40.460  26.569  28.188  1.00  0.00     0.031 C 
ATOM     49  C   UNL A   1      47.163  24.971  27.932  1.00  0.00     0.029 A 
ATOM     50  C   UNL A   1      46.845  26.316  28.399  1.00  0.00     0.049 A 
ATOM     51  H   UNL A   1      44.957  27.149  28.674  1.00  0.00     0.167 HD
ATOM     52  C   UNL A   1      40.938  28.826  29.079  1.00  0.00     0.031 A 
ATOM     53  C   UNL A   1      47.746  27.258  28.736  1.00  0.00     0.031 A 
ATOM     54  C   UNL A   1      41.823  29.864  29.539  1.00  0.00     0.049 A 
ATOM     55  C   UNL A   1      47.265  28.601  29.210  1.00  0.00     0.074 A 
ATOM     56  C   UNL A   1      41.500  31.107  30.053  1.00  0.00     0.029 A 
ATOM     57  N   UNL A   1      43.206  29.776  29.535  1.00  0.00    -0.354 N 
ATOM     58  N   UNL A   1      46.037  29.036  29.351  1.00  0.00    -0.248 NA
ATOM     59  C   UNL A   1      48.297  29.580  29.581  1.00  0.00     0.031 C 
ATOM     60  C   UNL A   1      42.691  31.791  30.316  1.00  0.00     0.029 A 
ATOM     61  C   UNL A   1      43.754  30.952  30.018  1.00  0.00     0.049 A 
ATOM     62  H   UNL A   1      43.723  28.994  29.235  1.00  0.00     0.167 HD
ATOM     63  C   UNL A   1      46.146  30.326  29.853  1.00  0.00     0.074 A 
ATOM     64  C   UNL A   1      47.561  30.598  30.006  1.00  0.00     0.031 C 
ATOM     65  C   UNL A   1      45.164  31.207  30.162  1.00  0.00     0.031 A 
BRANCH  52  66
ATOM     66  C   UNL A   1      39.458  29.093  29.074  1.00  0.00    -0.014 A 
ATOM     67  C   UNL A   1      38.824  29.651  27.952  1.00  0.00     0.009 A 
ATOM     68  C   UNL A   1      38.685  28.765  30.198  1.00  0.00     0.009 A 
ATOM     69  C   UNL A   1      37.452  29.914  27.973  1.00  0.00     0.001 A 
ATOM     70  C   UNL A   1      37.309  29.002  30.204  1.00  0.00     0.001 A 
ATOM     71  C   UNL A   1      36.696  29.586  29.098  1.00  0.00     0.000 A 
ENDBRANCH  52  66
BRANCH  53  72
ATOM     72  C   UNL A   1      49.200  26.958  28.655  1.00  0.00    -0.014 A 
ATOM     73  C   UNL A   1      49.911  27.194  27.469  1.00  0.00     0.009 A 
ATOM     74  C   UNL A   1      49.884  26.435  29.764  1.00  0.00     0.009 A 
ATOM     75  C   UNL A   1      51.271  26.887  27.386  1.00  0.00     0.001 A 
ATOM     76  C   UNL A   1      51.250  26.156  29.688  1.00  0.00     0.001 A 
ATOM     77  C   UNL A   1      51.941  26.373  28.496  1.00  0.00     0.000 A 
ENDBRANCH  53  72
BRANCH  65  78
ATOM     78  C   UNL A   1      45.583  32.534  30.730  1.00  0.00    -0.014 A 
ATOM     79  C   UNL A   1      45.809  33.644  29.903  1.00  0.00     0.009 A 
ATOM     80  C   UNL A   1      45.710  32.683  32.121  1.00  0.00     0.009 A 
ATOM     81  C   UNL A   1      46.186  34.870  30.456  1.00  0.00     0.001 A 
ATOM     82  C   UNL A   1      46.058  33.917  32.672  1.00  0.00     0.001 A 
ATOM     83  C   UNL A   1      46.304  35.006  31.839  1.00  0.00     0.000 A 
ENDBRANCH  65  78
ENDBRANCH  39  40
ENDBRANCH  31  34
ENDBRANCH  29  30
ENDBRANCH  28  29
ENDBRANCH  27  28
ENDBRANCH   1  27
TORSDOF 18
ENDMDL
