MODEL 1
REMARK VINA RESULT:     -10.7      0.000      0.000
REMARK SMILES O=C(Cc1cccc(-c2ccn(C(F)F)c(=O)c2)c1)NCCCCCCNC(=O)c1ccc(-c2c3nc(c(-c4ccccc4)c4ccc([nH]4)c(-c4ccccc4)c4nc(c(-c5ccccc5)c5ccc2[nH]5)C=C4)C=C3)cc1
REMARK SMILES IDX 23 1 22 2 21 3 20 4 1 5 2 6 3 8 4 9 5 10 19 11 6 12 8 13
REMARK SMILES IDX 7 14 9 15 10 16 18 17 11 18 16 19 12 20 17 21 13 22 14 23
REMARK SMILES IDX 15 24 24 25 25 26 26 27 27 28 28 29 29 31 30 32 31 33 77 34
REMARK SMILES IDX 32 35 76 36 33 37 34 38 35 39 70 40 36 41 75 42 69 43 71 44
REMARK SMILES IDX 37 45 74 46 68 47 67 48 38 50 60 51 45 52 59 53 46 54 49 55
REMARK SMILES IDX 58 56 72 57 47 58 48 59 57 61 73 62 50 63 39 64 40 65 44 66
REMARK SMILES IDX 41 67 43 68 42 69 61 70 62 71 66 72 63 73 65 74 64 75 51 76
REMARK SMILES IDX 52 77 56 78 53 79 55 80 54 81
REMARK H PARENT 20 7 27 30 71 49 49 60
REMARK Flexibility Score: inf
ROOT
ATOM      1  C   UNL A   1      32.496  26.216  26.113  1.00  0.00     0.002 C 
ENDROOT
BRANCH   1   2
ATOM      2  C   UNL A   1      31.056  26.742  26.022  1.00  0.00     0.021 C 
BRANCH   2   3
ATOM      3  C   UNL A   1      29.977  25.659  26.047  1.00  0.00     0.116 C 
BRANCH   3   4
ATOM      4  N   UNL A   1      30.474  24.415  25.501  1.00  0.00    -0.356 N 
ATOM      5  O   UNL A   1      30.479  23.222  27.462  1.00  0.00    -0.275 OA
ATOM      6  C   UNL A   1      30.708  23.289  26.258  1.00  0.00     0.224 C 
ATOM      7  H   UNL A   1      30.654  24.372  24.534  1.00  0.00     0.163 HD
BRANCH   6   8
ATOM      8  C   UNL A   1      31.358  22.146  25.492  1.00  0.00     0.135 C 
BRANCH   8   9
ATOM      9  C   UNL A   1      32.517  22.586  24.630  1.00  0.00    -0.038 A 
ATOM     10  C   UNL A   1      32.310  23.065  23.329  1.00  0.00     0.004 A 
ATOM     11  C   UNL A   1      33.827  22.477  25.116  1.00  0.00     0.013 A 
ATOM     12  C   UNL A   1      33.397  23.411  22.525  1.00  0.00     0.001 A 
ATOM     13  C   UNL A   1      34.923  22.836  24.320  1.00  0.00    -0.018 A 
ATOM     14  C   UNL A   1      34.699  23.295  23.016  1.00  0.00     0.009 A 
BRANCH  13  15
ATOM     15  C   UNL A   1      36.283  22.722  24.877  1.00  0.00    -0.011 A 
ATOM     16  C   UNL A   1      37.029  21.477  24.863  1.00  0.00     0.027 A 
ATOM     17  C   UNL A   1      36.820  23.797  25.479  1.00  0.00     0.080 A 
ATOM     18  C   UNL A   1      38.214  21.387  25.476  1.00  0.00     0.095 A 
ATOM     19  C   UNL A   1      38.148  23.718  26.148  1.00  0.00     0.255 A 
ATOM     20  N   UNL A   1      38.768  22.480  26.117  1.00  0.00    -0.258 N 
ATOM     21  O   UNL A   1      38.594  24.728  26.684  1.00  0.00    -0.269 OA
BRANCH  20  22
ATOM     22  C   UNL A   1      40.022  22.360  26.814  1.00  0.00     0.451 C 
ATOM     23  F   UNL A   1      39.995  23.022  27.996  1.00  0.00    -0.185 F 
ATOM     24  F   UNL A   1      40.313  21.060  27.067  1.00  0.00    -0.185 F 
ENDBRANCH  20  22
ENDBRANCH  13  15
ENDBRANCH   8   9
ENDBRANCH   6   8
ENDBRANCH   3   4
ENDBRANCH   2   3
ENDBRANCH   1   2
BRANCH   1  25
ATOM     25  C   UNL A   1      33.381  26.500  24.897  1.00  0.00     0.002 C 
BRANCH  25  26
ATOM     26  C   UNL A   1      33.076  27.805  24.159  1.00  0.00     0.021 C 
BRANCH  26  27
ATOM     27  C   UNL A   1      33.792  29.038  24.705  1.00  0.00     0.116 C 
BRANCH  27  28
ATOM     28  N   UNL A   1      32.872  30.025  25.248  1.00  0.00    -0.352 N 
ATOM     29  C   UNL A   1      32.929  30.706  26.438  1.00  0.00     0.251 C 
ATOM     30  H   UNL A   1      32.095  30.233  24.681  1.00  0.00     0.163 HD
ATOM     31  O   UNL A   1      31.972  31.390  26.802  1.00  0.00    -0.269 OA
BRANCH  29  32
ATOM     32  C   UNL A   1      34.126  30.604  27.300  1.00  0.00     0.039 A 
ATOM     33  C   UNL A   1      34.468  29.359  27.835  1.00  0.00     0.014 A 
ATOM     34  C   UNL A   1      34.907  31.727  27.587  1.00  0.00     0.014 A 
ATOM     35  C   UNL A   1      35.626  29.229  28.605  1.00  0.00     0.010 A 
ATOM     36  C   UNL A   1      36.100  31.581  28.293  1.00  0.00     0.010 A 
ATOM     37  C   UNL A   1      36.471  30.332  28.811  1.00  0.00    -0.014 A 
BRANCH  37  38
ATOM     38  C   UNL A   1      37.747  30.192  29.558  1.00  0.00     0.031 A 
ATOM     39  C   UNL A   1      38.911  29.458  28.947  1.00  0.00     0.074 A 
ATOM     40  C   UNL A   1      37.842  30.673  30.814  1.00  0.00     0.049 A 
ATOM     41  N   UNL A   1      40.084  29.195  29.466  1.00  0.00    -0.248 NA
ATOM     42  C   UNL A   1      38.723  28.930  27.587  1.00  0.00     0.031 C 
ATOM     43  C   UNL A   1      36.776  31.368  31.537  1.00  0.00     0.029 A 
ATOM     44  N   UNL A   1      38.884  30.643  31.706  1.00  0.00    -0.354 N 
ATOM     45  C   UNL A   1      40.765  28.458  28.506  1.00  0.00     0.074 A 
ATOM     46  C   UNL A   1      39.858  28.275  27.393  1.00  0.00     0.031 C 
ATOM     47  C   UNL A   1      37.229  31.725  32.750  1.00  0.00     0.029 A 
ATOM     48  C   UNL A   1      38.599  31.247  32.907  1.00  0.00     0.049 A 
ATOM     49  H   UNL A   1      39.754  30.228  31.505  1.00  0.00     0.167 HD
ATOM     50  C   UNL A   1      42.036  27.991  28.537  1.00  0.00     0.031 A 
ATOM     51  C   UNL A   1      39.351  31.395  34.013  1.00  0.00     0.031 A 
ATOM     52  C   UNL A   1      42.943  28.180  29.638  1.00  0.00     0.049 A 
ATOM     53  C   UNL A   1      40.755  30.856  34.027  1.00  0.00     0.074 A 
ATOM     54  C   UNL A   1      44.269  27.795  29.737  1.00  0.00     0.029 A 
ATOM     55  N   UNL A   1      42.615  28.800  30.832  1.00  0.00    -0.354 N 
ATOM     56  N   UNL A   1      41.407  30.224  33.082  1.00  0.00    -0.248 NA
ATOM     57  C   UNL A   1      41.529  31.064  35.259  1.00  0.00     0.031 C 
ATOM     58  C   UNL A   1      44.727  28.134  31.014  1.00  0.00     0.029 A 
ATOM     59  C   UNL A   1      43.706  28.786  31.685  1.00  0.00     0.049 A 
ATOM     60  H   UNL A   1      41.737  29.194  31.044  1.00  0.00     0.167 HD
ATOM     61  C   UNL A   1      42.676  29.985  33.593  1.00  0.00     0.074 A 
ATOM     62  C   UNL A   1      42.706  30.554  34.925  1.00  0.00     0.031 C 
ATOM     63  C   UNL A   1      43.724  29.352  33.010  1.00  0.00     0.031 A 
BRANCH  50  64
ATOM     64  C   UNL A   1      42.520  27.214  27.341  1.00  0.00    -0.014 A 
ATOM     65  C   UNL A   1      43.134  27.857  26.254  1.00  0.00     0.009 A 
ATOM     66  C   UNL A   1      42.394  25.816  27.320  1.00  0.00     0.009 A 
ATOM     67  C   UNL A   1      43.578  27.119  25.155  1.00  0.00     0.001 A 
ATOM     68  C   UNL A   1      42.867  25.079  26.233  1.00  0.00     0.001 A 
ATOM     69  C   UNL A   1      43.449  25.731  25.147  1.00  0.00     0.000 A 
ENDBRANCH  50  64
BRANCH  51  70
ATOM     70  C   UNL A   1      38.799  32.101  35.199  1.00  0.00    -0.014 A 
ATOM     71  C   UNL A   1      38.224  31.377  36.256  1.00  0.00     0.009 A 
ATOM     72  C   UNL A   1      38.839  33.501  35.281  1.00  0.00     0.009 A 
ATOM     73  C   UNL A   1      37.676  32.042  37.354  1.00  0.00     0.001 A 
ATOM     74  C   UNL A   1      38.318  34.162  36.395  1.00  0.00     0.001 A 
ATOM     75  C   UNL A   1      37.729  33.433  37.426  1.00  0.00     0.000 A 
ENDBRANCH  51  70
BRANCH  63  76
ATOM     76  C   UNL A   1      45.003  29.274  33.794  1.00  0.00    -0.014 A 
ATOM     77  C   UNL A   1      45.918  30.338  33.811  1.00  0.00     0.009 A 
ATOM     78  C   UNL A   1      45.279  28.128  34.557  1.00  0.00     0.009 A 
ATOM     79  C   UNL A   1      47.100  30.241  34.549  1.00  0.00     0.001 A 
ATOM     80  C   UNL A   1      46.446  28.047  35.319  1.00  0.00     0.001 A 
ATOM     81  C   UNL A   1      47.359  29.099  35.307  1.00  0.00     0.000 A 
ENDBRANCH  63  76
ENDBRANCH  37  38
ENDBRANCH  29  32
ENDBRANCH  27  28
ENDBRANCH  26  27
ENDBRANCH  25  26
ENDBRANCH   1  25
TORSDOF 16
ENDMDL
MODEL 2
REMARK VINA RESULT:     -10.6      3.624      6.970
REMARK SMILES O=C(Cc1cccc(-c2ccn(C(F)F)c(=O)c2)c1)NCCCCCCNC(=O)c1ccc(-c2c3nc(c(-c4ccccc4)c4ccc([nH]4)c(-c4ccccc4)c4nc(c(-c5ccccc5)c5ccc2[nH]5)C=C4)C=C3)cc1
REMARK SMILES IDX 23 1 22 2 21 3 20 4 1 5 2 6 3 8 4 9 5 10 19 11 6 12 8 13
REMARK SMILES IDX 7 14 9 15 10 16 18 17 11 18 16 19 12 20 17 21 13 22 14 23
REMARK SMILES IDX 15 24 24 25 25 26 26 27 27 28 28 29 29 31 30 32 31 33 77 34
REMARK SMILES IDX 32 35 76 36 33 37 34 38 35 39 70 40 36 41 75 42 69 43 71 44
REMARK SMILES IDX 37 45 74 46 68 47 67 48 38 50 60 51 45 52 59 53 46 54 49 55
REMARK SMILES IDX 58 56 72 57 47 58 48 59 57 61 73 62 50 63 39 64 40 65 44 66
REMARK SMILES IDX 41 67 43 68 42 69 61 70 62 71 66 72 63 73 65 74 64 75 51 76
REMARK SMILES IDX 52 77 56 78 53 79 55 80 54 81
REMARK H PARENT 20 7 27 30 71 49 49 60
REMARK Flexibility Score: inf
ROOT
ATOM      1  C   UNL A   1      31.223  27.876  25.309  1.00  0.00     0.002 C 
ENDROOT
BRANCH   1   2
ATOM      2  C   UNL A   1      31.117  29.006  24.273  1.00  0.00     0.021 C 
BRANCH   2   3
ATOM      3  C   UNL A   1      31.570  28.625  22.864  1.00  0.00     0.116 C 
BRANCH   3   4
ATOM      4  N   UNL A   1      32.701  27.724  22.906  1.00  0.00    -0.356 N 
ATOM      5  O   UNL A   1      31.711  25.968  21.806  1.00  0.00    -0.275 OA
ATOM      6  C   UNL A   1      32.680  26.448  22.388  1.00  0.00     0.224 C 
ATOM      7  H   UNL A   1      33.532  28.041  23.327  1.00  0.00     0.163 HD
BRANCH   6   8
ATOM      8  C   UNL A   1      33.937  25.639  22.669  1.00  0.00     0.135 C 
BRANCH   8   9
ATOM      9  C   UNL A   1      33.786  24.680  23.826  1.00  0.00    -0.038 A 
ATOM     10  C   UNL A   1      33.731  25.144  25.147  1.00  0.00     0.004 A 
ATOM     11  C   UNL A   1      33.742  23.300  23.585  1.00  0.00     0.013 A 
ATOM     12  C   UNL A   1      33.651  24.241  26.209  1.00  0.00     0.001 A 
ATOM     13  C   UNL A   1      33.648  22.387  24.645  1.00  0.00    -0.018 A 
ATOM     14  C   UNL A   1      33.612  22.867  25.959  1.00  0.00     0.009 A 
BRANCH  13  15
ATOM     15  C   UNL A   1      33.587  20.944  24.345  1.00  0.00    -0.011 A 
ATOM     16  C   UNL A   1      32.407  20.315  23.782  1.00  0.00     0.027 A 
ATOM     17  C   UNL A   1      34.643  20.179  24.671  1.00  0.00     0.080 A 
ATOM     18  C   UNL A   1      32.353  18.988  23.628  1.00  0.00     0.095 A 
ATOM     19  C   UNL A   1      34.605  18.702  24.485  1.00  0.00     0.255 A 
ATOM     20  N   UNL A   1      33.423  18.186  23.978  1.00  0.00    -0.258 N 
ATOM     21  O   UNL A   1      35.595  18.048  24.798  1.00  0.00    -0.269 OA
BRANCH  20  22
ATOM     22  C   UNL A   1      33.337  16.755  23.851  1.00  0.00     0.451 C 
ATOM     23  F   UNL A   1      34.245  16.282  22.963  1.00  0.00    -0.185 F 
ATOM     24  F   UNL A   1      33.560  16.149  25.044  1.00  0.00    -0.185 F 
ENDBRANCH  20  22
ENDBRANCH  13  15
ENDBRANCH   8   9
ENDBRANCH   6   8
ENDBRANCH   3   4
ENDBRANCH   2   3
ENDBRANCH   1   2
BRANCH   1  25
ATOM     25  C   UNL A   1      31.393  28.327  26.762  1.00  0.00     0.002 C 
BRANCH  25  26
ATOM     26  C   UNL A   1      32.770  28.060  27.372  1.00  0.00     0.021 C 
BRANCH  26  27
ATOM     27  C   UNL A   1      33.873  29.013  26.920  1.00  0.00     0.116 C 
BRANCH  27  28
ATOM     28  N   UNL A   1      33.810  30.301  27.593  1.00  0.00    -0.352 N 
ATOM     29  C   UNL A   1      34.730  30.899  28.417  1.00  0.00     0.251 C 
ATOM     30  H   UNL A   1      32.988  30.818  27.435  1.00  0.00     0.163 HD
ATOM     31  O   UNL A   1      34.435  31.927  29.025  1.00  0.00    -0.269 OA
BRANCH  29  32
ATOM     32  C   UNL A   1      36.070  30.299  28.599  1.00  0.00     0.039 A 
ATOM     33  C   UNL A   1      36.987  30.364  27.546  1.00  0.00     0.014 A 
ATOM     34  C   UNL A   1      36.423  29.671  29.797  1.00  0.00     0.014 A 
ATOM     35  C   UNL A   1      38.276  29.854  27.717  1.00  0.00     0.010 A 
ATOM     36  C   UNL A   1      37.730  29.230  29.991  1.00  0.00     0.010 A 
ATOM     37  C   UNL A   1      38.670  29.315  28.953  1.00  0.00    -0.014 A 
BRANCH  37  38
ATOM     38  C   UNL A   1      40.061  28.844  29.177  1.00  0.00     0.031 A 
ATOM     39  C   UNL A   1      41.083  29.756  29.801  1.00  0.00     0.074 A 
ATOM     40  C   UNL A   1      40.424  27.614  28.761  1.00  0.00     0.049 A 
ATOM     41  N   UNL A   1      42.353  29.537  30.030  1.00  0.00    -0.248 NA
ATOM     42  C   UNL A   1      40.623  31.097  30.197  1.00  0.00     0.031 C 
ATOM     43  C   UNL A   1      39.542  26.647  28.106  1.00  0.00     0.029 A 
ATOM     44  N   UNL A   1      41.635  26.971  28.825  1.00  0.00    -0.354 N 
ATOM     45  C   UNL A   1      42.847  30.714  30.578  1.00  0.00     0.074 A 
ATOM     46  C   UNL A   1      41.751  31.660  30.603  1.00  0.00     0.031 C 
ATOM     47  C   UNL A   1      40.233  25.523  27.854  1.00  0.00     0.029 A 
ATOM     48  C   UNL A   1      41.614  25.705  28.291  1.00  0.00     0.049 A 
ATOM     49  H   UNL A   1      42.441  27.378  29.216  1.00  0.00     0.167 HD
ATOM     50  C   UNL A   1      44.093  30.981  31.036  1.00  0.00     0.031 A 
ATOM     51  C   UNL A   1      42.596  24.794  28.160  1.00  0.00     0.031 A 
ATOM     52  C   UNL A   1      45.181  30.039  31.021  1.00  0.00     0.049 A 
ATOM     53  C   UNL A   1      43.975  25.119  28.665  1.00  0.00     0.074 A 
ATOM     54  C   UNL A   1      46.464  30.197  31.518  1.00  0.00     0.029 A 
ATOM     55  N   UNL A   1      45.117  28.768  30.475  1.00  0.00    -0.354 N 
ATOM     56  N   UNL A   1      44.405  26.211  29.246  1.00  0.00    -0.248 NA
ATOM     57  C   UNL A   1      44.999  24.076  28.506  1.00  0.00     0.031 C 
ATOM     58  C   UNL A   1      47.192  29.041  31.222  1.00  0.00     0.029 A 
ATOM     59  C   UNL A   1      46.345  28.139  30.599  1.00  0.00     0.049 A 
ATOM     60  H   UNL A   1      44.317  28.369  30.061  1.00  0.00     0.167 HD
ATOM     61  C   UNL A   1      45.741  25.978  29.549  1.00  0.00     0.074 A 
ATOM     62  C   UNL A   1      46.043  24.633  29.101  1.00  0.00     0.031 C 
ATOM     63  C   UNL A   1      46.636  26.802  30.146  1.00  0.00     0.031 A 
BRANCH  50  64
ATOM     64  C   UNL A   1      44.351  32.358  31.586  1.00  0.00    -0.014 A 
ATOM     65  C   UNL A   1      44.116  32.660  32.937  1.00  0.00     0.009 A 
ATOM     66  C   UNL A   1      44.873  33.356  30.749  1.00  0.00     0.009 A 
ATOM     67  C   UNL A   1      44.363  33.943  33.429  1.00  0.00     0.001 A 
ATOM     68  C   UNL A   1      45.148  34.630  31.251  1.00  0.00     0.001 A 
ATOM     69  C   UNL A   1      44.884  34.925  32.588  1.00  0.00     0.000 A 
ENDBRANCH  50  64
BRANCH  51  70
ATOM     70  C   UNL A   1      42.310  23.475  27.536  1.00  0.00    -0.014 A 
ATOM     71  C   UNL A   1      41.812  22.414  28.308  1.00  0.00     0.009 A 
ATOM     72  C   UNL A   1      42.535  23.268  26.166  1.00  0.00     0.009 A 
ATOM     73  C   UNL A   1      41.575  21.166  27.729  1.00  0.00     0.001 A 
ATOM     74  C   UNL A   1      42.267  22.028  25.583  1.00  0.00     0.001 A 
ATOM     75  C   UNL A   1      41.796  20.976  26.366  1.00  0.00     0.000 A 
ENDBRANCH  51  70
BRANCH  63  76
ATOM     76  C   UNL A   1      48.018  26.262  30.385  1.00  0.00    -0.014 A 
ATOM     77  C   UNL A   1      48.384  25.708  31.621  1.00  0.00     0.009 A 
ATOM     78  C   UNL A   1      48.956  26.275  29.341  1.00  0.00     0.009 A 
ATOM     79  C   UNL A   1      49.675  25.210  31.817  1.00  0.00     0.001 A 
ATOM     80  C   UNL A   1      50.235  25.749  29.530  1.00  0.00     0.001 A 
ATOM     81  C   UNL A   1      50.596  25.226  30.770  1.00  0.00     0.000 A 
ENDBRANCH  63  76
ENDBRANCH  37  38
ENDBRANCH  29  32
ENDBRANCH  27  28
ENDBRANCH  26  27
ENDBRANCH  25  26
ENDBRANCH   1  25
TORSDOF 16
ENDMDL
MODEL 3
REMARK VINA RESULT:     -10.5      5.099      9.214
REMARK SMILES O=C(Cc1cccc(-c2ccn(C(F)F)c(=O)c2)c1)NCCCCCCNC(=O)c1ccc(-c2c3nc(c(-c4ccccc4)c4ccc([nH]4)c(-c4ccccc4)c4nc(c(-c5ccccc5)c5ccc2[nH]5)C=C4)C=C3)cc1
REMARK SMILES IDX 23 1 22 2 21 3 20 4 1 5 2 6 3 8 4 9 5 10 19 11 6 12 8 13
REMARK SMILES IDX 7 14 9 15 10 16 18 17 11 18 16 19 12 20 17 21 13 22 14 23
REMARK SMILES IDX 15 24 24 25 25 26 26 27 27 28 28 29 29 31 30 32 31 33 77 34
REMARK SMILES IDX 32 35 76 36 33 37 34 38 35 39 70 40 36 41 75 42 69 43 71 44
REMARK SMILES IDX 37 45 74 46 68 47 67 48 38 50 60 51 45 52 59 53 46 54 49 55
REMARK SMILES IDX 58 56 72 57 47 58 48 59 57 61 73 62 50 63 39 64 40 65 44 66
REMARK SMILES IDX 41 67 43 68 42 69 61 70 62 71 66 72 63 73 65 74 64 75 51 76
REMARK SMILES IDX 52 77 56 78 53 79 55 80 54 81
REMARK H PARENT 20 7 27 30 71 49 49 60
REMARK Flexibility Score: inf
ROOT
ATOM      1  C   UNL A   1      44.729  24.375  28.237  1.00  0.00     0.002 C 
ENDROOT
BRANCH   1   2
ATOM      2  C   UNL A   1      43.993  23.570  29.319  1.00  0.00     0.021 C 
BRANCH   2   3
ATOM      3  C   UNL A   1      42.970  22.568  28.785  1.00  0.00     0.116 C 
BRANCH   3   4
ATOM      4  N   UNL A   1      41.674  23.187  28.614  1.00  0.00    -0.356 N 
ATOM      5  O   UNL A   1      41.465  22.795  26.361  1.00  0.00    -0.275 OA
ATOM      6  C   UNL A   1      41.024  23.272  27.403  1.00  0.00     0.224 C 
ATOM      7  H   UNL A   1      41.232  23.567  29.407  1.00  0.00     0.163 HD
BRANCH   6   8
ATOM      8  C   UNL A   1      39.738  24.085  27.441  1.00  0.00     0.135 C 
BRANCH   8   9
ATOM      9  C   UNL A   1      39.975  25.576  27.483  1.00  0.00    -0.038 A 
ATOM     10  C   UNL A   1      40.582  26.244  26.411  1.00  0.00     0.004 A 
ATOM     11  C   UNL A   1      39.623  26.304  28.628  1.00  0.00     0.013 A 
ATOM     12  C   UNL A   1      40.848  27.611  26.491  1.00  0.00     0.001 A 
ATOM     13  C   UNL A   1      39.874  27.681  28.711  1.00  0.00    -0.018 A 
ATOM     14  C   UNL A   1      40.498  28.328  27.638  1.00  0.00     0.009 A 
BRANCH  13  15
ATOM     15  C   UNL A   1      39.472  28.411  29.928  1.00  0.00    -0.011 A 
ATOM     16  C   UNL A   1      38.903  27.745  31.084  1.00  0.00     0.027 A 
ATOM     17  C   UNL A   1      39.577  29.751  29.932  1.00  0.00     0.080 A 
ATOM     18  C   UNL A   1      38.451  28.455  32.123  1.00  0.00     0.095 A 
ATOM     19  C   UNL A   1      39.096  30.554  31.092  1.00  0.00     0.255 A 
ATOM     20  N   UNL A   1      38.533  29.834  32.133  1.00  0.00    -0.258 N 
ATOM     21  O   UNL A   1      39.215  31.774  31.047  1.00  0.00    -0.269 OA
BRANCH  20  22
ATOM     22  C   UNL A   1      38.000  30.591  33.236  1.00  0.00     0.451 C 
ATOM     23  F   UNL A   1      36.678  30.838  33.071  1.00  0.00    -0.185 F 
ATOM     24  F   UNL A   1      38.161  29.923  34.404  1.00  0.00    -0.185 F 
ENDBRANCH  20  22
ENDBRANCH  13  15
ENDBRANCH   8   9
ENDBRANCH   6   8
ENDBRANCH   3   4
ENDBRANCH   2   3
ENDBRANCH   1   2
BRANCH   1  25
ATOM     25  C   UNL A   1      46.206  24.663  28.518  1.00  0.00     0.002 C 
BRANCH  25  26
ATOM     26  C   UNL A   1      47.147  24.466  27.328  1.00  0.00     0.021 C 
BRANCH  26  27
ATOM     27  C   UNL A   1      46.455  24.291  25.979  1.00  0.00     0.116 C 
BRANCH  27  28
ATOM     28  N   UNL A   1      46.957  25.208  24.968  1.00  0.00    -0.352 N 
ATOM     29  C   UNL A   1      46.765  26.562  24.849  1.00  0.00     0.251 C 
ATOM     30  H   UNL A   1      47.514  24.799  24.268  1.00  0.00     0.163 HD
ATOM     31  O   UNL A   1      47.139  27.149  23.834  1.00  0.00    -0.269 OA
BRANCH  29  32
ATOM     32  C   UNL A   1      46.086  27.317  25.924  1.00  0.00     0.039 A 
ATOM     33  C   UNL A   1      44.689  27.326  25.964  1.00  0.00     0.014 A 
ATOM     34  C   UNL A   1      46.817  28.020  26.885  1.00  0.00     0.014 A 
ATOM     35  C   UNL A   1      44.029  27.986  27.003  1.00  0.00     0.010 A 
ATOM     36  C   UNL A   1      46.160  28.614  27.961  1.00  0.00     0.010 A 
ATOM     37  C   UNL A   1      44.760  28.605  28.030  1.00  0.00    -0.014 A 
BRANCH  37  38
ATOM     38  C   UNL A   1      44.074  29.240  29.185  1.00  0.00     0.031 A 
ATOM     39  C   UNL A   1      43.718  30.702  29.149  1.00  0.00     0.074 A 
ATOM     40  C   UNL A   1      43.825  28.516  30.294  1.00  0.00     0.049 A 
ATOM     41  N   UNL A   1      43.162  31.439  30.078  1.00  0.00    -0.248 NA
ATOM     42  C   UNL A   1      44.052  31.438  27.919  1.00  0.00     0.031 C 
ATOM     43  C   UNL A   1      44.156  27.101  30.474  1.00  0.00     0.029 A 
ATOM     44  N   UNL A   1      43.241  28.875  31.483  1.00  0.00    -0.354 N 
ATOM     45  C   UNL A   1      43.097  32.723  29.553  1.00  0.00     0.074 A 
ATOM     46  C   UNL A   1      43.712  32.676  28.244  1.00  0.00     0.031 C 
ATOM     47  C   UNL A   1      43.743  26.706  31.689  1.00  0.00     0.029 A 
ATOM     48  C   UNL A   1      43.158  27.845  32.389  1.00  0.00     0.049 A 
ATOM     49  H   UNL A   1      42.911  29.784  31.669  1.00  0.00     0.167 HD
ATOM     50  C   UNL A   1      42.557  33.838  30.101  1.00  0.00     0.031 A 
ATOM     51  C   UNL A   1      42.674  27.820  33.644  1.00  0.00     0.031 A 
ATOM     52  C   UNL A   1      41.936  33.886  31.399  1.00  0.00     0.049 A 
ATOM     53  C   UNL A   1      42.092  29.075  34.235  1.00  0.00     0.074 A 
ATOM     54  C   UNL A   1      41.309  34.955  32.014  1.00  0.00     0.029 A 
ATOM     55  N   UNL A   1      41.871  32.820  32.281  1.00  0.00    -0.354 N 
ATOM     56  N   UNL A   1      41.974  30.263  33.696  1.00  0.00    -0.248 NA
ATOM     57  C   UNL A   1      41.566  28.977  35.604  1.00  0.00     0.031 C 
ATOM     58  C   UNL A   1      40.913  34.551  33.293  1.00  0.00     0.029 A 
ATOM     59  C   UNL A   1      41.236  33.213  33.448  1.00  0.00     0.049 A 
ATOM     60  H   UNL A   1      42.222  31.917  32.106  1.00  0.00     0.167 HD
ATOM     61  C   UNL A   1      41.334  31.047  34.648  1.00  0.00     0.074 A 
ATOM     62  C   UNL A   1      41.075  30.194  35.790  1.00  0.00     0.031 C 
ATOM     63  C   UNL A   1      40.989  32.357  34.580  1.00  0.00     0.031 A 
BRANCH  50  64
ATOM     64  C   UNL A   1      42.626  35.110  29.298  1.00  0.00    -0.014 A 
ATOM     65  C   UNL A   1      43.710  35.994  29.421  1.00  0.00     0.009 A 
ATOM     66  C   UNL A   1      41.609  35.408  28.377  1.00  0.00     0.009 A 
ATOM     67  C   UNL A   1      43.755  37.167  28.667  1.00  0.00     0.001 A 
ATOM     68  C   UNL A   1      41.673  36.567  27.601  1.00  0.00     0.001 A 
ATOM     69  C   UNL A   1      42.740  37.451  27.754  1.00  0.00     0.000 A 
ENDBRANCH  50  64
BRANCH  51  70
ATOM     70  C   UNL A   1      42.702  26.557  34.428  1.00  0.00    -0.014 A 
ATOM     71  C   UNL A   1      43.923  25.992  34.827  1.00  0.00     0.009 A 
ATOM     72  C   UNL A   1      41.509  25.906  34.777  1.00  0.00     0.009 A 
ATOM     73  C   UNL A   1      43.950  24.788  35.534  1.00  0.00     0.001 A 
ATOM     74  C   UNL A   1      41.537  24.718  35.511  1.00  0.00     0.001 A 
ATOM     75  C   UNL A   1      42.757  24.156  35.881  1.00  0.00     0.000 A 
ENDBRANCH  51  70
BRANCH  63  76
ATOM     76  C   UNL A   1      40.262  32.939  35.759  1.00  0.00    -0.014 A 
ATOM     77  C   UNL A   1      40.949  33.592  36.794  1.00  0.00     0.009 A 
ATOM     78  C   UNL A   1      38.860  32.865  35.815  1.00  0.00     0.009 A 
ATOM     79  C   UNL A   1      40.250  34.127  37.879  1.00  0.00     0.001 A 
ATOM     80  C   UNL A   1      38.162  33.429  36.884  1.00  0.00     0.001 A 
ATOM     81  C   UNL A   1      38.857  34.050  37.919  1.00  0.00     0.000 A 
ENDBRANCH  63  76
ENDBRANCH  37  38
ENDBRANCH  29  32
ENDBRANCH  27  28
ENDBRANCH  26  27
ENDBRANCH  25  26
ENDBRANCH   1  25
TORSDOF 16
ENDMDL
