MODEL 1
REMARK VINA RESULT:     -10.1      0.000      0.000
REMARK SMILES COc1ccc(C(=O)NCCCCCCNC(=O)c2ccc(-c3c4nc(c(-c5ccccc5)c5ccc([nH]5)c(-c5ccccc5)c5nc(c(-c6ccccc6)c6ccc3[nH]6)C=C5)C=C4)cc2)cc1Oc1nc(C(C)(C)C)ns1
REMARK SMILES IDX 12 1 11 2 10 3 9 4 7 5 8 6 6 8 3 9 4 10 68 11 5 12 67 13
REMARK SMILES IDX 2 14 1 15 69 16 70 17 71 18 78 19 72 20 77 21 73 22 74 23
REMARK SMILES IDX 75 24 76 25 13 26 14 27 15 28 16 29 17 30 18 32 19 33 20 34
REMARK SMILES IDX 66 35 21 36 65 37 22 38 23 39 24 40 59 41 25 42 64 43 58 44
REMARK SMILES IDX 60 45 26 46 63 47 57 48 56 49 27 51 49 52 34 53 48 54 35 55
REMARK SMILES IDX 38 56 47 57 61 58 36 59 37 60 46 62 62 63 39 64 28 65 29 66
REMARK SMILES IDX 33 67 30 68 32 69 31 70 50 71 51 72 55 73 52 74 54 75 53 76
REMARK SMILES IDX 40 77 41 78 45 79 42 80 44 81 43 82
REMARK H PARENT 9 7 16 31 60 50 38 61
REMARK Flexibility Score: inf
ROOT
ATOM      1  C   UNL A   1      38.957  23.880  26.411  1.00  0.00     0.002 C 
ENDROOT
BRANCH   1   2
ATOM      2  C   UNL A   1      37.491  23.564  26.075  1.00  0.00     0.021 C 
BRANCH   2   3
ATOM      3  C   UNL A   1      37.280  23.180  24.608  1.00  0.00     0.116 C 
BRANCH   3   4
ATOM      4  N   UNL A   1      36.744  21.837  24.537  1.00  0.00    -0.352 N 
ATOM      5  C   UNL A   1      35.598  21.246  24.992  1.00  0.00     0.251 C 
ATOM      6  O   UNL A   1      35.504  20.027  24.835  1.00  0.00    -0.269 OA
ATOM      7  H   UNL A   1      37.332  21.212  24.057  1.00  0.00     0.163 HD
BRANCH   5   8
ATOM      8  C   UNL A   1      34.439  21.983  25.570  1.00  0.00     0.043 A 
ATOM      9  C   UNL A   1      32.185  23.087  26.828  1.00  0.00     0.161 A 
ATOM     10  C   UNL A   1      33.028  22.233  27.537  1.00  0.00     0.051 A 
ATOM     11  C   UNL A   1      32.508  23.478  25.524  1.00  0.00     0.173 A 
ATOM     12  C   UNL A   1      34.133  21.672  26.904  1.00  0.00     0.018 A 
ATOM     13  C   UNL A   1      33.655  22.939  24.912  1.00  0.00     0.065 A 
BRANCH   9  14
ATOM     14  O   UNL A   1      31.065  23.536  27.472  1.00  0.00    -0.493 OA
ATOM     15  C   UNL A   1      29.919  22.835  26.983  1.00  0.00     0.278 C 
ENDBRANCH   9  14
BRANCH  11  16
ATOM     16  O   UNL A   1      31.760  24.313  24.719  1.00  0.00    -0.426 OA
BRANCH  16  17
ATOM     17  C   UNL A   1      31.991  25.623  24.662  1.00  0.00     0.298 A 
ATOM     18  N   UNL A   1      31.951  26.412  25.716  1.00  0.00    -0.185 NA
ATOM     19  S   UNL A   1      32.235  26.487  23.205  1.00  0.00     0.025 S 
ATOM     20  C   UNL A   1      32.246  27.713  25.297  1.00  0.00     0.151 A 
ATOM     21  N   UNL A   1      32.378  27.955  23.987  1.00  0.00    -0.172 NA
BRANCH  20  22
ATOM     22  C   UNL A   1      32.372  28.838  26.315  1.00  0.00     0.023 C 
ATOM     23  C   UNL A   1      31.805  30.140  25.725  1.00  0.00     0.019 C 
ATOM     24  C   UNL A   1      31.592  28.502  27.603  1.00  0.00     0.019 C 
ATOM     25  C   UNL A   1      33.842  29.078  26.723  1.00  0.00     0.019 C 
ENDBRANCH  20  22
ENDBRANCH  16  17
ENDBRANCH  11  16
ENDBRANCH   5   8
ENDBRANCH   3   4
ENDBRANCH   2   3
ENDBRANCH   1   2
BRANCH   1  26
ATOM     26  C   UNL A   1      39.719  22.743  27.105  1.00  0.00     0.002 C 
BRANCH  26  27
ATOM     27  C   UNL A   1      40.039  21.537  26.217  1.00  0.00     0.021 C 
BRANCH  27  28
ATOM     28  C   UNL A   1      40.866  20.449  26.895  1.00  0.00     0.116 C 
BRANCH  28  29
ATOM     29  N   UNL A   1      42.075  20.142  26.149  1.00  0.00    -0.352 N 
ATOM     30  C   UNL A   1      43.083  20.975  25.747  1.00  0.00     0.251 C 
ATOM     31  H   UNL A   1      42.184  19.196  25.895  1.00  0.00     0.163 HD
ATOM     32  O   UNL A   1      43.928  20.573  24.944  1.00  0.00    -0.269 OA
BRANCH  30  33
ATOM     33  C   UNL A   1      43.163  22.361  26.254  1.00  0.00     0.039 A 
ATOM     34  C   UNL A   1      43.387  22.564  27.619  1.00  0.00     0.014 A 
ATOM     35  C   UNL A   1      42.973  23.457  25.405  1.00  0.00     0.014 A 
ATOM     36  C   UNL A   1      43.461  23.863  28.125  1.00  0.00     0.010 A 
ATOM     37  C   UNL A   1      43.104  24.754  25.902  1.00  0.00     0.010 A 
ATOM     38  C   UNL A   1      43.341  24.969  27.267  1.00  0.00    -0.014 A 
BRANCH  38  39
ATOM     39  C   UNL A   1      43.452  26.350  27.798  1.00  0.00     0.031 A 
ATOM     40  C   UNL A   1      44.792  27.025  27.895  1.00  0.00     0.074 A 
ATOM     41  C   UNL A   1      42.342  26.994  28.209  1.00  0.00     0.049 A 
ATOM     42  N   UNL A   1      45.080  28.228  28.326  1.00  0.00    -0.248 NA
ATOM     43  C   UNL A   1      45.964  26.244  27.467  1.00  0.00     0.031 C 
ATOM     44  C   UNL A   1      40.986  26.439  28.198  1.00  0.00     0.029 A 
ATOM     45  N   UNL A   1      42.179  28.260  28.712  1.00  0.00    -0.354 N 
ATOM     46  C   UNL A   1      46.460  28.347  28.221  1.00  0.00     0.074 A 
ATOM     47  C   UNL A   1      46.958  27.079  27.735  1.00  0.00     0.031 C 
ATOM     48  C   UNL A   1      40.127  27.372  28.642  1.00  0.00     0.029 A 
ATOM     49  C   UNL A   1      40.872  28.575  28.995  1.00  0.00     0.049 A 
ATOM     50  H   UNL A   1      42.927  28.883  28.856  1.00  0.00     0.167 HD
ATOM     51  C   UNL A   1      47.242  29.421  28.483  1.00  0.00     0.031 A 
ATOM     52  C   UNL A   1      40.334  29.710  29.479  1.00  0.00     0.031 A 
ATOM     53  C   UNL A   1      46.753  30.687  28.962  1.00  0.00     0.049 A 
ATOM     54  C   UNL A   1      41.228  30.883  29.771  1.00  0.00     0.074 A 
ATOM     55  C   UNL A   1      47.467  31.840  29.237  1.00  0.00     0.029 A 
ATOM     56  N   UNL A   1      45.423  30.964  29.233  1.00  0.00    -0.354 N 
ATOM     57  N   UNL A   1      42.524  30.992  29.619  1.00  0.00    -0.248 NA
ATOM     58  C   UNL A   1      40.576  32.096  30.288  1.00  0.00     0.031 C 
ATOM     59  C   UNL A   1      46.572  32.809  29.704  1.00  0.00     0.029 A 
ATOM     60  C   UNL A   1      45.295  32.269  29.679  1.00  0.00     0.049 A 
ATOM     61  H   UNL A   1      44.679  30.329  29.125  1.00  0.00     0.167 HD
ATOM     62  C   UNL A   1      42.840  32.291  29.995  1.00  0.00     0.074 A 
ATOM     63  C   UNL A   1      41.596  32.937  30.362  1.00  0.00     0.031 C 
ATOM     64  C   UNL A   1      44.051  32.897  30.034  1.00  0.00     0.031 A 
BRANCH  51  65
ATOM     65  C   UNL A   1      48.718  29.278  28.242  1.00  0.00    -0.014 A 
ATOM     66  C   UNL A   1      49.310  29.808  27.083  1.00  0.00     0.009 A 
ATOM     67  C   UNL A   1      49.532  28.655  29.198  1.00  0.00     0.009 A 
ATOM     68  C   UNL A   1      50.687  29.693  26.878  1.00  0.00     0.001 A 
ATOM     69  C   UNL A   1      50.911  28.563  29.001  1.00  0.00     0.001 A 
ATOM     70  C   UNL A   1      51.486  29.076  27.839  1.00  0.00     0.000 A 
ENDBRANCH  51  65
BRANCH  52  71
ATOM     71  C   UNL A   1      38.869  29.810  29.703  1.00  0.00    -0.014 A 
ATOM     72  C   UNL A   1      38.314  29.461  30.945  1.00  0.00     0.009 A 
ATOM     73  C   UNL A   1      38.015  30.221  28.669  1.00  0.00     0.009 A 
ATOM     74  C   UNL A   1      36.930  29.486  31.133  1.00  0.00     0.001 A 
ATOM     75  C   UNL A   1      36.634  30.273  28.870  1.00  0.00     0.001 A 
ATOM     76  C   UNL A   1      36.092  29.894  30.097  1.00  0.00     0.000 A 
ENDBRANCH  52  71
BRANCH  64  77
ATOM     77  C   UNL A   1      44.079  34.337  30.455  1.00  0.00    -0.014 A 
ATOM     78  C   UNL A   1      44.246  34.698  31.801  1.00  0.00     0.009 A 
ATOM     79  C   UNL A   1      43.953  35.346  29.488  1.00  0.00     0.009 A 
ATOM     80  C   UNL A   1      44.248  36.043  32.174  1.00  0.00     0.001 A 
ATOM     81  C   UNL A   1      43.981  36.691  29.861  1.00  0.00     0.001 A 
ATOM     82  C   UNL A   1      44.118  37.038  31.204  1.00  0.00     0.000 A 
ENDBRANCH  64  77
ENDBRANCH  38  39
ENDBRANCH  30  33
ENDBRANCH  28  29
ENDBRANCH  27  28
ENDBRANCH  26  27
ENDBRANCH   1  26
TORSDOF 17
ENDMDL
MODEL 2
REMARK VINA RESULT:      -9.7      1.085      5.917
REMARK SMILES COc1ccc(C(=O)NCCCCCCNC(=O)c2ccc(-c3c4nc(c(-c5ccccc5)c5ccc([nH]5)c(-c5ccccc5)c5nc(c(-c6ccccc6)c6ccc3[nH]6)C=C5)C=C4)cc2)cc1Oc1nc(C(C)(C)C)ns1
REMARK SMILES IDX 12 1 11 2 10 3 9 4 7 5 8 6 6 8 3 9 4 10 68 11 5 12 67 13
REMARK SMILES IDX 2 14 1 15 69 16 70 17 71 18 78 19 72 20 77 21 73 22 74 23
REMARK SMILES IDX 75 24 76 25 13 26 14 27 15 28 16 29 17 30 18 32 19 33 20 34
REMARK SMILES IDX 66 35 21 36 65 37 22 38 23 39 24 40 59 41 25 42 64 43 58 44
REMARK SMILES IDX 60 45 26 46 63 47 57 48 56 49 27 51 49 52 34 53 48 54 35 55
REMARK SMILES IDX 38 56 47 57 61 58 36 59 37 60 46 62 62 63 39 64 28 65 29 66
REMARK SMILES IDX 33 67 30 68 32 69 31 70 50 71 51 72 55 73 52 74 54 75 53 76
REMARK SMILES IDX 40 77 41 78 45 79 42 80 44 81 43 82
REMARK H PARENT 9 7 16 31 60 50 38 61
REMARK Flexibility Score: inf
ROOT
ATOM      1  C   UNL A   1      39.548  23.442  27.192  1.00  0.00     0.002 C 
ENDROOT
BRANCH   1   2
ATOM      2  C   UNL A   1      38.546  22.733  26.267  1.00  0.00     0.021 C 
BRANCH   2   3
ATOM      3  C   UNL A   1      37.517  23.685  25.653  1.00  0.00     0.116 C 
BRANCH   3   4
ATOM      4  N   UNL A   1      37.382  23.398  24.239  1.00  0.00    -0.352 N 
ATOM      5  C   UNL A   1      36.319  23.147  23.418  1.00  0.00     0.251 C 
ATOM      6  O   UNL A   1      36.580  22.839  22.253  1.00  0.00    -0.269 OA
ATOM      7  H   UNL A   1      38.245  23.380  23.766  1.00  0.00     0.163 HD
BRANCH   5   8
ATOM      8  C   UNL A   1      34.891  23.309  23.811  1.00  0.00     0.043 A 
ATOM      9  C   UNL A   1      32.168  23.283  24.492  1.00  0.00     0.161 A 
ATOM     10  C   UNL A   1      32.988  22.221  24.868  1.00  0.00     0.051 A 
ATOM     11  C   UNL A   1      32.711  24.409  23.863  1.00  0.00     0.173 A 
ATOM     12  C   UNL A   1      34.334  22.228  24.512  1.00  0.00     0.018 A 
ATOM     13  C   UNL A   1      34.083  24.423  23.550  1.00  0.00     0.065 A 
BRANCH   9  14
ATOM     14  O   UNL A   1      30.836  23.180  24.789  1.00  0.00    -0.493 OA
ATOM     15  C   UNL A   1      30.659  23.219  26.208  1.00  0.00     0.278 C 
ENDBRANCH   9  14
BRANCH  11  16
ATOM     16  O   UNL A   1      32.008  25.520  23.441  1.00  0.00    -0.426 OA
BRANCH  16  17
ATOM     17  C   UNL A   1      32.262  26.734  23.923  1.00  0.00     0.298 A 
ATOM     18  N   UNL A   1      32.066  27.069  25.182  1.00  0.00    -0.185 NA
ATOM     19  S   UNL A   1      32.748  28.062  22.958  1.00  0.00     0.025 S 
ATOM     20  C   UNL A   1      32.440  28.408  25.339  1.00  0.00     0.151 A 
ATOM     21  N   UNL A   1      32.783  29.114  24.254  1.00  0.00    -0.172 NA
BRANCH  20  22
ATOM     22  C   UNL A   1      32.417  29.055  26.717  1.00  0.00     0.023 C 
ATOM     23  C   UNL A   1      31.469  28.274  27.643  1.00  0.00     0.019 C 
ATOM     24  C   UNL A   1      33.826  29.058  27.345  1.00  0.00     0.019 C 
ATOM     25  C   UNL A   1      31.945  30.524  26.650  1.00  0.00     0.019 C 
ENDBRANCH  20  22
ENDBRANCH  16  17
ENDBRANCH  11  16
ENDBRANCH   5   8
ENDBRANCH   3   4
ENDBRANCH   2   3
ENDBRANCH   1   2
BRANCH   1  26
ATOM     26  C   UNL A   1      40.701  22.560  27.690  1.00  0.00     0.002 C 
BRANCH  26  27
ATOM     27  C   UNL A   1      40.827  21.201  26.994  1.00  0.00     0.021 C 
BRANCH  27  28
ATOM     28  C   UNL A   1      42.080  20.411  27.364  1.00  0.00     0.116 C 
BRANCH  28  29
ATOM     29  N   UNL A   1      42.975  20.253  26.229  1.00  0.00    -0.352 N 
ATOM     30  C   UNL A   1      43.704  21.198  25.559  1.00  0.00     0.251 C 
ATOM     31  H   UNL A   1      43.070  19.332  25.894  1.00  0.00     0.163 HD
ATOM     32  O   UNL A   1      44.247  20.910  24.491  1.00  0.00    -0.269 OA
BRANCH  30  33
ATOM     33  C   UNL A   1      43.834  22.569  26.095  1.00  0.00     0.039 A 
ATOM     34  C   UNL A   1      43.458  23.645  25.285  1.00  0.00     0.014 A 
ATOM     35  C   UNL A   1      44.365  22.804  27.369  1.00  0.00     0.014 A 
ATOM     36  C   UNL A   1      43.575  24.950  25.765  1.00  0.00     0.010 A 
ATOM     37  C   UNL A   1      44.428  24.105  27.868  1.00  0.00     0.010 A 
ATOM     38  C   UNL A   1      44.042  25.190  27.068  1.00  0.00    -0.014 A 
BRANCH  38  39
ATOM     39  C   UNL A   1      44.138  26.575  27.591  1.00  0.00     0.031 A 
ATOM     40  C   UNL A   1      42.904  27.306  28.044  1.00  0.00     0.074 A 
ATOM     41  C   UNL A   1      45.339  27.183  27.644  1.00  0.00     0.049 A 
ATOM     42  N   UNL A   1      42.796  28.516  28.535  1.00  0.00    -0.248 NA
ATOM     43  C   UNL A   1      41.623  26.594  27.918  1.00  0.00     0.031 C 
ATOM     44  C   UNL A   1      46.607  26.596  27.205  1.00  0.00     0.029 A 
ATOM     45  N   UNL A   1      45.689  28.431  28.096  1.00  0.00    -0.354 N 
ATOM     46  C   UNL A   1      41.442  28.709  28.774  1.00  0.00     0.074 A 
ATOM     47  C   UNL A   1      40.760  27.512  28.329  1.00  0.00     0.031 C 
ATOM     48  C   UNL A   1      47.600  27.471  27.439  1.00  0.00     0.029 A 
ATOM     49  C   UNL A   1      47.036  28.687  28.015  1.00  0.00     0.049 A 
ATOM     50  H   UNL A   1      45.037  29.080  28.444  1.00  0.00     0.167 HD
ATOM     51  C   UNL A   1      40.821  29.773  29.335  1.00  0.00     0.031 A 
ATOM     52  C   UNL A   1      47.739  29.777  28.372  1.00  0.00     0.031 A 
ATOM     53  C   UNL A   1      41.493  30.963  29.785  1.00  0.00     0.049 A 
ATOM     54  C   UNL A   1      47.022  30.949  28.982  1.00  0.00     0.074 A 
ATOM     55  C   UNL A   1      40.950  32.086  30.385  1.00  0.00     0.029 A 
ATOM     56  N   UNL A   1      42.858  31.180  29.687  1.00  0.00    -0.354 N 
ATOM     57  N   UNL A   1      45.747  31.092  29.245  1.00  0.00    -0.248 NA
ATOM     58  C   UNL A   1      47.850  32.105  29.359  1.00  0.00     0.031 C 
ATOM     59  C   UNL A   1      41.985  32.998  30.623  1.00  0.00     0.029 A 
ATOM     60  C   UNL A   1      43.175  32.423  30.210  1.00  0.00     0.049 A 
ATOM     61  H   UNL A   1      43.505  30.546  29.304  1.00  0.00     0.167 HD
ATOM     62  C   UNL A   1      45.623  32.339  29.842  1.00  0.00     0.074 A 
ATOM     63  C   UNL A   1      46.955  32.903  29.921  1.00  0.00     0.031 C 
ATOM     64  C   UNL A   1      44.505  32.965  30.285  1.00  0.00     0.031 A 
BRANCH  51  65
ATOM     65  C   UNL A   1      39.331  29.693  29.509  1.00  0.00    -0.014 A 
ATOM     66  C   UNL A   1      38.465  30.076  28.471  1.00  0.00     0.009 A 
ATOM     67  C   UNL A   1      38.785  29.186  30.698  1.00  0.00     0.009 A 
ATOM     68  C   UNL A   1      37.082  29.974  28.630  1.00  0.00     0.001 A 
ATOM     69  C   UNL A   1      37.402  29.064  30.845  1.00  0.00     0.001 A 
ATOM     70  C   UNL A   1      36.552  29.465  29.814  1.00  0.00     0.000 A 
ENDBRANCH  51  65
BRANCH  52  71
ATOM     71  C   UNL A   1      49.213  29.815  28.184  1.00  0.00    -0.014 A 
ATOM     72  C   UNL A   1      50.071  29.368  29.202  1.00  0.00     0.009 A 
ATOM     73  C   UNL A   1      49.769  30.327  27.003  1.00  0.00     0.009 A 
ATOM     74  C   UNL A   1      51.456  29.470  29.054  1.00  0.00     0.001 A 
ATOM     75  C   UNL A   1      51.155  30.401  26.847  1.00  0.00     0.001 A 
ATOM     76  C   UNL A   1      51.996  29.983  27.877  1.00  0.00     0.000 A 
ENDBRANCH  52  71
BRANCH  64  77
ATOM     77  C   UNL A   1      44.687  34.310  30.925  1.00  0.00    -0.014 A 
ATOM     78  C   UNL A   1      44.947  34.433  32.299  1.00  0.00     0.009 A 
ATOM     79  C   UNL A   1      44.614  35.469  30.137  1.00  0.00     0.009 A 
ATOM     80  C   UNL A   1      45.092  35.695  32.878  1.00  0.00     0.001 A 
ATOM     81  C   UNL A   1      44.785  36.729  30.714  1.00  0.00     0.001 A 
ATOM     82  C   UNL A   1      45.013  36.841  32.085  1.00  0.00     0.000 A 
ENDBRANCH  64  77
ENDBRANCH  38  39
ENDBRANCH  30  33
ENDBRANCH  28  29
ENDBRANCH  27  28
ENDBRANCH  26  27
ENDBRANCH   1  26
TORSDOF 17
ENDMDL
MODEL 3
REMARK VINA RESULT:      -9.6      2.680      8.845
REMARK SMILES COc1ccc(C(=O)NCCCCCCNC(=O)c2ccc(-c3c4nc(c(-c5ccccc5)c5ccc([nH]5)c(-c5ccccc5)c5nc(c(-c6ccccc6)c6ccc3[nH]6)C=C5)C=C4)cc2)cc1Oc1nc(C(C)(C)C)ns1
REMARK SMILES IDX 12 1 11 2 10 3 9 4 7 5 8 6 6 8 3 9 4 10 68 11 5 12 67 13
REMARK SMILES IDX 2 14 1 15 69 16 70 17 71 18 78 19 72 20 77 21 73 22 74 23
REMARK SMILES IDX 75 24 76 25 13 26 14 27 15 28 16 29 17 30 18 32 19 33 20 34
REMARK SMILES IDX 66 35 21 36 65 37 22 38 23 39 24 40 59 41 25 42 64 43 58 44
REMARK SMILES IDX 60 45 26 46 63 47 57 48 56 49 27 51 49 52 34 53 48 54 35 55
REMARK SMILES IDX 38 56 47 57 61 58 36 59 37 60 46 62 62 63 39 64 28 65 29 66
REMARK SMILES IDX 33 67 30 68 32 69 31 70 50 71 51 72 55 73 52 74 54 75 53 76
REMARK SMILES IDX 40 77 41 78 45 79 42 80 44 81 43 82
REMARK H PARENT 9 7 16 31 60 50 38 61
REMARK Flexibility Score: inf
ROOT
ATOM      1  C   UNL A   1      31.641  28.787  26.294  1.00  0.00     0.002 C 
ENDROOT
BRANCH   1   2
ATOM      2  C   UNL A   1      31.509  29.683  25.052  1.00  0.00     0.021 C 
BRANCH   2   3
ATOM      3  C   UNL A   1      31.297  28.891  23.760  1.00  0.00     0.116 C 
BRANCH   3   4
ATOM      4  N   UNL A   1      30.173  27.993  23.927  1.00  0.00    -0.352 N 
ATOM      5  C   UNL A   1      29.993  26.651  23.740  1.00  0.00     0.251 C 
ATOM      6  O   UNL A   1      28.848  26.220  23.890  1.00  0.00    -0.269 OA
ATOM      7  H   UNL A   1      29.361  28.447  24.246  1.00  0.00     0.163 HD
BRANCH   5   8
ATOM      8  C   UNL A   1      31.090  25.681  23.460  1.00  0.00     0.043 A 
ATOM      9  C   UNL A   1      33.279  24.088  22.720  1.00  0.00     0.161 A 
ATOM     10  C   UNL A   1      33.445  25.460  22.893  1.00  0.00     0.051 A 
ATOM     11  C   UNL A   1      32.051  23.482  23.008  1.00  0.00     0.173 A 
ATOM     12  C   UNL A   1      32.354  26.251  23.240  1.00  0.00     0.018 A 
ATOM     13  C   UNL A   1      30.967  24.287  23.405  1.00  0.00     0.065 A 
BRANCH   9  14
ATOM     14  O   UNL A   1      34.364  23.375  22.290  1.00  0.00    -0.493 OA
ATOM     15  C   UNL A   1      35.300  23.236  23.362  1.00  0.00     0.278 C 
ENDBRANCH   9  14
BRANCH  11  16
ATOM     16  O   UNL A   1      31.758  22.139  22.877  1.00  0.00    -0.426 OA
BRANCH  16  17
ATOM     17  C   UNL A   1      32.241  21.231  23.723  1.00  0.00     0.298 A 
ATOM     18  N   UNL A   1      32.521  19.993  23.374  1.00  0.00    -0.185 NA
ATOM     19  S   UNL A   1      32.438  21.501  25.401  1.00  0.00     0.025 S 
ATOM     20  C   UNL A   1      33.010  19.323  24.500  1.00  0.00     0.151 A 
ATOM     21  N   UNL A   1      32.993  19.951  25.683  1.00  0.00    -0.172 NA
BRANCH  20  22
ATOM     22  C   UNL A   1      33.512  17.891  24.384  1.00  0.00     0.023 C 
ATOM     23  C   UNL A   1      32.904  17.033  25.506  1.00  0.00     0.019 C 
ATOM     24  C   UNL A   1      33.114  17.278  23.025  1.00  0.00     0.019 C 
ATOM     25  C   UNL A   1      35.052  17.816  24.483  1.00  0.00     0.019 C 
ENDBRANCH  20  22
ENDBRANCH  16  17
ENDBRANCH  11  16
ENDBRANCH   5   8
ENDBRANCH   3   4
ENDBRANCH   2   3
ENDBRANCH   1   2
BRANCH   1  26
ATOM     26  C   UNL A   1      32.978  28.910  27.038  1.00  0.00     0.002 C 
BRANCH  26  27
ATOM     27  C   UNL A   1      33.487  30.342  27.228  1.00  0.00     0.021 C 
BRANCH  27  28
ATOM     28  C   UNL A   1      34.883  30.445  27.838  1.00  0.00     0.116 C 
BRANCH  28  29
ATOM     29  N   UNL A   1      34.853  31.052  29.159  1.00  0.00    -0.352 N 
ATOM     30  C   UNL A   1      35.791  31.014  30.154  1.00  0.00     0.251 C 
ATOM     31  H   UNL A   1      34.039  31.566  29.367  1.00  0.00     0.163 HD
ATOM     32  O   UNL A   1      35.503  31.416  31.284  1.00  0.00    -0.269 OA
BRANCH  30  33
ATOM     33  C   UNL A   1      37.144  30.479  29.895  1.00  0.00     0.039 A 
ATOM     34  C   UNL A   1      37.716  30.683  28.636  1.00  0.00     0.014 A 
ATOM     35  C   UNL A   1      37.832  29.742  30.865  1.00  0.00     0.014 A 
ATOM     36  C   UNL A   1      38.990  30.185  28.362  1.00  0.00     0.010 A 
ATOM     37  C   UNL A   1      39.128  29.294  30.610  1.00  0.00     0.010 A 
ATOM     38  C   UNL A   1      39.716  29.504  29.353  1.00  0.00    -0.014 A 
BRANCH  38  39
ATOM     39  C   UNL A   1      41.083  29.001  29.075  1.00  0.00     0.031 A 
ATOM     40  C   UNL A   1      41.303  27.565  28.683  1.00  0.00     0.074 A 
ATOM     41  C   UNL A   1      42.134  29.835  29.193  1.00  0.00     0.049 A 
ATOM     42  N   UNL A   1      42.425  26.951  28.396  1.00  0.00    -0.248 NA
ATOM     43  C   UNL A   1      40.113  26.703  28.617  1.00  0.00     0.031 C 
ATOM     44  C   UNL A   1      42.060  31.241  29.597  1.00  0.00     0.029 A 
ATOM     45  N   UNL A   1      43.473  29.622  28.976  1.00  0.00    -0.354 N 
ATOM     46  C   UNL A   1      42.076  25.636  28.117  1.00  0.00     0.074 A 
ATOM     47  C   UNL A   1      40.647  25.527  28.318  1.00  0.00     0.031 C 
ATOM     48  C   UNL A   1      43.294  31.772  29.569  1.00  0.00     0.029 A 
ATOM     49  C   UNL A   1      44.247  30.740  29.173  1.00  0.00     0.049 A 
ATOM     50  H   UNL A   1      43.842  28.752  28.705  1.00  0.00     0.167 HD
ATOM     51  C   UNL A   1      42.866  24.616  27.709  1.00  0.00     0.031 A 
ATOM     52  C   UNL A   1      45.575  30.915  29.043  1.00  0.00     0.031 A 
ATOM     53  C   UNL A   1      44.286  24.720  27.503  1.00  0.00     0.049 A 
ATOM     54  C   UNL A   1      46.430  29.761  28.599  1.00  0.00     0.074 A 
ATOM     55  C   UNL A   1      45.169  23.745  27.070  1.00  0.00     0.029 A 
ATOM     56  N   UNL A   1      45.029  25.870  27.711  1.00  0.00    -0.354 N 
ATOM     57  N   UNL A   1      46.073  28.538  28.294  1.00  0.00    -0.248 NA
ATOM     58  C   UNL A   1      47.871  30.022  28.467  1.00  0.00     0.031 C 
ATOM     59  C   UNL A   1      46.454  24.297  27.046  1.00  0.00     0.029 A 
ATOM     60  C   UNL A   1      46.363  25.627  27.423  1.00  0.00     0.049 A 
ATOM     61  H   UNL A   1      44.665  26.730  28.019  1.00  0.00     0.167 HD
ATOM     62  C   UNL A   1      47.240  27.892  27.907  1.00  0.00     0.074 A 
ATOM     63  C   UNL A   1      48.310  28.864  27.998  1.00  0.00     0.031 C 
ATOM     64  C   UNL A   1      47.412  26.607  27.513  1.00  0.00     0.031 A 
BRANCH  51  65
ATOM     65  C   UNL A   1      42.206  23.293  27.441  1.00  0.00    -0.014 A 
ATOM     66  C   UNL A   1      42.032  22.356  28.473  1.00  0.00     0.009 A 
ATOM     67  C   UNL A   1      41.710  22.997  26.163  1.00  0.00     0.009 A 
ATOM     68  C   UNL A   1      41.396  21.139  28.222  1.00  0.00     0.001 A 
ATOM     69  C   UNL A   1      41.053  21.790  25.922  1.00  0.00     0.001 A 
ATOM     70  C   UNL A   1      40.902  20.859  26.949  1.00  0.00     0.000 A 
ENDBRANCH  51  65
BRANCH  52  71
ATOM     71  C   UNL A   1      46.187  32.241  29.317  1.00  0.00    -0.014 A 
ATOM     72  C   UNL A   1      46.466  33.126  28.263  1.00  0.00     0.009 A 
ATOM     73  C   UNL A   1      46.526  32.614  30.626  1.00  0.00     0.009 A 
ATOM     74  C   UNL A   1      47.107  34.342  28.512  1.00  0.00     0.001 A 
ATOM     75  C   UNL A   1      47.141  33.843  30.874  1.00  0.00     0.001 A 
ATOM     76  C   UNL A   1      47.441  34.700  29.816  1.00  0.00     0.000 A 
ENDBRANCH  52  71
BRANCH  64  77
ATOM     77  C   UNL A   1      48.800  26.196  27.119  1.00  0.00    -0.014 A 
ATOM     78  C   UNL A   1      49.261  26.358  25.803  1.00  0.00     0.009 A 
ATOM     79  C   UNL A   1      49.665  25.654  28.083  1.00  0.00     0.009 A 
ATOM     80  C   UNL A   1      50.549  25.951  25.453  1.00  0.00     0.001 A 
ATOM     81  C   UNL A   1      50.961  25.271  27.735  1.00  0.00     0.001 A 
ATOM     82  C   UNL A   1      51.398  25.410  26.419  1.00  0.00     0.000 A 
ENDBRANCH  64  77
ENDBRANCH  38  39
ENDBRANCH  30  33
ENDBRANCH  28  29
ENDBRANCH  27  28
ENDBRANCH  26  27
ENDBRANCH   1  26
TORSDOF 17
ENDMDL
