MODEL 1
REMARK VINA RESULT:      -8.8      0.000      0.000
REMARK SMILES C#CCNC(=O)C[N@@H+](CC(=O)NCCCCCCNC(=O)c1ccc(-c2c3nc(c(-c4ccccc4)c4ccc([nH]4)c(-c4ccccc4)c4nc(c(-c5ccccc5)c5ccc2[nH]5)C=C4)C=C3)cc1)C(C)(C)C
REMARK SMILES IDX 14 1 13 2 12 3 10 4 11 5 9 7 8 8 7 10 5 11 4 12 6 14 3 15
REMARK SMILES IDX 2 16 1 17 70 18 71 19 72 20 73 21 15 22 16 23 17 24 18 25
REMARK SMILES IDX 19 26 20 27 21 29 22 30 23 31 69 32 24 33 68 34 25 35 26 36
REMARK SMILES IDX 27 37 62 38 28 39 67 40 61 41 63 42 29 43 66 44 60 45 59 46
REMARK SMILES IDX 30 48 52 49 37 50 51 51 38 52 41 53 50 54 64 55 39 56 40 57
REMARK SMILES IDX 49 59 65 60 42 61 31 62 32 63 36 64 33 65 35 66 34 67 53 68
REMARK SMILES IDX 54 69 58 70 55 71 57 72 56 73 43 74 44 75 48 76 45 77 47 78
REMARK SMILES IDX 46 79
REMARK H PARENT 12 6 8 9 4 13 19 28 63 47 41 58
REMARK Flexibility Score: inf
ROOT
ATOM      1  C   UNL A   1      38.646  24.230  26.228  1.00  0.00     0.021 C 
ENDROOT
BRANCH   1   2
ATOM      2  C   UNL A   1      37.496  23.284  25.879  1.00  0.00     0.116 C 
BRANCH   2   3
ATOM      3  N   UNL A   1      37.427  23.042  24.451  1.00  0.00    -0.351 N 
ATOM      4  C   UNL A   1      36.369  23.038  23.590  1.00  0.00     0.275 C 
ATOM      5  O   UNL A   1      36.633  22.901  22.390  1.00  0.00    -0.269 OA
ATOM      6  H   UNL A   1      38.294  22.847  24.030  1.00  0.00     0.163 HD
BRANCH   4   7
ATOM      7  C   UNL A   1      34.923  23.259  24.056  1.00  0.00     0.364 C 
BRANCH   7   8
ATOM      8  N   UNL A   1      34.413  22.399  25.164  1.00  0.00    -0.315 N 
ATOM      9  H   UNL A   1      35.235  22.160  25.717  1.00  0.00     0.349 HD
BRANCH   8  10
ATOM     10  C   UNL A   1      33.891  21.118  24.656  1.00  0.00     0.364 C 
BRANCH  10  11
ATOM     11  C   UNL A   1      34.785  19.893  24.822  1.00  0.00     0.275 C 
ATOM     12  N   UNL A   1      34.250  18.655  24.989  1.00  0.00    -0.340 N 
ATOM     13  H   UNL A   1      34.887  17.949  25.247  1.00  0.00     0.164 HD
ATOM     14  O   UNL A   1      36.007  20.017  24.941  1.00  0.00    -0.268 OA
BRANCH  12  15
ATOM     15  C   UNL A   1      32.882  18.235  24.842  1.00  0.00     0.206 C 
BRANCH  15  16
ATOM     16  C   UNL A   1      32.576  18.181  23.355  1.00  0.00    -0.085 C 
ATOM     17  C   UNL A   1      32.313  18.135  22.078  1.00  0.00     0.006 C 
ENDBRANCH  15  16
ENDBRANCH  12  15
ENDBRANCH  10  11
ENDBRANCH   8  10
BRANCH   8  18
ATOM     18  C   UNL A   1      33.639  23.066  26.253  1.00  0.00     0.090 C 
ATOM     19  C   UNL A   1      34.097  22.713  27.687  1.00  0.00     0.078 C 
ATOM     20  C   UNL A   1      33.734  24.607  26.136  1.00  0.00     0.078 C 
ATOM     21  C   UNL A   1      32.131  22.736  26.126  1.00  0.00     0.078 C 
ENDBRANCH   8  18
ENDBRANCH   7   8
ENDBRANCH   4   7
ENDBRANCH   2   3
ENDBRANCH   1   2
BRANCH   1  22
ATOM     22  C   UNL A   1      39.949  23.555  26.656  1.00  0.00     0.002 C 
BRANCH  22  23
ATOM     23  C   UNL A   1      39.848  22.068  26.994  1.00  0.00     0.002 C 
BRANCH  23  24
ATOM     24  C   UNL A   1      40.586  21.110  26.052  1.00  0.00     0.021 C 
BRANCH  24  25
ATOM     25  C   UNL A   1      41.854  20.467  26.612  1.00  0.00     0.116 C 
BRANCH  25  26
ATOM     26  N   UNL A   1      42.906  20.353  25.618  1.00  0.00    -0.352 N 
ATOM     27  C   UNL A   1      43.740  21.304  25.091  1.00  0.00     0.251 C 
ATOM     28  H   UNL A   1      43.043  19.444  25.266  1.00  0.00     0.163 HD
ATOM     29  O   UNL A   1      44.442  21.025  24.123  1.00  0.00    -0.269 OA
BRANCH  27  30
ATOM     30  C   UNL A   1      43.799  22.668  25.660  1.00  0.00     0.039 A 
ATOM     31  C   UNL A   1      44.115  22.809  27.014  1.00  0.00     0.014 A 
ATOM     32  C   UNL A   1      43.477  23.796  24.898  1.00  0.00     0.014 A 
ATOM     33  C   UNL A   1      44.144  24.078  27.596  1.00  0.00     0.010 A 
ATOM     34  C   UNL A   1      43.568  25.068  25.464  1.00  0.00     0.010 A 
ATOM     35  C   UNL A   1      43.883  25.220  26.823  1.00  0.00    -0.014 A 
BRANCH  35  36
ATOM     36  C   UNL A   1      43.912  26.569  27.437  1.00  0.00     0.031 A 
ATOM     37  C   UNL A   1      45.214  27.303  27.601  1.00  0.00     0.074 A 
ATOM     38  C   UNL A   1      42.769  27.124  27.885  1.00  0.00     0.049 A 
ATOM     39  N   UNL A   1      45.434  28.495  28.101  1.00  0.00    -0.248 NA
ATOM     40  C   UNL A   1      46.432  26.599  27.172  1.00  0.00     0.031 C 
ATOM     41  C   UNL A   1      41.449  26.494  27.840  1.00  0.00     0.029 A 
ATOM     42  N   UNL A   1      42.539  28.344  28.469  1.00  0.00    -0.354 N 
ATOM     43  C   UNL A   1      46.811  28.670  28.066  1.00  0.00     0.074 A 
ATOM     44  C   UNL A   1      47.379  27.450  27.536  1.00  0.00     0.031 C 
ATOM     45  C   UNL A   1      40.543  27.340  28.357  1.00  0.00     0.029 A 
ATOM     46  C   UNL A   1      41.220  28.562  28.783  1.00  0.00     0.049 A 
ATOM     47  H   UNL A   1      43.251  29.000  28.645  1.00  0.00     0.167 HD
ATOM     48  C   UNL A   1      47.539  29.754  28.425  1.00  0.00     0.031 A 
ATOM     49  C   UNL A   1      40.621  29.628  29.344  1.00  0.00     0.031 A 
ATOM     50  C   UNL A   1      46.977  30.977  28.934  1.00  0.00     0.049 A 
ATOM     51  C   UNL A   1      41.439  30.838  29.689  1.00  0.00     0.074 A 
ATOM     52  C   UNL A   1      47.624  32.158  29.255  1.00  0.00     0.029 A 
ATOM     53  N   UNL A   1      45.630  31.173  29.198  1.00  0.00    -0.354 N 
ATOM     54  N   UNL A   1      42.732  31.024  29.564  1.00  0.00    -0.248 NA
ATOM     55  C   UNL A   1      40.713  31.995  30.229  1.00  0.00     0.031 C 
ATOM     56  C   UNL A   1      46.672  33.057  29.750  1.00  0.00     0.029 A 
ATOM     57  C   UNL A   1      45.427  32.449  29.696  1.00  0.00     0.049 A 
ATOM     58  H   UNL A   1      44.923  30.504  29.053  1.00  0.00     0.167 HD
ATOM     59  C   UNL A   1      42.969  32.323  29.991  1.00  0.00     0.074 A 
ATOM     60  C   UNL A   1      41.687  32.885  30.361  1.00  0.00     0.031 C 
ATOM     61  C   UNL A   1      44.147  32.991  30.069  1.00  0.00     0.031 A 
BRANCH  48  62
ATOM     62  C   UNL A   1      49.033  29.655  28.287  1.00  0.00    -0.014 A 
ATOM     63  C   UNL A   1      49.681  30.032  27.100  1.00  0.00     0.009 A 
ATOM     64  C   UNL A   1      49.803  29.186  29.362  1.00  0.00     0.009 A 
ATOM     65  C   UNL A   1      51.066  29.900  26.978  1.00  0.00     0.001 A 
ATOM     66  C   UNL A   1      51.190  29.080  29.246  1.00  0.00     0.001 A 
ATOM     67  C   UNL A   1      51.819  29.426  28.051  1.00  0.00     0.000 A 
ENDBRANCH  48  62
BRANCH  49  68
ATOM     68  C   UNL A   1      39.155  29.606  29.580  1.00  0.00    -0.014 A 
ATOM     69  C   UNL A   1      38.265  29.960  28.556  1.00  0.00     0.009 A 
ATOM     70  C   UNL A   1      38.642  29.209  30.824  1.00  0.00     0.009 A 
ATOM     71  C   UNL A   1      36.886  29.935  28.780  1.00  0.00     0.001 A 
ATOM     72  C   UNL A   1      37.263  29.164  31.037  1.00  0.00     0.001 A 
ATOM     73  C   UNL A   1      36.386  29.532  30.018  1.00  0.00     0.000 A 
ENDBRANCH  49  68
BRANCH  61  74
ATOM     74  C   UNL A   1      44.095  34.410  30.555  1.00  0.00    -0.014 A 
ATOM     75  C   UNL A   1      44.222  34.716  31.918  1.00  0.00     0.009 A 
ATOM     76  C   UNL A   1      43.943  35.458  29.633  1.00  0.00     0.009 A 
ATOM     77  C   UNL A   1      44.165  36.041  32.353  1.00  0.00     0.001 A 
ATOM     78  C   UNL A   1      43.911  36.783  30.068  1.00  0.00     0.001 A 
ATOM     79  C   UNL A   1      44.013  37.073  31.427  1.00  0.00     0.000 A 
ENDBRANCH  61  74
ENDBRANCH  35  36
ENDBRANCH  27  30
ENDBRANCH  25  26
ENDBRANCH  24  25
ENDBRANCH  23  24
ENDBRANCH  22  23
ENDBRANCH   1  22
TORSDOF 19
ENDMDL
MODEL 2
REMARK VINA RESULT:      -8.8      1.333      2.243
REMARK SMILES C#CCNC(=O)C[N@@H+](CC(=O)NCCCCCCNC(=O)c1ccc(-c2c3nc(c(-c4ccccc4)c4ccc([nH]4)c(-c4ccccc4)c4nc(c(-c5ccccc5)c5ccc2[nH]5)C=C4)C=C3)cc1)C(C)(C)C
REMARK SMILES IDX 14 1 13 2 12 3 10 4 11 5 9 7 8 8 7 10 5 11 4 12 6 14 3 15
REMARK SMILES IDX 2 16 1 17 70 18 71 19 72 20 73 21 15 22 16 23 17 24 18 25
REMARK SMILES IDX 19 26 20 27 21 29 22 30 23 31 69 32 24 33 68 34 25 35 26 36
REMARK SMILES IDX 27 37 62 38 28 39 67 40 61 41 63 42 29 43 66 44 60 45 59 46
REMARK SMILES IDX 30 48 52 49 37 50 51 51 38 52 41 53 50 54 64 55 39 56 40 57
REMARK SMILES IDX 49 59 65 60 42 61 31 62 32 63 36 64 33 65 35 66 34 67 53 68
REMARK SMILES IDX 54 69 58 70 55 71 57 72 56 73 43 74 44 75 48 76 45 77 47 78
REMARK SMILES IDX 46 79
REMARK H PARENT 12 6 8 9 4 13 19 28 63 47 41 58
REMARK Flexibility Score: inf
ROOT
ATOM      1  C   UNL A   1      38.832  23.889  26.726  1.00  0.00     0.021 C 
ENDROOT
BRANCH   1   2
ATOM      2  C   UNL A   1      37.408  23.736  26.189  1.00  0.00     0.116 C 
BRANCH   2   3
ATOM      3  N   UNL A   1      37.409  23.310  24.804  1.00  0.00    -0.351 N 
ATOM      4  C   UNL A   1      36.413  23.276  23.873  1.00  0.00     0.275 C 
ATOM      5  O   UNL A   1      36.741  22.957  22.724  1.00  0.00    -0.269 OA
ATOM      6  H   UNL A   1      38.280  22.988  24.478  1.00  0.00     0.163 HD
BRANCH   4   7
ATOM      7  C   UNL A   1      34.967  23.676  24.195  1.00  0.00     0.364 C 
BRANCH   7   8
ATOM      8  N   UNL A   1      33.989  22.582  24.466  1.00  0.00    -0.315 N 
ATOM      9  H   UNL A   1      34.556  21.745  24.600  1.00  0.00     0.349 HD
BRANCH   8  10
ATOM     10  C   UNL A   1      33.147  22.307  23.290  1.00  0.00     0.364 C 
BRANCH  10  11
ATOM     11  C   UNL A   1      32.870  23.476  22.349  1.00  0.00     0.275 C 
ATOM     12  N   UNL A   1      31.694  24.154  22.402  1.00  0.00    -0.340 N 
ATOM     13  H   UNL A   1      31.532  24.783  21.663  1.00  0.00     0.164 HD
ATOM     14  O   UNL A   1      33.651  23.744  21.432  1.00  0.00    -0.268 OA
BRANCH  12  15
ATOM     15  C   UNL A   1      30.652  24.077  23.392  1.00  0.00     0.206 C 
BRANCH  15  16
ATOM     16  C   UNL A   1      30.393  25.488  23.895  1.00  0.00    -0.085 C 
ATOM     17  C   UNL A   1      30.170  26.698  24.326  1.00  0.00     0.006 C 
ENDBRANCH  15  16
ENDBRANCH  12  15
ENDBRANCH  10  11
ENDBRANCH   8  10
BRANCH   8  18
ATOM     18  C   UNL A   1      33.319  22.573  25.800  1.00  0.00     0.090 C 
ATOM     19  C   UNL A   1      34.160  21.963  26.947  1.00  0.00     0.078 C 
ATOM     20  C   UNL A   1      32.955  24.010  26.248  1.00  0.00     0.078 C 
ATOM     21  C   UNL A   1      31.972  21.812  25.725  1.00  0.00     0.078 C 
ENDBRANCH   8  18
ENDBRANCH   7   8
ENDBRANCH   4   7
ENDBRANCH   2   3
ENDBRANCH   1   2
BRANCH   1  22
ATOM     22  C   UNL A   1      39.853  22.888  26.186  1.00  0.00     0.002 C 
BRANCH  22  23
ATOM     23  C   UNL A   1      40.282  21.787  27.156  1.00  0.00     0.002 C 
BRANCH  23  24
ATOM     24  C   UNL A   1      40.528  20.405  26.543  1.00  0.00     0.021 C 
BRANCH  24  25
ATOM     25  C   UNL A   1      41.823  19.709  26.960  1.00  0.00     0.116 C 
BRANCH  25  26
ATOM     26  N   UNL A   1      42.784  19.624  25.875  1.00  0.00    -0.352 N 
ATOM     27  C   UNL A   1      43.544  20.597  25.281  1.00  0.00     0.251 C 
ATOM     28  H   UNL A   1      42.910  18.721  25.507  1.00  0.00     0.163 HD
ATOM     29  O   UNL A   1      44.163  20.339  24.252  1.00  0.00    -0.269 OA
BRANCH  27  30
ATOM     30  C   UNL A   1      43.621  21.960  25.850  1.00  0.00     0.039 A 
ATOM     31  C   UNL A   1      43.410  23.049  24.998  1.00  0.00     0.014 A 
ATOM     32  C   UNL A   1      43.969  22.179  27.187  1.00  0.00     0.014 A 
ATOM     33  C   UNL A   1      43.512  24.351  25.491  1.00  0.00     0.010 A 
ATOM     34  C   UNL A   1      44.009  23.478  27.694  1.00  0.00     0.010 A 
ATOM     35  C   UNL A   1      43.800  24.577  26.846  1.00  0.00    -0.014 A 
BRANCH  35  36
ATOM     36  C   UNL A   1      43.909  25.959  27.374  1.00  0.00     0.031 A 
ATOM     37  C   UNL A   1      45.243  26.652  27.419  1.00  0.00     0.074 A 
ATOM     38  C   UNL A   1      42.815  26.581  27.850  1.00  0.00     0.049 A 
ATOM     39  N   UNL A   1      45.532  27.862  27.832  1.00  0.00    -0.248 NA
ATOM     40  C   UNL A   1      46.410  25.879  26.966  1.00  0.00     0.031 C 
ATOM     41  C   UNL A   1      41.473  25.998  27.919  1.00  0.00     0.029 A 
ATOM     42  N   UNL A   1      42.659  27.841  28.370  1.00  0.00    -0.354 N 
ATOM     43  C   UNL A   1      46.909  27.985  27.708  1.00  0.00     0.074 A 
ATOM     44  C   UNL A   1      47.405  26.714  27.223  1.00  0.00     0.031 C 
ATOM     45  C   UNL A   1      40.628  26.907  28.433  1.00  0.00     0.029 A 
ATOM     46  C   UNL A   1      41.370  28.126  28.744  1.00  0.00     0.049 A 
ATOM     47  H   UNL A   1      43.402  28.480  28.466  1.00  0.00     0.167 HD
ATOM     48  C   UNL A   1      47.693  29.060  27.959  1.00  0.00     0.031 A 
ATOM     49  C   UNL A   1      40.841  29.245  29.271  1.00  0.00     0.031 A 
ATOM     50  C   UNL A   1      47.203  30.331  28.423  1.00  0.00     0.049 A 
ATOM     51  C   UNL A   1      41.717  30.442  29.495  1.00  0.00     0.074 A 
ATOM     52  C   UNL A   1      47.907  31.504  28.633  1.00  0.00     0.029 A 
ATOM     53  N   UNL A   1      45.881  30.592  28.750  1.00  0.00    -0.354 N 
ATOM     54  N   UNL A   1      43.006  30.572  29.287  1.00  0.00    -0.248 NA
ATOM     55  C   UNL A   1      41.063  31.656  30.003  1.00  0.00     0.031 C 
ATOM     56  C   UNL A   1      47.016  32.466  29.126  1.00  0.00     0.029 A 
ATOM     57  C   UNL A   1      45.751  31.902  29.179  1.00  0.00     0.049 A 
ATOM     58  H   UNL A   1      45.144  29.942  28.686  1.00  0.00     0.167 HD
ATOM     59  C   UNL A   1      43.311  31.884  29.619  1.00  0.00     0.074 A 
ATOM     60  C   UNL A   1      42.072  32.515  30.026  1.00  0.00     0.031 C 
ATOM     61  C   UNL A   1      44.513  32.512  29.589  1.00  0.00     0.031 A 
BRANCH  48  62
ATOM     62  C   UNL A   1      49.172  28.898  27.744  1.00  0.00    -0.014 A 
ATOM     63  C   UNL A   1      49.756  29.140  26.490  1.00  0.00     0.009 A 
ATOM     64  C   UNL A   1      49.993  28.505  28.811  1.00  0.00     0.009 A 
ATOM     65  C   UNL A   1      51.127  28.950  26.300  1.00  0.00     0.001 A 
ATOM     66  C   UNL A   1      51.367  28.341  28.625  1.00  0.00     0.001 A 
ATOM     67  C   UNL A   1      51.931  28.553  27.367  1.00  0.00     0.000 A 
ENDBRANCH  48  62
BRANCH  49  68
ATOM     68  C   UNL A   1      39.391  29.291  29.590  1.00  0.00    -0.014 A 
ATOM     69  C   UNL A   1      38.458  29.653  28.608  1.00  0.00     0.009 A 
ATOM     70  C   UNL A   1      38.934  28.952  30.873  1.00  0.00     0.009 A 
ATOM     71  C   UNL A   1      37.094  29.692  28.910  1.00  0.00     0.001 A 
ATOM     72  C   UNL A   1      37.569  28.971  31.165  1.00  0.00     0.001 A 
ATOM     73  C   UNL A   1      36.651  29.346  30.186  1.00  0.00     0.000 A 
ENDBRANCH  49  68
BRANCH  61  74
ATOM     74  C   UNL A   1      44.538  33.958  29.990  1.00  0.00    -0.014 A 
ATOM     75  C   UNL A   1      44.316  34.976  29.050  1.00  0.00     0.009 A 
ATOM     76  C   UNL A   1      44.759  34.306  31.332  1.00  0.00     0.009 A 
ATOM     77  C   UNL A   1      44.350  36.316  29.441  1.00  0.00     0.001 A 
ATOM     78  C   UNL A   1      44.767  35.645  31.724  1.00  0.00     0.001 A 
ATOM     79  C   UNL A   1      44.571  36.649  30.777  1.00  0.00     0.000 A 
ENDBRANCH  61  74
ENDBRANCH  35  36
ENDBRANCH  27  30
ENDBRANCH  25  26
ENDBRANCH  24  25
ENDBRANCH  23  24
ENDBRANCH  22  23
ENDBRANCH   1  22
TORSDOF 19
ENDMDL
MODEL 3
REMARK VINA RESULT:      -8.7      5.828     10.234
REMARK SMILES C#CCNC(=O)C[N@@H+](CC(=O)NCCCCCCNC(=O)c1ccc(-c2c3nc(c(-c4ccccc4)c4ccc([nH]4)c(-c4ccccc4)c4nc(c(-c5ccccc5)c5ccc2[nH]5)C=C4)C=C3)cc1)C(C)(C)C
REMARK SMILES IDX 14 1 13 2 12 3 10 4 11 5 9 7 8 8 7 10 5 11 4 12 6 14 3 15
REMARK SMILES IDX 2 16 1 17 70 18 71 19 72 20 73 21 15 22 16 23 17 24 18 25
REMARK SMILES IDX 19 26 20 27 21 29 22 30 23 31 69 32 24 33 68 34 25 35 26 36
REMARK SMILES IDX 27 37 62 38 28 39 67 40 61 41 63 42 29 43 66 44 60 45 59 46
REMARK SMILES IDX 30 48 52 49 37 50 51 51 38 52 41 53 50 54 64 55 39 56 40 57
REMARK SMILES IDX 49 59 65 60 42 61 31 62 32 63 36 64 33 65 35 66 34 67 53 68
REMARK SMILES IDX 54 69 58 70 55 71 57 72 56 73 43 74 44 75 48 76 45 77 47 78
REMARK SMILES IDX 46 79
REMARK H PARENT 12 6 8 9 4 13 19 28 63 47 41 58
REMARK Flexibility Score: inf
ROOT
ATOM      1  C   UNL A   1      34.341  31.239  28.336  1.00  0.00     0.021 C 
ENDROOT
BRANCH   1   2
ATOM      2  C   UNL A   1      33.541  30.663  27.167  1.00  0.00     0.116 C 
BRANCH   2   3
ATOM      3  N   UNL A   1      32.535  29.726  27.626  1.00  0.00    -0.351 N 
ATOM      4  C   UNL A   1      32.337  28.407  27.341  1.00  0.00     0.275 C 
ATOM      5  O   UNL A   1      31.445  27.832  27.975  1.00  0.00    -0.269 OA
ATOM      6  H   UNL A   1      31.879  30.109  28.252  1.00  0.00     0.163 HD
BRANCH   4   7
ATOM      7  C   UNL A   1      33.211  27.638  26.341  1.00  0.00     0.364 C 
BRANCH   7   8
ATOM      8  N   UNL A   1      32.576  26.521  25.582  1.00  0.00    -0.315 N 
ATOM      9  H   UNL A   1      31.627  26.454  25.949  1.00  0.00     0.349 HD
BRANCH   8  10
ATOM     10  C   UNL A   1      33.212  25.229  25.891  1.00  0.00     0.364 C 
BRANCH  10  11
ATOM     11  C   UNL A   1      32.316  24.139  26.473  1.00  0.00     0.275 C 
ATOM     12  N   UNL A   1      32.408  22.854  26.042  1.00  0.00    -0.340 N 
ATOM     13  H   UNL A   1      31.693  22.251  26.350  1.00  0.00     0.164 HD
ATOM     14  O   UNL A   1      31.401  24.425  27.250  1.00  0.00    -0.268 OA
BRANCH  12  15
ATOM     15  C   UNL A   1      33.406  22.254  25.197  1.00  0.00     0.206 C 
BRANCH  15  16
ATOM     16  C   UNL A   1      32.731  21.877  23.888  1.00  0.00    -0.085 C 
ATOM     17  C   UNL A   1      32.152  21.553  22.765  1.00  0.00     0.006 C 
ENDBRANCH  15  16
ENDBRANCH  12  15
ENDBRANCH  10  11
ENDBRANCH   8  10
BRANCH   8  18
ATOM     18  C   UNL A   1      32.210  26.777  24.157  1.00  0.00     0.090 C 
ATOM     19  C   UNL A   1      31.737  25.531  23.372  1.00  0.00     0.078 C 
ATOM     20  C   UNL A   1      31.062  27.812  24.056  1.00  0.00     0.078 C 
ATOM     21  C   UNL A   1      33.402  27.409  23.397  1.00  0.00     0.078 C 
ENDBRANCH   8  18
ENDBRANCH   7   8
ENDBRANCH   4   7
ENDBRANCH   2   3
ENDBRANCH   1   2
BRANCH   1  22
ATOM     22  C   UNL A   1      35.238  32.430  27.999  1.00  0.00     0.002 C 
BRANCH  22  23
ATOM     23  C   UNL A   1      34.994  33.698  28.816  1.00  0.00     0.002 C 
BRANCH  23  24
ATOM     24  C   UNL A   1      33.556  34.227  28.829  1.00  0.00     0.021 C 
BRANCH  24  25
ATOM     25  C   UNL A   1      33.389  35.702  29.193  1.00  0.00     0.116 C 
BRANCH  25  26
ATOM     26  N   UNL A   1      32.597  35.893  30.394  1.00  0.00    -0.352 N 
ATOM     27  C   UNL A   1      32.777  35.414  31.665  1.00  0.00     0.251 C 
ATOM     28  H   UNL A   1      31.801  36.459  30.276  1.00  0.00     0.163 HD
ATOM     29  O   UNL A   1      31.884  35.550  32.496  1.00  0.00    -0.269 OA
BRANCH  27  30
ATOM     30  C   UNL A   1      34.026  34.723  32.050  1.00  0.00     0.039 A 
ATOM     31  C   UNL A   1      33.952  33.379  32.429  1.00  0.00     0.014 A 
ATOM     32  C   UNL A   1      35.250  35.397  32.114  1.00  0.00     0.014 A 
ATOM     33  C   UNL A   1      35.104  32.703  32.836  1.00  0.00     0.010 A 
ATOM     34  C   UNL A   1      36.411  34.705  32.459  1.00  0.00     0.010 A 
ATOM     35  C   UNL A   1      36.346  33.357  32.842  1.00  0.00    -0.014 A 
BRANCH  35  36
ATOM     36  C   UNL A   1      37.572  32.643  33.273  1.00  0.00     0.031 A 
ATOM     37  C   UNL A   1      38.186  31.587  32.396  1.00  0.00     0.074 A 
ATOM     38  C   UNL A   1      38.116  32.916  34.474  1.00  0.00     0.049 A 
ATOM     39  N   UNL A   1      39.263  30.868  32.599  1.00  0.00    -0.248 NA
ATOM     40  C   UNL A   1      37.487  31.278  31.139  1.00  0.00     0.031 C 
ATOM     41  C   UNL A   1      37.585  33.874  35.445  1.00  0.00     0.029 A 
ATOM     42  N   UNL A   1      39.236  32.407  35.083  1.00  0.00    -0.354 N 
ATOM     43  C   UNL A   1      39.356  30.012  31.509  1.00  0.00     0.074 A 
ATOM     44  C   UNL A   1      38.206  30.269  30.670  1.00  0.00     0.031 C 
ATOM     45  C   UNL A   1      38.390  33.898  36.520  1.00  0.00     0.029 A 
ATOM     46  C   UNL A   1      39.481  32.947  36.321  1.00  0.00     0.049 A 
ATOM     47  H   UNL A   1      39.809  31.721  34.671  1.00  0.00     0.167 HD
ATOM     48  C   UNL A   1      40.319  29.103  31.222  1.00  0.00     0.031 A 
ATOM     49  C   UNL A   1      40.476  32.711  37.195  1.00  0.00     0.031 A 
ATOM     50  C   UNL A   1      41.474  28.858  32.043  1.00  0.00     0.049 A 
ATOM     51  C   UNL A   1      41.560  31.738  36.835  1.00  0.00     0.074 A 
ATOM     52  C   UNL A   1      42.544  28.014  31.800  1.00  0.00     0.029 A 
ATOM     53  N   UNL A   1      41.708  29.458  33.271  1.00  0.00    -0.354 N 
ATOM     54  N   UNL A   1      41.682  31.000  35.757  1.00  0.00    -0.248 NA
ATOM     55  C   UNL A   1      42.656  31.581  37.800  1.00  0.00     0.031 C 
ATOM     56  C   UNL A   1      43.408  28.075  32.901  1.00  0.00     0.029 A 
ATOM     57  C   UNL A   1      42.896  28.989  33.807  1.00  0.00     0.049 A 
ATOM     58  H   UNL A   1      41.118  30.120  33.698  1.00  0.00     0.167 HD
ATOM     59  C   UNL A   1      42.876  30.309  35.906  1.00  0.00     0.074 A 
ATOM     60  C   UNL A   1      43.449  30.727  37.169  1.00  0.00     0.031 C 
ATOM     61  C   UNL A   1      43.448  29.408  35.069  1.00  0.00     0.031 A 
BRANCH  48  62
ATOM     62  C   UNL A   1      40.150  28.299  29.963  1.00  0.00    -0.014 A 
ATOM     63  C   UNL A   1      40.683  28.741  28.741  1.00  0.00     0.009 A 
ATOM     64  C   UNL A   1      39.458  27.081  30.001  1.00  0.00     0.009 A 
ATOM     65  C   UNL A   1      40.486  27.997  27.574  1.00  0.00     0.001 A 
ATOM     66  C   UNL A   1      39.285  26.327  28.839  1.00  0.00     0.001 A 
ATOM     67  C   UNL A   1      39.790  26.791  27.625  1.00  0.00     0.000 A 
ENDBRANCH  48  62
BRANCH  49  68
ATOM     68  C   UNL A   1      40.508  33.443  38.486  1.00  0.00    -0.014 A 
ATOM     69  C   UNL A   1      41.209  34.652  38.602  1.00  0.00     0.009 A 
ATOM     70  C   UNL A   1      39.816  32.947  39.602  1.00  0.00     0.009 A 
ATOM     71  C   UNL A   1      41.234  35.340  39.818  1.00  0.00     0.001 A 
ATOM     72  C   UNL A   1      39.825  33.648  40.809  1.00  0.00     0.001 A 
ATOM     73  C   UNL A   1      40.538  34.841  40.917  1.00  0.00     0.000 A 
ENDBRANCH  49  68
BRANCH  61  74
ATOM     74  C   UNL A   1      44.768  28.830  35.488  1.00  0.00    -0.014 A 
ATOM     75  C   UNL A   1      45.977  29.453  35.143  1.00  0.00     0.009 A 
ATOM     76  C   UNL A   1      44.802  27.659  36.262  1.00  0.00     0.009 A 
ATOM     77  C   UNL A   1      47.195  28.897  35.536  1.00  0.00     0.001 A 
ATOM     78  C   UNL A   1      46.021  27.119  36.674  1.00  0.00     0.001 A 
ATOM     79  C   UNL A   1      47.216  27.733  36.304  1.00  0.00     0.000 A 
ENDBRANCH  61  74
ENDBRANCH  35  36
ENDBRANCH  27  30
ENDBRANCH  25  26
ENDBRANCH  24  25
ENDBRANCH  23  24
ENDBRANCH  22  23
ENDBRANCH   1  22
TORSDOF 19
ENDMDL
