MODEL 1
REMARK VINA RESULT:     -11.8      0.000      0.000
REMARK SMILES CC(C)Oc1ccc([C@@H]2CC(=O)Nc3c(C(=O)NCCCCCCNC(=O)c4ccc(-c5c6nc(c(-c7ccccc7)c7ccc([nH]7)c(-c7ccccc7)c7nc(c(-c8ccccc8)c8ccc5[nH]8)C=C7)C=C6)cc4)nsc32)cc1
REMARK SMILES IDX 21 1 20 2 19 3 18 4 16 5 17 6 15 8 9 9 10 10 78 11 11 12
REMARK SMILES IDX 14 13 77 14 12 15 13 16 76 17 8 19 5 20 6 21 80 22 7 23
REMARK SMILES IDX 79 24 4 25 2 26 1 27 3 28 22 29 23 30 24 31 25 32 26 33
REMARK SMILES IDX 27 35 28 36 29 37 75 38 30 39 74 40 31 41 32 42 33 43 68 44
REMARK SMILES IDX 34 45 73 46 67 47 69 48 35 49 72 50 66 51 65 52 36 54 58 55
REMARK SMILES IDX 43 56 57 57 44 58 47 59 56 60 70 61 45 62 46 63 55 65 71 66
REMARK SMILES IDX 48 67 37 68 38 69 42 70 39 71 41 72 40 73 59 74 60 75 64 76
REMARK SMILES IDX 61 77 63 78 62 79 49 80 50 81 54 82 51 83 53 84 52 85
REMARK H PARENT 18 7 13 18 25 34 69 53 47 64
REMARK Flexibility Score: inf
ROOT
ATOM      1  C   UNL A   1      33.541  28.310  25.851  1.00  0.00     0.002 C 
ENDROOT
BRANCH   1   2
ATOM      2  C   UNL A   1      33.078  29.158  24.665  1.00  0.00     0.021 C 
BRANCH   2   3
ATOM      3  C   UNL A   1      31.678  29.739  24.744  1.00  0.00     0.116 C 
BRANCH   3   4
ATOM      4  N   UNL A   1      30.840  29.650  23.571  1.00  0.00    -0.351 N 
ATOM      5  C   UNL A   1      30.335  28.519  22.942  1.00  0.00     0.273 C 
ATOM      6  O   UNL A   1      29.563  28.710  22.000  1.00  0.00    -0.267 OA
ATOM      7  H   UNL A   1      30.592  30.510  23.162  1.00  0.00     0.163 HD
BRANCH   5   8
ATOM      8  C   UNL A   1      30.764  27.157  23.350  1.00  0.00     0.165 A 
ATOM      9  C   UNL A   1      32.304  23.764  22.757  1.00  0.00     0.073 C 
ATOM     10  C   UNL A   1      32.791  23.950  21.304  1.00  0.00     0.114 C 
ATOM     11  C   UNL A   1      31.596  24.981  23.252  1.00  0.00     0.058 A 
ATOM     12  C   UNL A   1      32.795  25.363  20.750  1.00  0.00     0.225 C 
ATOM     13  C   UNL A   1      31.645  26.226  22.678  1.00  0.00     0.089 A 
ATOM     14  S   UNL A   1      30.659  25.066  24.660  1.00  0.00    -0.038 S 
ATOM     15  O   UNL A   1      33.099  25.592  19.577  1.00  0.00    -0.275 OA
ATOM     16  N   UNL A   1      32.416  26.403  21.549  1.00  0.00    -0.323 N 
ATOM     17  N   UNL A   1      30.238  26.656  24.481  1.00  0.00    -0.185 NA
ATOM     18  H   UNL A   1      32.706  27.314  21.312  1.00  0.00     0.170 HD
BRANCH   9  19
ATOM     19  C   UNL A   1      33.477  23.380  23.641  1.00  0.00    -0.039 A 
ATOM     20  C   UNL A   1      35.596  22.648  25.328  1.00  0.00     0.119 A 
ATOM     21  C   UNL A   1      35.302  23.995  25.118  1.00  0.00     0.047 A 
ATOM     22  C   UNL A   1      34.801  21.671  24.743  1.00  0.00     0.047 A 
ATOM     23  C   UNL A   1      34.250  24.364  24.275  1.00  0.00     0.008 A 
ATOM     24  C   UNL A   1      33.765  22.031  23.889  1.00  0.00     0.008 A 
BRANCH  20  25
ATOM     25  O   UNL A   1      36.609  22.361  26.195  1.00  0.00    -0.491 OA
BRANCH  25  26
ATOM     26  C   UNL A   1      37.957  22.646  25.774  1.00  0.00     0.167 C 
ATOM     27  C   UNL A   1      38.592  23.832  26.496  1.00  0.00     0.052 C 
ATOM     28  C   UNL A   1      38.866  21.418  25.749  1.00  0.00     0.052 C 
ENDBRANCH  25  26
ENDBRANCH  20  25
ENDBRANCH   9  19
ENDBRANCH   5   8
ENDBRANCH   3   4
ENDBRANCH   2   3
ENDBRANCH   1   2
BRANCH   1  29
ATOM     29  C   UNL A   1      34.139  29.013  27.080  1.00  0.00     0.002 C 
BRANCH  29  30
ATOM     30  C   UNL A   1      33.529  30.337  27.564  1.00  0.00     0.021 C 
BRANCH  30  31
ATOM     31  C   UNL A   1      34.475  31.525  27.626  1.00  0.00     0.116 C 
BRANCH  31  32
ATOM     32  N   UNL A   1      34.486  32.204  28.918  1.00  0.00    -0.352 N 
ATOM     33  C   UNL A   1      35.265  31.922  30.029  1.00  0.00     0.251 C 
ATOM     34  H   UNL A   1      33.859  32.958  29.012  1.00  0.00     0.163 HD
ATOM     35  O   UNL A   1      34.943  32.310  31.138  1.00  0.00    -0.269 OA
BRANCH  33  36
ATOM     36  C   UNL A   1      36.500  31.135  29.844  1.00  0.00     0.039 A 
ATOM     37  C   UNL A   1      37.732  31.756  29.620  1.00  0.00     0.014 A 
ATOM     38  C   UNL A   1      36.414  29.749  29.928  1.00  0.00     0.014 A 
ATOM     39  C   UNL A   1      38.883  30.970  29.577  1.00  0.00     0.010 A 
ATOM     40  C   UNL A   1      37.556  29.000  30.056  1.00  0.00     0.010 A 
ATOM     41  C   UNL A   1      38.792  29.590  29.825  1.00  0.00    -0.014 A 
BRANCH  41  42
ATOM     42  C   UNL A   1      39.994  28.773  29.966  1.00  0.00     0.031 A 
ATOM     43  C   UNL A   1      40.496  28.644  31.362  1.00  0.00     0.074 A 
ATOM     44  C   UNL A   1      40.500  28.007  28.975  1.00  0.00     0.049 A 
ATOM     45  N   UNL A   1      41.615  29.077  31.837  1.00  0.00    -0.248 NA
ATOM     46  C   UNL A   1      39.596  28.068  32.375  1.00  0.00     0.031 C 
ATOM     47  C   UNL A   1      39.947  27.767  27.634  1.00  0.00     0.029 A 
ATOM     48  N   UNL A   1      41.573  27.169  29.004  1.00  0.00    -0.354 N 
ATOM     49  C   UNL A   1      41.653  28.660  33.165  1.00  0.00     0.074 A 
ATOM     50  C   UNL A   1      40.327  28.195  33.483  1.00  0.00     0.031 C 
ATOM     51  C   UNL A   1      40.534  26.679  27.088  1.00  0.00     0.029 A 
ATOM     52  C   UNL A   1      41.624  26.264  27.949  1.00  0.00     0.049 A 
ATOM     53  H   UNL A   1      42.256  27.200  29.712  1.00  0.00     0.167 HD
ATOM     54  C   UNL A   1      42.834  28.494  33.822  1.00  0.00     0.031 A 
ATOM     55  C   UNL A   1      42.492  25.234  27.798  1.00  0.00     0.031 A 
ATOM     56  C   UNL A   1      43.923  29.152  33.144  1.00  0.00     0.049 A 
ATOM     57  C   UNL A   1      43.654  25.503  28.670  1.00  0.00     0.074 A 
ATOM     58  C   UNL A   1      44.190  30.453  32.767  1.00  0.00     0.029 A 
ATOM     59  N   UNL A   1      44.757  28.365  32.387  1.00  0.00    -0.354 N 
ATOM     60  N   UNL A   1      44.494  26.475  28.465  1.00  0.00    -0.248 NA
ATOM     61  C   UNL A   1      43.642  24.958  30.016  1.00  0.00     0.031 C 
ATOM     62  C   UNL A   1      44.790  30.344  31.476  1.00  0.00     0.029 A 
ATOM     63  C   UNL A   1      44.929  28.988  31.176  1.00  0.00     0.049 A 
ATOM     64  H   UNL A   1      45.159  27.510  32.662  1.00  0.00     0.167 HD
ATOM     65  C   UNL A   1      44.771  26.967  29.731  1.00  0.00     0.074 A 
ATOM     66  C   UNL A   1      44.317  25.923  30.647  1.00  0.00     0.031 C 
ATOM     67  C   UNL A   1      45.078  28.285  29.920  1.00  0.00     0.031 A 
BRANCH  54  68
ATOM     68  C   UNL A   1      43.062  27.395  34.830  1.00  0.00    -0.014 A 
ATOM     69  C   UNL A   1      43.165  26.066  34.383  1.00  0.00     0.009 A 
ATOM     70  C   UNL A   1      42.899  27.583  36.217  1.00  0.00     0.009 A 
ATOM     71  C   UNL A   1      43.056  24.989  35.272  1.00  0.00     0.001 A 
ATOM     72  C   UNL A   1      42.832  26.513  37.112  1.00  0.00     0.001 A 
ATOM     73  C   UNL A   1      42.884  25.213  36.635  1.00  0.00     0.000 A 
ENDBRANCH  54  68
BRANCH  55  74
ATOM     74  C   UNL A   1      42.296  23.922  27.148  1.00  0.00    -0.014 A 
ATOM     75  C   UNL A   1      42.742  23.701  25.836  1.00  0.00     0.009 A 
ATOM     76  C   UNL A   1      41.941  22.801  27.919  1.00  0.00     0.009 A 
ATOM     77  C   UNL A   1      42.881  22.401  25.332  1.00  0.00     0.001 A 
ATOM     78  C   UNL A   1      42.078  21.503  27.415  1.00  0.00     0.001 A 
ATOM     79  C   UNL A   1      42.567  21.303  26.128  1.00  0.00     0.000 A 
ENDBRANCH  55  74
BRANCH  67  80
ATOM     80  C   UNL A   1      45.358  29.125  28.693  1.00  0.00    -0.014 A 
ATOM     81  C   UNL A   1      44.358  29.799  27.964  1.00  0.00     0.009 A 
ATOM     82  C   UNL A   1      46.694  29.334  28.321  1.00  0.00     0.009 A 
ATOM     83  C   UNL A   1      44.686  30.613  26.874  1.00  0.00     0.001 A 
ATOM     84  C   UNL A   1      47.023  30.166  27.248  1.00  0.00     0.001 A 
ATOM     85  C   UNL A   1      46.019  30.797  26.518  1.00  0.00     0.000 A 
ENDBRANCH  67  80
ENDBRANCH  41  42
ENDBRANCH  33  36
ENDBRANCH  31  32
ENDBRANCH  30  31
ENDBRANCH  29  30
ENDBRANCH   1  29
TORSDOF 16
ENDMDL
MODEL 2
REMARK VINA RESULT:     -11.5      1.948      2.709
REMARK SMILES CC(C)Oc1ccc([C@@H]2CC(=O)Nc3c(C(=O)NCCCCCCNC(=O)c4ccc(-c5c6nc(c(-c7ccccc7)c7ccc([nH]7)c(-c7ccccc7)c7nc(c(-c8ccccc8)c8ccc5[nH]8)C=C7)C=C6)cc4)nsc32)cc1
REMARK SMILES IDX 21 1 20 2 19 3 18 4 16 5 17 6 15 8 9 9 10 10 78 11 11 12
REMARK SMILES IDX 14 13 77 14 12 15 13 16 76 17 8 19 5 20 6 21 80 22 7 23
REMARK SMILES IDX 79 24 4 25 2 26 1 27 3 28 22 29 23 30 24 31 25 32 26 33
REMARK SMILES IDX 27 35 28 36 29 37 75 38 30 39 74 40 31 41 32 42 33 43 68 44
REMARK SMILES IDX 34 45 73 46 67 47 69 48 35 49 72 50 66 51 65 52 36 54 58 55
REMARK SMILES IDX 43 56 57 57 44 58 47 59 56 60 70 61 45 62 46 63 55 65 71 66
REMARK SMILES IDX 48 67 37 68 38 69 42 70 39 71 41 72 40 73 59 74 60 75 64 76
REMARK SMILES IDX 61 77 63 78 62 79 49 80 50 81 54 82 51 83 53 84 52 85
REMARK H PARENT 18 7 13 18 25 34 69 53 47 64
REMARK Flexibility Score: inf
ROOT
ATOM      1  C   UNL A   1      33.596  28.633  26.649  1.00  0.00     0.002 C 
ENDROOT
BRANCH   1   2
ATOM      2  C   UNL A   1      32.305  28.974  25.902  1.00  0.00     0.021 C 
BRANCH   2   3
ATOM      3  C   UNL A   1      31.451  27.805  25.443  1.00  0.00     0.116 C 
BRANCH   3   4
ATOM      4  N   UNL A   1      31.191  27.671  24.029  1.00  0.00    -0.351 N 
ATOM      5  C   UNL A   1      31.507  26.619  23.178  1.00  0.00     0.273 C 
ATOM      6  O   UNL A   1      31.095  26.704  22.019  1.00  0.00    -0.267 OA
ATOM      7  H   UNL A   1      30.723  28.430  23.610  1.00  0.00     0.163 HD
BRANCH   5   8
ATOM      8  C   UNL A   1      32.358  25.491  23.636  1.00  0.00     0.165 A 
ATOM      9  C   UNL A   1      33.304  22.687  25.976  1.00  0.00     0.073 C 
ATOM     10  C   UNL A   1      32.098  22.733  26.939  1.00  0.00     0.114 C 
ATOM     11  C   UNL A   1      33.209  23.752  24.935  1.00  0.00     0.058 A 
ATOM     12  C   UNL A   1      30.900  23.561  26.509  1.00  0.00     0.225 C 
ATOM     13  C   UNL A   1      32.081  24.465  24.619  1.00  0.00     0.089 A 
ATOM     14  S   UNL A   1      34.462  24.226  23.899  1.00  0.00    -0.038 S 
ATOM     15  O   UNL A   1      29.926  23.712  27.250  1.00  0.00    -0.275 OA
ATOM     16  N   UNL A   1      30.913  24.189  25.297  1.00  0.00    -0.323 N 
ATOM     17  N   UNL A   1      33.596  25.403  23.122  1.00  0.00    -0.185 NA
ATOM     18  H   UNL A   1      30.056  24.454  24.891  1.00  0.00     0.170 HD
BRANCH   9  19
ATOM     19  C   UNL A   1      33.419  21.299  25.371  1.00  0.00    -0.039 A 
ATOM     20  C   UNL A   1      33.669  18.764  24.196  1.00  0.00     0.119 A 
ATOM     21  C   UNL A   1      32.436  19.416  24.198  1.00  0.00     0.047 A 
ATOM     22  C   UNL A   1      34.784  19.399  24.728  1.00  0.00     0.047 A 
ATOM     23  C   UNL A   1      32.307  20.677  24.787  1.00  0.00     0.008 A 
ATOM     24  C   UNL A   1      34.658  20.644  25.332  1.00  0.00     0.008 A 
BRANCH  20  25
ATOM     25  O   UNL A   1      33.732  17.555  23.568  1.00  0.00    -0.491 OA
BRANCH  25  26
ATOM     26  C   UNL A   1      33.701  16.369  24.385  1.00  0.00     0.167 C 
ATOM     27  C   UNL A   1      35.049  16.010  25.004  1.00  0.00     0.052 C 
ATOM     28  C   UNL A   1      32.562  16.354  25.405  1.00  0.00     0.052 C 
ENDBRANCH  25  26
ENDBRANCH  20  25
ENDBRANCH   9  19
ENDBRANCH   5   8
ENDBRANCH   3   4
ENDBRANCH   2   3
ENDBRANCH   1   2
BRANCH   1  29
ATOM     29  C   UNL A   1      34.471  29.779  27.183  1.00  0.00     0.002 C 
BRANCH  29  30
ATOM     30  C   UNL A   1      33.812  31.105  27.594  1.00  0.00     0.021 C 
BRANCH  30  31
ATOM     31  C   UNL A   1      34.759  32.221  28.002  1.00  0.00     0.116 C 
BRANCH  31  32
ATOM     32  N   UNL A   1      34.669  32.584  29.414  1.00  0.00    -0.352 N 
ATOM     33  C   UNL A   1      35.312  31.997  30.492  1.00  0.00     0.251 C 
ATOM     34  H   UNL A   1      34.075  33.340  29.626  1.00  0.00     0.163 HD
ATOM     35  O   UNL A   1      34.897  32.143  31.628  1.00  0.00    -0.269 OA
BRANCH  33  36
ATOM     36  C   UNL A   1      36.519  31.185  30.239  1.00  0.00     0.039 A 
ATOM     37  C   UNL A   1      37.769  31.779  30.047  1.00  0.00     0.014 A 
ATOM     38  C   UNL A   1      36.386  29.800  30.224  1.00  0.00     0.014 A 
ATOM     39  C   UNL A   1      38.892  30.960  29.936  1.00  0.00     0.010 A 
ATOM     40  C   UNL A   1      37.503  29.006  30.286  1.00  0.00     0.010 A 
ATOM     41  C   UNL A   1      38.756  29.570  30.085  1.00  0.00    -0.014 A 
BRANCH  41  42
ATOM     42  C   UNL A   1      39.931  28.705  30.155  1.00  0.00     0.031 A 
ATOM     43  C   UNL A   1      40.481  28.516  31.526  1.00  0.00     0.074 A 
ATOM     44  C   UNL A   1      40.369  27.951  29.123  1.00  0.00     0.049 A 
ATOM     45  N   UNL A   1      41.633  28.892  31.968  1.00  0.00    -0.248 NA
ATOM     46  C   UNL A   1      39.599  27.942  32.557  1.00  0.00     0.031 C 
ATOM     47  C   UNL A   1      39.756  27.773  27.799  1.00  0.00     0.029 A 
ATOM     48  N   UNL A   1      41.410  27.073  29.085  1.00  0.00    -0.354 N 
ATOM     49  C   UNL A   1      41.707  28.434  33.281  1.00  0.00     0.074 A 
ATOM     50  C   UNL A   1      40.377  28.008  33.638  1.00  0.00     0.031 C 
ATOM     51  C   UNL A   1      40.280  26.681  27.198  1.00  0.00     0.029 A 
ATOM     52  C   UNL A   1      41.386  26.200  28.003  1.00  0.00     0.049 A 
ATOM     53  H   UNL A   1      42.120  27.058  29.766  1.00  0.00     0.167 HD
ATOM     54  C   UNL A   1      42.905  28.205  33.886  1.00  0.00     0.031 A 
ATOM     55  C   UNL A   1      42.207  25.144  27.788  1.00  0.00     0.031 A 
ATOM     56  C   UNL A   1      43.991  28.842  33.185  1.00  0.00     0.049 A 
ATOM     57  C   UNL A   1      43.411  25.343  28.621  1.00  0.00     0.074 A 
ATOM     58  C   UNL A   1      44.292  30.143  32.835  1.00  0.00     0.029 A 
ATOM     59  N   UNL A   1      44.765  28.048  32.372  1.00  0.00    -0.354 N 
ATOM     60  N   UNL A   1      44.280  26.290  28.411  1.00  0.00    -0.248 NA
ATOM     61  C   UNL A   1      43.431  24.759  29.951  1.00  0.00     0.031 C 
ATOM     62  C   UNL A   1      44.838  30.052  31.519  1.00  0.00     0.029 A 
ATOM     63  C   UNL A   1      44.914  28.701  31.174  1.00  0.00     0.049 A 
ATOM     64  H   UNL A   1      45.144  27.171  32.607  1.00  0.00     0.167 HD
ATOM     65  C   UNL A   1      44.624  26.732  29.679  1.00  0.00     0.074 A 
ATOM     66  C   UNL A   1      44.166  25.678  30.582  1.00  0.00     0.031 C 
ATOM     67  C   UNL A   1      44.988  28.032  29.894  1.00  0.00     0.031 A 
BRANCH  54  68
ATOM     68  C   UNL A   1      43.129  27.068  34.852  1.00  0.00    -0.014 A 
ATOM     69  C   UNL A   1      43.137  25.749  34.367  1.00  0.00     0.009 A 
ATOM     70  C   UNL A   1      43.053  27.226  36.250  1.00  0.00     0.009 A 
ATOM     71  C   UNL A   1      43.020  24.654  35.234  1.00  0.00     0.001 A 
ATOM     72  C   UNL A   1      42.979  26.136  37.120  1.00  0.00     0.001 A 
ATOM     73  C   UNL A   1      42.935  24.849  36.609  1.00  0.00     0.000 A 
ENDBRANCH  54  68
BRANCH  55  74
ATOM     74  C   UNL A   1      41.937  23.860  27.110  1.00  0.00    -0.014 A 
ATOM     75  C   UNL A   1      42.830  23.359  26.149  1.00  0.00     0.009 A 
ATOM     76  C   UNL A   1      40.960  22.986  27.619  1.00  0.00     0.009 A 
ATOM     77  C   UNL A   1      42.782  22.015  25.754  1.00  0.00     0.001 A 
ATOM     78  C   UNL A   1      40.911  21.645  27.223  1.00  0.00     0.001 A 
ATOM     79  C   UNL A   1      41.835  21.156  26.305  1.00  0.00     0.000 A 
ENDBRANCH  55  74
BRANCH  67  80
ATOM     80  C   UNL A   1      45.252  28.898  28.681  1.00  0.00    -0.014 A 
ATOM     81  C   UNL A   1      44.236  29.527  27.936  1.00  0.00     0.009 A 
ATOM     82  C   UNL A   1      46.583  29.178  28.342  1.00  0.00     0.009 A 
ATOM     83  C   UNL A   1      44.546  30.368  26.861  1.00  0.00     0.001 A 
ATOM     84  C   UNL A   1      46.893  30.037  27.285  1.00  0.00     0.001 A 
ATOM     85  C   UNL A   1      45.875  30.623  26.538  1.00  0.00     0.000 A 
ENDBRANCH  67  80
ENDBRANCH  41  42
ENDBRANCH  33  36
ENDBRANCH  31  32
ENDBRANCH  30  31
ENDBRANCH  29  30
ENDBRANCH   1  29
TORSDOF 16
ENDMDL
MODEL 3
REMARK VINA RESULT:     -11.4      3.377      5.145
REMARK SMILES CC(C)Oc1ccc([C@@H]2CC(=O)Nc3c(C(=O)NCCCCCCNC(=O)c4ccc(-c5c6nc(c(-c7ccccc7)c7ccc([nH]7)c(-c7ccccc7)c7nc(c(-c8ccccc8)c8ccc5[nH]8)C=C7)C=C6)cc4)nsc32)cc1
REMARK SMILES IDX 21 1 20 2 19 3 18 4 16 5 17 6 15 8 9 9 10 10 78 11 11 12
REMARK SMILES IDX 14 13 77 14 12 15 13 16 76 17 8 19 5 20 6 21 80 22 7 23
REMARK SMILES IDX 79 24 4 25 2 26 1 27 3 28 22 29 23 30 24 31 25 32 26 33
REMARK SMILES IDX 27 35 28 36 29 37 75 38 30 39 74 40 31 41 32 42 33 43 68 44
REMARK SMILES IDX 34 45 73 46 67 47 69 48 35 49 72 50 66 51 65 52 36 54 58 55
REMARK SMILES IDX 43 56 57 57 44 58 47 59 56 60 70 61 45 62 46 63 55 65 71 66
REMARK SMILES IDX 48 67 37 68 38 69 42 70 39 71 41 72 40 73 59 74 60 75 64 76
REMARK SMILES IDX 61 77 63 78 62 79 49 80 50 81 54 82 51 83 53 84 52 85
REMARK H PARENT 18 7 13 18 25 34 69 53 47 64
REMARK Flexibility Score: inf
ROOT
ATOM      1  C   UNL A   1      35.166  33.314  28.000  1.00  0.00     0.002 C 
ENDROOT
BRANCH   1   2
ATOM      2  C   UNL A   1      34.727  31.947  28.525  1.00  0.00     0.021 C 
BRANCH   2   3
ATOM      3  C   UNL A   1      33.790  31.142  27.643  1.00  0.00     0.116 C 
BRANCH   3   4
ATOM      4  N   UNL A   1      32.729  31.846  26.962  1.00  0.00    -0.351 N 
ATOM      5  C   UNL A   1      31.639  31.328  26.273  1.00  0.00     0.273 C 
ATOM      6  O   UNL A   1      30.816  32.142  25.850  1.00  0.00    -0.267 OA
ATOM      7  H   UNL A   1      32.785  32.828  26.991  1.00  0.00     0.163 HD
BRANCH   5   8
ATOM      8  C   UNL A   1      31.520  29.871  26.007  1.00  0.00     0.165 A 
ATOM      9  C   UNL A   1      30.485  26.866  23.974  1.00  0.00     0.073 C 
ATOM     10  C   UNL A   1      29.943  27.578  22.715  1.00  0.00     0.114 C 
ATOM     11  C   UNL A   1      30.942  27.850  24.999  1.00  0.00     0.058 A 
ATOM     12  C   UNL A   1      30.257  29.056  22.565  1.00  0.00     0.225 C 
ATOM     13  C   UNL A   1      31.191  29.181  24.778  1.00  0.00     0.089 A 
ATOM     14  S   UNL A   1      31.309  27.487  26.612  1.00  0.00    -0.038 S 
ATOM     15  O   UNL A   1      29.801  29.717  21.630  1.00  0.00    -0.275 OA
ATOM     16  N   UNL A   1      31.025  29.681  23.504  1.00  0.00    -0.323 N 
ATOM     17  N   UNL A   1      31.686  29.038  27.048  1.00  0.00    -0.185 NA
ATOM     18  H   UNL A   1      31.478  30.521  23.263  1.00  0.00     0.170 HD
BRANCH   9  19
ATOM     19  C   UNL A   1      31.584  25.897  23.576  1.00  0.00    -0.039 A 
ATOM     20  C   UNL A   1      33.607  24.072  22.906  1.00  0.00     0.119 A 
ATOM     21  C   UNL A   1      33.930  25.394  23.211  1.00  0.00     0.047 A 
ATOM     22  C   UNL A   1      32.287  23.649  22.991  1.00  0.00     0.047 A 
ATOM     23  C   UNL A   1      32.925  26.307  23.540  1.00  0.00     0.008 A 
ATOM     24  C   UNL A   1      31.280  24.557  23.299  1.00  0.00     0.008 A 
BRANCH  20  25
ATOM     25  O   UNL A   1      34.642  23.226  22.634  1.00  0.00    -0.491 OA
BRANCH  25  26
ATOM     26  C   UNL A   1      35.466  22.794  23.734  1.00  0.00     0.167 C 
ATOM     27  C   UNL A   1      34.913  21.584  24.482  1.00  0.00     0.052 C 
ATOM     28  C   UNL A   1      36.943  22.638  23.371  1.00  0.00     0.052 C 
ENDBRANCH  25  26
ENDBRANCH  20  25
ENDBRANCH   9  19
ENDBRANCH   5   8
ENDBRANCH   3   4
ENDBRANCH   2   3
ENDBRANCH   1   2
BRANCH   1  29
ATOM     29  C   UNL A   1      34.972  34.552  28.892  1.00  0.00     0.002 C 
BRANCH  29  30
ATOM     30  C   UNL A   1      33.553  35.076  29.159  1.00  0.00     0.021 C 
BRANCH  30  31
ATOM     31  C   UNL A   1      33.454  36.321  30.025  1.00  0.00     0.116 C 
BRANCH  31  32
ATOM     32  N   UNL A   1      32.634  36.144  31.220  1.00  0.00    -0.352 N 
ATOM     33  C   UNL A   1      32.781  35.208  32.231  1.00  0.00     0.251 C 
ATOM     34  H   UNL A   1      31.879  36.769  31.319  1.00  0.00     0.163 HD
ATOM     35  O   UNL A   1      31.855  34.929  32.971  1.00  0.00    -0.269 OA
BRANCH  33  36
ATOM     36  C   UNL A   1      34.092  34.548  32.398  1.00  0.00     0.039 A 
ATOM     37  C   UNL A   1      34.234  33.166  32.248  1.00  0.00     0.014 A 
ATOM     38  C   UNL A   1      35.196  35.344  32.682  1.00  0.00     0.014 A 
ATOM     39  C   UNL A   1      35.513  32.614  32.293  1.00  0.00     0.010 A 
ATOM     40  C   UNL A   1      36.461  34.828  32.557  1.00  0.00     0.010 A 
ATOM     41  C   UNL A   1      36.630  33.456  32.421  1.00  0.00    -0.014 A 
BRANCH  41  42
ATOM     42  C   UNL A   1      37.986  32.929  32.290  1.00  0.00     0.031 A 
ATOM     43  C   UNL A   1      38.778  32.935  33.550  1.00  0.00     0.074 A 
ATOM     44  C   UNL A   1      38.435  32.279  31.193  1.00  0.00     0.049 A 
ATOM     45  N   UNL A   1      39.848  33.612  33.802  1.00  0.00    -0.248 NA
ATOM     46  C   UNL A   1      38.254  32.189  34.706  1.00  0.00     0.031 C 
ATOM     47  C   UNL A   1      37.686  31.903  29.986  1.00  0.00     0.029 A 
ATOM     48  N   UNL A   1      39.649  31.701  30.978  1.00  0.00    -0.354 N 
ATOM     49  C   UNL A   1      40.247  33.235  35.081  1.00  0.00     0.074 A 
ATOM     50  C   UNL A   1      39.150  32.491  35.647  1.00  0.00     0.031 C 
ATOM     51  C   UNL A   1      38.374  30.964  29.298  1.00  0.00     0.029 A 
ATOM     52  C   UNL A   1      39.681  30.814  29.907  1.00  0.00     0.049 A 
ATOM     53  H   UNL A   1      40.438  31.894  31.534  1.00  0.00     0.167 HD
ATOM     54  C   UNL A   1      41.545  33.345  35.480  1.00  0.00     0.031 A 
ATOM     55  C   UNL A   1      40.704  30.001  29.551  1.00  0.00     0.031 A 
ATOM     56  C   UNL A   1      42.300  34.218  34.616  1.00  0.00     0.049 A 
ATOM     57  C   UNL A   1      41.932  30.534  30.178  1.00  0.00     0.074 A 
ATOM     58  C   UNL A   1      42.190  35.539  34.233  1.00  0.00     0.029 A 
ATOM     59  N   UNL A   1      43.114  33.624  33.681  1.00  0.00    -0.354 N 
ATOM     60  N   UNL A   1      42.477  31.665  29.837  1.00  0.00    -0.248 NA
ATOM     61  C   UNL A   1      42.316  30.020  31.481  1.00  0.00     0.031 C 
ATOM     62  C   UNL A   1      42.523  35.547  32.845  1.00  0.00     0.029 A 
ATOM     63  C   UNL A   1      42.893  34.252  32.481  1.00  0.00     0.049 A 
ATOM     64  H   UNL A   1      43.742  32.884  33.843  1.00  0.00     0.167 HD
ATOM     65  C   UNL A   1      42.892  32.225  31.036  1.00  0.00     0.074 A 
ATOM     66  C   UNL A   1      42.876  31.119  31.992  1.00  0.00     0.031 C 
ATOM     67  C   UNL A   1      42.933  33.581  31.200  1.00  0.00     0.031 A 
BRANCH  54  68
ATOM     68  C   UNL A   1      42.210  32.339  36.386  1.00  0.00    -0.014 A 
ATOM     69  C   UNL A   1      42.819  32.782  37.572  1.00  0.00     0.009 A 
ATOM     70  C   UNL A   1      42.501  31.020  35.981  1.00  0.00     0.009 A 
ATOM     71  C   UNL A   1      43.712  31.967  38.280  1.00  0.00     0.001 A 
ATOM     72  C   UNL A   1      43.358  30.190  36.708  1.00  0.00     0.001 A 
ATOM     73  C   UNL A   1      43.985  30.674  37.845  1.00  0.00     0.000 A 
ENDBRANCH  54  68
BRANCH  55  74
ATOM     74  C   UNL A   1      40.674  28.668  28.915  1.00  0.00    -0.014 A 
ATOM     75  C   UNL A   1      39.992  27.602  29.523  1.00  0.00     0.009 A 
ATOM     76  C   UNL A   1      41.060  28.520  27.571  1.00  0.00     0.009 A 
ATOM     77  C   UNL A   1      39.659  26.452  28.794  1.00  0.00     0.001 A 
ATOM     78  C   UNL A   1      40.729  27.371  26.845  1.00  0.00     0.001 A 
ATOM     79  C   UNL A   1      40.012  26.346  27.452  1.00  0.00     0.000 A 
ENDBRANCH  55  74
BRANCH  67  80
ATOM     80  C   UNL A   1      42.764  34.444  29.968  1.00  0.00    -0.014 A 
ATOM     81  C   UNL A   1      41.512  34.839  29.458  1.00  0.00     0.009 A 
ATOM     82  C   UNL A   1      43.914  34.968  29.361  1.00  0.00     0.009 A 
ATOM     83  C   UNL A   1      41.420  35.691  28.352  1.00  0.00     0.001 A 
ATOM     84  C   UNL A   1      43.823  35.837  28.271  1.00  0.00     0.001 A 
ATOM     85  C   UNL A   1      42.577  36.190  27.760  1.00  0.00     0.000 A 
ENDBRANCH  67  80
ENDBRANCH  41  42
ENDBRANCH  33  36
ENDBRANCH  31  32
ENDBRANCH  30  31
ENDBRANCH  29  30
ENDBRANCH   1  29
TORSDOF 16
ENDMDL
