MODEL 1
REMARK VINA RESULT:      -9.4      0.000      0.000
REMARK SMILES CC(C)C[N@@H+](C[C@@H](C)C(=O)NCCCCCCNC(=O)c1ccc(-c2c3nc(c(-c4ccccc4)c4ccc([nH]4)c(-c4ccccc4)c4nc(c(-c5ccccc5)c5ccc2[nH]5)C=C4)C=C3)cc1)C1CCCC1
REMARK SMILES IDX 13 1 12 2 11 3 9 4 10 5 7 7 8 8 6 9 5 10 4 12 2 13 1 14 3 15
REMARK SMILES IDX 69 16 70 17 73 18 71 19 72 20 14 21 15 22 16 23 17 24 18 25
REMARK SMILES IDX 19 26 20 28 21 29 22 30 68 31 23 32 67 33 24 34 25 35 26 36
REMARK SMILES IDX 61 37 27 38 66 39 60 40 62 41 28 42 65 43 59 44 58 45 29 47
REMARK SMILES IDX 51 48 36 49 50 50 37 51 40 52 49 53 63 54 38 55 39 56 48 58
REMARK SMILES IDX 64 59 41 60 30 61 31 62 35 63 32 64 34 65 33 66 52 67 53 68
REMARK SMILES IDX 57 69 54 70 56 71 55 72 42 73 43 74 47 75 44 76 46 77 45 78
REMARK H PARENT 11 6 5 11 18 27 62 46 40 57
REMARK Flexibility Score: inf
ROOT
ATOM      1  C   UNL A   1      30.724  26.678  23.928  1.00  0.00     0.021 C 
ENDROOT
BRANCH   1   2
ATOM      2  C   UNL A   1      31.265  27.514  22.763  1.00  0.00     0.116 C 
BRANCH   2   3
ATOM      3  N   UNL A   1      31.678  26.627  21.691  1.00  0.00    -0.356 N 
ATOM      4  C   UNL A   1      32.707  25.737  21.618  1.00  0.00     0.228 C 
ATOM      5  O   UNL A   1      32.997  25.298  20.503  1.00  0.00    -0.275 OA
ATOM      6  H   UNL A   1      31.122  26.677  20.881  1.00  0.00     0.163 HD
BRANCH   4   7
ATOM      7  C   UNL A   1      33.379  25.183  22.872  1.00  0.00     0.130 C 
ATOM      8  C   UNL A   1      34.349  26.274  23.327  1.00  0.00     0.024 C 
BRANCH   7   9
ATOM      9  C   UNL A   1      33.829  23.701  22.708  1.00  0.00     0.275 C 
BRANCH   9  10
ATOM     10  N   UNL A   1      34.330  22.877  23.830  1.00  0.00    -0.332 N 
ATOM     11  H   UNL A   1      34.396  21.931  23.452  1.00  0.00     0.348 HD
BRANCH  10  12
ATOM     12  C   UNL A   1      33.351  22.784  24.922  1.00  0.00     0.265 C 
BRANCH  12  13
ATOM     13  C   UNL A   1      32.786  21.390  25.313  1.00  0.00     0.038 C 
ATOM     14  C   UNL A   1      32.902  20.328  24.215  1.00  0.00     0.013 C 
ATOM     15  C   UNL A   1      33.552  20.887  26.548  1.00  0.00     0.013 C 
ENDBRANCH  12  13
ENDBRANCH  10  12
BRANCH  10  16
ATOM     16  C   UNL A   1      35.745  23.006  24.192  1.00  0.00     0.184 C 
ATOM     17  C   UNL A   1      36.075  23.797  25.468  1.00  0.00     0.065 C 
ATOM     18  C   UNL A   1      36.541  21.724  24.404  1.00  0.00     0.065 C 
ATOM     19  C   UNL A   1      37.563  23.516  25.692  1.00  0.00     0.006 C 
ATOM     20  C   UNL A   1      37.823  22.127  25.118  1.00  0.00     0.006 C 
ENDBRANCH  10  16
ENDBRANCH   9  10
ENDBRANCH   7   9
ENDBRANCH   4   7
ENDBRANCH   2   3
ENDBRANCH   1   2
BRANCH   1  21
ATOM     21  C   UNL A   1      31.018  27.316  25.291  1.00  0.00     0.002 C 
BRANCH  21  22
ATOM     22  C   UNL A   1      31.961  28.523  25.223  1.00  0.00     0.002 C 
BRANCH  22  23
ATOM     23  C   UNL A   1      33.330  28.285  25.862  1.00  0.00     0.021 C 
BRANCH  23  24
ATOM     24  C   UNL A   1      33.382  28.620  27.347  1.00  0.00     0.116 C 
BRANCH  24  25
ATOM     25  N   UNL A   1      33.420  30.058  27.570  1.00  0.00    -0.352 N 
ATOM     26  C   UNL A   1      34.408  30.818  28.138  1.00  0.00     0.251 C 
ATOM     27  H   UNL A   1      32.624  30.554  27.270  1.00  0.00     0.163 HD
ATOM     28  O   UNL A   1      34.186  31.981  28.471  1.00  0.00    -0.269 OA
BRANCH  26  29
ATOM     29  C   UNL A   1      35.739  30.226  28.363  1.00  0.00     0.039 A 
ATOM     30  C   UNL A   1      36.668  30.232  27.322  1.00  0.00     0.014 A 
ATOM     31  C   UNL A   1      36.067  29.671  29.604  1.00  0.00     0.014 A 
ATOM     32  C   UNL A   1      37.951  29.729  27.544  1.00  0.00     0.010 A 
ATOM     33  C   UNL A   1      37.367  29.245  29.846  1.00  0.00     0.010 A 
ATOM     34  C   UNL A   1      38.320  29.264  28.817  1.00  0.00    -0.014 A 
BRANCH  34  35
ATOM     35  C   UNL A   1      39.700  28.798  29.090  1.00  0.00     0.031 A 
ATOM     36  C   UNL A   1      40.698  29.719  29.737  1.00  0.00     0.074 A 
ATOM     37  C   UNL A   1      40.072  27.562  28.703  1.00  0.00     0.049 A 
ATOM     38  N   UNL A   1      41.957  29.502  30.018  1.00  0.00    -0.248 NA
ATOM     39  C   UNL A   1      40.226  31.068  30.092  1.00  0.00     0.031 C 
ATOM     40  C   UNL A   1      39.207  26.588  28.032  1.00  0.00     0.029 A 
ATOM     41  N   UNL A   1      41.275  26.913  28.820  1.00  0.00    -0.354 N 
ATOM     42  C   UNL A   1      42.430  30.687  30.570  1.00  0.00     0.074 A 
ATOM     43  C   UNL A   1      41.339  31.635  30.531  1.00  0.00     0.031 C 
ATOM     44  C   UNL A   1      39.899  25.456  27.827  1.00  0.00     0.029 A 
ATOM     45  C   UNL A   1      41.263  25.638  28.308  1.00  0.00     0.049 A 
ATOM     46  H   UNL A   1      42.071  27.323  29.231  1.00  0.00     0.167 HD
ATOM     47  C   UNL A   1      43.654  30.955  31.082  1.00  0.00     0.031 A 
ATOM     48  C   UNL A   1      42.245  24.720  28.228  1.00  0.00     0.031 A 
ATOM     49  C   UNL A   1      44.737  30.009  31.118  1.00  0.00     0.049 A 
ATOM     50  C   UNL A   1      43.606  25.054  28.776  1.00  0.00     0.074 A 
ATOM     51  C   UNL A   1      46.001  30.167  31.662  1.00  0.00     0.029 A 
ATOM     52  N   UNL A   1      44.688  28.730  30.584  1.00  0.00    -0.354 N 
ATOM     53  N   UNL A   1      44.014  26.154  29.361  1.00  0.00    -0.248 NA
ATOM     54  C   UNL A   1      44.635  24.013  28.662  1.00  0.00     0.031 C 
ATOM     55  C   UNL A   1      46.736  29.007  31.400  1.00  0.00     0.029 A 
ATOM     56  C   UNL A   1      45.909  28.100  30.757  1.00  0.00     0.049 A 
ATOM     57  H   UNL A   1      43.902  28.331  30.147  1.00  0.00     0.167 HD
ATOM     58  C   UNL A   1      45.339  25.926  29.711  1.00  0.00     0.074 A 
ATOM     59  C   UNL A   1      45.657  24.577  29.290  1.00  0.00     0.031 C 
ATOM     60  C   UNL A   1      46.213  26.759  30.328  1.00  0.00     0.031 A 
BRANCH  47  61
ATOM     61  C   UNL A   1      43.889  32.335  31.632  1.00  0.00    -0.014 A 
ATOM     62  C   UNL A   1      43.640  32.636  32.981  1.00  0.00     0.009 A 
ATOM     63  C   UNL A   1      44.402  33.340  30.799  1.00  0.00     0.009 A 
ATOM     64  C   UNL A   1      43.862  33.924  33.474  1.00  0.00     0.001 A 
ATOM     65  C   UNL A   1      44.656  34.619  31.301  1.00  0.00     0.001 A 
ATOM     66  C   UNL A   1      44.375  34.912  32.635  1.00  0.00     0.000 A 
ENDBRANCH  47  61
BRANCH  48  67
ATOM     67  C   UNL A   1      41.978  23.393  27.614  1.00  0.00    -0.014 A 
ATOM     68  C   UNL A   1      42.285  23.156  26.265  1.00  0.00     0.009 A 
ATOM     69  C   UNL A   1      41.405  22.359  28.370  1.00  0.00     0.009 A 
ATOM     70  C   UNL A   1      41.996  21.921  25.679  1.00  0.00     0.001 A 
ATOM     71  C   UNL A   1      41.148  21.115  27.790  1.00  0.00     0.001 A 
ATOM     72  C   UNL A   1      41.433  20.901  26.443  1.00  0.00     0.000 A 
ENDBRANCH  48  67
BRANCH  60  73
ATOM     73  C   UNL A   1      47.587  26.221  30.620  1.00  0.00    -0.014 A 
ATOM     74  C   UNL A   1      48.593  26.211  29.642  1.00  0.00     0.009 A 
ATOM     75  C   UNL A   1      47.888  25.753  31.909  1.00  0.00     0.009 A 
ATOM     76  C   UNL A   1      49.862  25.708  29.939  1.00  0.00     0.001 A 
ATOM     77  C   UNL A   1      49.166  25.282  32.213  1.00  0.00     0.001 A 
ATOM     78  C   UNL A   1      50.148  25.250  31.225  1.00  0.00     0.000 A 
ENDBRANCH  60  73
ENDBRANCH  34  35
ENDBRANCH  26  29
ENDBRANCH  24  25
ENDBRANCH  23  24
ENDBRANCH  22  23
ENDBRANCH  21  22
ENDBRANCH   1  21
TORSDOF 18
ENDMDL
MODEL 2
REMARK VINA RESULT:      -9.2      1.363      2.551
REMARK SMILES CC(C)C[N@@H+](C[C@@H](C)C(=O)NCCCCCCNC(=O)c1ccc(-c2c3nc(c(-c4ccccc4)c4ccc([nH]4)c(-c4ccccc4)c4nc(c(-c5ccccc5)c5ccc2[nH]5)C=C4)C=C3)cc1)C1CCCC1
REMARK SMILES IDX 13 1 12 2 11 3 9 4 10 5 7 7 8 8 6 9 5 10 4 12 2 13 1 14 3 15
REMARK SMILES IDX 69 16 70 17 73 18 71 19 72 20 14 21 15 22 16 23 17 24 18 25
REMARK SMILES IDX 19 26 20 28 21 29 22 30 68 31 23 32 67 33 24 34 25 35 26 36
REMARK SMILES IDX 61 37 27 38 66 39 60 40 62 41 28 42 65 43 59 44 58 45 29 47
REMARK SMILES IDX 51 48 36 49 50 50 37 51 40 52 49 53 63 54 38 55 39 56 48 58
REMARK SMILES IDX 64 59 41 60 30 61 31 62 35 63 32 64 34 65 33 66 52 67 53 68
REMARK SMILES IDX 57 69 54 70 56 71 55 72 42 73 43 74 47 75 44 76 46 77 45 78
REMARK H PARENT 11 6 5 11 18 27 62 46 40 57
REMARK Flexibility Score: inf
ROOT
ATOM      1  C   UNL A   1      33.888  25.212  25.280  1.00  0.00     0.021 C 
ENDROOT
BRANCH   1   2
ATOM      2  C   UNL A   1      33.560  24.814  23.837  1.00  0.00     0.116 C 
BRANCH   2   3
ATOM      3  N   UNL A   1      32.155  24.465  23.745  1.00  0.00    -0.356 N 
ATOM      4  C   UNL A   1      31.545  23.330  23.302  1.00  0.00     0.228 C 
ATOM      5  O   UNL A   1      30.332  23.386  23.084  1.00  0.00    -0.275 OA
ATOM      6  H   UNL A   1      31.538  25.166  24.056  1.00  0.00     0.163 HD
BRANCH   4   7
ATOM      7  C   UNL A   1      32.290  22.000  23.219  1.00  0.00     0.130 C 
ATOM      8  C   UNL A   1      31.879  21.388  21.880  1.00  0.00     0.024 C 
BRANCH   7   9
ATOM      9  C   UNL A   1      32.221  21.189  24.548  1.00  0.00     0.275 C 
BRANCH   9  10
ATOM     10  N   UNL A   1      33.269  20.233  24.969  1.00  0.00    -0.332 N 
ATOM     11  H   UNL A   1      33.172  20.168  25.983  1.00  0.00     0.348 HD
BRANCH  10  12
ATOM     12  C   UNL A   1      34.620  20.770  24.750  1.00  0.00     0.265 C 
BRANCH  12  13
ATOM     13  C   UNL A   1      35.478  21.181  25.978  1.00  0.00     0.038 C 
ATOM     14  C   UNL A   1      36.740  21.978  25.633  1.00  0.00     0.013 C 
ATOM     15  C   UNL A   1      34.608  22.042  26.909  1.00  0.00     0.013 C 
ENDBRANCH  12  13
ENDBRANCH  10  12
BRANCH  10  16
ATOM     16  C   UNL A   1      33.046  18.811  24.693  1.00  0.00     0.184 C 
ATOM     17  C   UNL A   1      34.202  18.032  24.044  1.00  0.00     0.065 C 
ATOM     18  C   UNL A   1      32.683  17.911  25.867  1.00  0.00     0.065 C 
ATOM     19  C   UNL A   1      33.752  16.572  24.140  1.00  0.00     0.006 C 
ATOM     20  C   UNL A   1      32.879  16.479  25.388  1.00  0.00     0.006 C 
ENDBRANCH  10  16
ENDBRANCH   9  10
ENDBRANCH   7   9
ENDBRANCH   4   7
ENDBRANCH   2   3
ENDBRANCH   1   2
BRANCH   1  21
ATOM     21  C   UNL A   1      33.662  26.707  25.539  1.00  0.00     0.002 C 
BRANCH  21  22
ATOM     22  C   UNL A   1      32.436  27.010  26.406  1.00  0.00     0.002 C 
BRANCH  22  23
ATOM     23  C   UNL A   1      32.467  28.385  27.076  1.00  0.00     0.021 C 
BRANCH  23  24
ATOM     24  C   UNL A   1      33.851  29.023  27.105  1.00  0.00     0.116 C 
BRANCH  24  25
ATOM     25  N   UNL A   1      33.816  30.346  27.711  1.00  0.00    -0.352 N 
ATOM     26  C   UNL A   1      34.734  30.942  28.535  1.00  0.00     0.251 C 
ATOM     27  H   UNL A   1      33.023  30.888  27.499  1.00  0.00     0.163 HD
ATOM     28  O   UNL A   1      34.444  31.966  29.153  1.00  0.00    -0.269 OA
BRANCH  26  29
ATOM     29  C   UNL A   1      36.071  30.340  28.688  1.00  0.00     0.039 A 
ATOM     30  C   UNL A   1      36.970  30.406  27.623  1.00  0.00     0.014 A 
ATOM     31  C   UNL A   1      36.434  29.716  29.885  1.00  0.00     0.014 A 
ATOM     32  C   UNL A   1      38.258  29.892  27.780  1.00  0.00     0.010 A 
ATOM     33  C   UNL A   1      37.740  29.278  30.067  1.00  0.00     0.010 A 
ATOM     34  C   UNL A   1      38.663  29.356  29.013  1.00  0.00    -0.014 A 
BRANCH  34  35
ATOM     35  C   UNL A   1      40.050  28.877  29.220  1.00  0.00     0.031 A 
ATOM     36  C   UNL A   1      41.081  29.781  29.838  1.00  0.00     0.074 A 
ATOM     37  C   UNL A   1      40.395  27.644  28.799  1.00  0.00     0.049 A 
ATOM     38  N   UNL A   1      42.350  29.551  30.063  1.00  0.00    -0.248 NA
ATOM     39  C   UNL A   1      40.635  31.126  30.234  1.00  0.00     0.031 C 
ATOM     40  C   UNL A   1      39.496  26.687  28.150  1.00  0.00     0.029 A 
ATOM     41  N   UNL A   1      41.598  26.986  28.854  1.00  0.00    -0.354 N 
ATOM     42  C   UNL A   1      42.853  30.724  30.612  1.00  0.00     0.074 A 
ATOM     43  C   UNL A   1      41.769  31.680  30.635  1.00  0.00     0.031 C 
ATOM     44  C   UNL A   1      40.170  25.554  27.898  1.00  0.00     0.029 A 
ATOM     45  C   UNL A   1      41.555  25.719  28.324  1.00  0.00     0.049 A 
ATOM     46  H   UNL A   1      42.413  27.383  29.237  1.00  0.00     0.167 HD
ATOM     47  C   UNL A   1      44.100  30.975  31.075  1.00  0.00     0.031 A 
ATOM     48  C   UNL A   1      42.526  24.796  28.187  1.00  0.00     0.031 A 
ATOM     49  C   UNL A   1      45.177  30.021  31.051  1.00  0.00     0.049 A 
ATOM     50  C   UNL A   1      43.911  25.113  28.682  1.00  0.00     0.074 A 
ATOM     51  C   UNL A   1      46.464  30.162  31.544  1.00  0.00     0.029 A 
ATOM     52  N   UNL A   1      45.096  28.752  30.500  1.00  0.00    -0.354 N 
ATOM     53  N   UNL A   1      44.352  26.200  29.266  1.00  0.00    -0.248 NA
ATOM     54  C   UNL A   1      44.927  24.066  28.509  1.00  0.00     0.031 C 
ATOM     55  C   UNL A   1      47.179  29.002  31.232  1.00  0.00     0.029 A 
ATOM     56  C   UNL A   1      46.319  28.111  30.611  1.00  0.00     0.049 A 
ATOM     57  H   UNL A   1      44.289  28.365  30.090  1.00  0.00     0.167 HD
ATOM     58  C   UNL A   1      45.689  25.958  29.556  1.00  0.00     0.074 A 
ATOM     59  C   UNL A   1      45.979  24.614  29.101  1.00  0.00     0.031 C 
ATOM     60  C   UNL A   1      46.595  26.775  30.149  1.00  0.00     0.031 A 
BRANCH  47  61
ATOM     61  C   UNL A   1      44.369  32.345  31.637  1.00  0.00    -0.014 A 
ATOM     62  C   UNL A   1      44.883  33.376  30.834  1.00  0.00     0.009 A 
ATOM     63  C   UNL A   1      44.069  32.619  32.980  1.00  0.00     0.009 A 
ATOM     64  C   UNL A   1      45.128  34.640  31.374  1.00  0.00     0.001 A 
ATOM     65  C   UNL A   1      44.284  33.894  33.510  1.00  0.00     0.001 A 
ATOM     66  C   UNL A   1      44.824  34.899  32.709  1.00  0.00     0.000 A 
ENDBRANCH  47  61
BRANCH  48  67
ATOM     67  C   UNL A   1      42.223  23.481  27.564  1.00  0.00    -0.014 A 
ATOM     68  C   UNL A   1      41.644  22.450  28.319  1.00  0.00     0.009 A 
ATOM     69  C   UNL A   1      42.522  23.246  26.213  1.00  0.00     0.009 A 
ATOM     70  C   UNL A   1      41.398  21.201  27.742  1.00  0.00     0.001 A 
ATOM     71  C   UNL A   1      42.244  22.008  25.630  1.00  0.00     0.001 A 
ATOM     72  C   UNL A   1      41.693  20.983  26.398  1.00  0.00     0.000 A 
ENDBRANCH  48  67
BRANCH  60  73
ATOM     73  C   UNL A   1      47.975  26.223  30.373  1.00  0.00    -0.014 A 
ATOM     74  C   UNL A   1      48.405  25.817  31.646  1.00  0.00     0.009 A 
ATOM     75  C   UNL A   1      48.845  26.069  29.282  1.00  0.00     0.009 A 
ATOM     76  C   UNL A   1      49.691  25.305  31.827  1.00  0.00     0.001 A 
ATOM     77  C   UNL A   1      50.118  25.526  29.460  1.00  0.00     0.001 A 
ATOM     78  C   UNL A   1      50.544  25.154  30.734  1.00  0.00     0.000 A 
ENDBRANCH  60  73
ENDBRANCH  34  35
ENDBRANCH  26  29
ENDBRANCH  24  25
ENDBRANCH  23  24
ENDBRANCH  22  23
ENDBRANCH  21  22
ENDBRANCH   1  21
TORSDOF 18
ENDMDL
MODEL 3
REMARK VINA RESULT:      -9.2      2.489      6.936
REMARK SMILES CC(C)C[N@@H+](C[C@@H](C)C(=O)NCCCCCCNC(=O)c1ccc(-c2c3nc(c(-c4ccccc4)c4ccc([nH]4)c(-c4ccccc4)c4nc(c(-c5ccccc5)c5ccc2[nH]5)C=C4)C=C3)cc1)C1CCCC1
REMARK SMILES IDX 13 1 12 2 11 3 9 4 10 5 7 7 8 8 6 9 5 10 4 12 2 13 1 14 3 15
REMARK SMILES IDX 69 16 70 17 73 18 71 19 72 20 14 21 15 22 16 23 17 24 18 25
REMARK SMILES IDX 19 26 20 28 21 29 22 30 68 31 23 32 67 33 24 34 25 35 26 36
REMARK SMILES IDX 61 37 27 38 66 39 60 40 62 41 28 42 65 43 59 44 58 45 29 47
REMARK SMILES IDX 51 48 36 49 50 50 37 51 40 52 49 53 63 54 38 55 39 56 48 58
REMARK SMILES IDX 64 59 41 60 30 61 31 62 35 63 32 64 34 65 33 66 52 67 53 68
REMARK SMILES IDX 57 69 54 70 56 71 55 72 42 73 43 74 47 75 44 76 46 77 45 78
REMARK H PARENT 11 6 5 11 18 27 62 46 40 57
REMARK Flexibility Score: inf
ROOT
ATOM      1  C   UNL A   1      32.310  28.488  25.289  1.00  0.00     0.021 C 
ENDROOT
BRANCH   1   2
ATOM      2  C   UNL A   1      31.513  27.545  26.197  1.00  0.00     0.116 C 
BRANCH   2   3
ATOM      3  N   UNL A   1      31.245  26.310  25.485  1.00  0.00    -0.356 N 
ATOM      4  C   UNL A   1      32.047  25.241  25.222  1.00  0.00     0.228 C 
ATOM      5  O   UNL A   1      31.657  24.434  24.375  1.00  0.00    -0.275 OA
ATOM      6  H   UNL A   1      30.330  26.231  25.132  1.00  0.00     0.163 HD
BRANCH   4   7
ATOM      7  C   UNL A   1      33.304  24.960  26.043  1.00  0.00     0.130 C 
ATOM      8  C   UNL A   1      34.413  25.776  25.378  1.00  0.00     0.024 C 
BRANCH   7   9
ATOM      9  C   UNL A   1      33.482  23.448  26.372  1.00  0.00     0.275 C 
BRANCH   9  10
ATOM     10  N   UNL A   1      33.574  22.398  25.333  1.00  0.00    -0.332 N 
ATOM     11  H   UNL A   1      33.138  22.808  24.507  1.00  0.00     0.348 HD
BRANCH  10  12
ATOM     12  C   UNL A   1      32.745  21.229  25.661  1.00  0.00     0.265 C 
BRANCH  12  13
ATOM     13  C   UNL A   1      32.227  20.325  24.509  1.00  0.00     0.038 C 
ATOM     14  C   UNL A   1      32.183  21.007  23.137  1.00  0.00     0.013 C 
ATOM     15  C   UNL A   1      33.149  19.099  24.404  1.00  0.00     0.013 C 
ENDBRANCH  12  13
ENDBRANCH  10  12
BRANCH  10  16
ATOM     16  C   UNL A   1      34.884  22.156  24.722  1.00  0.00     0.184 C 
ATOM     17  C   UNL A   1      35.285  23.054  23.540  1.00  0.00     0.065 C 
ATOM     18  C   UNL A   1      36.112  22.253  25.619  1.00  0.00     0.065 C 
ATOM     19  C   UNL A   1      36.765  22.727  23.324  1.00  0.00     0.006 C 
ATOM     20  C   UNL A   1      37.316  22.337  24.692  1.00  0.00     0.006 C 
ENDBRANCH  10  16
ENDBRANCH   9  10
ENDBRANCH   7   9
ENDBRANCH   4   7
ENDBRANCH   2   3
ENDBRANCH   1   2
BRANCH   1  21
ATOM     21  C   UNL A   1      32.367  29.919  25.837  1.00  0.00     0.002 C 
BRANCH  21  22
ATOM     22  C   UNL A   1      31.083  30.724  25.610  1.00  0.00     0.002 C 
BRANCH  22  23
ATOM     23  C   UNL A   1      31.026  32.043  26.383  1.00  0.00     0.021 C 
BRANCH  23  24
ATOM     24  C   UNL A   1      32.343  32.421  27.050  1.00  0.00     0.116 C 
BRANCH  24  25
ATOM     25  N   UNL A   1      32.311  33.785  27.560  1.00  0.00    -0.352 N 
ATOM     26  C   UNL A   1      33.146  34.388  28.463  1.00  0.00     0.251 C 
ATOM     27  H   UNL A   1      31.590  34.352  27.205  1.00  0.00     0.163 HD
ATOM     28  O   UNL A   1      32.841  35.467  28.968  1.00  0.00    -0.269 OA
BRANCH  26  29
ATOM     29  C   UNL A   1      34.408  33.726  28.838  1.00  0.00     0.039 A 
ATOM     30  C   UNL A   1      35.555  33.976  28.084  1.00  0.00     0.014 A 
ATOM     31  C   UNL A   1      34.457  32.865  29.938  1.00  0.00     0.014 A 
ATOM     32  C   UNL A   1      36.768  33.403  28.468  1.00  0.00     0.010 A 
ATOM     33  C   UNL A   1      35.678  32.359  30.365  1.00  0.00     0.010 A 
ATOM     34  C   UNL A   1      36.845  32.618  29.631  1.00  0.00    -0.014 A 
BRANCH  34  35
ATOM     35  C   UNL A   1      38.139  32.065  30.095  1.00  0.00     0.031 A 
ATOM     36  C   UNL A   1      38.630  30.742  29.573  1.00  0.00     0.074 A 
ATOM     37  C   UNL A   1      38.847  32.728  31.031  1.00  0.00     0.049 A 
ATOM     38  N   UNL A   1      39.715  30.083  29.890  1.00  0.00    -0.248 NA
ATOM     39  C   UNL A   1      37.780  30.060  28.584  1.00  0.00     0.031 C 
ATOM     40  C   UNL A   1      38.458  34.001  31.643  1.00  0.00     0.029 A 
ATOM     41  N   UNL A   1      40.042  32.423  31.630  1.00  0.00    -0.354 N 
ATOM     42  C   UNL A   1      39.671  28.908  29.152  1.00  0.00     0.074 A 
ATOM     43  C   UNL A   1      38.427  28.918  28.415  1.00  0.00     0.031 C 
ATOM     44  C   UNL A   1      39.413  34.382  32.506  1.00  0.00     0.029 A 
ATOM     45  C   UNL A   1      40.456  33.363  32.542  1.00  0.00     0.049 A 
ATOM     46  H   UNL A   1      40.555  31.607  31.426  1.00  0.00     0.167 HD
ATOM     47  C   UNL A   1      40.592  27.918  29.077  1.00  0.00     0.031 A 
ATOM     48  C   UNL A   1      41.549  33.397  33.327  1.00  0.00     0.031 A 
ATOM     49  C   UNL A   1      41.830  27.911  29.811  1.00  0.00     0.049 A 
ATOM     50  C   UNL A   1      42.542  32.270  33.248  1.00  0.00     0.074 A 
ATOM     51  C   UNL A   1      42.854  26.980  29.766  1.00  0.00     0.029 A 
ATOM     52  N   UNL A   1      42.208  28.878  30.730  1.00  0.00    -0.354 N 
ATOM     53  N   UNL A   1      42.520  31.201  32.489  1.00  0.00    -0.248 NA
ATOM     54  C   UNL A   1      43.716  32.363  34.126  1.00  0.00     0.031 C 
ATOM     55  C   UNL A   1      43.821  27.350  30.704  1.00  0.00     0.029 A 
ATOM     56  C   UNL A   1      43.435  28.549  31.282  1.00  0.00     0.049 A 
ATOM     57  H   UNL A   1      41.683  29.679  30.957  1.00  0.00     0.167 HD
ATOM     58  C   UNL A   1      43.690  30.510  32.777  1.00  0.00     0.074 A 
ATOM     59  C   UNL A   1      44.406  31.291  33.764  1.00  0.00     0.031 C 
ATOM     60  C   UNL A   1      44.134  29.334  32.267  1.00  0.00     0.031 A 
BRANCH  47  61
ATOM     61  C   UNL A   1      40.288  26.753  28.176  1.00  0.00    -0.014 A 
ATOM     62  C   UNL A   1      40.749  26.714  26.850  1.00  0.00     0.009 A 
ATOM     63  C   UNL A   1      39.560  25.660  28.671  1.00  0.00     0.009 A 
ATOM     64  C   UNL A   1      40.454  25.625  26.027  1.00  0.00     0.001 A 
ATOM     65  C   UNL A   1      39.295  24.556  27.857  1.00  0.00     0.001 A 
ATOM     66  C   UNL A   1      39.732  24.545  26.533  1.00  0.00     0.000 A 
ENDBRANCH  47  61
BRANCH  48  67
ATOM     67  C   UNL A   1      41.770  34.541  34.250  1.00  0.00    -0.014 A 
ATOM     68  C   UNL A   1      41.254  34.517  35.555  1.00  0.00     0.009 A 
ATOM     69  C   UNL A   1      42.491  35.670  33.828  1.00  0.00     0.009 A 
ATOM     70  C   UNL A   1      41.428  35.610  36.406  1.00  0.00     0.001 A 
ATOM     71  C   UNL A   1      42.693  36.747  34.694  1.00  0.00     0.001 A 
ATOM     72  C   UNL A   1      42.151  36.721  35.977  1.00  0.00     0.000 A 
ENDBRANCH  48  67
BRANCH  60  73
ATOM     73  C   UNL A   1      45.473  28.841  32.741  1.00  0.00    -0.014 A 
ATOM     74  C   UNL A   1      46.663  29.222  32.102  1.00  0.00     0.009 A 
ATOM     75  C   UNL A   1      45.545  28.011  33.872  1.00  0.00     0.009 A 
ATOM     76  C   UNL A   1      47.894  28.752  32.564  1.00  0.00     0.001 A 
ATOM     77  C   UNL A   1      46.779  27.570  34.351  1.00  0.00     0.001 A 
ATOM     78  C   UNL A   1      47.951  27.932  33.690  1.00  0.00     0.000 A 
ENDBRANCH  60  73
ENDBRANCH  34  35
ENDBRANCH  26  29
ENDBRANCH  24  25
ENDBRANCH  23  24
ENDBRANCH  22  23
ENDBRANCH  21  22
ENDBRANCH   1  21
TORSDOF 18
ENDMDL
