MODEL 1
REMARK VINA RESULT:     -11.0      0.000      0.000
REMARK SMILES C[C@@H]1[C@H](C)CCC[C@H]1NC(=O)C[N@H+]1CCC[C@@H]1C(=O)NCCCCCCNC(=O)c1ccc(-c2c3nc(c(-c4ccccc4)c4ccc([nH]4)c(-c4ccccc4)c4nc(c(-c5ccccc5)c5ccc2[nH]5)C=C4)C=C3)cc1
REMARK SMILES IDX 23 1 22 2 21 3 20 4 18 5 19 6 17 8 13 9 14 10 15 12 16 13
REMARK SMILES IDX 12 14 10 15 9 16 11 18 8 19 1 20 2 21 3 22 4 23 5 24 7 25
REMARK SMILES IDX 6 26 24 27 25 28 26 29 27 30 28 31 29 33 30 34 31 35 77 36
REMARK SMILES IDX 32 37 76 38 33 39 34 40 35 41 70 42 36 43 75 44 69 45 71 46
REMARK SMILES IDX 37 47 74 48 68 49 67 50 38 52 60 53 45 54 59 55 46 56 49 57
REMARK SMILES IDX 58 58 72 59 47 60 48 61 57 63 73 64 50 65 39 66 40 67 44 68
REMARK SMILES IDX 41 69 43 70 42 71 61 72 62 73 66 74 63 75 65 76 64 77 51 78
REMARK SMILES IDX 52 79 56 80 53 81 55 82 54 83
REMARK H PARENT 20 7 13 11 9 17 27 32 71 51 49 62
REMARK Flexibility Score: inf
ROOT
ATOM      1  C   UNL A   1      36.851  21.982  24.554  1.00  0.00     0.002 C 
ENDROOT
BRANCH   1   2
ATOM      2  C   UNL A   1      36.080  22.915  25.494  1.00  0.00     0.021 C 
BRANCH   2   3
ATOM      3  C   UNL A   1      35.203  23.964  24.825  1.00  0.00     0.116 C 
BRANCH   3   4
ATOM      4  N   UNL A   1      34.931  23.766  23.432  1.00  0.00    -0.351 N 
ATOM      5  C   UNL A   1      33.776  23.293  22.889  1.00  0.00     0.278 C 
ATOM      6  O   UNL A   1      33.614  23.525  21.681  1.00  0.00    -0.268 OA
ATOM      7  H   UNL A   1      35.653  23.997  22.804  1.00  0.00     0.163 HD
BRANCH   5   8
ATOM      8  C   UNL A   1      32.738  22.419  23.620  1.00  0.00     0.274 C 
ATOM      9  N   UNL A   1      32.122  22.849  24.896  1.00  0.00    -0.317 N 
ATOM     10  C   UNL A   1      31.233  21.725  25.199  1.00  0.00     0.263 C 
ATOM     11  H   UNL A   1      32.864  23.047  25.566  1.00  0.00     0.349 HD
ATOM     12  C   UNL A   1      32.249  20.599  25.143  1.00  0.00     0.068 C 
ATOM     13  C   UNL A   1      33.273  21.064  24.094  1.00  0.00     0.081 C 
BRANCH   9  14
ATOM     14  C   UNL A   1      31.452  24.134  24.993  1.00  0.00     0.364 C 
BRANCH  14  15
ATOM     15  C   UNL A   1      31.709  24.754  26.381  1.00  0.00     0.275 C 
ATOM     16  N   UNL A   1      32.086  26.057  26.592  1.00  0.00    -0.348 N 
ATOM     17  H   UNL A   1      31.647  26.473  27.369  1.00  0.00     0.163 HD
ATOM     18  O   UNL A   1      31.494  24.083  27.401  1.00  0.00    -0.268 OA
BRANCH  16  19
ATOM     19  C   UNL A   1      33.012  26.958  25.887  1.00  0.00     0.085 C 
ATOM     20  C   UNL A   1      33.653  28.141  23.726  1.00  0.00     0.010 C 
ATOM     21  C   UNL A   1      32.479  27.564  24.547  1.00  0.00     0.011 C 
ATOM     22  C   UNL A   1      31.359  28.626  24.738  1.00  0.00    -0.009 C 
ATOM     23  C   UNL A   1      30.923  29.291  23.423  1.00  0.00     0.008 C 
ATOM     24  C   UNL A   1      31.739  29.700  25.764  1.00  0.00     0.004 C 
ATOM     25  C   UNL A   1      33.357  28.096  26.871  1.00  0.00     0.025 C 
ATOM     26  C   UNL A   1      32.195  29.075  27.075  1.00  0.00     0.002 C 
ENDBRANCH  16  19
ENDBRANCH  14  15
ENDBRANCH   9  14
ENDBRANCH   5   8
ENDBRANCH   3   4
ENDBRANCH   2   3
ENDBRANCH   1   2
BRANCH   1  27
ATOM     27  C   UNL A   1      36.604  20.473  24.696  1.00  0.00     0.002 C 
BRANCH  27  28
ATOM     28  C   UNL A   1      37.826  19.575  24.907  1.00  0.00     0.021 C 
BRANCH  28  29
ATOM     29  C   UNL A   1      38.957  20.132  25.763  1.00  0.00     0.116 C 
BRANCH  29  30
ATOM     30  N   UNL A   1      40.123  19.264  25.799  1.00  0.00    -0.352 N 
ATOM     31  C   UNL A   1      41.423  19.544  26.121  1.00  0.00     0.251 C 
ATOM     32  H   UNL A   1      39.949  18.328  25.552  1.00  0.00     0.163 HD
ATOM     33  O   UNL A   1      42.290  18.677  25.956  1.00  0.00    -0.269 OA
BRANCH  31  34
ATOM     34  C   UNL A   1      41.822  20.872  26.640  1.00  0.00     0.039 A 
ATOM     35  C   UNL A   1      42.295  21.829  25.734  1.00  0.00     0.014 A 
ATOM     36  C   UNL A   1      41.774  21.172  28.004  1.00  0.00     0.014 A 
ATOM     37  C   UNL A   1      42.657  23.101  26.185  1.00  0.00     0.010 A 
ATOM     38  C   UNL A   1      42.075  22.463  28.444  1.00  0.00     0.010 A 
ATOM     39  C   UNL A   1      42.516  23.442  27.540  1.00  0.00    -0.014 A 
BRANCH  39  40
ATOM     40  C   UNL A   1      42.804  24.819  28.021  1.00  0.00     0.031 A 
ATOM     41  C   UNL A   1      44.199  25.216  28.416  1.00  0.00     0.074 A 
ATOM     42  C   UNL A   1      41.792  25.698  28.161  1.00  0.00     0.049 A 
ATOM     43  N   UNL A   1      44.624  26.348  28.919  1.00  0.00    -0.248 NA
ATOM     44  C   UNL A   1      45.252  24.203  28.242  1.00  0.00     0.031 C 
ATOM     45  C   UNL A   1      40.388  25.434  27.840  1.00  0.00     0.029 A 
ATOM     46  N   UNL A   1      41.789  26.993  28.620  1.00  0.00    -0.354 N 
ATOM     47  C   UNL A   1      45.986  26.179  29.136  1.00  0.00     0.074 A 
ATOM     48  C   UNL A   1      46.309  24.821  28.751  1.00  0.00     0.031 C 
ATOM     49  C   UNL A   1      39.665  26.537  28.090  1.00  0.00     0.029 A 
ATOM     50  C   UNL A   1      40.541  27.570  28.631  1.00  0.00     0.049 A 
ATOM     51  H   UNL A   1      42.603  27.462  28.913  1.00  0.00     0.167 HD
ATOM     52  C   UNL A   1      46.890  27.075  29.600  1.00  0.00     0.031 A 
ATOM     53  C   UNL A   1      40.143  28.788  29.043  1.00  0.00     0.031 A 
ATOM     54  C   UNL A   1      46.572  28.427  29.980  1.00  0.00     0.049 A 
ATOM     55  C   UNL A   1      41.160  29.753  29.586  1.00  0.00     0.074 A 
ATOM     56  C   UNL A   1      47.431  29.425  30.410  1.00  0.00     0.029 A 
ATOM     57  N   UNL A   1      45.297  28.969  29.982  1.00  0.00    -0.354 N 
ATOM     58  N   UNL A   1      42.455  29.597  29.725  1.00  0.00    -0.248 NA
ATOM     59  C   UNL A   1      40.662  31.065  30.022  1.00  0.00     0.031 C 
ATOM     60  C   UNL A   1      46.667  30.552  30.729  1.00  0.00     0.029 A 
ATOM     61  C   UNL A   1      45.341  30.277  30.436  1.00  0.00     0.049 A 
ATOM     62  H   UNL A   1      44.482  28.494  29.701  1.00  0.00     0.167 HD
ATOM     63  C   UNL A   1      42.928  30.798  30.238  1.00  0.00     0.074 A 
ATOM     64  C   UNL A   1      41.785  31.678  30.369  1.00  0.00     0.031 C 
ATOM     65  C   UNL A   1      44.196  31.141  30.567  1.00  0.00     0.031 A 
BRANCH  52  66
ATOM     66  C   UNL A   1      48.317  26.616  29.738  1.00  0.00    -0.014 A 
ATOM     67  C   UNL A   1      48.764  25.957  30.894  1.00  0.00     0.009 A 
ATOM     68  C   UNL A   1      49.217  26.808  28.677  1.00  0.00     0.009 A 
ATOM     69  C   UNL A   1      50.090  25.534  31.000  1.00  0.00     0.001 A 
ATOM     70  C   UNL A   1      50.534  26.356  28.773  1.00  0.00     0.001 A 
ATOM     71  C   UNL A   1      50.972  25.728  29.939  1.00  0.00     0.000 A 
ENDBRANCH  52  66
BRANCH  53  72
ATOM     72  C   UNL A   1      38.709  29.171  28.957  1.00  0.00    -0.014 A 
ATOM     73  C   UNL A   1      37.861  29.016  30.064  1.00  0.00     0.009 A 
ATOM     74  C   UNL A   1      38.178  29.687  27.764  1.00  0.00     0.009 A 
ATOM     75  C   UNL A   1      36.506  29.343  29.970  1.00  0.00     0.001 A 
ATOM     76  C   UNL A   1      36.829  30.043  27.683  1.00  0.00     0.001 A 
ATOM     77  C   UNL A   1      35.993  29.861  28.781  1.00  0.00     0.000 A 
ENDBRANCH  53  72
BRANCH  65  78
ATOM     78  C   UNL A   1      44.424  32.539  31.075  1.00  0.00    -0.014 A 
ATOM     79  C   UNL A   1      44.755  33.587  30.203  1.00  0.00     0.009 A 
ATOM     80  C   UNL A   1      44.260  32.815  32.442  1.00  0.00     0.009 A 
ATOM     81  C   UNL A   1      44.948  34.880  30.697  1.00  0.00     0.001 A 
ATOM     82  C   UNL A   1      44.424  34.114  32.927  1.00  0.00     0.001 A 
ATOM     83  C   UNL A   1      44.777  35.143  32.056  1.00  0.00     0.000 A 
ENDBRANCH  65  78
ENDBRANCH  39  40
ENDBRANCH  31  34
ENDBRANCH  29  30
ENDBRANCH  28  29
ENDBRANCH  27  28
ENDBRANCH   1  27
TORSDOF 16
ENDMDL
MODEL 2
REMARK VINA RESULT:     -10.8      0.814      5.957
REMARK SMILES C[C@@H]1[C@H](C)CCC[C@H]1NC(=O)C[N@H+]1CCC[C@@H]1C(=O)NCCCCCCNC(=O)c1ccc(-c2c3nc(c(-c4ccccc4)c4ccc([nH]4)c(-c4ccccc4)c4nc(c(-c5ccccc5)c5ccc2[nH]5)C=C4)C=C3)cc1
REMARK SMILES IDX 23 1 22 2 21 3 20 4 18 5 19 6 17 8 13 9 14 10 15 12 16 13
REMARK SMILES IDX 12 14 10 15 9 16 11 18 8 19 1 20 2 21 3 22 4 23 5 24 7 25
REMARK SMILES IDX 6 26 24 27 25 28 26 29 27 30 28 31 29 33 30 34 31 35 77 36
REMARK SMILES IDX 32 37 76 38 33 39 34 40 35 41 70 42 36 43 75 44 69 45 71 46
REMARK SMILES IDX 37 47 74 48 68 49 67 50 38 52 60 53 45 54 59 55 46 56 49 57
REMARK SMILES IDX 58 58 72 59 47 60 48 61 57 63 73 64 50 65 39 66 40 67 44 68
REMARK SMILES IDX 41 69 43 70 42 71 61 72 62 73 66 74 63 75 65 76 64 77 51 78
REMARK SMILES IDX 52 79 56 80 53 81 55 82 54 83
REMARK H PARENT 20 7 13 11 9 17 27 32 71 51 49 62
REMARK Flexibility Score: inf
ROOT
ATOM      1  C   UNL A   1      37.309  22.397  24.938  1.00  0.00     0.002 C 
ENDROOT
BRANCH   1   2
ATOM      2  C   UNL A   1      36.393  23.156  25.904  1.00  0.00     0.021 C 
BRANCH   2   3
ATOM      3  C   UNL A   1      35.296  23.997  25.265  1.00  0.00     0.116 C 
BRANCH   3   4
ATOM      4  N   UNL A   1      35.113  23.832  23.853  1.00  0.00    -0.351 N 
ATOM      5  C   UNL A   1      34.044  23.264  23.233  1.00  0.00     0.278 C 
ATOM      6  O   UNL A   1      33.916  23.529  22.028  1.00  0.00    -0.268 OA
ATOM      7  H   UNL A   1      35.836  24.164  23.272  1.00  0.00     0.163 HD
BRANCH   5   8
ATOM      8  C   UNL A   1      33.072  22.255  23.875  1.00  0.00     0.274 C 
ATOM      9  N   UNL A   1      32.201  22.631  25.011  1.00  0.00    -0.317 N 
ATOM     10  C   UNL A   1      31.484  21.381  25.273  1.00  0.00     0.263 C 
ATOM     11  H   UNL A   1      32.784  22.997  25.763  1.00  0.00     0.349 HD
ATOM     12  C   UNL A   1      32.675  20.458  25.453  1.00  0.00     0.068 C 
ATOM     13  C   UNL A   1      33.754  21.047  24.528  1.00  0.00     0.081 C 
BRANCH   9  14
ATOM     14  C   UNL A   1      31.312  23.775  24.909  1.00  0.00     0.364 C 
BRANCH  14  15
ATOM     15  C   UNL A   1      31.490  24.688  26.138  1.00  0.00     0.275 C 
ATOM     16  N   UNL A   1      31.377  26.055  26.113  1.00  0.00    -0.348 N 
ATOM     17  H   UNL A   1      30.915  26.427  26.900  1.00  0.00     0.163 HD
ATOM     18  O   UNL A   1      31.670  24.182  27.255  1.00  0.00    -0.268 OA
BRANCH  16  19
ATOM     19  C   UNL A   1      31.805  27.078  25.145  1.00  0.00     0.085 C 
ATOM     20  C   UNL A   1      31.565  29.452  24.261  1.00  0.00     0.010 C 
ATOM     21  C   UNL A   1      31.431  28.552  25.508  1.00  0.00     0.011 C 
ATOM     22  C   UNL A   1      32.242  29.133  26.702  1.00  0.00    -0.009 C 
ATOM     23  C   UNL A   1      31.941  30.615  26.976  1.00  0.00     0.008 C 
ATOM     24  C   UNL A   1      33.753  28.929  26.538  1.00  0.00     0.004 C 
ATOM     25  C   UNL A   1      33.338  26.949  25.013  1.00  0.00     0.025 C 
ATOM     26  C   UNL A   1      34.085  27.472  26.246  1.00  0.00     0.002 C 
ENDBRANCH  16  19
ENDBRANCH  14  15
ENDBRANCH   9  14
ENDBRANCH   5   8
ENDBRANCH   3   4
ENDBRANCH   2   3
ENDBRANCH   1   2
BRANCH   1  27
ATOM     27  C   UNL A   1      36.971  20.927  24.650  1.00  0.00     0.002 C 
BRANCH  27  28
ATOM     28  C   UNL A   1      38.078  19.893  24.866  1.00  0.00     0.021 C 
BRANCH  28  29
ATOM     29  C   UNL A   1      39.149  20.228  25.899  1.00  0.00     0.116 C 
BRANCH  29  30
ATOM     30  N   UNL A   1      40.280  19.316  25.860  1.00  0.00    -0.352 N 
ATOM     31  C   UNL A   1      41.606  19.543  26.109  1.00  0.00     0.251 C 
ATOM     32  H   UNL A   1      40.057  18.390  25.616  1.00  0.00     0.163 HD
ATOM     33  O   UNL A   1      42.428  18.645  25.888  1.00  0.00    -0.269 OA
BRANCH  31  34
ATOM     34  C   UNL A   1      42.085  20.849  26.616  1.00  0.00     0.039 A 
ATOM     35  C   UNL A   1      42.558  21.790  25.695  1.00  0.00     0.014 A 
ATOM     36  C   UNL A   1      42.111  21.142  27.982  1.00  0.00     0.014 A 
ATOM     37  C   UNL A   1      42.994  23.043  26.135  1.00  0.00     0.010 A 
ATOM     38  C   UNL A   1      42.486  22.416  28.415  1.00  0.00     0.010 A 
ATOM     39  C   UNL A   1      42.928  23.380  27.497  1.00  0.00    -0.014 A 
BRANCH  39  40
ATOM     40  C   UNL A   1      43.297  24.741  27.970  1.00  0.00     0.031 A 
ATOM     41  C   UNL A   1      42.236  25.775  28.228  1.00  0.00     0.074 A 
ATOM     42  C   UNL A   1      44.597  25.067  28.107  1.00  0.00     0.049 A 
ATOM     43  N   UNL A   1      42.374  27.030  28.579  1.00  0.00    -0.248 NA
ATOM     44  C   UNL A   1      40.838  25.350  28.052  1.00  0.00     0.031 C 
ATOM     45  C   UNL A   1      45.727  24.168  27.864  1.00  0.00     0.029 A 
ATOM     46  N   UNL A   1      45.189  26.250  28.479  1.00  0.00    -0.354 N 
ATOM     47  C   UNL A   1      41.086  27.547  28.649  1.00  0.00     0.074 A 
ATOM     48  C   UNL A   1      40.183  26.484  28.262  1.00  0.00     0.031 C 
ATOM     49  C   UNL A   1      46.871  24.823  28.113  1.00  0.00     0.029 A 
ATOM     50  C   UNL A   1      46.562  26.198  28.489  1.00  0.00     0.049 A 
ATOM     51  H   UNL A   1      44.678  27.057  28.715  1.00  0.00     0.167 HD
ATOM     52  C   UNL A   1      40.689  28.790  29.014  1.00  0.00     0.031 A 
ATOM     53  C   UNL A   1      47.473  27.154  28.756  1.00  0.00     0.031 A 
ATOM     54  C   UNL A   1      41.585  29.848  29.402  1.00  0.00     0.049 A 
ATOM     55  C   UNL A   1      47.007  28.534  29.126  1.00  0.00     0.074 A 
ATOM     56  C   UNL A   1      41.272  31.124  29.841  1.00  0.00     0.029 A 
ATOM     57  N   UNL A   1      42.968  29.756  29.393  1.00  0.00    -0.354 N 
ATOM     58  N   UNL A   1      45.783  28.988  29.249  1.00  0.00    -0.248 NA
ATOM     59  C   UNL A   1      48.050  29.532  29.403  1.00  0.00     0.031 C 
ATOM     60  C   UNL A   1      42.467  31.823  30.040  1.00  0.00     0.029 A 
ATOM     61  C   UNL A   1      43.523  30.963  29.787  1.00  0.00     0.049 A 
ATOM     62  H   UNL A   1      43.478  28.953  29.143  1.00  0.00     0.167 HD
ATOM     63  C   UNL A   1      45.909  30.314  29.642  1.00  0.00     0.074 A 
ATOM     64  C   UNL A   1      47.327  30.587  29.755  1.00  0.00     0.031 C 
ATOM     65  C   UNL A   1      44.936  31.223  29.890  1.00  0.00     0.031 A 
BRANCH  52  66
ATOM     66  C   UNL A   1      39.212  29.080  28.998  1.00  0.00    -0.014 A 
ATOM     67  C   UNL A   1      38.573  29.551  27.840  1.00  0.00     0.009 A 
ATOM     68  C   UNL A   1      38.441  28.840  30.147  1.00  0.00     0.009 A 
ATOM     69  C   UNL A   1      37.201  29.809  27.844  1.00  0.00     0.001 A 
ATOM     70  C   UNL A   1      37.064  29.070  30.139  1.00  0.00     0.001 A 
ATOM     71  C   UNL A   1      36.447  29.564  28.991  1.00  0.00     0.000 A 
ENDBRANCH  52  66
BRANCH  53  72
ATOM     72  C   UNL A   1      48.924  26.839  28.686  1.00  0.00    -0.014 A 
ATOM     73  C   UNL A   1      49.641  27.032  27.495  1.00  0.00     0.009 A 
ATOM     74  C   UNL A   1      49.601  26.335  29.809  1.00  0.00     0.009 A 
ATOM     75  C   UNL A   1      50.996  26.702  27.422  1.00  0.00     0.001 A 
ATOM     76  C   UNL A   1      50.964  26.036  29.742  1.00  0.00     0.001 A 
ATOM     77  C   UNL A   1      51.657  26.209  28.546  1.00  0.00     0.000 A 
ENDBRANCH  53  72
BRANCH  65  78
ATOM     78  C   UNL A   1      45.368  32.593  30.338  1.00  0.00    -0.014 A 
ATOM     79  C   UNL A   1      45.613  32.875  31.691  1.00  0.00     0.009 A 
ATOM     80  C   UNL A   1      45.575  33.601  29.384  1.00  0.00     0.009 A 
ATOM     81  C   UNL A   1      46.026  34.151  32.081  1.00  0.00     0.001 A 
ATOM     82  C   UNL A   1      46.017  34.867  29.774  1.00  0.00     0.001 A 
ATOM     83  C   UNL A   1      46.234  35.143  31.123  1.00  0.00     0.000 A 
ENDBRANCH  65  78
ENDBRANCH  39  40
ENDBRANCH  31  34
ENDBRANCH  29  30
ENDBRANCH  28  29
ENDBRANCH  27  28
ENDBRANCH   1  27
TORSDOF 16
ENDMDL
MODEL 3
REMARK VINA RESULT:     -10.7      3.144      8.791
REMARK SMILES C[C@@H]1[C@H](C)CCC[C@H]1NC(=O)C[N@H+]1CCC[C@@H]1C(=O)NCCCCCCNC(=O)c1ccc(-c2c3nc(c(-c4ccccc4)c4ccc([nH]4)c(-c4ccccc4)c4nc(c(-c5ccccc5)c5ccc2[nH]5)C=C4)C=C3)cc1
REMARK SMILES IDX 23 1 22 2 21 3 20 4 18 5 19 6 17 8 13 9 14 10 15 12 16 13
REMARK SMILES IDX 12 14 10 15 9 16 11 18 8 19 1 20 2 21 3 22 4 23 5 24 7 25
REMARK SMILES IDX 6 26 24 27 25 28 26 29 27 30 28 31 29 33 30 34 31 35 77 36
REMARK SMILES IDX 32 37 76 38 33 39 34 40 35 41 70 42 36 43 75 44 69 45 71 46
REMARK SMILES IDX 37 47 74 48 68 49 67 50 38 52 60 53 45 54 59 55 46 56 49 57
REMARK SMILES IDX 58 58 72 59 47 60 48 61 57 63 73 64 50 65 39 66 40 67 44 68
REMARK SMILES IDX 41 69 43 70 42 71 61 72 62 73 66 74 63 75 65 76 64 77 51 78
REMARK SMILES IDX 52 79 56 80 53 81 55 82 54 83
REMARK H PARENT 20 7 13 11 9 17 27 32 71 51 49 62
REMARK Flexibility Score: inf
ROOT
ATOM      1  C   UNL A   1      34.168  29.466  27.262  1.00  0.00     0.002 C 
ENDROOT
BRANCH   1   2
ATOM      2  C   UNL A   1      32.804  28.769  27.257  1.00  0.00     0.021 C 
BRANCH   2   3
ATOM      3  C   UNL A   1      32.740  27.429  26.538  1.00  0.00     0.116 C 
BRANCH   3   4
ATOM      4  N   UNL A   1      31.550  26.656  26.744  1.00  0.00    -0.351 N 
ATOM      5  C   UNL A   1      30.678  26.236  25.788  1.00  0.00     0.278 C 
ATOM      6  O   UNL A   1      29.927  25.306  26.115  1.00  0.00    -0.268 OA
ATOM      7  H   UNL A   1      31.343  26.403  27.673  1.00  0.00     0.163 HD
BRANCH   5   8
ATOM      8  C   UNL A   1      30.489  26.887  24.404  1.00  0.00     0.274 C 
ATOM      9  N   UNL A   1      31.387  26.575  23.269  1.00  0.00    -0.317 N 
ATOM     10  C   UNL A   1      30.833  27.413  22.202  1.00  0.00     0.263 C 
ATOM     11  H   UNL A   1      32.348  26.760  23.552  1.00  0.00     0.349 HD
ATOM     12  C   UNL A   1      30.879  28.755  22.909  1.00  0.00     0.068 C 
ATOM     13  C   UNL A   1      30.663  28.410  24.393  1.00  0.00     0.081 C 
BRANCH   9  14
ATOM     14  C   UNL A   1      31.591  25.199  22.850  1.00  0.00     0.364 C 
BRANCH  14  15
ATOM     15  C   UNL A   1      33.082  24.964  22.537  1.00  0.00     0.275 C 
ATOM     16  N   UNL A   1      33.792  23.857  22.927  1.00  0.00    -0.348 N 
ATOM     17  H   UNL A   1      34.416  23.527  22.241  1.00  0.00     0.163 HD
ATOM     18  O   UNL A   1      33.691  25.769  21.818  1.00  0.00    -0.268 OA
BRANCH  16  19
ATOM     19  C   UNL A   1      33.806  23.062  24.166  1.00  0.00     0.085 C 
ATOM     20  C   UNL A   1      34.647  21.003  25.404  1.00  0.00     0.010 C 
ATOM     21  C   UNL A   1      34.969  22.024  24.290  1.00  0.00     0.011 C 
ATOM     22  C   UNL A   1      36.367  22.668  24.515  1.00  0.00    -0.009 C 
ATOM     23  C   UNL A   1      37.482  21.635  24.745  1.00  0.00     0.008 C 
ATOM     24  C   UNL A   1      36.363  23.693  25.655  1.00  0.00     0.004 C 
ATOM     25  C   UNL A   1      33.878  24.065  25.336  1.00  0.00     0.025 C 
ATOM     26  C   UNL A   1      35.258  24.723  25.469  1.00  0.00     0.002 C 
ENDBRANCH  16  19
ENDBRANCH  14  15
ENDBRANCH   9  14
ENDBRANCH   5   8
ENDBRANCH   3   4
ENDBRANCH   2   3
ENDBRANCH   1   2
BRANCH   1  27
ATOM     27  C   UNL A   1      34.179  31.000  27.329  1.00  0.00     0.002 C 
BRANCH  27  28
ATOM     28  C   UNL A   1      32.856  31.702  27.647  1.00  0.00     0.021 C 
BRANCH  28  29
ATOM     29  C   UNL A   1      32.564  33.002  26.906  1.00  0.00     0.116 C 
BRANCH  29  30
ATOM     30  N   UNL A   1      32.379  34.134  27.798  1.00  0.00    -0.352 N 
ATOM     31  C   UNL A   1      33.119  34.542  28.874  1.00  0.00     0.251 C 
ATOM     32  H   UNL A   1      31.597  34.696  27.596  1.00  0.00     0.163 HD
ATOM     33  O   UNL A   1      32.705  35.469  29.581  1.00  0.00    -0.269 OA
BRANCH  31  34
ATOM     34  C   UNL A   1      34.397  33.883  29.227  1.00  0.00     0.039 A 
ATOM     35  C   UNL A   1      35.526  34.150  28.444  1.00  0.00     0.014 A 
ATOM     36  C   UNL A   1      34.488  32.981  30.291  1.00  0.00     0.014 A 
ATOM     37  C   UNL A   1      36.755  33.565  28.764  1.00  0.00     0.010 A 
ATOM     38  C   UNL A   1      35.729  32.448  30.648  1.00  0.00     0.010 A 
ATOM     39  C   UNL A   1      36.875  32.737  29.892  1.00  0.00    -0.014 A 
BRANCH  39  40
ATOM     40  C   UNL A   1      38.193  32.185  30.303  1.00  0.00     0.031 A 
ATOM     41  C   UNL A   1      38.686  30.880  29.741  1.00  0.00     0.074 A 
ATOM     42  C   UNL A   1      38.922  32.831  31.234  1.00  0.00     0.049 A 
ATOM     43  N   UNL A   1      39.775  30.214  30.033  1.00  0.00    -0.248 NA
ATOM     44  C   UNL A   1      37.835  30.228  28.733  1.00  0.00     0.031 C 
ATOM     45  C   UNL A   1      38.549  34.091  31.880  1.00  0.00     0.029 A 
ATOM     46  N   UNL A   1      40.129  32.510  31.806  1.00  0.00    -0.354 N 
ATOM     47  C   UNL A   1      39.733  29.061  29.259  1.00  0.00     0.074 A 
ATOM     48  C   UNL A   1      38.490  29.095  28.518  1.00  0.00     0.031 C 
ATOM     49  C   UNL A   1      39.514  34.447  32.741  1.00  0.00     0.029 A 
ATOM     50  C   UNL A   1      40.553  33.422  32.744  1.00  0.00     0.049 A 
ATOM     51  H   UNL A   1      40.641  31.705  31.567  1.00  0.00     0.167 HD
ATOM     52  C   UNL A   1      40.651  28.068  29.163  1.00  0.00     0.031 A 
ATOM     53  C   UNL A   1      41.646  33.427  33.530  1.00  0.00     0.031 A 
ATOM     54  C   UNL A   1      41.889  28.033  29.896  1.00  0.00     0.049 A 
ATOM     55  C   UNL A   1      42.633  32.297  33.429  1.00  0.00     0.074 A 
ATOM     56  C   UNL A   1      42.907  27.096  29.824  1.00  0.00     0.029 A 
ATOM     57  N   UNL A   1      42.277  28.972  30.839  1.00  0.00    -0.354 N 
ATOM     58  N   UNL A   1      42.607  31.245  32.646  1.00  0.00    -0.248 NA
ATOM     59  C   UNL A   1      43.803  32.359  34.315  1.00  0.00     0.031 C 
ATOM     60  C   UNL A   1      43.882  27.437  30.767  1.00  0.00     0.029 A 
ATOM     61  C   UNL A   1      43.503  28.620  31.380  1.00  0.00     0.049 A 
ATOM     62  H   UNL A   1      41.757  29.771  31.087  1.00  0.00     0.167 HD
ATOM     63  C   UNL A   1      43.768  30.537  32.925  1.00  0.00     0.074 A 
ATOM     64  C   UNL A   1      44.485  31.286  33.937  1.00  0.00     0.031 C 
ATOM     65  C   UNL A   1      44.203  29.371  32.390  1.00  0.00     0.031 A 
BRANCH  52  66
ATOM     66  C   UNL A   1      40.342  26.923  28.236  1.00  0.00    -0.014 A 
ATOM     67  C   UNL A   1      40.869  26.875  26.935  1.00  0.00     0.009 A 
ATOM     68  C   UNL A   1      39.547  25.857  28.685  1.00  0.00     0.009 A 
ATOM     69  C   UNL A   1      40.575  25.801  26.093  1.00  0.00     0.001 A 
ATOM     70  C   UNL A   1      39.280  24.770  27.851  1.00  0.00     0.001 A 
ATOM     71  C   UNL A   1      39.786  24.747  26.552  1.00  0.00     0.000 A 
ENDBRANCH  52  66
BRANCH  53  72
ATOM     72  C   UNL A   1      41.872  34.543  34.485  1.00  0.00    -0.014 A 
ATOM     73  C   UNL A   1      41.412  34.456  35.808  1.00  0.00     0.009 A 
ATOM     74  C   UNL A   1      42.541  35.708  34.076  1.00  0.00     0.009 A 
ATOM     75  C   UNL A   1      41.593  35.521  36.692  1.00  0.00     0.001 A 
ATOM     76  C   UNL A   1      42.749  36.759  34.973  1.00  0.00     0.001 A 
ATOM     77  C   UNL A   1      42.266  36.669  36.277  1.00  0.00     0.000 A 
ENDBRANCH  53  72
BRANCH  65  78
ATOM     78  C   UNL A   1      45.530  28.845  32.864  1.00  0.00    -0.014 A 
ATOM     79  C   UNL A   1      46.730  29.228  32.246  1.00  0.00     0.009 A 
ATOM     80  C   UNL A   1      45.580  27.988  33.975  1.00  0.00     0.009 A 
ATOM     81  C   UNL A   1      47.952  28.737  32.713  1.00  0.00     0.001 A 
ATOM     82  C   UNL A   1      46.804  27.523  34.458  1.00  0.00     0.001 A 
ATOM     83  C   UNL A   1      47.988  27.891  33.821  1.00  0.00     0.000 A 
ENDBRANCH  65  78
ENDBRANCH  39  40
ENDBRANCH  31  34
ENDBRANCH  29  30
ENDBRANCH  28  29
ENDBRANCH  27  28
ENDBRANCH   1  27
TORSDOF 16
ENDMDL
