MODEL 1
REMARK VINA RESULT:     -11.6      0.000      0.000
REMARK SMILES O=C(NCCCCCCNC(=O)c1cccc(NC(=O)c2cc3ccccc3[nH]2)c1)c1ccc(-c2c3nc(c(-c4ccccc4)c4ccc([nH]4)c(-c4ccccc4)c4nc(c(-c5ccccc5)c5ccc2[nH]5)C=C4)C=C3)cc1
REMARK SMILES IDX 6 1 5 2 4 3 3 4 1 5 2 6 31 8 32 9 78 10 33 11 77 12 34 13
REMARK SMILES IDX 35 14 36 15 71 16 37 17 76 18 70 19 72 20 38 21 75 22 69 23
REMARK SMILES IDX 68 24 39 26 61 27 46 28 60 29 47 30 50 31 59 32 73 33 48 34
REMARK SMILES IDX 49 35 58 37 74 38 51 39 40 40 41 41 45 42 42 43 44 44 43 45
REMARK SMILES IDX 62 46 63 47 67 48 64 49 66 50 65 51 52 52 53 53 57 54 54 55
REMARK SMILES IDX 56 56 55 57 7 58 8 59 9 60 10 61 11 62 12 64 13 65 14 66
REMARK SMILES IDX 30 67 15 68 17 69 16 70 18 71 19 72 20 74 21 75 22 76 29 77
REMARK SMILES IDX 23 78 28 79 24 81 27 82 25 83 26 84
REMARK H PARENT 3 7 72 25 50 36 10 63 18 73 29 80
REMARK Flexibility Score: inf
ROOT
ATOM      1  C   UNL A   1      37.023  22.071  23.938  1.00  0.00     0.002 C 
ENDROOT
BRANCH   1   2
ATOM      2  C   UNL A   1      37.399  20.715  24.534  1.00  0.00     0.021 C 
BRANCH   2   3
ATOM      3  C   UNL A   1      38.370  20.760  25.708  1.00  0.00     0.116 C 
BRANCH   3   4
ATOM      4  N   UNL A   1      39.415  19.752  25.627  1.00  0.00    -0.352 N 
ATOM      5  O   UNL A   1      41.511  18.915  25.702  1.00  0.00    -0.269 OA
ATOM      6  C   UNL A   1      40.748  19.844  25.952  1.00  0.00     0.251 C 
ATOM      7  H   UNL A   1      39.126  18.873  25.288  1.00  0.00     0.163 HD
BRANCH   6   8
ATOM      8  C   UNL A   1      41.275  21.081  26.571  1.00  0.00     0.039 A 
ATOM      9  C   UNL A   1      41.224  21.270  27.954  1.00  0.00     0.014 A 
ATOM     10  C   UNL A   1      41.820  22.073  25.751  1.00  0.00     0.014 A 
ATOM     11  C   UNL A   1      41.555  22.509  28.493  1.00  0.00     0.010 A 
ATOM     12  C   UNL A   1      42.235  23.288  26.307  1.00  0.00     0.010 A 
ATOM     13  C   UNL A   1      42.061  23.534  27.677  1.00  0.00    -0.014 A 
BRANCH  13  14
ATOM     14  C   UNL A   1      42.410  24.843  28.287  1.00  0.00     0.031 A 
ATOM     15  C   UNL A   1      43.833  25.183  28.643  1.00  0.00     0.074 A 
ATOM     16  C   UNL A   1      41.437  25.757  28.476  1.00  0.00     0.049 A 
ATOM     17  N   UNL A   1      44.319  26.304  29.116  1.00  0.00    -0.248 NA
ATOM     18  C   UNL A   1      44.842  24.128  28.453  1.00  0.00     0.031 C 
ATOM     19  C   UNL A   1      40.018  25.550  28.178  1.00  0.00     0.029 A 
ATOM     20  N   UNL A   1      41.497  27.048  28.930  1.00  0.00    -0.354 N 
ATOM     21  C   UNL A   1      45.678  26.084  29.302  1.00  0.00     0.074 A 
ATOM     22  C   UNL A   1      45.939  24.715  28.914  1.00  0.00     0.031 C 
ATOM     23  C   UNL A   1      39.353  26.694  28.398  1.00  0.00     0.029 A 
ATOM     24  C   UNL A   1      40.286  27.695  28.903  1.00  0.00     0.049 A 
ATOM     25  H   UNL A   1      42.328  27.472  29.245  1.00  0.00     0.167 HD
ATOM     26  C   UNL A   1      46.625  26.944  29.751  1.00  0.00     0.031 A 
ATOM     27  C   UNL A   1      39.956  28.954  29.245  1.00  0.00     0.031 A 
ATOM     28  C   UNL A   1      46.372  28.311  30.126  1.00  0.00     0.049 A 
ATOM     29  C   UNL A   1      41.024  29.882  29.744  1.00  0.00     0.074 A 
ATOM     30  C   UNL A   1      47.275  29.269  30.556  1.00  0.00     0.029 A 
ATOM     31  N   UNL A   1      45.125  28.915  30.116  1.00  0.00    -0.354 N 
ATOM     32  N   UNL A   1      42.309  29.667  29.877  1.00  0.00    -0.248 NA
ATOM     33  C   UNL A   1      40.592  31.232  30.134  1.00  0.00     0.031 C 
ATOM     34  C   UNL A   1      46.567  30.439  30.849  1.00  0.00     0.029 A 
ATOM     35  C   UNL A   1      45.232  30.226  30.552  1.00  0.00     0.049 A 
ATOM     36  H   UNL A   1      44.287  28.478  29.840  1.00  0.00     0.167 HD
ATOM     37  C   UNL A   1      42.845  30.859  30.346  1.00  0.00     0.074 A 
ATOM     38  C   UNL A   1      41.747  31.798  30.455  1.00  0.00     0.031 C 
ATOM     39  C   UNL A   1      44.131  31.149  30.656  1.00  0.00     0.031 A 
BRANCH  26  40
ATOM     40  C   UNL A   1      48.028  26.421  29.890  1.00  0.00    -0.014 A 
ATOM     41  C   UNL A   1      48.472  25.824  31.079  1.00  0.00     0.009 A 
ATOM     42  C   UNL A   1      48.905  26.490  28.796  1.00  0.00     0.009 A 
ATOM     43  C   UNL A   1      49.778  25.334  31.179  1.00  0.00     0.001 A 
ATOM     44  C   UNL A   1      50.201  25.978  28.890  1.00  0.00     0.001 A 
ATOM     45  C   UNL A   1      50.639  25.408  30.085  1.00  0.00     0.000 A 
ENDBRANCH  26  40
BRANCH  27  46
ATOM     46  C   UNL A   1      38.550  29.411  29.114  1.00  0.00    -0.014 A 
ATOM     47  C   UNL A   1      38.077  29.923  27.897  1.00  0.00     0.009 A 
ATOM     48  C   UNL A   1      37.671  29.329  30.206  1.00  0.00     0.009 A 
ATOM     49  C   UNL A   1      36.758  30.364  27.780  1.00  0.00     0.001 A 
ATOM     50  C   UNL A   1      36.345  29.744  30.078  1.00  0.00     0.001 A 
ATOM     51  C   UNL A   1      35.892  30.269  28.869  1.00  0.00     0.000 A 
ENDBRANCH  27  46
BRANCH  39  52
ATOM     52  C   UNL A   1      44.423  32.551  31.109  1.00  0.00    -0.014 A 
ATOM     53  C   UNL A   1      44.654  33.582  30.186  1.00  0.00     0.009 A 
ATOM     54  C   UNL A   1      44.452  32.844  32.481  1.00  0.00     0.009 A 
ATOM     55  C   UNL A   1      44.947  34.873  30.630  1.00  0.00     0.001 A 
ATOM     56  C   UNL A   1      44.719  34.141  32.922  1.00  0.00     0.001 A 
ATOM     57  C   UNL A   1      44.976  35.152  31.997  1.00  0.00     0.000 A 
ENDBRANCH  39  52
ENDBRANCH  13  14
ENDBRANCH   6   8
ENDBRANCH   3   4
ENDBRANCH   2   3
ENDBRANCH   1   2
BRANCH   1  58
ATOM     58  C   UNL A   1      35.564  22.500  24.123  1.00  0.00     0.002 C 
BRANCH  58  59
ATOM     59  C   UNL A   1      35.272  23.382  25.340  1.00  0.00     0.021 C 
BRANCH  59  60
ATOM     60  C   UNL A   1      34.386  22.752  26.412  1.00  0.00     0.116 C 
BRANCH  60  61
ATOM     61  N   UNL A   1      33.637  21.605  25.916  1.00  0.00    -0.352 N 
ATOM     62  C   UNL A   1      32.377  21.547  25.367  1.00  0.00     0.251 C 
ATOM     63  H   UNL A   1      34.103  20.740  25.983  1.00  0.00     0.163 HD
ATOM     64  O   UNL A   1      31.841  20.463  25.157  1.00  0.00    -0.269 OA
BRANCH  62  65
ATOM     65  C   UNL A   1      31.663  22.795  25.026  1.00  0.00     0.041 A 
ATOM     66  C   UNL A   1      30.951  23.486  26.003  1.00  0.00     0.014 A 
ATOM     67  C   UNL A   1      31.726  23.295  23.726  1.00  0.00     0.040 A 
ATOM     68  C   UNL A   1      30.359  24.712  25.681  1.00  0.00     0.003 A 
ATOM     69  C   UNL A   1      31.204  24.556  23.420  1.00  0.00     0.042 A 
ATOM     70  C   UNL A   1      30.500  25.259  24.396  1.00  0.00     0.026 A 
BRANCH  69  71
ATOM     71  N   UNL A   1      31.613  25.064  22.184  1.00  0.00    -0.321 N 
ATOM     72  C   UNL A   1      32.694  25.789  21.787  1.00  0.00     0.272 C 
ATOM     73  H   UNL A   1      30.992  24.854  21.449  1.00  0.00     0.170 HD
ATOM     74  O   UNL A   1      33.118  25.556  20.654  1.00  0.00    -0.267 OA
BRANCH  72  75
ATOM     75  C   UNL A   1      33.187  26.908  22.541  1.00  0.00     0.105 A 
ATOM     76  C   UNL A   1      32.565  28.132  22.736  1.00  0.00     0.042 A 
ATOM     77  N   UNL A   1      34.038  26.745  23.619  1.00  0.00    -0.351 N 
ATOM     78  C   UNL A   1      32.601  28.356  24.146  1.00  0.00     0.000 A 
ATOM     79  C   UNL A   1      33.483  27.422  24.687  1.00  0.00     0.046 A 
ATOM     80  H   UNL A   1      34.883  26.240  23.623  1.00  0.00     0.167 HD
ATOM     81  C   UNL A   1      31.839  29.157  25.016  1.00  0.00     0.010 A 
ATOM     82  C   UNL A   1      33.623  27.217  26.064  1.00  0.00     0.026 A 
ATOM     83  C   UNL A   1      31.918  28.921  26.394  1.00  0.00     0.001 A 
ATOM     84  C   UNL A   1      32.789  27.959  26.905  1.00  0.00     0.002 A 
ENDBRANCH  72  75
ENDBRANCH  69  71
ENDBRANCH  62  65
ENDBRANCH  60  61
ENDBRANCH  59  60
ENDBRANCH  58  59
ENDBRANCH   1  58
TORSDOF 15
ENDMDL
MODEL 2
REMARK VINA RESULT:     -11.5      2.904      8.333
REMARK SMILES O=C(NCCCCCCNC(=O)c1cccc(NC(=O)c2cc3ccccc3[nH]2)c1)c1ccc(-c2c3nc(c(-c4ccccc4)c4ccc([nH]4)c(-c4ccccc4)c4nc(c(-c5ccccc5)c5ccc2[nH]5)C=C4)C=C3)cc1
REMARK SMILES IDX 6 1 5 2 4 3 3 4 1 5 2 6 31 8 32 9 78 10 33 11 77 12 34 13
REMARK SMILES IDX 35 14 36 15 71 16 37 17 76 18 70 19 72 20 38 21 75 22 69 23
REMARK SMILES IDX 68 24 39 26 61 27 46 28 60 29 47 30 50 31 59 32 73 33 48 34
REMARK SMILES IDX 49 35 58 37 74 38 51 39 40 40 41 41 45 42 42 43 44 44 43 45
REMARK SMILES IDX 62 46 63 47 67 48 64 49 66 50 65 51 52 52 53 53 57 54 54 55
REMARK SMILES IDX 56 56 55 57 7 58 8 59 9 60 10 61 11 62 12 64 13 65 14 66
REMARK SMILES IDX 30 67 15 68 17 69 16 70 18 71 19 72 20 74 21 75 22 76 29 77
REMARK SMILES IDX 23 78 28 79 24 81 27 82 25 83 26 84
REMARK H PARENT 3 7 72 25 50 36 10 63 18 73 29 80
REMARK Flexibility Score: inf
ROOT
ATOM      1  C   UNL A   1      31.692  29.739  25.781  1.00  0.00     0.002 C 
ENDROOT
BRANCH   1   2
ATOM      2  C   UNL A   1      31.452  31.182  26.224  1.00  0.00     0.021 C 
BRANCH   2   3
ATOM      3  C   UNL A   1      32.589  31.826  27.009  1.00  0.00     0.116 C 
BRANCH   3   4
ATOM      4  N   UNL A   1      32.285  33.177  27.453  1.00  0.00    -0.352 N 
ATOM      5  O   UNL A   1      32.534  35.088  28.632  1.00  0.00    -0.269 OA
ATOM      6  C   UNL A   1      33.011  34.015  28.267  1.00  0.00     0.251 C 
ATOM      7  H   UNL A   1      31.434  33.547  27.123  1.00  0.00     0.163 HD
BRANCH   6   8
ATOM      8  C   UNL A   1      34.355  33.612  28.737  1.00  0.00     0.039 A 
ATOM      9  C   UNL A   1      35.498  33.923  27.997  1.00  0.00     0.014 A 
ATOM     10  C   UNL A   1      34.471  32.899  29.933  1.00  0.00     0.014 A 
ATOM     11  C   UNL A   1      36.725  33.377  28.361  1.00  0.00     0.010 A 
ATOM     12  C   UNL A   1      35.722  32.425  30.345  1.00  0.00     0.010 A 
ATOM     13  C   UNL A   1      36.851  32.619  29.537  1.00  0.00    -0.014 A 
BRANCH  13  14
ATOM     14  C   UNL A   1      38.179  32.057  29.898  1.00  0.00     0.031 A 
ATOM     15  C   UNL A   1      39.080  32.755  30.881  1.00  0.00     0.074 A 
ATOM     16  C   UNL A   1      38.553  30.874  29.371  1.00  0.00     0.049 A 
ATOM     17  N   UNL A   1      40.236  32.365  31.360  1.00  0.00    -0.248 NA
ATOM     18  C   UNL A   1      38.634  34.063  31.389  1.00  0.00     0.031 C 
ATOM     19  C   UNL A   1      37.774  30.098  28.403  1.00  0.00     0.029 A 
ATOM     20  N   UNL A   1      39.663  30.103  29.598  1.00  0.00    -0.354 N 
ATOM     21  C   UNL A   1      40.665  33.385  32.201  1.00  0.00     0.074 A 
ATOM     22  C   UNL A   1      39.657  34.422  32.151  1.00  0.00     0.031 C 
ATOM     23  C   UNL A   1      38.400  28.936  28.167  1.00  0.00     0.029 A 
ATOM     24  C   UNL A   1      39.647  28.907  28.923  1.00  0.00     0.049 A 
ATOM     25  H   UNL A   1      40.402  30.380  30.188  1.00  0.00     0.167 HD
ATOM     26  C   UNL A   1      41.793  33.451  32.951  1.00  0.00     0.031 A 
ATOM     27  C   UNL A   1      40.534  27.896  28.910  1.00  0.00     0.031 A 
ATOM     28  C   UNL A   1      42.791  32.415  33.014  1.00  0.00     0.049 A 
ATOM     29  C   UNL A   1      41.777  27.999  29.745  1.00  0.00     0.074 A 
ATOM     30  C   UNL A   1      43.948  32.377  33.774  1.00  0.00     0.029 A 
ATOM     31  N   UNL A   1      42.752  31.235  32.287  1.00  0.00    -0.354 N 
ATOM     32  N   UNL A   1      42.146  28.954  30.562  1.00  0.00    -0.248 NA
ATOM     33  C   UNL A   1      42.722  26.876  29.658  1.00  0.00     0.031 C 
ATOM     34  C   UNL A   1      44.630  31.193  33.474  1.00  0.00     0.029 A 
ATOM     35  C   UNL A   1      43.874  30.471  32.566  1.00  0.00     0.049 A 
ATOM     36  H   UNL A   1      42.033  30.978  31.665  1.00  0.00     0.167 HD
ATOM     37  C   UNL A   1      43.355  28.540  31.105  1.00  0.00     0.074 A 
ATOM     38  C   UNL A   1      43.645  27.239  30.537  1.00  0.00     0.031 C 
ATOM     39  C   UNL A   1      44.151  29.180  31.994  1.00  0.00     0.031 A 
BRANCH  26  40
ATOM     40  C   UNL A   1      42.024  34.704  33.749  1.00  0.00    -0.014 A 
ATOM     41  C   UNL A   1      41.578  34.820  35.074  1.00  0.00     0.009 A 
ATOM     42  C   UNL A   1      42.737  35.769  33.178  1.00  0.00     0.009 A 
ATOM     43  C   UNL A   1      41.815  35.991  35.800  1.00  0.00     0.001 A 
ATOM     44  C   UNL A   1      42.996  36.927  33.913  1.00  0.00     0.001 A 
ATOM     45  C   UNL A   1      42.527  37.041  35.221  1.00  0.00     0.000 A 
ENDBRANCH  26  40
BRANCH  27  46
ATOM     46  C   UNL A   1      40.271  26.692  28.083  1.00  0.00    -0.014 A 
ATOM     47  C   UNL A   1      40.810  26.581  26.793  1.00  0.00     0.009 A 
ATOM     48  C   UNL A   1      39.485  25.643  28.585  1.00  0.00     0.009 A 
ATOM     49  C   UNL A   1      40.550  25.452  26.013  1.00  0.00     0.001 A 
ATOM     50  C   UNL A   1      39.250  24.503  27.814  1.00  0.00     0.001 A 
ATOM     51  C   UNL A   1      39.775  24.413  26.526  1.00  0.00     0.000 A 
ENDBRANCH  27  46
BRANCH  39  52
ATOM     52  C   UNL A   1      45.395  28.462  32.433  1.00  0.00    -0.014 A 
ATOM     53  C   UNL A   1      46.607  28.612  31.742  1.00  0.00     0.009 A 
ATOM     54  C   UNL A   1      45.354  27.635  33.566  1.00  0.00     0.009 A 
ATOM     55  C   UNL A   1      47.745  27.916  32.153  1.00  0.00     0.001 A 
ATOM     56  C   UNL A   1      46.500  26.962  33.992  1.00  0.00     0.001 A 
ATOM     57  C   UNL A   1      47.691  27.094  33.280  1.00  0.00     0.000 A 
ENDBRANCH  39  52
ENDBRANCH  13  14
ENDBRANCH   6   8
ENDBRANCH   3   4
ENDBRANCH   2   3
ENDBRANCH   1   2
BRANCH   1  58
ATOM     58  C   UNL A   1      33.153  29.279  25.771  1.00  0.00     0.002 C 
BRANCH  58  59
ATOM     59  C   UNL A   1      33.386  27.789  25.501  1.00  0.00     0.021 C 
BRANCH  59  60
ATOM     60  C   UNL A   1      33.655  27.419  24.044  1.00  0.00     0.116 C 
BRANCH  60  61
ATOM     61  N   UNL A   1      32.518  27.695  23.177  1.00  0.00    -0.352 N 
ATOM     62  C   UNL A   1      31.719  26.826  22.469  1.00  0.00     0.251 C 
ATOM     63  H   UNL A   1      32.285  28.647  23.083  1.00  0.00     0.163 HD
ATOM     64  O   UNL A   1      30.906  27.254  21.656  1.00  0.00    -0.269 OA
BRANCH  62  65
ATOM     65  C   UNL A   1      31.838  25.370  22.690  1.00  0.00     0.041 A 
ATOM     66  C   UNL A   1      32.729  24.615  21.931  1.00  0.00     0.014 A 
ATOM     67  C   UNL A   1      31.072  24.755  23.678  1.00  0.00     0.040 A 
ATOM     68  C   UNL A   1      32.892  23.256  22.216  1.00  0.00     0.003 A 
ATOM     69  C   UNL A   1      31.289  23.416  24.020  1.00  0.00     0.042 A 
ATOM     70  C   UNL A   1      32.188  22.658  23.273  1.00  0.00     0.026 A 
BRANCH  69  71
ATOM     71  N   UNL A   1      30.693  23.025  25.222  1.00  0.00    -0.321 N 
ATOM     72  C   UNL A   1      30.965  23.297  26.527  1.00  0.00     0.272 C 
ATOM     73  H   UNL A   1      29.918  22.430  25.099  1.00  0.00     0.170 HD
ATOM     74  O   UNL A   1      29.992  23.370  27.281  1.00  0.00    -0.267 OA
BRANCH  72  75
ATOM     75  C   UNL A   1      32.302  23.286  27.052  1.00  0.00     0.105 A 
ATOM     76  C   UNL A   1      33.090  22.179  27.330  1.00  0.00     0.042 A 
ATOM     77  N   UNL A   1      33.185  24.326  26.823  1.00  0.00    -0.351 N 
ATOM     78  C   UNL A   1      34.339  22.432  26.687  1.00  0.00     0.000 A 
ATOM     79  C   UNL A   1      34.345  23.774  26.313  1.00  0.00     0.046 A 
ATOM     80  H   UNL A   1      33.018  25.281  26.991  1.00  0.00     0.167 HD
ATOM     81  C   UNL A   1      35.385  21.599  26.248  1.00  0.00     0.010 A 
ATOM     82  C   UNL A   1      35.329  24.331  25.489  1.00  0.00     0.026 A 
ATOM     83  C   UNL A   1      36.342  22.122  25.371  1.00  0.00     0.001 A 
ATOM     84  C   UNL A   1      36.305  23.463  24.990  1.00  0.00     0.002 A 
ENDBRANCH  72  75
ENDBRANCH  69  71
ENDBRANCH  62  65
ENDBRANCH  60  61
ENDBRANCH  59  60
ENDBRANCH  58  59
ENDBRANCH   1  58
TORSDOF 15
ENDMDL
MODEL 3
REMARK VINA RESULT:     -11.3      3.011      8.374
REMARK SMILES O=C(NCCCCCCNC(=O)c1cccc(NC(=O)c2cc3ccccc3[nH]2)c1)c1ccc(-c2c3nc(c(-c4ccccc4)c4ccc([nH]4)c(-c4ccccc4)c4nc(c(-c5ccccc5)c5ccc2[nH]5)C=C4)C=C3)cc1
REMARK SMILES IDX 6 1 5 2 4 3 3 4 1 5 2 6 31 8 32 9 78 10 33 11 77 12 34 13
REMARK SMILES IDX 35 14 36 15 71 16 37 17 76 18 70 19 72 20 38 21 75 22 69 23
REMARK SMILES IDX 68 24 39 26 61 27 46 28 60 29 47 30 50 31 59 32 73 33 48 34
REMARK SMILES IDX 49 35 58 37 74 38 51 39 40 40 41 41 45 42 42 43 44 44 43 45
REMARK SMILES IDX 62 46 63 47 67 48 64 49 66 50 65 51 52 52 53 53 57 54 54 55
REMARK SMILES IDX 56 56 55 57 7 58 8 59 9 60 10 61 11 62 12 64 13 65 14 66
REMARK SMILES IDX 30 67 15 68 17 69 16 70 18 71 19 72 20 74 21 75 22 76 29 77
REMARK SMILES IDX 23 78 28 79 24 81 27 82 25 83 26 84
REMARK H PARENT 3 7 72 25 50 36 10 63 18 73 29 80
REMARK Flexibility Score: inf
ROOT
ATOM      1  C   UNL A   1      31.686  30.313  25.646  1.00  0.00     0.002 C 
ENDROOT
BRANCH   1   2
ATOM      2  C   UNL A   1      31.472  31.421  26.676  1.00  0.00     0.021 C 
BRANCH   2   3
ATOM      3  C   UNL A   1      32.728  32.168  27.109  1.00  0.00     0.116 C 
BRANCH   3   4
ATOM      4  N   UNL A   1      32.466  33.535  27.531  1.00  0.00    -0.352 N 
ATOM      5  O   UNL A   1      32.731  35.433  28.725  1.00  0.00    -0.269 OA
ATOM      6  C   UNL A   1      33.175  34.336  28.394  1.00  0.00     0.251 C 
ATOM      7  H   UNL A   1      31.660  33.947  27.141  1.00  0.00     0.163 HD
BRANCH   6   8
ATOM      8  C   UNL A   1      34.460  33.864  28.956  1.00  0.00     0.039 A 
ATOM      9  C   UNL A   1      35.672  34.172  28.335  1.00  0.00     0.014 A 
ATOM     10  C   UNL A   1      34.449  33.090  30.120  1.00  0.00     0.014 A 
ATOM     11  C   UNL A   1      36.846  33.567  28.776  1.00  0.00     0.010 A 
ATOM     12  C   UNL A   1      35.643  32.554  30.613  1.00  0.00     0.010 A 
ATOM     13  C   UNL A   1      36.845  32.749  29.917  1.00  0.00    -0.014 A 
BRANCH  13  14
ATOM     14  C   UNL A   1      38.118  32.124  30.363  1.00  0.00     0.031 A 
ATOM     15  C   UNL A   1      38.598  30.825  29.773  1.00  0.00     0.074 A 
ATOM     16  C   UNL A   1      38.875  32.764  31.277  1.00  0.00     0.049 A 
ATOM     17  N   UNL A   1      39.717  30.182  29.997  1.00  0.00    -0.248 NA
ATOM     18  C   UNL A   1      37.707  30.155  28.812  1.00  0.00     0.031 C 
ATOM     19  C   UNL A   1      38.521  34.026  31.930  1.00  0.00     0.029 A 
ATOM     20  N   UNL A   1      40.110  32.460  31.788  1.00  0.00    -0.354 N 
ATOM     21  C   UNL A   1      39.654  29.026  29.229  1.00  0.00     0.074 A 
ATOM     22  C   UNL A   1      38.377  29.042  28.549  1.00  0.00     0.031 C 
ATOM     23  C   UNL A   1      39.541  34.419  32.707  1.00  0.00     0.029 A 
ATOM     24  C   UNL A   1      40.596  33.413  32.649  1.00  0.00     0.049 A 
ATOM     25  H   UNL A   1      40.601  31.637  31.560  1.00  0.00     0.167 HD
ATOM     26  C   UNL A   1      40.577  28.041  29.098  1.00  0.00     0.031 A 
ATOM     27  C   UNL A   1      41.760  33.475  33.321  1.00  0.00     0.031 A 
ATOM     28  C   UNL A   1      41.854  28.027  29.762  1.00  0.00     0.049 A 
ATOM     29  C   UNL A   1      42.760  32.369  33.160  1.00  0.00     0.074 A 
ATOM     30  C   UNL A   1      42.870  27.091  29.661  1.00  0.00     0.029 A 
ATOM     31  N   UNL A   1      42.292  28.995  30.653  1.00  0.00    -0.354 N 
ATOM     32  N   UNL A   1      42.698  31.303  32.401  1.00  0.00    -0.248 NA
ATOM     33  C   UNL A   1      43.996  32.481  33.948  1.00  0.00     0.031 C 
ATOM     34  C   UNL A   1      43.904  27.471  30.524  1.00  0.00     0.029 A 
ATOM     35  C   UNL A   1      43.554  28.668  31.123  1.00  0.00     0.049 A 
ATOM     36  H   UNL A   1      41.782  29.796  30.912  1.00  0.00     0.167 HD
ATOM     37  C   UNL A   1      43.894  30.627  32.602  1.00  0.00     0.074 A 
ATOM     38  C   UNL A   1      44.668  31.414  33.540  1.00  0.00     0.031 C 
ATOM     39  C   UNL A   1      44.312  29.460  32.057  1.00  0.00     0.031 A 
BRANCH  26  40
ATOM     40  C   UNL A   1      40.227  26.874  28.217  1.00  0.00    -0.014 A 
ATOM     41  C   UNL A   1      40.667  26.802  26.887  1.00  0.00     0.009 A 
ATOM     42  C   UNL A   1      39.478  25.808  28.742  1.00  0.00     0.009 A 
ATOM     43  C   UNL A   1      40.339  25.700  26.092  1.00  0.00     0.001 A 
ATOM     44  C   UNL A   1      39.173  24.697  27.954  1.00  0.00     0.001 A 
ATOM     45  C   UNL A   1      39.596  24.649  26.626  1.00  0.00     0.000 A 
ENDBRANCH  26  40
BRANCH  27  46
ATOM     46  C   UNL A   1      42.045  34.638  34.198  1.00  0.00    -0.014 A 
ATOM     47  C   UNL A   1      41.733  34.593  35.565  1.00  0.00     0.009 A 
ATOM     48  C   UNL A   1      42.640  35.796  33.674  1.00  0.00     0.009 A 
ATOM     49  C   UNL A   1      41.992  35.693  36.386  1.00  0.00     0.001 A 
ATOM     50  C   UNL A   1      42.924  36.883  34.502  1.00  0.00     0.001 A 
ATOM     51  C   UNL A   1      42.591  36.834  35.854  1.00  0.00     0.000 A 
ENDBRANCH  27  46
BRANCH  39  52
ATOM     52  C   UNL A   1      45.686  28.984  32.436  1.00  0.00    -0.014 A 
ATOM     53  C   UNL A   1      46.819  29.366  31.702  1.00  0.00     0.009 A 
ATOM     54  C   UNL A   1      45.846  28.153  33.555  1.00  0.00     0.009 A 
ATOM     55  C   UNL A   1      48.083  28.892  32.058  1.00  0.00     0.001 A 
ATOM     56  C   UNL A   1      47.114  27.703  33.925  1.00  0.00     0.001 A 
ATOM     57  C   UNL A   1      48.230  28.064  33.171  1.00  0.00     0.000 A 
ENDBRANCH  39  52
ENDBRANCH  13  14
ENDBRANCH   6   8
ENDBRANCH   3   4
ENDBRANCH   2   3
ENDBRANCH   1   2
BRANCH   1  58
ATOM     58  C   UNL A   1      32.575  29.148  26.092  1.00  0.00     0.002 C 
BRANCH  58  59
ATOM     59  C   UNL A   1      33.704  28.759  25.134  1.00  0.00     0.021 C 
BRANCH  59  60
ATOM     60  C   UNL A   1      33.383  27.625  24.164  1.00  0.00     0.116 C 
BRANCH  60  61
ATOM     61  N   UNL A   1      32.223  27.912  23.332  1.00  0.00    -0.352 N 
ATOM     62  C   UNL A   1      31.434  27.056  22.598  1.00  0.00     0.251 C 
ATOM     63  H   UNL A   1      31.963  28.860  23.288  1.00  0.00     0.163 HD
ATOM     64  O   UNL A   1      30.594  27.499  21.821  1.00  0.00    -0.269 OA
BRANCH  62  65
ATOM     65  C   UNL A   1      31.595  25.595  22.745  1.00  0.00     0.041 A 
ATOM     66  C   UNL A   1      32.488  24.901  21.932  1.00  0.00     0.014 A 
ATOM     67  C   UNL A   1      30.869  24.913  23.720  1.00  0.00     0.040 A 
ATOM     68  C   UNL A   1      32.692  23.534  22.149  1.00  0.00     0.003 A 
ATOM     69  C   UNL A   1      31.128  23.565  23.993  1.00  0.00     0.042 A 
ATOM     70  C   UNL A   1      32.029  22.868  23.191  1.00  0.00     0.026 A 
BRANCH  69  71
ATOM     71  N   UNL A   1      30.571  23.102  25.188  1.00  0.00    -0.321 N 
ATOM     72  C   UNL A   1      30.827  23.365  26.498  1.00  0.00     0.272 C 
ATOM     73  H   UNL A   1      29.843  22.452  25.054  1.00  0.00     0.170 HD
ATOM     74  O   UNL A   1      29.856  23.346  27.256  1.00  0.00    -0.267 OA
BRANCH  72  75
ATOM     75  C   UNL A   1      32.164  23.446  27.017  1.00  0.00     0.105 A 
ATOM     76  C   UNL A   1      33.000  22.394  27.363  1.00  0.00     0.042 A 
ATOM     77  N   UNL A   1      33.001  24.506  26.719  1.00  0.00    -0.351 N 
ATOM     78  C   UNL A   1      34.237  22.659  26.701  1.00  0.00     0.000 A 
ATOM     79  C   UNL A   1      34.183  23.974  26.242  1.00  0.00     0.046 A 
ATOM     80  H   UNL A   1      32.792  25.462  26.826  1.00  0.00     0.167 HD
ATOM     81  C   UNL A   1      35.317  21.846  26.313  1.00  0.00     0.010 A 
ATOM     82  C   UNL A   1      35.142  24.518  25.379  1.00  0.00     0.026 A 
ATOM     83  C   UNL A   1      36.250  22.353  25.400  1.00  0.00     0.001 A 
ATOM     84  C   UNL A   1      36.154  23.664  24.934  1.00  0.00     0.002 A 
ENDBRANCH  72  75
ENDBRANCH  69  71
ENDBRANCH  62  65
ENDBRANCH  60  61
ENDBRANCH  59  60
ENDBRANCH  58  59
ENDBRANCH   1  58
TORSDOF 15
ENDMDL
