MODEL 1
REMARK VINA RESULT:     -11.4      0.000      0.000
REMARK SMILES Cc1ccc(S(=O)(=O)Nc2cc3c(cc2C(=O)NCCCCCCNC(=O)c2ccc(-c4c5nc(c(-c6ccccc6)c6ccc([nH]6)c(-c6ccccc6)c6nc(c(-c7ccccc7)c7ccc4[nH]7)C=C6)C=C5)cc2)OCCO3)s1
REMARK SMILES IDX 21 1 20 2 19 3 18 4 16 5 17 6 15 8 10 9 11 10 12 11 14 12
REMARK SMILES IDX 13 13 79 14 76 15 78 16 77 17 9 18 6 20 7 21 8 22 5 23 1 24
REMARK SMILES IDX 2 25 3 26 80 27 4 28 22 29 23 30 24 31 25 32 26 33 27 35
REMARK SMILES IDX 28 36 29 37 75 38 30 39 74 40 31 41 32 42 33 43 68 44 34 45
REMARK SMILES IDX 73 46 67 47 69 48 35 49 72 50 66 51 65 52 36 54 58 55 43 56
REMARK SMILES IDX 57 57 44 58 47 59 56 60 70 61 45 62 46 63 55 65 71 66 48 67
REMARK SMILES IDX 37 68 38 69 42 70 39 71 41 72 40 73 59 74 60 75 64 76 61 77
REMARK SMILES IDX 63 78 62 79 49 80 50 81 54 82 51 83 53 84 52 85
REMARK H PARENT 18 7 9 19 25 34 69 53 47 64
REMARK Flexibility Score: inf
ROOT
ATOM      1  C   UNL A   1      38.354  22.213  25.937  1.00  0.00     0.002 C 
ENDROOT
BRANCH   1   2
ATOM      2  C   UNL A   1      37.725  23.605  25.936  1.00  0.00     0.021 C 
BRANCH   2   3
ATOM      3  C   UNL A   1      36.204  23.695  25.873  1.00  0.00     0.116 C 
BRANCH   3   4
ATOM      4  N   UNL A   1      35.663  24.025  24.570  1.00  0.00    -0.352 N 
ATOM      5  C   UNL A   1      34.616  23.471  23.868  1.00  0.00     0.253 C 
ATOM      6  O   UNL A   1      34.240  24.028  22.840  1.00  0.00    -0.269 OA
ATOM      7  H   UNL A   1      36.119  24.766  24.111  1.00  0.00     0.163 HD
BRANCH   5   8
ATOM      8  C   UNL A   1      33.956  22.218  24.322  1.00  0.00     0.067 A 
ATOM      9  C   UNL A   1      32.624  22.234  24.788  1.00  0.00     0.066 A 
ATOM     10  C   UNL A   1      32.004  21.037  25.169  1.00  0.00     0.078 A 
ATOM     11  C   UNL A   1      32.700  19.831  25.077  1.00  0.00     0.163 A 
ATOM     12  C   UNL A   1      34.668  21.012  24.320  1.00  0.00     0.066 A 
ATOM     13  C   UNL A   1      34.024  19.820  24.637  1.00  0.00     0.162 A 
ATOM     14  O   UNL A   1      32.016  18.691  25.416  1.00  0.00    -0.486 OA
ATOM     15  O   UNL A   1      34.755  18.672  24.474  1.00  0.00    -0.486 OA
ATOM     16  C   UNL A   1      32.888  17.558  25.541  1.00  0.00     0.271 C 
ATOM     17  C   UNL A   1      33.898  17.525  24.407  1.00  0.00     0.271 C 
BRANCH   9  18
ATOM     18  N   UNL A   1      31.888  23.461  24.861  1.00  0.00    -0.278 N 
ATOM     19  H   UNL A   1      31.433  23.823  24.067  1.00  0.00     0.180 HD
BRANCH  18  20
ATOM     20  S   UNL A   1      31.821  24.273  26.339  1.00  0.00     0.271 S 
ATOM     21  O   UNL A   1      32.774  23.645  27.224  1.00  0.00    -0.200 OA
ATOM     22  O   UNL A   1      30.420  24.361  26.710  1.00  0.00    -0.200 OA
BRANCH  20  23
ATOM     23  C   UNL A   1      32.311  25.969  26.100  1.00  0.00     0.140 A 
ATOM     24  C   UNL A   1      31.777  29.763  25.254  1.00  0.00     0.056 C 
ATOM     25  C   UNL A   1      32.230  28.386  25.602  1.00  0.00     0.003 A 
ATOM     26  C   UNL A   1      33.521  27.938  25.789  1.00  0.00     0.016 A 
ATOM     27  S   UNL A   1      31.089  27.127  25.822  1.00  0.00    -0.127 S 
ATOM     28  C   UNL A   1      33.567  26.548  26.078  1.00  0.00     0.034 A 
ENDBRANCH  20  23
ENDBRANCH  18  20
ENDBRANCH   9  18
ENDBRANCH   5   8
ENDBRANCH   3   4
ENDBRANCH   2   3
ENDBRANCH   1   2
BRANCH   1  29
ATOM     29  C   UNL A   1      37.850  21.228  24.882  1.00  0.00     0.002 C 
BRANCH  29  30
ATOM     30  C   UNL A   1      38.492  19.840  24.884  1.00  0.00     0.021 C 
BRANCH  30  31
ATOM     31  C   UNL A   1      39.295  19.466  26.125  1.00  0.00     0.116 C 
BRANCH  31  32
ATOM     32  N   UNL A   1      40.605  18.918  25.822  1.00  0.00    -0.352 N 
ATOM     33  C   UNL A   1      41.839  19.517  25.892  1.00  0.00     0.251 C 
ATOM     34  H   UNL A   1      40.609  17.981  25.521  1.00  0.00     0.163 HD
ATOM     35  O   UNL A   1      42.837  18.919  25.501  1.00  0.00    -0.269 OA
BRANCH  33  36
ATOM     36  C   UNL A   1      41.972  20.899  26.408  1.00  0.00     0.039 A 
ATOM     37  C   UNL A   1      41.829  21.114  27.781  1.00  0.00     0.014 A 
ATOM     38  C   UNL A   1      42.227  21.976  25.554  1.00  0.00     0.014 A 
ATOM     39  C   UNL A   1      42.009  22.396  28.308  1.00  0.00     0.010 A 
ATOM     40  C   UNL A   1      42.463  23.244  26.086  1.00  0.00     0.010 A 
ATOM     41  C   UNL A   1      42.362  23.464  27.469  1.00  0.00    -0.014 A 
BRANCH  41  42
ATOM     42  C   UNL A   1      42.646  24.812  28.023  1.00  0.00     0.031 A 
ATOM     43  C   UNL A   1      44.030  25.169  28.488  1.00  0.00     0.074 A 
ATOM     44  C   UNL A   1      41.642  25.699  28.167  1.00  0.00     0.049 A 
ATOM     45  N   UNL A   1      44.452  26.272  29.054  1.00  0.00    -0.248 NA
ATOM     46  C   UNL A   1      45.073  24.146  28.314  1.00  0.00     0.031 C 
ATOM     47  C   UNL A   1      40.246  25.468  27.787  1.00  0.00     0.029 A 
ATOM     48  N   UNL A   1      41.641  26.972  28.679  1.00  0.00    -0.354 N 
ATOM     49  C   UNL A   1      45.800  26.070  29.319  1.00  0.00     0.074 A 
ATOM     50  C   UNL A   1      46.119  24.726  28.884  1.00  0.00     0.031 C 
ATOM     51  C   UNL A   1      39.530  26.570  28.062  1.00  0.00     0.029 A 
ATOM     52  C   UNL A   1      40.404  27.570  28.666  1.00  0.00     0.049 A 
ATOM     53  H   UNL A   1      42.451  27.415  29.023  1.00  0.00     0.167 HD
ATOM     54  C   UNL A   1      46.696  26.928  29.861  1.00  0.00     0.031 A 
ATOM     55  C   UNL A   1      40.015  28.783  29.098  1.00  0.00     0.031 A 
ATOM     56  C   UNL A   1      46.390  28.269  30.280  1.00  0.00     0.049 A 
ATOM     57  C   UNL A   1      41.028  29.715  29.699  1.00  0.00     0.074 A 
ATOM     58  C   UNL A   1      47.247  29.231  30.787  1.00  0.00     0.029 A 
ATOM     59  N   UNL A   1      45.128  28.838  30.241  1.00  0.00    -0.354 N 
ATOM     60  N   UNL A   1      42.311  29.527  29.890  1.00  0.00    -0.248 NA
ATOM     61  C   UNL A   1      40.538  31.031  30.137  1.00  0.00     0.031 C 
ATOM     62  C   UNL A   1      46.494  30.371  31.092  1.00  0.00     0.029 A 
ATOM     63  C   UNL A   1      45.178  30.132  30.735  1.00  0.00     0.049 A 
ATOM     64  H   UNL A   1      44.315  28.390  29.911  1.00  0.00     0.167 HD
ATOM     65  C   UNL A   1      42.786  30.707  30.449  1.00  0.00     0.074 A 
ATOM     66  C   UNL A   1      41.657  31.608  30.554  1.00  0.00     0.031 C 
ATOM     67  C   UNL A   1      44.047  31.015  30.838  1.00  0.00     0.031 A 
BRANCH  54  68
ATOM     68  C   UNL A   1      48.103  26.434  30.038  1.00  0.00    -0.014 A 
ATOM     69  C   UNL A   1      49.064  26.604  29.028  1.00  0.00     0.009 A 
ATOM     70  C   UNL A   1      48.483  25.823  31.243  1.00  0.00     0.009 A 
ATOM     71  C   UNL A   1      50.369  26.141  29.210  1.00  0.00     0.001 A 
ATOM     72  C   UNL A   1      49.795  25.383  31.431  1.00  0.00     0.001 A 
ATOM     73  C   UNL A   1      50.734  25.534  30.411  1.00  0.00     0.000 A 
ENDBRANCH  54  68
BRANCH  55  74
ATOM     74  C   UNL A   1      38.595  29.197  28.966  1.00  0.00    -0.014 A 
ATOM     75  C   UNL A   1      37.731  29.127  30.069  1.00  0.00     0.009 A 
ATOM     76  C   UNL A   1      38.099  29.662  27.739  1.00  0.00     0.009 A 
ATOM     77  C   UNL A   1      36.390  29.494  29.939  1.00  0.00     0.001 A 
ATOM     78  C   UNL A   1      36.762  30.050  27.619  1.00  0.00     0.001 A 
ATOM     79  C   UNL A   1      35.908  29.959  28.716  1.00  0.00     0.000 A 
ENDBRANCH  55  74
BRANCH  67  80
ATOM     80  C   UNL A   1      44.274  32.392  31.390  1.00  0.00    -0.014 A 
ATOM     81  C   UNL A   1      44.612  33.463  30.548  1.00  0.00     0.009 A 
ATOM     82  C   UNL A   1      44.114  32.626  32.764  1.00  0.00     0.009 A 
ATOM     83  C   UNL A   1      44.814  34.739  31.079  1.00  0.00     0.001 A 
ATOM     84  C   UNL A   1      44.295  33.907  33.288  1.00  0.00     0.001 A 
ATOM     85  C   UNL A   1      44.651  34.960  32.447  1.00  0.00     0.000 A 
ENDBRANCH  67  80
ENDBRANCH  41  42
ENDBRANCH  33  36
ENDBRANCH  31  32
ENDBRANCH  30  31
ENDBRANCH  29  30
ENDBRANCH   1  29
TORSDOF 16
ENDMDL
MODEL 2
REMARK VINA RESULT:     -11.0      3.423      8.793
REMARK SMILES Cc1ccc(S(=O)(=O)Nc2cc3c(cc2C(=O)NCCCCCCNC(=O)c2ccc(-c4c5nc(c(-c6ccccc6)c6ccc([nH]6)c(-c6ccccc6)c6nc(c(-c7ccccc7)c7ccc4[nH]7)C=C6)C=C5)cc2)OCCO3)s1
REMARK SMILES IDX 21 1 20 2 19 3 18 4 16 5 17 6 15 8 10 9 11 10 12 11 14 12
REMARK SMILES IDX 13 13 79 14 76 15 78 16 77 17 9 18 6 20 7 21 8 22 5 23 1 24
REMARK SMILES IDX 2 25 3 26 80 27 4 28 22 29 23 30 24 31 25 32 26 33 27 35
REMARK SMILES IDX 28 36 29 37 75 38 30 39 74 40 31 41 32 42 33 43 68 44 34 45
REMARK SMILES IDX 73 46 67 47 69 48 35 49 72 50 66 51 65 52 36 54 58 55 43 56
REMARK SMILES IDX 57 57 44 58 47 59 56 60 70 61 45 62 46 63 55 65 71 66 48 67
REMARK SMILES IDX 37 68 38 69 42 70 39 71 41 72 40 73 59 74 60 75 64 76 61 77
REMARK SMILES IDX 63 78 62 79 49 80 50 81 54 82 51 83 53 84 52 85
REMARK H PARENT 18 7 9 19 25 34 69 53 47 64
REMARK Flexibility Score: inf
ROOT
ATOM      1  C   UNL A   1      33.336  28.896  26.222  1.00  0.00     0.002 C 
ENDROOT
BRANCH   1   2
ATOM      2  C   UNL A   1      34.011  27.724  25.511  1.00  0.00     0.021 C 
BRANCH   2   3
ATOM      3  C   UNL A   1      33.764  27.565  24.016  1.00  0.00     0.116 C 
BRANCH   3   4
ATOM      4  N   UNL A   1      33.341  26.242  23.602  1.00  0.00    -0.352 N 
ATOM      5  C   UNL A   1      32.145  25.805  23.079  1.00  0.00     0.253 C 
ATOM      6  O   UNL A   1      32.076  24.655  22.654  1.00  0.00    -0.269 OA
ATOM      7  H   UNL A   1      34.020  25.538  23.715  1.00  0.00     0.163 HD
BRANCH   5   8
ATOM      8  C   UNL A   1      30.950  26.691  23.035  1.00  0.00     0.067 A 
ATOM      9  C   UNL A   1      29.775  26.349  23.740  1.00  0.00     0.066 A 
ATOM     10  C   UNL A   1      28.676  27.218  23.725  1.00  0.00     0.078 A 
ATOM     11  C   UNL A   1      28.748  28.422  23.023  1.00  0.00     0.163 A 
ATOM     12  C   UNL A   1      30.973  27.859  22.265  1.00  0.00     0.066 A 
ATOM     13  C   UNL A   1      29.902  28.746  22.308  1.00  0.00     0.162 A 
ATOM     14  O   UNL A   1      27.656  29.248  23.093  1.00  0.00    -0.486 OA
ATOM     15  O   UNL A   1      30.065  29.930  21.637  1.00  0.00    -0.486 OA
ATOM     16  C   UNL A   1      27.727  30.316  22.136  1.00  0.00     0.271 C 
ATOM     17  C   UNL A   1      29.124  30.911  22.093  1.00  0.00     0.271 C 
BRANCH   9  18
ATOM     18  N   UNL A   1      29.698  25.130  24.487  1.00  0.00    -0.278 N 
ATOM     19  H   UNL A   1      29.324  24.314  24.082  1.00  0.00     0.180 HD
BRANCH  18  20
ATOM     20  S   UNL A   1      30.262  25.123  26.078  1.00  0.00     0.271 S 
ATOM     21  O   UNL A   1      29.212  24.580  26.909  1.00  0.00    -0.200 OA
ATOM     22  O   UNL A   1      30.800  26.445  26.342  1.00  0.00    -0.200 OA
BRANCH  20  23
ATOM     23  C   UNL A   1      31.679  24.048  26.194  1.00  0.00     0.140 A 
ATOM     24  C   UNL A   1      33.571  20.611  26.219  1.00  0.00     0.056 C 
ATOM     25  C   UNL A   1      33.085  22.021  26.255  1.00  0.00     0.003 A 
ATOM     26  C   UNL A   1      33.801  23.158  26.566  1.00  0.00     0.016 A 
ATOM     27  S   UNL A   1      31.455  22.386  25.879  1.00  0.00    -0.127 S 
ATOM     28  C   UNL A   1      32.992  24.325  26.528  1.00  0.00     0.034 A 
ENDBRANCH  20  23
ENDBRANCH  18  20
ENDBRANCH   9  18
ENDBRANCH   5   8
ENDBRANCH   3   4
ENDBRANCH   2   3
ENDBRANCH   1   2
BRANCH   1  29
ATOM     29  C   UNL A   1      32.186  29.579  25.484  1.00  0.00     0.002 C 
BRANCH  29  30
ATOM     30  C   UNL A   1      31.735  30.934  26.030  1.00  0.00     0.021 C 
BRANCH  30  31
ATOM     31  C   UNL A   1      32.512  31.476  27.225  1.00  0.00     0.116 C 
BRANCH  31  32
ATOM     32  N   UNL A   1      32.248  32.877  27.498  1.00  0.00    -0.352 N 
ATOM     33  C   UNL A   1      33.018  33.797  28.167  1.00  0.00     0.251 C 
ATOM     34  H   UNL A   1      31.390  33.218  27.155  1.00  0.00     0.163 HD
ATOM     35  O   UNL A   1      32.583  34.923  28.385  1.00  0.00    -0.269 OA
BRANCH  33  36
ATOM     36  C   UNL A   1      34.365  33.426  28.661  1.00  0.00     0.039 A 
ATOM     37  C   UNL A   1      34.462  32.724  29.866  1.00  0.00     0.014 A 
ATOM     38  C   UNL A   1      35.522  33.770  27.956  1.00  0.00     0.014 A 
ATOM     39  C   UNL A   1      35.712  32.305  30.329  1.00  0.00     0.010 A 
ATOM     40  C   UNL A   1      36.763  33.303  28.389  1.00  0.00     0.010 A 
ATOM     41  C   UNL A   1      36.869  32.561  29.576  1.00  0.00    -0.014 A 
BRANCH  41  42
ATOM     42  C   UNL A   1      38.192  32.045  30.007  1.00  0.00     0.031 A 
ATOM     43  C   UNL A   1      38.702  30.728  29.493  1.00  0.00     0.074 A 
ATOM     44  C   UNL A   1      38.913  32.733  30.914  1.00  0.00     0.049 A 
ATOM     45  N   UNL A   1      39.803  30.090  29.803  1.00  0.00    -0.248 NA
ATOM     46  C   UNL A   1      37.855  30.025  28.517  1.00  0.00     0.031 C 
ATOM     47  C   UNL A   1      38.519  34.008  31.519  1.00  0.00     0.029 A 
ATOM     48  N   UNL A   1      40.127  32.452  31.491  1.00  0.00    -0.354 N 
ATOM     49  C   UNL A   1      39.773  28.907  29.077  1.00  0.00     0.074 A 
ATOM     50  C   UNL A   1      38.528  28.898  28.337  1.00  0.00     0.031 C 
ATOM     51  C   UNL A   1      39.482  34.406  32.366  1.00  0.00     0.029 A 
ATOM     52  C   UNL A   1      40.542  33.404  32.391  1.00  0.00     0.049 A 
ATOM     53  H   UNL A   1      40.650  31.646  31.279  1.00  0.00     0.167 HD
ATOM     54  C   UNL A   1      40.701  27.923  29.019  1.00  0.00     0.031 A 
ATOM     55  C   UNL A   1      41.648  33.461  33.155  1.00  0.00     0.031 A 
ATOM     56  C   UNL A   1      41.946  27.933  29.740  1.00  0.00     0.049 A 
ATOM     57  C   UNL A   1      42.661  32.355  33.074  1.00  0.00     0.074 A 
ATOM     58  C   UNL A   1      42.974  27.008  29.698  1.00  0.00     0.029 A 
ATOM     59  N   UNL A   1      42.332  28.920  30.632  1.00  0.00    -0.354 N 
ATOM     60  N   UNL A   1      42.642  31.270  32.340  1.00  0.00    -0.248 NA
ATOM     61  C   UNL A   1      43.854  32.487  33.925  1.00  0.00     0.031 C 
ATOM     62  C   UNL A   1      43.966  27.414  30.597  1.00  0.00     0.029 A 
ATOM     63  C   UNL A   1      43.574  28.615  31.165  1.00  0.00     0.049 A 
ATOM     64  H   UNL A   1      41.802  29.720  30.856  1.00  0.00     0.167 HD
ATOM     65  C   UNL A   1      43.826  30.601  32.622  1.00  0.00     0.074 A 
ATOM     66  C   UNL A   1      44.546  31.408  33.585  1.00  0.00     0.031 C 
ATOM     67  C   UNL A   1      44.276  29.424  32.125  1.00  0.00     0.031 A 
BRANCH  54  68
ATOM     68  C   UNL A   1      40.398  26.741  28.144  1.00  0.00    -0.014 A 
ATOM     69  C   UNL A   1      40.931  26.642  26.849  1.00  0.00     0.009 A 
ATOM     70  C   UNL A   1      39.600  25.696  28.634  1.00  0.00     0.009 A 
ATOM     71  C   UNL A   1      40.642  25.534  26.049  1.00  0.00     0.001 A 
ATOM     72  C   UNL A   1      39.332  24.578  27.840  1.00  0.00     0.001 A 
ATOM     73  C   UNL A   1      39.846  24.502  26.546  1.00  0.00     0.000 A 
ENDBRANCH  54  68
BRANCH  55  74
ATOM     74  C   UNL A   1      41.866  34.619  34.058  1.00  0.00    -0.014 A 
ATOM     75  C   UNL A   1      41.446  34.562  35.396  1.00  0.00     0.009 A 
ATOM     76  C   UNL A   1      42.494  35.782  33.589  1.00  0.00     0.009 A 
ATOM     77  C   UNL A   1      41.630  35.660  36.240  1.00  0.00     0.001 A 
ATOM     78  C   UNL A   1      42.697  36.869  34.442  1.00  0.00     0.001 A 
ATOM     79  C   UNL A   1      42.259  36.810  35.763  1.00  0.00     0.000 A 
ENDBRANCH  55  74
BRANCH  67  80
ATOM     80  C   UNL A   1      45.621  28.953  32.596  1.00  0.00    -0.014 A 
ATOM     81  C   UNL A   1      45.743  28.114  33.715  1.00  0.00     0.009 A 
ATOM     82  C   UNL A   1      46.775  29.325  31.891  1.00  0.00     0.009 A 
ATOM     83  C   UNL A   1      47.002  27.681  34.136  1.00  0.00     0.001 A 
ATOM     84  C   UNL A   1      48.030  28.872  32.301  1.00  0.00     0.001 A 
ATOM     85  C   UNL A   1      48.143  28.057  33.426  1.00  0.00     0.000 A 
ENDBRANCH  67  80
ENDBRANCH  41  42
ENDBRANCH  33  36
ENDBRANCH  31  32
ENDBRANCH  30  31
ENDBRANCH  29  30
ENDBRANCH   1  29
TORSDOF 16
ENDMDL
MODEL 3
REMARK VINA RESULT:     -11.0      3.544      9.103
REMARK SMILES Cc1ccc(S(=O)(=O)Nc2cc3c(cc2C(=O)NCCCCCCNC(=O)c2ccc(-c4c5nc(c(-c6ccccc6)c6ccc([nH]6)c(-c6ccccc6)c6nc(c(-c7ccccc7)c7ccc4[nH]7)C=C6)C=C5)cc2)OCCO3)s1
REMARK SMILES IDX 21 1 20 2 19 3 18 4 16 5 17 6 15 8 10 9 11 10 12 11 14 12
REMARK SMILES IDX 13 13 79 14 76 15 78 16 77 17 9 18 6 20 7 21 8 22 5 23 1 24
REMARK SMILES IDX 2 25 3 26 80 27 4 28 22 29 23 30 24 31 25 32 26 33 27 35
REMARK SMILES IDX 28 36 29 37 75 38 30 39 74 40 31 41 32 42 33 43 68 44 34 45
REMARK SMILES IDX 73 46 67 47 69 48 35 49 72 50 66 51 65 52 36 54 58 55 43 56
REMARK SMILES IDX 57 57 44 58 47 59 56 60 70 61 45 62 46 63 55 65 71 66 48 67
REMARK SMILES IDX 37 68 38 69 42 70 39 71 41 72 40 73 59 74 60 75 64 76 61 77
REMARK SMILES IDX 63 78 62 79 49 80 50 81 54 82 51 83 53 84 52 85
REMARK H PARENT 18 7 9 19 25 34 69 53 47 64
REMARK Flexibility Score: inf
ROOT
ATOM      1  C   UNL A   1      31.911  29.356  26.953  1.00  0.00     0.002 C 
ENDROOT
BRANCH   1   2
ATOM      2  C   UNL A   1      33.140  28.511  26.622  1.00  0.00     0.021 C 
BRANCH   2   3
ATOM      3  C   UNL A   1      33.894  28.831  25.336  1.00  0.00     0.116 C 
BRANCH   3   4
ATOM      4  N   UNL A   1      34.130  27.696  24.466  1.00  0.00    -0.352 N 
ATOM      5  C   UNL A   1      33.325  27.115  23.511  1.00  0.00     0.253 C 
ATOM      6  O   UNL A   1      33.808  26.252  22.784  1.00  0.00    -0.269 OA
ATOM      7  H   UNL A   1      35.010  27.270  24.575  1.00  0.00     0.163 HD
BRANCH   5   8
ATOM      8  C   UNL A   1      31.896  27.502  23.364  1.00  0.00     0.067 A 
ATOM      9  C   UNL A   1      30.896  26.871  24.134  1.00  0.00     0.066 A 
ATOM     10  C   UNL A   1      29.562  27.280  24.014  1.00  0.00     0.078 A 
ATOM     11  C   UNL A   1      29.226  28.318  23.143  1.00  0.00     0.163 A 
ATOM     12  C   UNL A   1      31.530  28.479  22.430  1.00  0.00     0.066 A 
ATOM     13  C   UNL A   1      30.214  28.925  22.366  1.00  0.00     0.162 A 
ATOM     14  O   UNL A   1      27.910  28.703  23.113  1.00  0.00    -0.486 OA
ATOM     15  O   UNL A   1      29.969  29.980  21.526  1.00  0.00    -0.486 OA
ATOM     16  C   UNL A   1      27.631  29.577  22.010  1.00  0.00     0.271 C 
ATOM     17  C   UNL A   1      28.727  30.617  21.852  1.00  0.00     0.271 C 
BRANCH   9  18
ATOM     18  N   UNL A   1      31.231  25.824  25.052  1.00  0.00    -0.278 N 
ATOM     19  H   UNL A   1      31.454  26.028  25.989  1.00  0.00     0.180 HD
BRANCH  18  20
ATOM     20  S   UNL A   1      31.234  24.232  24.493  1.00  0.00     0.271 S 
ATOM     21  O   UNL A   1      30.752  24.248  23.132  1.00  0.00    -0.200 OA
ATOM     22  O   UNL A   1      30.567  23.427  25.500  1.00  0.00    -0.200 OA
BRANCH  20  23
ATOM     23  C   UNL A   1      32.906  23.616  24.487  1.00  0.00     0.140 A 
ATOM     24  C   UNL A   1      36.619  23.330  25.723  1.00  0.00     0.056 C 
ATOM     25  C   UNL A   1      35.279  23.267  25.072  1.00  0.00     0.003 A 
ATOM     26  C   UNL A   1      34.925  22.594  23.921  1.00  0.00     0.016 A 
ATOM     27  S   UNL A   1      33.944  24.094  25.755  1.00  0.00    -0.127 S 
ATOM     28  C   UNL A   1      33.559  22.793  23.587  1.00  0.00     0.034 A 
ENDBRANCH  20  23
ENDBRANCH  18  20
ENDBRANCH   9  18
ENDBRANCH   5   8
ENDBRANCH   3   4
ENDBRANCH   2   3
ENDBRANCH   1   2
BRANCH   1  29
ATOM     29  C   UNL A   1      31.528  30.440  25.946  1.00  0.00     0.002 C 
BRANCH  29  30
ATOM     30  C   UNL A   1      31.376  31.858  26.497  1.00  0.00     0.021 C 
BRANCH  30  31
ATOM     31  C   UNL A   1      32.613  32.469  27.147  1.00  0.00     0.116 C 
BRANCH  31  32
ATOM     32  N   UNL A   1      32.404  33.823  27.626  1.00  0.00    -0.352 N 
ATOM     33  C   UNL A   1      33.159  34.567  28.501  1.00  0.00     0.251 C 
ATOM     34  H   UNL A   1      31.603  34.275  27.273  1.00  0.00     0.163 HD
ATOM     35  O   UNL A   1      32.770  35.672  28.865  1.00  0.00    -0.269 OA
BRANCH  33  36
ATOM     36  C   UNL A   1      34.430  34.026  29.038  1.00  0.00     0.039 A 
ATOM     37  C   UNL A   1      34.399  33.333  30.250  1.00  0.00     0.014 A 
ATOM     38  C   UNL A   1      35.641  34.204  28.364  1.00  0.00     0.014 A 
ATOM     39  C   UNL A   1      35.568  32.758  30.754  1.00  0.00     0.010 A 
ATOM     40  C   UNL A   1      36.797  33.581  28.837  1.00  0.00     0.010 A 
ATOM     41  C   UNL A   1      36.770  32.847  30.034  1.00  0.00    -0.014 A 
BRANCH  41  42
ATOM     42  C   UNL A   1      37.999  32.165  30.508  1.00  0.00     0.031 A 
ATOM     43  C   UNL A   1      38.846  32.783  31.586  1.00  0.00     0.074 A 
ATOM     44  C   UNL A   1      38.391  31.015  29.926  1.00  0.00     0.049 A 
ATOM     45  N   UNL A   1      39.983  32.364  32.084  1.00  0.00    -0.248 NA
ATOM     46  C   UNL A   1      38.364  34.046  32.165  1.00  0.00     0.031 C 
ATOM     47  C   UNL A   1      37.679  30.326  28.847  1.00  0.00     0.029 A 
ATOM     48  N   UNL A   1      39.490  30.226  30.156  1.00  0.00    -0.354 N 
ATOM     49  C   UNL A   1      40.360  33.318  33.020  1.00  0.00     0.074 A 
ATOM     50  C   UNL A   1      39.350  34.356  32.996  1.00  0.00     0.031 C 
ATOM     51  C   UNL A   1      38.350  29.209  28.523  1.00  0.00     0.029 A 
ATOM     52  C   UNL A   1      39.553  29.119  29.344  1.00  0.00     0.049 A 
ATOM     53  H   UNL A   1      40.169  30.433  30.838  1.00  0.00     0.167 HD
ATOM     54  C   UNL A   1      41.441  33.325  33.836  1.00  0.00     0.031 A 
ATOM     55  C   UNL A   1      40.477  28.144  29.265  1.00  0.00     0.031 A 
ATOM     56  C   UNL A   1      42.439  32.291  33.876  1.00  0.00     0.049 A 
ATOM     57  C   UNL A   1      41.668  28.178  30.179  1.00  0.00     0.074 A 
ATOM     58  C   UNL A   1      43.538  32.185  34.711  1.00  0.00     0.029 A 
ATOM     59  N   UNL A   1      42.460  31.183  33.045  1.00  0.00    -0.354 N 
ATOM     60  N   UNL A   1      41.979  29.059  31.097  1.00  0.00    -0.248 NA
ATOM     61  C   UNL A   1      42.632  27.074  30.050  1.00  0.00     0.031 C 
ATOM     62  C   UNL A   1      44.246  31.031  34.358  1.00  0.00     0.029 A 
ATOM     63  C   UNL A   1      43.564  30.398  33.332  1.00  0.00     0.049 A 
ATOM     64  H   UNL A   1      41.789  30.983  32.352  1.00  0.00     0.167 HD
ATOM     65  C   UNL A   1      43.161  28.607  31.670  1.00  0.00     0.074 A 
ATOM     66  C   UNL A   1      43.504  27.367  31.005  1.00  0.00     0.031 C 
ATOM     67  C   UNL A   1      43.895  29.170  32.659  1.00  0.00     0.031 A 
BRANCH  54  68
ATOM     68  C   UNL A   1      41.602  34.503  34.755  1.00  0.00    -0.014 A 
ATOM     69  C   UNL A   1      42.279  35.660  34.338  1.00  0.00     0.009 A 
ATOM     70  C   UNL A   1      41.040  34.468  36.039  1.00  0.00     0.009 A 
ATOM     71  C   UNL A   1      42.417  36.747  35.204  1.00  0.00     0.001 A 
ATOM     72  C   UNL A   1      41.159  35.566  36.894  1.00  0.00     0.001 A 
ATOM     73  C   UNL A   1      41.855  36.701  36.479  1.00  0.00     0.000 A 
ENDBRANCH  54  68
BRANCH  55  74
ATOM     74  C   UNL A   1      40.307  27.039  28.288  1.00  0.00    -0.014 A 
ATOM     75  C   UNL A   1      39.558  25.903  28.627  1.00  0.00     0.009 A 
ATOM     76  C   UNL A   1      40.892  27.116  27.015  1.00  0.00     0.009 A 
ATOM     77  C   UNL A   1      39.417  24.853  27.717  1.00  0.00     0.001 A 
ATOM     78  C   UNL A   1      40.730  26.074  26.099  1.00  0.00     0.001 A 
ATOM     79  C   UNL A   1      39.999  24.942  26.453  1.00  0.00     0.000 A 
ENDBRANCH  55  74
BRANCH  67  80
ATOM     80  C   UNL A   1      45.128  28.435  33.099  1.00  0.00    -0.014 A 
ATOM     81  C   UNL A   1      45.069  27.459  34.107  1.00  0.00     0.009 A 
ATOM     82  C   UNL A   1      46.356  28.697  32.473  1.00  0.00     0.009 A 
ATOM     83  C   UNL A   1      46.225  26.781  34.498  1.00  0.00     0.001 A 
ATOM     84  C   UNL A   1      47.505  28.002  32.851  1.00  0.00     0.001 A 
ATOM     85  C   UNL A   1      47.440  27.050  33.868  1.00  0.00     0.000 A 
ENDBRANCH  67  80
ENDBRANCH  41  42
ENDBRANCH  33  36
ENDBRANCH  31  32
ENDBRANCH  30  31
ENDBRANCH  29  30
ENDBRANCH   1  29
TORSDOF 16
ENDMDL
