MODEL 1
REMARK VINA RESULT:     -12.0      0.000      0.000
REMARK SMILES Cc1cc(C(=O)NCCCCCCNC(=O)c2ccc(-c3c4nc(c(-c5ccccc5)c5ccc([nH]5)c(-c5ccccc5)c5nc(c(-c6ccccc6)c6ccc3[nH]6)C=C5)C=C4)cc2)c(O)c(S(=O)(=O)N2CCCc3cc(F)cc(F)c32)c1
REMARK SMILES IDX 10 1 9 2 8 3 7 4 5 5 6 6 4 8 1 9 2 10 3 11 83 12 67 13 65 14
REMARK SMILES IDX 68 15 69 16 70 17 71 18 72 19 82 20 73 21 75 22 80 23 74 24
REMARK SMILES IDX 76 25 79 26 81 27 77 28 78 29 66 30 11 32 12 33 13 34 14 35
REMARK SMILES IDX 15 36 16 38 17 39 18 40 64 41 19 42 63 43 20 44 21 45 22 46
REMARK SMILES IDX 57 47 23 48 62 49 56 50 58 51 24 52 61 53 55 54 54 55 25 57
REMARK SMILES IDX 47 58 32 59 46 60 33 61 36 62 45 63 59 64 34 65 35 66 44 68
REMARK SMILES IDX 60 69 37 70 26 71 27 72 31 73 28 74 30 75 29 76 48 77 49 78
REMARK SMILES IDX 53 79 50 80 52 81 51 82 38 83 39 84 43 85 40 86 42 87 41 88
REMARK H PARENT 7 7 66 31 14 37 58 56 36 67
REMARK Flexibility Score: inf
ROOT
ATOM      1  C   UNL A   1      33.336  29.668  27.421  1.00  0.00     0.002 C 
ENDROOT
BRANCH   1   2
ATOM      2  C   UNL A   1      33.707  29.059  26.067  1.00  0.00     0.021 C 
BRANCH   2   3
ATOM      3  C   UNL A   1      32.865  29.575  24.888  1.00  0.00     0.116 C 
BRANCH   3   4
ATOM      4  N   UNL A   1      33.557  29.352  23.623  1.00  0.00    -0.352 N 
ATOM      5  C   UNL A   1      33.497  28.346  22.681  1.00  0.00     0.255 C 
ATOM      6  O   UNL A   1      34.247  28.444  21.707  1.00  0.00    -0.269 OA
ATOM      7  H   UNL A   1      34.196  30.065  23.395  1.00  0.00     0.163 HD
BRANCH   5   8
ATOM      8  C   UNL A   1      32.517  27.218  22.710  1.00  0.00     0.083 A 
ATOM      9  C   UNL A   1      28.895  26.804  23.759  1.00  0.00     0.044 C 
ATOM     10  C   UNL A   1      30.298  26.420  23.383  1.00  0.00    -0.049 A 
ATOM     11  C   UNL A   1      31.246  27.457  23.240  1.00  0.00     0.021 A 
ATOM     12  C   UNL A   1      30.693  25.083  23.184  1.00  0.00     0.029 A 
ATOM     13  C   UNL A   1      31.943  24.853  22.622  1.00  0.00     0.130 A 
ATOM     14  C   UNL A   1      32.753  25.942  22.226  1.00  0.00     0.148 A 
BRANCH  13  15
ATOM     15  S   UNL A   1      32.802  23.311  22.613  1.00  0.00     0.268 S 
ATOM     16  O   UNL A   1      31.743  22.359  22.913  1.00  0.00    -0.201 OA
ATOM     17  O   UNL A   1      33.450  23.257  21.317  1.00  0.00    -0.201 OA
BRANCH  15  18
ATOM     18  N   UNL A   1      34.029  23.068  23.838  1.00  0.00    -0.263 N 
ATOM     19  C   UNL A   1      35.038  24.152  24.005  1.00  0.00     0.136 C 
ATOM     20  C   UNL A   1      33.262  22.786  25.078  1.00  0.00     0.091 A 
ATOM     21  C   UNL A   1      34.801  25.074  25.206  1.00  0.00     0.028 C 
ATOM     22  C   UNL A   1      32.675  23.903  25.710  1.00  0.00    -0.018 A 
ATOM     23  C   UNL A   1      32.700  21.515  25.274  1.00  0.00     0.150 A 
ATOM     24  C   UNL A   1      33.331  25.252  25.573  1.00  0.00     0.040 C 
ATOM     25  C   UNL A   1      31.407  23.766  26.286  1.00  0.00     0.045 A 
ATOM     26  C   UNL A   1      31.478  21.371  25.919  1.00  0.00     0.080 A 
ATOM     27  F   UNL A   1      33.291  20.431  24.751  1.00  0.00    -0.205 F 
ATOM     28  C   UNL A   1      30.809  22.510  26.352  1.00  0.00     0.126 A 
ATOM     29  F   UNL A   1      29.556  22.402  26.812  1.00  0.00    -0.207 F 
ENDBRANCH  15  18
ENDBRANCH  13  15
BRANCH  14  30
ATOM     30  O   UNL A   1      33.721  25.807  21.267  1.00  0.00    -0.506 OA
ATOM     31  H   UNL A   1      33.669  26.305  20.475  1.00  0.00     0.293 HD
ENDBRANCH  14  30
ENDBRANCH   5   8
ENDBRANCH   3   4
ENDBRANCH   2   3
ENDBRANCH   1   2
BRANCH   1  32
ATOM     32  C   UNL A   1      34.210  30.848  27.856  1.00  0.00     0.002 C 
BRANCH  32  33
ATOM     33  C   UNL A   1      33.837  32.202  27.244  1.00  0.00     0.021 C 
BRANCH  33  34
ATOM     34  C   UNL A   1      32.405  32.654  27.518  1.00  0.00     0.116 C 
BRANCH  34  35
ATOM     35  N   UNL A   1      32.327  34.090  27.741  1.00  0.00    -0.352 N 
ATOM     36  C   UNL A   1      33.036  34.884  28.613  1.00  0.00     0.251 C 
ATOM     37  H   UNL A   1      31.669  34.566  27.184  1.00  0.00     0.163 HD
ATOM     38  O   UNL A   1      32.676  36.026  28.841  1.00  0.00    -0.269 OA
BRANCH  36  39
ATOM     39  C   UNL A   1      34.242  34.342  29.279  1.00  0.00     0.039 A 
ATOM     40  C   UNL A   1      34.096  33.649  30.484  1.00  0.00     0.014 A 
ATOM     41  C   UNL A   1      35.513  34.546  28.735  1.00  0.00     0.014 A 
ATOM     42  C   UNL A   1      35.221  33.112  31.113  1.00  0.00     0.010 A 
ATOM     43  C   UNL A   1      36.623  33.951  29.326  1.00  0.00     0.010 A 
ATOM     44  C   UNL A   1      36.489  33.232  30.523  1.00  0.00    -0.014 A 
BRANCH  44  45
ATOM     45  C   UNL A   1      37.688  32.617  31.145  1.00  0.00     0.031 A 
ATOM     46  C   UNL A   1      38.335  31.414  30.518  1.00  0.00     0.074 A 
ATOM     47  C   UNL A   1      38.158  33.106  32.309  1.00  0.00     0.049 A 
ATOM     48  N   UNL A   1      39.353  30.709  30.941  1.00  0.00    -0.248 NA
ATOM     49  C   UNL A   1      37.745  30.921  29.262  1.00  0.00     0.031 C 
ATOM     50  C   UNL A   1      37.595  34.244  33.039  1.00  0.00     0.029 A 
ATOM     51  N   UNL A   1      39.214  32.702  33.086  1.00  0.00    -0.354 N 
ATOM     52  C   UNL A   1      39.515  29.685  30.015  1.00  0.00     0.074 A 
ATOM     53  C   UNL A   1      38.459  29.829  29.038  1.00  0.00     0.031 C 
ATOM     54  C   UNL A   1      38.330  34.465  34.141  1.00  0.00     0.029 A 
ATOM     55  C   UNL A   1      39.386  33.460  34.218  1.00  0.00     0.049 A 
ATOM     56  H   UNL A   1      39.795  31.941  32.853  1.00  0.00     0.167 HD
ATOM     57  C   UNL A   1      40.466  28.722  29.973  1.00  0.00     0.031 A 
ATOM     58  C   UNL A   1      40.288  33.355  35.212  1.00  0.00     0.031 A 
ATOM     59  C   UNL A   1      41.520  28.584  30.943  1.00  0.00     0.049 A 
ATOM     60  C   UNL A   1      41.321  32.265  35.152  1.00  0.00     0.074 A 
ATOM     61  C   UNL A   1      42.565  27.677  30.957  1.00  0.00     0.029 A 
ATOM     62  N   UNL A   1      41.660  29.373  32.074  1.00  0.00    -0.354 N 
ATOM     63  N   UNL A   1      41.503  31.348  34.233  1.00  0.00    -0.248 NA
ATOM     64  C   UNL A   1      42.282  32.204  36.263  1.00  0.00     0.031 C 
ATOM     65  C   UNL A   1      43.304  27.880  32.127  1.00  0.00     0.029 A 
ATOM     66  C   UNL A   1      42.756  28.954  32.810  1.00  0.00     0.049 A 
ATOM     67  H   UNL A   1      41.066  30.119  32.319  1.00  0.00     0.167 HD
ATOM     68  C   UNL A   1      42.611  30.618  34.641  1.00  0.00     0.074 A 
ATOM     69  C   UNL A   1      43.072  31.211  35.880  1.00  0.00     0.031 C 
ATOM     70  C   UNL A   1      43.197  29.551  34.043  1.00  0.00     0.031 A 
BRANCH  57  71
ATOM     71  C   UNL A   1      40.402  27.735  28.839  1.00  0.00    -0.014 A 
ATOM     72  C   UNL A   1      41.089  27.960  27.635  1.00  0.00     0.009 A 
ATOM     73  C   UNL A   1      39.669  26.548  28.988  1.00  0.00     0.009 A 
ATOM     74  C   UNL A   1      41.010  27.037  26.590  1.00  0.00     0.001 A 
ATOM     75  C   UNL A   1      39.616  25.612  27.953  1.00  0.00     0.001 A 
ATOM     76  C   UNL A   1      40.277  25.862  26.752  1.00  0.00     0.000 A 
ENDBRANCH  57  71
BRANCH  58  77
ATOM     77  C   UNL A   1      40.264  34.317  36.344  1.00  0.00    -0.014 A 
ATOM     78  C   UNL A   1      39.577  34.009  37.528  1.00  0.00     0.009 A 
ATOM     79  C   UNL A   1      40.926  35.552  36.247  1.00  0.00     0.009 A 
ATOM     80  C   UNL A   1      39.529  34.925  38.580  1.00  0.00     0.001 A 
ATOM     81  C   UNL A   1      40.902  36.455  37.313  1.00  0.00     0.001 A 
ATOM     82  C   UNL A   1      40.195  36.146  38.474  1.00  0.00     0.000 A 
ENDBRANCH  58  77
BRANCH  70  83
ATOM     83  C   UNL A   1      44.418  28.977  34.706  1.00  0.00    -0.014 A 
ATOM     84  C   UNL A   1      44.319  27.943  35.650  1.00  0.00     0.009 A 
ATOM     85  C   UNL A   1      45.690  29.453  34.351  1.00  0.00     0.009 A 
ATOM     86  C   UNL A   1      45.467  27.422  36.249  1.00  0.00     0.001 A 
ATOM     87  C   UNL A   1      46.837  28.909  34.928  1.00  0.00     0.001 A 
ATOM     88  C   UNL A   1      46.725  27.901  35.884  1.00  0.00     0.000 A 
ENDBRANCH  70  83
ENDBRANCH  44  45
ENDBRANCH  36  39
ENDBRANCH  34  35
ENDBRANCH  33  34
ENDBRANCH  32  33
ENDBRANCH   1  32
TORSDOF 16
ENDMDL
MODEL 2
REMARK VINA RESULT:     -11.9      2.253      6.401
REMARK SMILES Cc1cc(C(=O)NCCCCCCNC(=O)c2ccc(-c3c4nc(c(-c5ccccc5)c5ccc([nH]5)c(-c5ccccc5)c5nc(c(-c6ccccc6)c6ccc3[nH]6)C=C5)C=C4)cc2)c(O)c(S(=O)(=O)N2CCCc3cc(F)cc(F)c32)c1
REMARK SMILES IDX 10 1 9 2 8 3 7 4 5 5 6 6 4 8 1 9 2 10 3 11 83 12 67 13 65 14
REMARK SMILES IDX 68 15 69 16 70 17 71 18 72 19 82 20 73 21 75 22 80 23 74 24
REMARK SMILES IDX 76 25 79 26 81 27 77 28 78 29 66 30 11 32 12 33 13 34 14 35
REMARK SMILES IDX 15 36 16 38 17 39 18 40 64 41 19 42 63 43 20 44 21 45 22 46
REMARK SMILES IDX 57 47 23 48 62 49 56 50 58 51 24 52 61 53 55 54 54 55 25 57
REMARK SMILES IDX 47 58 32 59 46 60 33 61 36 62 45 63 59 64 34 65 35 66 44 68
REMARK SMILES IDX 60 69 37 70 26 71 27 72 31 73 28 74 30 75 29 76 48 77 49 78
REMARK SMILES IDX 53 79 50 80 52 81 51 82 38 83 39 84 43 85 40 86 42 87 41 88
REMARK H PARENT 7 7 66 31 14 37 58 56 36 67
REMARK Flexibility Score: inf
ROOT
ATOM      1  C   UNL A   1      35.181  30.690  28.577  1.00  0.00     0.002 C 
ENDROOT
BRANCH   1   2
ATOM      2  C   UNL A   1      35.527  29.552  27.614  1.00  0.00     0.021 C 
BRANCH   2   3
ATOM      3  C   UNL A   1      34.358  29.097  26.725  1.00  0.00     0.116 C 
BRANCH   3   4
ATOM      4  N   UNL A   1      33.131  28.974  27.506  1.00  0.00    -0.352 N 
ATOM      5  C   UNL A   1      31.955  28.281  27.310  1.00  0.00     0.255 C 
ATOM      6  O   UNL A   1      31.079  28.408  28.169  1.00  0.00    -0.269 OA
ATOM      7  H   UNL A   1      33.147  29.491  28.343  1.00  0.00     0.163 HD
BRANCH   5   8
ATOM      8  C   UNL A   1      31.718  27.315  26.194  1.00  0.00     0.083 A 
ATOM      9  C   UNL A   1      30.111  27.483  22.763  1.00  0.00     0.044 C 
ATOM     10  C   UNL A   1      30.674  26.881  24.019  1.00  0.00    -0.049 A 
ATOM     11  C   UNL A   1      31.014  27.759  25.071  1.00  0.00     0.021 A 
ATOM     12  C   UNL A   1      30.861  25.495  24.179  1.00  0.00     0.029 A 
ATOM     13  C   UNL A   1      31.593  25.063  25.279  1.00  0.00     0.130 A 
ATOM     14  C   UNL A   1      32.164  26.005  26.164  1.00  0.00     0.148 A 
BRANCH  13  15
ATOM     15  S   UNL A   1      31.652  23.409  25.893  1.00  0.00     0.268 S 
ATOM     16  O   UNL A   1      31.384  23.592  27.312  1.00  0.00    -0.201 OA
ATOM     17  O   UNL A   1      30.695  22.679  25.084  1.00  0.00    -0.201 OA
BRANCH  15  18
ATOM     18  N   UNL A   1      33.187  22.572  25.797  1.00  0.00    -0.263 N 
ATOM     19  C   UNL A   1      33.193  21.131  26.179  1.00  0.00     0.136 C 
ATOM     20  C   UNL A   1      33.653  22.812  24.408  1.00  0.00     0.091 A 
ATOM     21  C   UNL A   1      33.209  20.153  24.999  1.00  0.00     0.028 C 
ATOM     22  C   UNL A   1      33.028  22.041  23.405  1.00  0.00    -0.018 A 
ATOM     23  C   UNL A   1      34.216  24.051  24.068  1.00  0.00     0.150 A 
ATOM     24  C   UNL A   1      32.504  20.672  23.750  1.00  0.00     0.040 C 
ATOM     25  C   UNL A   1      32.744  22.638  22.170  1.00  0.00     0.045 A 
ATOM     26  C   UNL A   1      34.002  24.608  22.813  1.00  0.00     0.080 A 
ATOM     27  F   UNL A   1      34.886  24.760  24.987  1.00  0.00    -0.205 F 
ATOM     28  C   UNL A   1      33.204  23.925  21.903  1.00  0.00     0.126 A 
ATOM     29  F   UNL A   1      32.843  24.527  20.762  1.00  0.00    -0.207 F 
ENDBRANCH  15  18
ENDBRANCH  13  15
BRANCH  14  30
ATOM     30  O   UNL A   1      33.251  25.697  26.939  1.00  0.00    -0.506 OA
ATOM     31  H   UNL A   1      34.002  26.257  26.937  1.00  0.00     0.293 HD
ENDBRANCH  14  30
ENDBRANCH   5   8
ENDBRANCH   3   4
ENDBRANCH   2   3
ENDBRANCH   1   2
BRANCH   1  32
ATOM     32  C   UNL A   1      35.397  32.098  28.012  1.00  0.00     0.002 C 
BRANCH  32  33
ATOM     33  C   UNL A   1      34.181  33.026  28.081  1.00  0.00     0.021 C 
BRANCH  33  34
ATOM     34  C   UNL A   1      34.501  34.470  28.461  1.00  0.00     0.116 C 
BRANCH  34  35
ATOM     35  N   UNL A   1      33.859  34.852  29.710  1.00  0.00    -0.352 N 
ATOM     36  C   UNL A   1      34.104  34.420  30.992  1.00  0.00     0.251 C 
ATOM     37  H   UNL A   1      33.142  35.523  29.624  1.00  0.00     0.163 HD
ATOM     38  O   UNL A   1      33.314  34.663  31.888  1.00  0.00    -0.269 OA
BRANCH  36  39
ATOM     39  C   UNL A   1      35.335  33.650  31.282  1.00  0.00     0.039 A 
ATOM     40  C   UNL A   1      35.224  32.415  31.927  1.00  0.00     0.014 A 
ATOM     41  C   UNL A   1      36.592  34.159  30.948  1.00  0.00     0.014 A 
ATOM     42  C   UNL A   1      36.374  31.666  32.187  1.00  0.00     0.010 A 
ATOM     43  C   UNL A   1      37.729  33.381  31.144  1.00  0.00     0.010 A 
ATOM     44  C   UNL A   1      37.632  32.130  31.770  1.00  0.00    -0.014 A 
BRANCH  44  45
ATOM     45  C   UNL A   1      38.858  31.321  31.982  1.00  0.00     0.031 A 
ATOM     46  C   UNL A   1      39.764  31.607  33.148  1.00  0.00     0.074 A 
ATOM     47  C   UNL A   1      39.188  30.367  31.090  1.00  0.00     0.049 A 
ATOM     48  N   UNL A   1      40.902  31.045  33.467  1.00  0.00    -0.248 NA
ATOM     49  C   UNL A   1      39.350  32.685  34.062  1.00  0.00     0.031 C 
ATOM     50  C   UNL A   1      38.415  30.019  29.896  1.00  0.00     0.029 A 
ATOM     51  N   UNL A   1      40.266  29.519  31.047  1.00  0.00    -0.354 N 
ATOM     52  C   UNL A   1      41.345  31.709  34.605  1.00  0.00     0.074 A 
ATOM     53  C   UNL A   1      40.381  32.749  34.890  1.00  0.00     0.031 C 
ATOM     54  C   UNL A   1      39.027  29.011  29.254  1.00  0.00     0.029 A 
ATOM     55  C   UNL A   1      40.256  28.672  29.965  1.00  0.00     0.049 A 
ATOM     56  H   UNL A   1      40.979  29.518  31.726  1.00  0.00     0.167 HD
ATOM     57  C   UNL A   1      42.445  31.464  35.356  1.00  0.00     0.031 A 
ATOM     58  C   UNL A   1      41.140  27.731  29.585  1.00  0.00     0.031 A 
ATOM     59  C   UNL A   1      43.400  30.425  35.075  1.00  0.00     0.049 A 
ATOM     60  C   UNL A   1      42.364  27.492  30.424  1.00  0.00     0.074 A 
ATOM     61  C   UNL A   1      44.517  30.059  35.806  1.00  0.00     0.029 A 
ATOM     62  N   UNL A   1      43.353  29.587  33.971  1.00  0.00    -0.354 N 
ATOM     63  N   UNL A   1      42.732  28.081  31.535  1.00  0.00    -0.248 NA
ATOM     64  C   UNL A   1      43.289  26.448  29.959  1.00  0.00     0.031 C 
ATOM     65  C   UNL A   1      45.177  29.039  35.115  1.00  0.00     0.029 A 
ATOM     66  C   UNL A   1      44.438  28.726  33.985  1.00  0.00     0.049 A 
ATOM     67  H   UNL A   1      42.653  29.603  33.279  1.00  0.00     0.167 HD
ATOM     68  C   UNL A   1      43.916  27.464  31.917  1.00  0.00     0.074 A 
ATOM     69  C   UNL A   1      44.194  26.442  30.928  1.00  0.00     0.031 C 
ATOM     70  C   UNL A   1      44.703  27.719  32.990  1.00  0.00     0.031 A 
BRANCH  57  71
ATOM     71  C   UNL A   1      42.678  32.346  36.552  1.00  0.00    -0.014 A 
ATOM     72  C   UNL A   1      42.146  32.023  37.811  1.00  0.00     0.009 A 
ATOM     73  C   UNL A   1      43.465  33.500  36.426  1.00  0.00     0.009 A 
ATOM     74  C   UNL A   1      42.364  32.860  38.908  1.00  0.00     0.001 A 
ATOM     75  C   UNL A   1      43.708  34.318  37.531  1.00  0.00     0.001 A 
ATOM     76  C   UNL A   1      43.148  34.003  38.767  1.00  0.00     0.000 A 
ENDBRANCH  57  71
BRANCH  58  77
ATOM     77  C   UNL A   1      40.895  26.933  28.355  1.00  0.00    -0.014 A 
ATOM     78  C   UNL A   1      41.428  27.340  27.122  1.00  0.00     0.009 A 
ATOM     79  C   UNL A   1      40.123  25.760  28.406  1.00  0.00     0.009 A 
ATOM     80  C   UNL A   1      41.172  26.607  25.962  1.00  0.00     0.001 A 
ATOM     81  C   UNL A   1      39.894  25.013  27.248  1.00  0.00     0.001 A 
ATOM     82  C   UNL A   1      40.408  25.442  26.026  1.00  0.00     0.000 A 
ENDBRANCH  58  77
BRANCH  70  83
ATOM     83  C   UNL A   1      45.923  26.859  33.168  1.00  0.00    -0.014 A 
ATOM     84  C   UNL A   1      47.168  27.242  32.643  1.00  0.00     0.009 A 
ATOM     85  C   UNL A   1      45.833  25.668  33.903  1.00  0.00     0.009 A 
ATOM     86  C   UNL A   1      48.289  26.430  32.824  1.00  0.00     0.001 A 
ATOM     87  C   UNL A   1      46.962  24.874  34.109  1.00  0.00     0.001 A 
ATOM     88  C   UNL A   1      48.187  25.250  33.561  1.00  0.00     0.000 A 
ENDBRANCH  70  83
ENDBRANCH  44  45
ENDBRANCH  36  39
ENDBRANCH  34  35
ENDBRANCH  33  34
ENDBRANCH  32  33
ENDBRANCH   1  32
TORSDOF 16
ENDMDL
MODEL 3
REMARK VINA RESULT:     -11.9      1.693      6.055
REMARK SMILES Cc1cc(C(=O)NCCCCCCNC(=O)c2ccc(-c3c4nc(c(-c5ccccc5)c5ccc([nH]5)c(-c5ccccc5)c5nc(c(-c6ccccc6)c6ccc3[nH]6)C=C5)C=C4)cc2)c(O)c(S(=O)(=O)N2CCCc3cc(F)cc(F)c32)c1
REMARK SMILES IDX 10 1 9 2 8 3 7 4 5 5 6 6 4 8 1 9 2 10 3 11 83 12 67 13 65 14
REMARK SMILES IDX 68 15 69 16 70 17 71 18 72 19 82 20 73 21 75 22 80 23 74 24
REMARK SMILES IDX 76 25 79 26 81 27 77 28 78 29 66 30 11 32 12 33 13 34 14 35
REMARK SMILES IDX 15 36 16 38 17 39 18 40 64 41 19 42 63 43 20 44 21 45 22 46
REMARK SMILES IDX 57 47 23 48 62 49 56 50 58 51 24 52 61 53 55 54 54 55 25 57
REMARK SMILES IDX 47 58 32 59 46 60 33 61 36 62 45 63 59 64 34 65 35 66 44 68
REMARK SMILES IDX 60 69 37 70 26 71 27 72 31 73 28 74 30 75 29 76 48 77 49 78
REMARK SMILES IDX 53 79 50 80 52 81 51 82 38 83 39 84 43 85 40 86 42 87 41 88
REMARK H PARENT 7 7 66 31 14 37 58 56 36 67
REMARK Flexibility Score: inf
ROOT
ATOM      1  C   UNL A   1      33.653  29.411  27.344  1.00  0.00     0.002 C 
ENDROOT
BRANCH   1   2
ATOM      2  C   UNL A   1      33.995  28.970  25.919  1.00  0.00     0.021 C 
BRANCH   2   3
ATOM      3  C   UNL A   1      33.025  29.491  24.845  1.00  0.00     0.116 C 
BRANCH   3   4
ATOM      4  N   UNL A   1      33.544  29.225  23.507  1.00  0.00    -0.352 N 
ATOM      5  C   UNL A   1      33.430  28.150  22.649  1.00  0.00     0.255 C 
ATOM      6  O   UNL A   1      34.024  28.228  21.571  1.00  0.00    -0.269 OA
ATOM      7  H   UNL A   1      34.086  29.961  23.144  1.00  0.00     0.163 HD
BRANCH   5   8
ATOM      8  C   UNL A   1      32.558  26.961  22.894  1.00  0.00     0.083 A 
ATOM      9  C   UNL A   1      28.938  26.419  23.887  1.00  0.00     0.044 C 
ATOM     10  C   UNL A   1      30.389  26.107  23.653  1.00  0.00    -0.049 A 
ATOM     11  C   UNL A   1      31.243  27.179  23.316  1.00  0.00     0.021 A 
ATOM     12  C   UNL A   1      30.914  24.806  23.767  1.00  0.00     0.029 A 
ATOM     13  C   UNL A   1      32.210  24.588  23.312  1.00  0.00     0.130 A 
ATOM     14  C   UNL A   1      32.936  25.642  22.712  1.00  0.00     0.148 A 
BRANCH  13  15
ATOM     15  S   UNL A   1      33.206  23.176  23.671  1.00  0.00     0.268 S 
ATOM     16  O   UNL A   1      32.893  22.281  22.566  1.00  0.00    -0.201 OA
ATOM     17  O   UNL A   1      34.554  23.696  23.796  1.00  0.00    -0.201 OA
BRANCH  15  18
ATOM     18  N   UNL A   1      32.836  22.284  25.132  1.00  0.00    -0.263 N 
ATOM     19  C   UNL A   1      31.916  21.120  24.995  1.00  0.00     0.136 C 
ATOM     20  C   UNL A   1      34.163  21.920  25.689  1.00  0.00     0.091 A 
ATOM     21  C   UNL A   1      32.606  19.751  24.990  1.00  0.00     0.028 C 
ATOM     22  C   UNL A   1      34.827  20.849  25.054  1.00  0.00    -0.018 A 
ATOM     23  C   UNL A   1      34.919  22.884  26.373  1.00  0.00     0.150 A 
ATOM     24  C   UNL A   1      34.012  19.766  24.398  1.00  0.00     0.040 C 
ATOM     25  C   UNL A   1      36.215  20.915  24.888  1.00  0.00     0.045 A 
ATOM     26  C   UNL A   1      36.305  22.902  26.273  1.00  0.00     0.080 A 
ATOM     27  F   UNL A   1      34.303  23.863  27.051  1.00  0.00    -0.205 F 
ATOM     28  C   UNL A   1      36.932  21.959  25.469  1.00  0.00     0.126 A 
ATOM     29  F   UNL A   1      38.244  22.072  25.221  1.00  0.00    -0.207 F 
ENDBRANCH  15  18
ENDBRANCH  13  15
BRANCH  14  30
ATOM     30  O   UNL A   1      33.964  25.401  21.839  1.00  0.00    -0.506 OA
ATOM     31  H   UNL A   1      34.661  26.022  21.753  1.00  0.00     0.293 HD
ENDBRANCH  14  30
ENDBRANCH   5   8
ENDBRANCH   3   4
ENDBRANCH   2   3
ENDBRANCH   1   2
BRANCH   1  32
ATOM     32  C   UNL A   1      34.389  30.666  27.822  1.00  0.00     0.002 C 
BRANCH  32  33
ATOM     33  C   UNL A   1      33.933  31.979  27.179  1.00  0.00     0.021 C 
BRANCH  33  34
ATOM     34  C   UNL A   1      32.573  32.484  27.655  1.00  0.00     0.116 C 
BRANCH  34  35
ATOM     35  N   UNL A   1      32.595  33.913  27.932  1.00  0.00    -0.352 N 
ATOM     36  C   UNL A   1      33.459  34.642  28.716  1.00  0.00     0.251 C 
ATOM     37  H   UNL A   1      31.887  34.436  27.491  1.00  0.00     0.163 HD
ATOM     38  O   UNL A   1      33.189  35.789  29.030  1.00  0.00    -0.269 OA
BRANCH  36  39
ATOM     39  C   UNL A   1      34.721  34.026  29.183  1.00  0.00     0.039 A 
ATOM     40  C   UNL A   1      34.703  33.245  30.343  1.00  0.00     0.014 A 
ATOM     41  C   UNL A   1      35.919  34.242  28.500  1.00  0.00     0.014 A 
ATOM     42  C   UNL A   1      35.881  32.638  30.785  1.00  0.00     0.010 A 
ATOM     43  C   UNL A   1      37.075  33.580  28.900  1.00  0.00     0.010 A 
ATOM     44  C   UNL A   1      37.069  32.776  30.050  1.00  0.00    -0.014 A 
BRANCH  44  45
ATOM     45  C   UNL A   1      38.316  32.089  30.469  1.00  0.00     0.031 A 
ATOM     46  C   UNL A   1      39.237  32.731  31.468  1.00  0.00     0.074 A 
ATOM     47  C   UNL A   1      38.649  30.912  29.904  1.00  0.00     0.049 A 
ATOM     48  N   UNL A   1      40.393  32.310  31.916  1.00  0.00    -0.248 NA
ATOM     49  C   UNL A   1      38.818  34.031  32.019  1.00  0.00     0.031 C 
ATOM     50  C   UNL A   1      37.860  30.205  28.893  1.00  0.00     0.029 A 
ATOM     51  N   UNL A   1      39.743  30.107  30.095  1.00  0.00    -0.354 N 
ATOM     52  C   UNL A   1      40.843  33.297  32.785  1.00  0.00     0.074 A 
ATOM     53  C   UNL A   1      39.863  34.360  32.762  1.00  0.00     0.031 C 
ATOM     54  C   UNL A   1      38.481  29.057  28.575  1.00  0.00     0.029 A 
ATOM     55  C   UNL A   1      39.731  28.969  29.325  1.00  0.00     0.049 A 
ATOM     56  H   UNL A   1      40.469  30.325  30.724  1.00  0.00     0.167 HD
ATOM     57  C   UNL A   1      41.963  33.309  33.547  1.00  0.00     0.031 A 
ATOM     58  C   UNL A   1      40.627  27.970  29.229  1.00  0.00     0.031 A 
ATOM     59  C   UNL A   1      42.934  32.248  33.574  1.00  0.00     0.049 A 
ATOM     60  C   UNL A   1      41.872  28.017  30.070  1.00  0.00     0.074 A 
ATOM     61  C   UNL A   1      44.072  32.140  34.354  1.00  0.00     0.029 A 
ATOM     62  N   UNL A   1      42.884  31.112  32.781  1.00  0.00    -0.354 N 
ATOM     63  N   UNL A   1      42.248  28.923  30.939  1.00  0.00    -0.248 NA
ATOM     64  C   UNL A   1      42.809  26.895  29.924  1.00  0.00     0.031 C 
ATOM     65  C   UNL A   1      44.741  30.966  33.992  1.00  0.00     0.029 A 
ATOM     66  C   UNL A   1      43.986  30.312  33.031  1.00  0.00     0.049 A 
ATOM     67  H   UNL A   1      42.170  30.905  32.135  1.00  0.00     0.167 HD
ATOM     68  C   UNL A   1      43.452  28.470  31.461  1.00  0.00     0.074 A 
ATOM     69  C   UNL A   1      43.733  27.198  30.826  1.00  0.00     0.031 C 
ATOM     70  C   UNL A   1      44.254  29.053  32.386  1.00  0.00     0.031 A 
BRANCH  57  71
ATOM     71  C   UNL A   1      42.199  34.519  34.410  1.00  0.00    -0.014 A 
ATOM     72  C   UNL A   1      42.897  35.637  33.925  1.00  0.00     0.009 A 
ATOM     73  C   UNL A   1      41.691  34.554  35.718  1.00  0.00     0.009 A 
ATOM     74  C   UNL A   1      43.115  36.746  34.744  1.00  0.00     0.001 A 
ATOM     75  C   UNL A   1      41.884  35.677  36.524  1.00  0.00     0.001 A 
ATOM     76  C   UNL A   1      42.605  36.767  36.041  1.00  0.00     0.000 A 
ENDBRANCH  57  71
BRANCH  58  77
ATOM     77  C   UNL A   1      40.375  26.830  28.309  1.00  0.00    -0.014 A 
ATOM     78  C   UNL A   1      40.905  26.832  27.009  1.00  0.00     0.009 A 
ATOM     79  C   UNL A   1      39.600  25.735  28.723  1.00  0.00     0.009 A 
ATOM     80  C   UNL A   1      40.643  25.775  26.135  1.00  0.00     0.001 A 
ATOM     81  C   UNL A   1      39.365  24.665  27.856  1.00  0.00     0.001 A 
ATOM     82  C   UNL A   1      39.876  24.691  26.560  1.00  0.00     0.000 A 
ENDBRANCH  58  77
BRANCH  70  83
ATOM     83  C   UNL A   1      45.496  28.307  32.787  1.00  0.00    -0.014 A 
ATOM     84  C   UNL A   1      46.726  28.542  32.153  1.00  0.00     0.009 A 
ATOM     85  C   UNL A   1      45.440  27.382  33.841  1.00  0.00     0.009 A 
ATOM     86  C   UNL A   1      47.867  27.840  32.546  1.00  0.00     0.001 A 
ATOM     87  C   UNL A   1      46.589  26.705  34.252  1.00  0.00     0.001 A 
ATOM     88  C   UNL A   1      47.799  26.927  33.598  1.00  0.00     0.000 A 
ENDBRANCH  70  83
ENDBRANCH  44  45
ENDBRANCH  36  39
ENDBRANCH  34  35
ENDBRANCH  33  34
ENDBRANCH  32  33
ENDBRANCH   1  32
TORSDOF 16
ENDMDL
