MODEL 1
REMARK VINA RESULT:     -10.3      0.000      0.000
REMARK SMILES O=C(CCNC(=O)C1CCCC1)NCCCCCCNC(=O)c1ccc(-c2c3nc(c(-c4ccccc4)c4ccc([nH]4)c(-c4ccccc4)c4nc(c(-c5ccccc5)c5ccc2[nH]5)C=C4)C=C3)cc1
REMARK SMILES IDX 16 1 15 2 14 3 13 4 1 5 2 6 3 8 4 9 5 10 6 11 7 13 8 14 9 15
REMARK SMILES IDX 12 16 10 17 11 18 17 19 18 20 19 21 20 22 21 23 22 25 23 26
REMARK SMILES IDX 24 27 70 28 25 29 69 30 26 31 27 32 28 33 63 34 29 35 68 36
REMARK SMILES IDX 62 37 64 38 30 39 67 40 61 41 60 42 31 44 53 45 38 46 52 47
REMARK SMILES IDX 39 48 42 49 51 50 65 51 40 52 41 53 50 55 66 56 43 57 32 58
REMARK SMILES IDX 33 59 37 60 34 61 36 62 35 63 54 64 55 65 59 66 56 67 58 68
REMARK SMILES IDX 57 69 44 70 45 71 49 72 46 73 48 74 47 75
REMARK H PARENT 13 7 5 12 20 24 64 43 42 54
REMARK Flexibility Score: inf
ROOT
ATOM      1  C   UNL A   1      36.517  21.625  25.155  1.00  0.00     0.002 C 
ENDROOT
BRANCH   1   2
ATOM      2  C   UNL A   1      36.799  22.419  23.872  1.00  0.00     0.021 C 
BRANCH   2   3
ATOM      3  C   UNL A   1      35.716  23.427  23.497  1.00  0.00     0.116 C 
BRANCH   3   4
ATOM      4  N   UNL A   1      34.403  22.820  23.520  1.00  0.00    -0.356 N 
ATOM      5  O   UNL A   1      33.548  23.921  21.692  1.00  0.00    -0.275 OA
ATOM      6  C   UNL A   1      33.423  23.111  22.602  1.00  0.00     0.221 C 
ATOM      7  H   UNL A   1      34.202  22.166  24.228  1.00  0.00     0.163 HD
BRANCH   6   8
ATOM      8  C   UNL A   1      32.154  22.315  22.808  1.00  0.00     0.121 C 
BRANCH   8   9
ATOM      9  C   UNL A   1      32.449  21.004  23.530  1.00  0.00     0.125 C 
BRANCH   9  10
ATOM     10  N   UNL A   1      32.081  19.843  22.728  1.00  0.00    -0.355 N 
ATOM     11  C   UNL A   1      32.458  18.540  22.783  1.00  0.00     0.223 C 
ATOM     12  H   UNL A   1      31.439  20.042  22.008  1.00  0.00     0.163 HD
ATOM     13  O   UNL A   1      32.089  17.815  21.855  1.00  0.00    -0.275 OA
BRANCH  11  14
ATOM     14  C   UNL A   1      33.254  17.956  23.941  1.00  0.00     0.078 C 
ATOM     15  C   UNL A   1      32.460  17.232  25.018  1.00  0.00     0.013 C 
ATOM     16  C   UNL A   1      34.331  16.972  23.490  1.00  0.00     0.013 C 
ATOM     17  C   UNL A   1      33.483  16.339  25.704  1.00  0.00     0.001 C 
ATOM     18  C   UNL A   1      34.537  16.008  24.653  1.00  0.00     0.001 C 
ENDBRANCH  11  14
ENDBRANCH   9  10
ENDBRANCH   8   9
ENDBRANCH   6   8
ENDBRANCH   3   4
ENDBRANCH   2   3
ENDBRANCH   1   2
BRANCH   1  19
ATOM     19  C   UNL A   1      36.399  20.108  24.975  1.00  0.00     0.002 C 
BRANCH  19  20
ATOM     20  C   UNL A   1      37.732  19.361  24.900  1.00  0.00     0.021 C 
BRANCH  20  21
ATOM     21  C   UNL A   1      38.875  20.014  25.667  1.00  0.00     0.116 C 
BRANCH  21  22
ATOM     22  N   UNL A   1      40.039  19.150  25.778  1.00  0.00    -0.352 N 
ATOM     23  C   UNL A   1      41.332  19.475  26.106  1.00  0.00     0.251 C 
ATOM     24  H   UNL A   1      39.877  18.197  25.591  1.00  0.00     0.163 HD
ATOM     25  O   UNL A   1      42.229  18.643  25.997  1.00  0.00    -0.269 OA
BRANCH  23  26
ATOM     26  C   UNL A   1      41.652  20.843  26.570  1.00  0.00     0.039 A 
ATOM     27  C   UNL A   1      41.494  21.151  27.924  1.00  0.00     0.014 A 
ATOM     28  C   UNL A   1      42.105  21.816  25.675  1.00  0.00     0.014 A 
ATOM     29  C   UNL A   1      41.848  22.419  28.390  1.00  0.00     0.010 A 
ATOM     30  C   UNL A   1      42.530  23.053  26.154  1.00  0.00     0.010 A 
ATOM     31  C   UNL A   1      42.400  23.370  27.516  1.00  0.00    -0.014 A 
BRANCH  31  32
ATOM     32  C   UNL A   1      42.833  24.705  28.003  1.00  0.00     0.031 A 
ATOM     33  C   UNL A   1      41.815  25.789  28.238  1.00  0.00     0.074 A 
ATOM     34  C   UNL A   1      44.144  24.961  28.186  1.00  0.00     0.049 A 
ATOM     35  N   UNL A   1      42.003  27.036  28.594  1.00  0.00    -0.248 NA
ATOM     36  C   UNL A   1      40.402  25.433  28.025  1.00  0.00     0.031 C 
ATOM     37  C   UNL A   1      45.235  24.009  27.965  1.00  0.00     0.029 A 
ATOM     38  N   UNL A   1      44.782  26.107  28.594  1.00  0.00    -0.354 N 
ATOM     39  C   UNL A   1      40.738  27.610  28.640  1.00  0.00     0.074 A 
ATOM     40  C   UNL A   1      39.797  26.596  28.218  1.00  0.00     0.031 C 
ATOM     41  C   UNL A   1      46.403  24.603  28.262  1.00  0.00     0.029 A 
ATOM     42  C   UNL A   1      46.150  25.986  28.649  1.00  0.00     0.049 A 
ATOM     43  H   UNL A   1      44.305  26.936  28.825  1.00  0.00     0.167 HD
ATOM     44  C   UNL A   1      40.387  28.861  29.021  1.00  0.00     0.031 A 
ATOM     45  C   UNL A   1      47.096  26.892  28.964  1.00  0.00     0.031 A 
ATOM     46  C   UNL A   1      41.319  29.869  29.446  1.00  0.00     0.049 A 
ATOM     47  C   UNL A   1      46.679  28.286  29.349  1.00  0.00     0.074 A 
ATOM     48  C   UNL A   1      41.056  31.158  29.880  1.00  0.00     0.029 A 
ATOM     49  N   UNL A   1      42.695  29.704  29.493  1.00  0.00    -0.354 N 
ATOM     50  N   UNL A   1      45.474  28.794  29.439  1.00  0.00    -0.248 NA
ATOM     51  C   UNL A   1      47.755  29.227  29.690  1.00  0.00     0.031 C 
ATOM     52  C   UNL A   1      42.276  31.788  30.142  1.00  0.00     0.029 A 
ATOM     53  C   UNL A   1      43.294  30.871  29.933  1.00  0.00     0.049 A 
ATOM     54  H   UNL A   1      43.174  28.879  29.249  1.00  0.00     0.167 HD
ATOM     55  C   UNL A   1      45.646  30.100  29.881  1.00  0.00     0.074 A 
ATOM     56  C   UNL A   1      47.069  30.299  30.060  1.00  0.00     0.031 C 
ATOM     57  C   UNL A   1      44.709  31.050  30.120  1.00  0.00     0.031 A 
BRANCH  44  58
ATOM     58  C   UNL A   1      38.924  29.209  29.005  1.00  0.00    -0.014 A 
ATOM     59  C   UNL A   1      38.303  29.668  27.833  1.00  0.00     0.009 A 
ATOM     60  C   UNL A   1      38.144  29.019  30.157  1.00  0.00     0.009 A 
ATOM     61  C   UNL A   1      36.937  29.956  27.821  1.00  0.00     0.001 A 
ATOM     62  C   UNL A   1      36.772  29.278  30.134  1.00  0.00     0.001 A 
ATOM     63  C   UNL A   1      36.172  29.753  28.969  1.00  0.00     0.000 A 
ENDBRANCH  44  58
BRANCH  45  64
ATOM     64  C   UNL A   1      48.538  26.523  28.926  1.00  0.00    -0.014 A 
ATOM     65  C   UNL A   1      49.184  26.036  30.073  1.00  0.00     0.009 A 
ATOM     66  C   UNL A   1      49.288  26.703  27.753  1.00  0.00     0.009 A 
ATOM     67  C   UNL A   1      50.558  25.781  30.059  1.00  0.00     0.001 A 
ATOM     68  C   UNL A   1      50.654  26.412  27.732  1.00  0.00     0.001 A 
ATOM     69  C   UNL A   1      51.291  25.967  28.889  1.00  0.00     0.000 A 
ENDBRANCH  45  64
BRANCH  57  70
ATOM     70  C   UNL A   1      45.187  32.372  30.654  1.00  0.00    -0.014 A 
ATOM     71  C   UNL A   1      45.363  32.589  32.029  1.00  0.00     0.009 A 
ATOM     72  C   UNL A   1      45.507  33.404  29.756  1.00  0.00     0.009 A 
ATOM     73  C   UNL A   1      45.811  33.827  32.495  1.00  0.00     0.001 A 
ATOM     74  C   UNL A   1      45.987  34.627  30.224  1.00  0.00     0.001 A 
ATOM     75  C   UNL A   1      46.129  34.842  31.593  1.00  0.00     0.000 A 
ENDBRANCH  57  70
ENDBRANCH  31  32
ENDBRANCH  23  26
ENDBRANCH  21  22
ENDBRANCH  20  21
ENDBRANCH  19  20
ENDBRANCH   1  19
TORSDOF 16
ENDMDL
MODEL 2
REMARK VINA RESULT:     -10.1      0.451      6.146
REMARK SMILES O=C(CCNC(=O)C1CCCC1)NCCCCCCNC(=O)c1ccc(-c2c3nc(c(-c4ccccc4)c4ccc([nH]4)c(-c4ccccc4)c4nc(c(-c5ccccc5)c5ccc2[nH]5)C=C4)C=C3)cc1
REMARK SMILES IDX 16 1 15 2 14 3 13 4 1 5 2 6 3 8 4 9 5 10 6 11 7 13 8 14 9 15
REMARK SMILES IDX 12 16 10 17 11 18 17 19 18 20 19 21 20 22 21 23 22 25 23 26
REMARK SMILES IDX 24 27 70 28 25 29 69 30 26 31 27 32 28 33 63 34 29 35 68 36
REMARK SMILES IDX 62 37 64 38 30 39 67 40 61 41 60 42 31 44 53 45 38 46 52 47
REMARK SMILES IDX 39 48 42 49 51 50 65 51 40 52 41 53 50 55 66 56 43 57 32 58
REMARK SMILES IDX 33 59 37 60 34 61 36 62 35 63 54 64 55 65 59 66 56 67 58 68
REMARK SMILES IDX 57 69 44 70 45 71 49 72 46 73 48 74 47 75
REMARK H PARENT 13 7 5 12 20 24 64 43 42 54
REMARK Flexibility Score: inf
ROOT
ATOM      1  C   UNL A   1      36.459  21.518  25.139  1.00  0.00     0.002 C 
ENDROOT
BRANCH   1   2
ATOM      2  C   UNL A   1      36.887  22.371  23.936  1.00  0.00     0.021 C 
BRANCH   2   3
ATOM      3  C   UNL A   1      35.834  23.368  23.457  1.00  0.00     0.116 C 
BRANCH   3   4
ATOM      4  N   UNL A   1      34.497  22.841  23.624  1.00  0.00    -0.356 N 
ATOM      5  O   UNL A   1      33.629  23.637  21.651  1.00  0.00    -0.275 OA
ATOM      6  C   UNL A   1      33.499  23.011  22.695  1.00  0.00     0.221 C 
ATOM      7  H   UNL A   1      34.292  22.336  24.444  1.00  0.00     0.163 HD
BRANCH   6   8
ATOM      8  C   UNL A   1      32.205  22.330  23.076  1.00  0.00     0.121 C 
BRANCH   8   9
ATOM      9  C   UNL A   1      32.477  20.999  23.770  1.00  0.00     0.125 C 
BRANCH   9  10
ATOM     10  N   UNL A   1      32.177  19.861  22.910  1.00  0.00    -0.355 N 
ATOM     11  C   UNL A   1      32.555  18.558  22.957  1.00  0.00     0.223 C 
ATOM     12  H   UNL A   1      31.590  20.079  22.149  1.00  0.00     0.163 HD
ATOM     13  O   UNL A   1      32.261  17.859  21.982  1.00  0.00    -0.275 OA
BRANCH  11  14
ATOM     14  C   UNL A   1      33.263  17.943  24.154  1.00  0.00     0.078 C 
ATOM     15  C   UNL A   1      32.438  17.009  25.029  1.00  0.00     0.013 C 
ATOM     16  C   UNL A   1      34.511  17.152  23.770  1.00  0.00     0.013 C 
ATOM     17  C   UNL A   1      33.473  16.172  25.765  1.00  0.00     0.001 C 
ATOM     18  C   UNL A   1      34.690  16.091  24.851  1.00  0.00     0.001 C 
ENDBRANCH  11  14
ENDBRANCH   9  10
ENDBRANCH   8   9
ENDBRANCH   6   8
ENDBRANCH   3   4
ENDBRANCH   2   3
ENDBRANCH   1   2
BRANCH   1  19
ATOM     19  C   UNL A   1      36.427  20.006  24.892  1.00  0.00     0.002 C 
BRANCH  19  20
ATOM     20  C   UNL A   1      37.799  19.331  24.848  1.00  0.00     0.021 C 
BRANCH  20  21
ATOM     21  C   UNL A   1      38.869  20.000  25.702  1.00  0.00     0.116 C 
BRANCH  21  22
ATOM     22  N   UNL A   1      40.084  19.206  25.800  1.00  0.00    -0.352 N 
ATOM     23  C   UNL A   1      41.357  19.606  26.121  1.00  0.00     0.251 C 
ATOM     24  H   UNL A   1      39.977  18.246  25.610  1.00  0.00     0.163 HD
ATOM     25  O   UNL A   1      42.301  18.829  26.002  1.00  0.00    -0.269 OA
BRANCH  23  26
ATOM     26  C   UNL A   1      41.599  20.987  26.589  1.00  0.00     0.039 A 
ATOM     27  C   UNL A   1      41.416  21.284  27.943  1.00  0.00     0.014 A 
ATOM     28  C   UNL A   1      42.004  21.986  25.700  1.00  0.00     0.014 A 
ATOM     29  C   UNL A   1      41.697  22.568  28.413  1.00  0.00     0.010 A 
ATOM     30  C   UNL A   1      42.357  23.244  26.184  1.00  0.00     0.010 A 
ATOM     31  C   UNL A   1      42.201  23.550  27.545  1.00  0.00    -0.014 A 
BRANCH  31  32
ATOM     32  C   UNL A   1      42.557  24.906  28.037  1.00  0.00     0.031 A 
ATOM     33  C   UNL A   1      43.986  25.233  28.377  1.00  0.00     0.074 A 
ATOM     34  C   UNL A   1      41.591  25.827  28.228  1.00  0.00     0.049 A 
ATOM     35  N   UNL A   1      44.484  26.334  28.885  1.00  0.00    -0.248 NA
ATOM     36  C   UNL A   1      44.987  24.180  28.135  1.00  0.00     0.031 C 
ATOM     37  C   UNL A   1      40.163  25.628  27.968  1.00  0.00     0.029 A 
ATOM     38  N   UNL A   1      41.666  27.116  28.695  1.00  0.00    -0.354 N 
ATOM     39  C   UNL A   1      45.846  26.102  29.028  1.00  0.00     0.074 A 
ATOM     40  C   UNL A   1      46.090  24.739  28.612  1.00  0.00     0.031 C 
ATOM     41  C   UNL A   1      39.502  26.762  28.256  1.00  0.00     0.029 A 
ATOM     42  C   UNL A   1      40.448  27.750  28.762  1.00  0.00     0.049 A 
ATOM     43  H   UNL A   1      42.512  27.547  28.955  1.00  0.00     0.167 HD
ATOM     44  C   UNL A   1      46.813  26.953  29.445  1.00  0.00     0.031 A 
ATOM     45  C   UNL A   1      40.127  28.984  29.197  1.00  0.00     0.031 A 
ATOM     46  C   UNL A   1      46.575  28.310  29.855  1.00  0.00     0.049 A 
ATOM     47  C   UNL A   1      41.218  29.896  29.690  1.00  0.00     0.074 A 
ATOM     48  C   UNL A   1      47.495  29.260  30.266  1.00  0.00     0.029 A 
ATOM     49  N   UNL A   1      45.328  28.914  29.904  1.00  0.00    -0.354 N 
ATOM     50  N   UNL A   1      42.508  29.677  29.767  1.00  0.00    -0.248 NA
ATOM     51  C   UNL A   1      40.808  31.233  30.143  1.00  0.00     0.031 C 
ATOM     52  C   UNL A   1      46.800  30.422  30.611  1.00  0.00     0.029 A 
ATOM     53  C   UNL A   1      45.454  30.217  30.353  1.00  0.00     0.049 A 
ATOM     54  H   UNL A   1      44.480  28.480  29.656  1.00  0.00     0.167 HD
ATOM     55  C   UNL A   1      43.065  30.858  30.241  1.00  0.00     0.074 A 
ATOM     56  C   UNL A   1      41.976  31.796  30.416  1.00  0.00     0.031 C 
ATOM     57  C   UNL A   1      44.363  31.143  30.508  1.00  0.00     0.031 A 
BRANCH  44  58
ATOM     58  C   UNL A   1      48.227  26.441  29.473  1.00  0.00    -0.014 A 
ATOM     59  C   UNL A   1      48.723  25.746  30.587  1.00  0.00     0.009 A 
ATOM     60  C   UNL A   1      49.054  26.602  28.350  1.00  0.00     0.009 A 
ATOM     61  C   UNL A   1      50.027  25.247  30.587  1.00  0.00     0.001 A 
ATOM     62  C   UNL A   1      50.346  26.074  28.340  1.00  0.00     0.001 A 
ATOM     63  C   UNL A   1      50.834  25.404  29.461  1.00  0.00     0.000 A 
ENDBRANCH  44  58
BRANCH  45  64
ATOM     64  C   UNL A   1      38.710  29.440  29.197  1.00  0.00    -0.014 A 
ATOM     65  C   UNL A   1      37.873  29.179  30.294  1.00  0.00     0.009 A 
ATOM     66  C   UNL A   1      38.173  30.097  28.079  1.00  0.00     0.009 A 
ATOM     67  C   UNL A   1      36.520  29.525  30.252  1.00  0.00     0.001 A 
ATOM     68  C   UNL A   1      36.828  30.475  28.055  1.00  0.00     0.001 A 
ATOM     69  C   UNL A   1      35.999  30.174  29.134  1.00  0.00     0.000 A 
ENDBRANCH  45  64
BRANCH  57  70
ATOM     70  C   UNL A   1      44.685  32.539  30.961  1.00  0.00    -0.014 A 
ATOM     71  C   UNL A   1      44.905  33.578  30.044  1.00  0.00     0.009 A 
ATOM     72  C   UNL A   1      44.726  32.826  32.335  1.00  0.00     0.009 A 
ATOM     73  C   UNL A   1      45.199  34.866  30.495  1.00  0.00     0.001 A 
ATOM     74  C   UNL A   1      44.986  34.122  32.782  1.00  0.00     0.001 A 
ATOM     75  C   UNL A   1      45.233  35.139  31.862  1.00  0.00     0.000 A 
ENDBRANCH  57  70
ENDBRANCH  31  32
ENDBRANCH  23  26
ENDBRANCH  21  22
ENDBRANCH  20  21
ENDBRANCH  19  20
ENDBRANCH   1  19
TORSDOF 16
ENDMDL
MODEL 3
REMARK VINA RESULT:     -10.0      3.407      8.324
REMARK SMILES O=C(CCNC(=O)C1CCCC1)NCCCCCCNC(=O)c1ccc(-c2c3nc(c(-c4ccccc4)c4ccc([nH]4)c(-c4ccccc4)c4nc(c(-c5ccccc5)c5ccc2[nH]5)C=C4)C=C3)cc1
REMARK SMILES IDX 16 1 15 2 14 3 13 4 1 5 2 6 3 8 4 9 5 10 6 11 7 13 8 14 9 15
REMARK SMILES IDX 12 16 10 17 11 18 17 19 18 20 19 21 20 22 21 23 22 25 23 26
REMARK SMILES IDX 24 27 70 28 25 29 69 30 26 31 27 32 28 33 63 34 29 35 68 36
REMARK SMILES IDX 62 37 64 38 30 39 67 40 61 41 60 42 31 44 53 45 38 46 52 47
REMARK SMILES IDX 39 48 42 49 51 50 65 51 40 52 41 53 50 55 66 56 43 57 32 58
REMARK SMILES IDX 33 59 37 60 34 61 36 62 35 63 54 64 55 65 59 66 56 67 58 68
REMARK SMILES IDX 57 69 44 70 45 71 49 72 46 73 48 74 47 75
REMARK H PARENT 13 7 5 12 20 24 64 43 42 54
REMARK Flexibility Score: inf
ROOT
ATOM      1  C   UNL A   1      34.473  21.689  27.198  1.00  0.00     0.002 C 
ENDROOT
BRANCH   1   2
ATOM      2  C   UNL A   1      33.254  22.572  27.501  1.00  0.00     0.021 C 
BRANCH   2   3
ATOM      3  C   UNL A   1      32.135  22.487  26.466  1.00  0.00     0.116 C 
BRANCH   3   4
ATOM      4  N   UNL A   1      31.651  23.802  26.106  1.00  0.00    -0.356 N 
ATOM      5  O   UNL A   1      29.649  23.687  27.230  1.00  0.00    -0.275 OA
ATOM      6  C   UNL A   1      30.443  24.303  26.530  1.00  0.00     0.221 C 
ATOM      7  H   UNL A   1      32.214  24.366  25.529  1.00  0.00     0.163 HD
BRANCH   6   8
ATOM      8  C   UNL A   1      30.182  25.715  26.059  1.00  0.00     0.121 C 
BRANCH   8   9
ATOM      9  C   UNL A   1      31.157  26.106  24.953  1.00  0.00     0.125 C 
BRANCH   9  10
ATOM     10  N   UNL A   1      30.967  27.485  24.519  1.00  0.00    -0.355 N 
ATOM     11  C   UNL A   1      31.381  28.669  25.038  1.00  0.00     0.223 C 
ATOM     12  H   UNL A   1      30.439  27.575  23.692  1.00  0.00     0.163 HD
ATOM     13  O   UNL A   1      30.922  29.692  24.521  1.00  0.00    -0.275 OA
BRANCH  11  14
ATOM     14  C   UNL A   1      32.394  28.770  26.168  1.00  0.00     0.078 C 
ATOM     15  C   UNL A   1      33.854  28.558  25.795  1.00  0.00     0.013 C 
ATOM     16  C   UNL A   1      32.345  30.111  26.897  1.00  0.00     0.013 C 
ATOM     17  C   UNL A   1      34.630  29.219  26.924  1.00  0.00     0.001 C 
ATOM     18  C   UNL A   1      33.745  30.341  27.455  1.00  0.00     0.001 C 
ENDBRANCH  11  14
ENDBRANCH   9  10
ENDBRANCH   8   9
ENDBRANCH   6   8
ENDBRANCH   3   4
ENDBRANCH   2   3
ENDBRANCH   1   2
BRANCH   1  19
ATOM     19  C   UNL A   1      35.276  22.084  25.955  1.00  0.00     0.002 C 
BRANCH  19  20
ATOM     20  C   UNL A   1      35.945  23.458  26.027  1.00  0.00     0.021 C 
BRANCH  20  21
ATOM     21  C   UNL A   1      37.170  23.620  25.134  1.00  0.00     0.116 C 
BRANCH  21  22
ATOM     22  N   UNL A   1      38.233  22.687  25.471  1.00  0.00    -0.352 N 
ATOM     23  C   UNL A   1      39.399  22.913  26.159  1.00  0.00     0.251 C 
ATOM     24  H   UNL A   1      38.097  21.762  25.161  1.00  0.00     0.163 HD
ATOM     25  O   UNL A   1      40.265  22.044  26.217  1.00  0.00    -0.269 OA
BRANCH  23  26
ATOM     26  C   UNL A   1      39.625  24.220  26.814  1.00  0.00     0.039 A 
ATOM     27  C   UNL A   1      39.137  24.420  28.108  1.00  0.00     0.014 A 
ATOM     28  C   UNL A   1      40.316  25.242  26.158  1.00  0.00     0.014 A 
ATOM     29  C   UNL A   1      39.392  25.625  28.765  1.00  0.00     0.010 A 
ATOM     30  C   UNL A   1      40.636  26.412  26.842  1.00  0.00     0.010 A 
ATOM     31  C   UNL A   1      40.172  26.619  28.151  1.00  0.00    -0.014 A 
BRANCH  31  32
ATOM     32  C   UNL A   1      40.501  27.886  28.854  1.00  0.00     0.031 A 
ATOM     33  C   UNL A   1      41.829  28.043  29.544  1.00  0.00     0.074 A 
ATOM     34  C   UNL A   1      39.587  28.877  28.917  1.00  0.00     0.049 A 
ATOM     35  N   UNL A   1      42.272  29.042  30.267  1.00  0.00    -0.248 NA
ATOM     36  C   UNL A   1      42.777  26.923  29.426  1.00  0.00     0.031 C 
ATOM     37  C   UNL A   1      38.251  28.840  28.317  1.00  0.00     0.029 A 
ATOM     38  N   UNL A   1      39.645  30.107  29.523  1.00  0.00    -0.354 N 
ATOM     39  C   UNL A   1      43.540  28.667  30.692  1.00  0.00     0.074 A 
ATOM     40  C   UNL A   1      43.775  27.328  30.198  1.00  0.00     0.031 C 
ATOM     41  C   UNL A   1      37.627  30.003  28.566  1.00  0.00     0.029 A 
ATOM     42  C   UNL A   1      38.496  30.847  29.379  1.00  0.00     0.049 A 
ATOM     43  H   UNL A   1      40.435  30.429  30.015  1.00  0.00     0.167 HD
ATOM     44  C   UNL A   1      44.441  29.381  31.408  1.00  0.00     0.031 A 
ATOM     45  C   UNL A   1      38.173  32.064  29.858  1.00  0.00     0.031 A 
ATOM     46  C   UNL A   1      44.214  30.714  31.896  1.00  0.00     0.049 A 
ATOM     47  C   UNL A   1      39.181  32.820  30.682  1.00  0.00     0.074 A 
ATOM     48  C   UNL A   1      45.079  31.530  32.605  1.00  0.00     0.029 A 
ATOM     49  N   UNL A   1      43.040  31.429  31.722  1.00  0.00    -0.354 N 
ATOM     50  N   UNL A   1      40.396  32.471  31.028  1.00  0.00    -0.248 NA
ATOM     51  C   UNL A   1      38.775  34.145  31.171  1.00  0.00     0.031 C 
ATOM     52  C   UNL A   1      44.409  32.720  32.905  1.00  0.00     0.029 A 
ATOM     53  C   UNL A   1      43.151  32.670  32.325  1.00  0.00     0.049 A 
ATOM     54  H   UNL A   1      42.244  31.102  31.242  1.00  0.00     0.167 HD
ATOM     55  C   UNL A   1      40.911  33.547  31.740  1.00  0.00     0.074 A 
ATOM     56  C   UNL A   1      39.884  34.567  31.761  1.00  0.00     0.031 C 
ATOM     57  C   UNL A   1      42.126  33.680  32.326  1.00  0.00     0.031 A 
BRANCH  44  58
ATOM     58  C   UNL A   1      45.767  28.734  31.702  1.00  0.00    -0.014 A 
ATOM     59  C   UNL A   1      45.949  27.950  32.852  1.00  0.00     0.009 A 
ATOM     60  C   UNL A   1      46.827  28.859  30.790  1.00  0.00     0.009 A 
ATOM     61  C   UNL A   1      47.175  27.327  33.097  1.00  0.00     0.001 A 
ATOM     62  C   UNL A   1      48.041  28.209  31.022  1.00  0.00     0.001 A 
ATOM     63  C   UNL A   1      48.216  27.451  32.178  1.00  0.00     0.000 A 
ENDBRANCH  44  58
BRANCH  45  64
ATOM     64  C   UNL A   1      36.834  32.654  29.584  1.00  0.00    -0.014 A 
ATOM     65  C   UNL A   1      35.800  32.555  30.529  1.00  0.00     0.009 A 
ATOM     66  C   UNL A   1      36.568  33.276  28.354  1.00  0.00     0.009 A 
ATOM     67  C   UNL A   1      34.519  33.026  30.230  1.00  0.00     0.001 A 
ATOM     68  C   UNL A   1      35.296  33.779  28.073  1.00  0.00     0.001 A 
ATOM     69  C   UNL A   1      34.268  33.639  29.004  1.00  0.00     0.000 A 
ENDBRANCH  45  64
BRANCH  57  70
ATOM     70  C   UNL A   1      42.434  34.994  32.988  1.00  0.00    -0.014 A 
ATOM     71  C   UNL A   1      43.191  35.983  32.342  1.00  0.00     0.009 A 
ATOM     72  C   UNL A   1      41.918  35.259  34.267  1.00  0.00     0.009 A 
ATOM     73  C   UNL A   1      43.458  37.196  32.981  1.00  0.00     0.001 A 
ATOM     74  C   UNL A   1      42.158  36.485  34.888  1.00  0.00     0.001 A 
ATOM     75  C   UNL A   1      42.936  37.448  34.250  1.00  0.00     0.000 A 
ENDBRANCH  57  70
ENDBRANCH  31  32
ENDBRANCH  23  26
ENDBRANCH  21  22
ENDBRANCH  20  21
ENDBRANCH  19  20
ENDBRANCH   1  19
TORSDOF 16
ENDMDL
