MODEL 1
REMARK VINA RESULT:     -11.1      0.000      0.000
REMARK SMILES Cc1cccc(CS[C@@H]2CC[C@]([NH3+])(C(=O)NCCCCCCNC(=O)c3ccc(-c4c5nc(c(-c6ccccc6)c6ccc([nH]6)c(-c6ccccc6)c6nc(c(-c7ccccc7)c7ccc4[nH]7)C=C6)C=C5)cc3)C2)c1
REMARK SMILES IDX 19 1 18 2 17 3 16 4 14 5 15 6 12 8 9 9 10 10 74 11 11 12
REMARK SMILES IDX 8 13 7 14 6 15 1 16 2 17 3 18 75 19 4 20 5 21 13 22 20 26
REMARK SMILES IDX 21 27 22 28 23 29 24 30 25 32 26 33 27 34 73 35 28 36 72 37
REMARK SMILES IDX 29 38 30 39 31 40 66 41 32 42 71 43 65 44 67 45 33 46 70 47
REMARK SMILES IDX 64 48 63 49 34 51 56 52 41 53 55 54 42 55 45 56 54 57 68 58
REMARK SMILES IDX 43 59 44 60 53 62 69 63 46 64 35 65 36 66 40 67 37 68 39 69
REMARK SMILES IDX 38 70 57 71 58 72 62 73 59 74 61 75 60 76 47 77 48 78 52 79
REMARK SMILES IDX 49 80 51 81 50 82
REMARK H PARENT 16 7 13 23 13 24 13 25 23 31 67 50 45 61
REMARK Flexibility Score: inf
ROOT
ATOM      1  C   UNL A   1      34.499  33.354  28.056  1.00  0.00     0.002 C 
ENDROOT
BRANCH   1   2
ATOM      2  C   UNL A   1      34.370  31.838  28.240  1.00  0.00     0.021 C 
BRANCH   2   3
ATOM      3  C   UNL A   1      33.675  31.044  27.138  1.00  0.00     0.116 C 
BRANCH   3   4
ATOM      4  N   UNL A   1      32.838  29.965  27.609  1.00  0.00    -0.351 N 
ATOM      5  C   UNL A   1      32.121  29.067  26.864  1.00  0.00     0.281 C 
ATOM      6  O   UNL A   1      31.556  28.152  27.471  1.00  0.00    -0.268 OA
ATOM      7  H   UNL A   1      32.774  29.862  28.586  1.00  0.00     0.163 HD
BRANCH   5   8
ATOM      8  C   UNL A   1      31.967  29.242  25.320  1.00  0.00     0.175 C 
ATOM      9  C   UNL A   1      31.705  28.043  23.211  1.00  0.00     0.054 C 
ATOM     10  C   UNL A   1      32.994  28.863  23.131  1.00  0.00     0.022 C 
ATOM     11  C   UNL A   1      31.322  27.985  24.691  1.00  0.00     0.093 C 
ATOM     12  C   UNL A   1      33.299  29.304  24.562  1.00  0.00     0.080 C 
BRANCH   9  13
ATOM     13  S   UNL A   1      31.724  26.475  22.269  1.00  0.00    -0.154 SA
BRANCH  13  14
ATOM     14  C   UNL A   1      33.445  25.884  22.413  1.00  0.00     0.105 C 
BRANCH  14  15
ATOM     15  C   UNL A   1      33.695  24.856  23.485  1.00  0.00    -0.038 A 
ATOM     16  C   UNL A   1      33.082  21.132  24.072  1.00  0.00     0.044 C 
ATOM     17  C   UNL A   1      33.523  22.551  24.276  1.00  0.00    -0.051 A 
ATOM     18  C   UNL A   1      34.143  22.925  25.474  1.00  0.00     0.003 A 
ATOM     19  C   UNL A   1      33.309  23.520  23.286  1.00  0.00     0.008 A 
ATOM     20  C   UNL A   1      34.558  24.240  25.671  1.00  0.00     0.001 A 
ATOM     21  C   UNL A   1      34.347  25.198  24.680  1.00  0.00     0.004 A 
ENDBRANCH  14  15
ENDBRANCH  13  14
ENDBRANCH   9  13
BRANCH   8  22
ATOM     22  N   UNL A   1      31.144  30.443  25.053  1.00  0.00    -0.345 N 
ATOM     23  H   UNL A   1      31.052  30.575  24.045  1.00  0.00     0.345 HD
ATOM     24  H   UNL A   1      31.592  31.262  25.463  1.00  0.00     0.345 HD
ATOM     25  H   UNL A   1      30.218  30.320  25.464  1.00  0.00     0.345 HD
ENDBRANCH   8  22
ENDBRANCH   5   8
ENDBRANCH   3   4
ENDBRANCH   2   3
ENDBRANCH   1   2
BRANCH   1  26
ATOM     26  C   UNL A   1      33.256  34.222  28.284  1.00  0.00     0.002 C 
BRANCH  26  27
ATOM     27  C   UNL A   1      33.405  35.449  29.182  1.00  0.00     0.021 C 
BRANCH  27  28
ATOM     28  C   UNL A   1      32.785  35.341  30.565  1.00  0.00     0.116 C 
BRANCH  28  29
ATOM     29  N   UNL A   1      33.590  35.875  31.654  1.00  0.00    -0.352 N 
ATOM     30  C   UNL A   1      34.710  35.332  32.269  1.00  0.00     0.251 C 
ATOM     31  H   UNL A   1      33.298  36.747  32.005  1.00  0.00     0.163 HD
ATOM     32  O   UNL A   1      35.228  35.907  33.213  1.00  0.00    -0.269 OA
BRANCH  30  33
ATOM     33  C   UNL A   1      35.364  34.129  31.686  1.00  0.00     0.039 A 
ATOM     34  C   UNL A   1      35.280  32.927  32.402  1.00  0.00     0.014 A 
ATOM     35  C   UNL A   1      36.226  34.227  30.600  1.00  0.00     0.014 A 
ATOM     36  C   UNL A   1      36.247  31.945  32.206  1.00  0.00     0.010 A 
ATOM     37  C   UNL A   1      37.257  33.320  30.493  1.00  0.00     0.010 A 
ATOM     38  C   UNL A   1      37.305  32.212  31.343  1.00  0.00    -0.014 A 
BRANCH  38  39
ATOM     39  C   UNL A   1      38.567  31.485  31.351  1.00  0.00     0.031 A 
ATOM     40  C   UNL A   1      38.701  30.199  30.640  1.00  0.00     0.074 A 
ATOM     41  C   UNL A   1      39.657  32.078  31.884  1.00  0.00     0.049 A 
ATOM     42  N   UNL A   1      39.662  29.361  30.831  1.00  0.00    -0.248 NA
ATOM     43  C   UNL A   1      37.708  29.722  29.682  1.00  0.00     0.031 C 
ATOM     44  C   UNL A   1      41.060  31.737  31.663  1.00  0.00     0.029 A 
ATOM     45  N   UNL A   1      39.692  33.010  32.916  1.00  0.00    -0.354 N 
ATOM     46  C   UNL A   1      39.596  28.422  29.828  1.00  0.00     0.074 A 
ATOM     47  C   UNL A   1      38.308  28.627  29.209  1.00  0.00     0.031 C 
ATOM     48  C   UNL A   1      41.798  32.259  32.655  1.00  0.00     0.029 A 
ATOM     49  C   UNL A   1      40.876  32.801  33.639  1.00  0.00     0.049 A 
ATOM     50  H   UNL A   1      39.008  33.692  33.106  1.00  0.00     0.167 HD
ATOM     51  C   UNL A   1      40.704  27.682  29.539  1.00  0.00     0.031 A 
ATOM     52  C   UNL A   1      40.837  32.412  34.948  1.00  0.00     0.031 A 
ATOM     53  C   UNL A   1      41.772  27.905  30.514  1.00  0.00     0.049 A 
ATOM     54  C   UNL A   1      41.465  31.057  35.201  1.00  0.00     0.074 A 
ATOM     55  C   UNL A   1      42.949  28.635  30.481  1.00  0.00     0.029 A 
ATOM     56  N   UNL A   1      41.555  27.570  31.847  1.00  0.00    -0.354 N 
ATOM     57  N   UNL A   1      41.678  30.162  34.277  1.00  0.00    -0.248 NA
ATOM     58  C   UNL A   1      41.870  30.594  36.527  1.00  0.00     0.031 C 
ATOM     59  C   UNL A   1      43.408  28.789  31.817  1.00  0.00     0.029 A 
ATOM     60  C   UNL A   1      42.525  28.131  32.654  1.00  0.00     0.049 A 
ATOM     61  H   UNL A   1      40.814  27.009  32.170  1.00  0.00     0.167 HD
ATOM     62  C   UNL A   1      42.213  29.033  34.842  1.00  0.00     0.074 A 
ATOM     63  C   UNL A   1      42.327  29.360  36.251  1.00  0.00     0.031 C 
ATOM     64  C   UNL A   1      42.497  27.923  34.098  1.00  0.00     0.031 A 
BRANCH  51  65
ATOM     65  C   UNL A   1      40.921  26.974  28.218  1.00  0.00    -0.014 A 
ATOM     66  C   UNL A   1      41.479  27.683  27.136  1.00  0.00     0.009 A 
ATOM     67  C   UNL A   1      40.537  25.651  27.939  1.00  0.00     0.009 A 
ATOM     68  C   UNL A   1      41.563  27.137  25.847  1.00  0.00     0.001 A 
ATOM     69  C   UNL A   1      40.592  25.105  26.649  1.00  0.00     0.001 A 
ATOM     70  C   UNL A   1      41.096  25.855  25.597  1.00  0.00     0.000 A 
ENDBRANCH  51  65
BRANCH  52  71
ATOM     71  C   UNL A   1      39.658  32.940  35.692  1.00  0.00    -0.014 A 
ATOM     72  C   UNL A   1      38.634  32.039  36.046  1.00  0.00     0.009 A 
ATOM     73  C   UNL A   1      39.724  34.174  36.355  1.00  0.00     0.009 A 
ATOM     74  C   UNL A   1      37.774  32.318  37.113  1.00  0.00     0.001 A 
ATOM     75  C   UNL A   1      38.852  34.454  37.415  1.00  0.00     0.001 A 
ATOM     76  C   UNL A   1      37.904  33.513  37.816  1.00  0.00     0.000 A 
ENDBRANCH  52  71
BRANCH  64  77
ATOM     77  C   UNL A   1      42.837  26.549  34.631  1.00  0.00    -0.014 A 
ATOM     78  C   UNL A   1      41.954  25.728  35.344  1.00  0.00     0.009 A 
ATOM     79  C   UNL A   1      44.086  25.976  34.289  1.00  0.00     0.009 A 
ATOM     80  C   UNL A   1      42.313  24.429  35.734  1.00  0.00     0.001 A 
ATOM     81  C   UNL A   1      44.430  24.666  34.632  1.00  0.00     0.001 A 
ATOM     82  C   UNL A   1      43.545  23.895  35.370  1.00  0.00     0.000 A 
ENDBRANCH  64  77
ENDBRANCH  38  39
ENDBRANCH  30  33
ENDBRANCH  28  29
ENDBRANCH  27  28
ENDBRANCH  26  27
ENDBRANCH   1  26
TORSDOF 17
ENDMDL
MODEL 2
REMARK VINA RESULT:     -11.0      5.214     10.802
REMARK SMILES Cc1cccc(CS[C@@H]2CC[C@]([NH3+])(C(=O)NCCCCCCNC(=O)c3ccc(-c4c5nc(c(-c6ccccc6)c6ccc([nH]6)c(-c6ccccc6)c6nc(c(-c7ccccc7)c7ccc4[nH]7)C=C6)C=C5)cc3)C2)c1
REMARK SMILES IDX 19 1 18 2 17 3 16 4 14 5 15 6 12 8 9 9 10 10 74 11 11 12
REMARK SMILES IDX 8 13 7 14 6 15 1 16 2 17 3 18 75 19 4 20 5 21 13 22 20 26
REMARK SMILES IDX 21 27 22 28 23 29 24 30 25 32 26 33 27 34 73 35 28 36 72 37
REMARK SMILES IDX 29 38 30 39 31 40 66 41 32 42 71 43 65 44 67 45 33 46 70 47
REMARK SMILES IDX 64 48 63 49 34 51 56 52 41 53 55 54 42 55 45 56 54 57 68 58
REMARK SMILES IDX 43 59 44 60 53 62 69 63 46 64 35 65 36 66 40 67 37 68 39 69
REMARK SMILES IDX 38 70 57 71 58 72 62 73 59 74 61 75 60 76 47 77 48 78 52 79
REMARK SMILES IDX 49 80 51 81 50 82
REMARK H PARENT 16 7 13 23 13 24 13 25 23 31 67 50 45 61
REMARK Flexibility Score: inf
ROOT
ATOM      1  C   UNL A   1      40.798  19.873  26.128  1.00  0.00     0.002 C 
ENDROOT
BRANCH   1   2
ATOM      2  C   UNL A   1      40.510  21.356  26.379  1.00  0.00     0.021 C 
BRANCH   2   3
ATOM      3  C   UNL A   1      39.056  21.818  26.330  1.00  0.00     0.116 C 
BRANCH   3   4
ATOM      4  N   UNL A   1      38.452  21.770  25.019  1.00  0.00    -0.351 N 
ATOM      5  C   UNL A   1      37.327  22.418  24.585  1.00  0.00     0.281 C 
ATOM      6  O   UNL A   1      37.046  22.322  23.386  1.00  0.00    -0.268 OA
ATOM      7  H   UNL A   1      38.906  21.201  24.355  1.00  0.00     0.163 HD
BRANCH   5   8
ATOM      8  C   UNL A   1      36.401  23.182  25.584  1.00  0.00     0.175 C 
ATOM      9  C   UNL A   1      34.206  23.171  26.647  1.00  0.00     0.054 C 
ATOM     10  C   UNL A   1      34.334  24.466  25.843  1.00  0.00     0.022 C 
ATOM     11  C   UNL A   1      35.311  22.240  26.146  1.00  0.00     0.093 C 
ATOM     12  C   UNL A   1      35.544  24.273  24.931  1.00  0.00     0.080 C 
BRANCH   9  13
ATOM     13  S   UNL A   1      32.508  22.499  26.768  1.00  0.00    -0.154 SA
BRANCH  13  14
ATOM     14  C   UNL A   1      31.970  22.321  25.033  1.00  0.00     0.105 C 
BRANCH  14  15
ATOM     15  C   UNL A   1      32.162  20.955  24.426  1.00  0.00    -0.038 A 
ATOM     16  C   UNL A   1      32.831  17.380  25.590  1.00  0.00     0.044 C 
ATOM     17  C   UNL A   1      32.570  18.563  24.707  1.00  0.00    -0.051 A 
ATOM     18  C   UNL A   1      32.531  18.403  23.317  1.00  0.00     0.003 A 
ATOM     19  C   UNL A   1      32.379  19.840  25.252  1.00  0.00     0.008 A 
ATOM     20  C   UNL A   1      32.287  19.496  22.488  1.00  0.00     0.001 A 
ATOM     21  C   UNL A   1      32.092  20.762  23.039  1.00  0.00     0.004 A 
ENDBRANCH  14  15
ENDBRANCH  13  14
ENDBRANCH   9  13
BRANCH   8  22
ATOM     22  N   UNL A   1      37.230  23.737  26.678  1.00  0.00    -0.345 N 
ATOM     23  H   UNL A   1      38.040  23.135  26.829  1.00  0.00     0.345 HD
ATOM     24  H   UNL A   1      36.677  23.784  27.534  1.00  0.00     0.345 HD
ATOM     25  H   UNL A   1      37.545  24.673  26.425  1.00  0.00     0.345 HD
ENDBRANCH   8  22
ENDBRANCH   5   8
ENDBRANCH   3   4
ENDBRANCH   2   3
ENDBRANCH   1   2
BRANCH   1  26
ATOM     26  C   UNL A   1      41.782  19.154  27.059  1.00  0.00     0.002 C 
BRANCH  26  27
ATOM     27  C   UNL A   1      42.938  18.392  26.414  1.00  0.00     0.021 C 
BRANCH  27  28
ATOM     28  C   UNL A   1      43.481  18.977  25.121  1.00  0.00     0.116 C 
BRANCH  28  29
ATOM     29  N   UNL A   1      44.836  19.504  25.193  1.00  0.00    -0.352 N 
ATOM     30  C   UNL A   1      45.263  20.809  25.395  1.00  0.00     0.251 C 
ATOM     31  H   UNL A   1      45.553  18.838  25.083  1.00  0.00     0.163 HD
ATOM     32  O   UNL A   1      46.454  21.074  25.373  1.00  0.00    -0.269 OA
BRANCH  30  33
ATOM     33  C   UNL A   1      44.280  21.857  25.782  1.00  0.00     0.039 A 
ATOM     34  C   UNL A   1      44.085  22.930  24.900  1.00  0.00     0.014 A 
ATOM     35  C   UNL A   1      43.745  21.912  27.064  1.00  0.00     0.014 A 
ATOM     36  C   UNL A   1      43.610  24.143  25.393  1.00  0.00     0.010 A 
ATOM     37  C   UNL A   1      43.399  23.139  27.583  1.00  0.00     0.010 A 
ATOM     38  C   UNL A   1      43.397  24.270  26.762  1.00  0.00    -0.014 A 
BRANCH  38  39
ATOM     39  C   UNL A   1      43.308  25.547  27.457  1.00  0.00     0.031 A 
ATOM     40  C   UNL A   1      42.049  26.316  27.464  1.00  0.00     0.074 A 
ATOM     41  C   UNL A   1      44.345  25.944  28.228  1.00  0.00     0.049 A 
ATOM     42  N   UNL A   1      41.960  27.560  27.791  1.00  0.00    -0.248 NA
ATOM     43  C   UNL A   1      40.776  25.745  27.034  1.00  0.00     0.031 C 
ATOM     44  C   UNL A   1      44.337  26.942  29.294  1.00  0.00     0.029 A 
ATOM     45  N   UNL A   1      45.691  25.644  28.052  1.00  0.00    -0.354 N 
ATOM     46  C   UNL A   1      40.623  27.857  27.926  1.00  0.00     0.074 A 
ATOM     47  C   UNL A   1      39.932  26.732  27.342  1.00  0.00     0.031 C 
ATOM     48  C   UNL A   1      45.597  27.342  29.526  1.00  0.00     0.029 A 
ATOM     49  C   UNL A   1      46.435  26.745  28.500  1.00  0.00     0.049 A 
ATOM     50  H   UNL A   1      46.056  24.809  27.678  1.00  0.00     0.167 HD
ATOM     51  C   UNL A   1      40.257  28.948  28.655  1.00  0.00     0.031 A 
ATOM     52  C   UNL A   1      47.214  27.462  27.635  1.00  0.00     0.031 A 
ATOM     53  C   UNL A   1      41.416  29.754  29.039  1.00  0.00     0.049 A 
ATOM     54  C   UNL A   1      46.789  28.907  27.485  1.00  0.00     0.074 A 
ATOM     55  C   UNL A   1      42.115  29.905  30.226  1.00  0.00     0.029 A 
ATOM     56  N   UNL A   1      42.198  30.335  28.046  1.00  0.00    -0.354 N 
ATOM     57  N   UNL A   1      45.610  29.363  27.808  1.00  0.00    -0.248 NA
ATOM     58  C   UNL A   1      47.652  29.945  26.925  1.00  0.00     0.031 C 
ATOM     59  C   UNL A   1      43.357  30.528  29.928  1.00  0.00     0.029 A 
ATOM     60  C   UNL A   1      43.398  30.779  28.568  1.00  0.00     0.049 A 
ATOM     61  H   UNL A   1      41.934  30.419  27.102  1.00  0.00     0.167 HD
ATOM     62  C   UNL A   1      45.533  30.699  27.504  1.00  0.00     0.074 A 
ATOM     63  C   UNL A   1      46.842  31.018  26.967  1.00  0.00     0.031 C 
ATOM     64  C   UNL A   1      44.388  31.416  27.708  1.00  0.00     0.031 A 
BRANCH  51  65
ATOM     65  C   UNL A   1      38.881  29.133  29.259  1.00  0.00    -0.014 A 
ATOM     66  C   UNL A   1      37.794  29.453  28.421  1.00  0.00     0.009 A 
ATOM     67  C   UNL A   1      38.590  29.086  30.633  1.00  0.00     0.009 A 
ATOM     68  C   UNL A   1      36.531  29.790  28.930  1.00  0.00     0.001 A 
ATOM     69  C   UNL A   1      37.339  29.447  31.153  1.00  0.00     0.001 A 
ATOM     70  C   UNL A   1      36.309  29.811  30.299  1.00  0.00     0.000 A 
ENDBRANCH  51  65
BRANCH  52  71
ATOM     71  C   UNL A   1      47.792  26.641  26.534  1.00  0.00    -0.014 A 
ATOM     72  C   UNL A   1      46.909  26.044  25.612  1.00  0.00     0.009 A 
ATOM     73  C   UNL A   1      49.144  26.763  26.184  1.00  0.00     0.009 A 
ATOM     74  C   UNL A   1      47.346  25.687  24.332  1.00  0.00     0.001 A 
ATOM     75  C   UNL A   1      49.579  26.394  24.904  1.00  0.00     0.001 A 
ATOM     76  C   UNL A   1      48.674  25.891  23.970  1.00  0.00     0.000 A 
ENDBRANCH  52  71
BRANCH  64  77
ATOM     77  C   UNL A   1      44.094  32.804  27.183  1.00  0.00    -0.014 A 
ATOM     78  C   UNL A   1      43.977  33.136  25.827  1.00  0.00     0.009 A 
ATOM     79  C   UNL A   1      43.786  33.831  28.107  1.00  0.00     0.009 A 
ATOM     80  C   UNL A   1      43.618  34.429  25.417  1.00  0.00     0.001 A 
ATOM     81  C   UNL A   1      43.381  35.106  27.705  1.00  0.00     0.001 A 
ATOM     82  C   UNL A   1      43.310  35.410  26.354  1.00  0.00     0.000 A 
ENDBRANCH  64  77
ENDBRANCH  38  39
ENDBRANCH  30  33
ENDBRANCH  28  29
ENDBRANCH  27  28
ENDBRANCH  26  27
ENDBRANCH   1  26
TORSDOF 17
ENDMDL
MODEL 3
REMARK VINA RESULT:     -10.9      4.978     10.662
REMARK SMILES Cc1cccc(CS[C@@H]2CC[C@]([NH3+])(C(=O)NCCCCCCNC(=O)c3ccc(-c4c5nc(c(-c6ccccc6)c6ccc([nH]6)c(-c6ccccc6)c6nc(c(-c7ccccc7)c7ccc4[nH]7)C=C6)C=C5)cc3)C2)c1
REMARK SMILES IDX 19 1 18 2 17 3 16 4 14 5 15 6 12 8 9 9 10 10 74 11 11 12
REMARK SMILES IDX 8 13 7 14 6 15 1 16 2 17 3 18 75 19 4 20 5 21 13 22 20 26
REMARK SMILES IDX 21 27 22 28 23 29 24 30 25 32 26 33 27 34 73 35 28 36 72 37
REMARK SMILES IDX 29 38 30 39 31 40 66 41 32 42 71 43 65 44 67 45 33 46 70 47
REMARK SMILES IDX 64 48 63 49 34 51 56 52 41 53 55 54 42 55 45 56 54 57 68 58
REMARK SMILES IDX 43 59 44 60 53 62 69 63 46 64 35 65 36 66 40 67 37 68 39 69
REMARK SMILES IDX 38 70 57 71 58 72 62 73 59 74 61 75 60 76 47 77 48 78 52 79
REMARK SMILES IDX 49 80 51 81 50 82
REMARK H PARENT 16 7 13 23 13 24 13 25 23 31 67 50 45 61
REMARK Flexibility Score: inf
ROOT
ATOM      1  C   UNL A   1      40.546  20.248  25.996  1.00  0.00     0.002 C 
ENDROOT
BRANCH   1   2
ATOM      2  C   UNL A   1      40.081  21.683  26.265  1.00  0.00     0.021 C 
BRANCH   2   3
ATOM      3  C   UNL A   1      38.590  21.983  26.140  1.00  0.00     0.116 C 
BRANCH   3   4
ATOM      4  N   UNL A   1      38.130  22.197  24.787  1.00  0.00    -0.351 N 
ATOM      5  C   UNL A   1      36.841  22.334  24.348  1.00  0.00     0.281 C 
ATOM      6  O   UNL A   1      36.676  22.620  23.157  1.00  0.00    -0.268 OA
ATOM      7  H   UNL A   1      38.829  22.250  24.096  1.00  0.00     0.163 HD
BRANCH   5   8
ATOM      8  C   UNL A   1      35.631  22.066  25.299  1.00  0.00     0.175 C 
ATOM      9  C   UNL A   1      33.393  22.817  25.911  1.00  0.00     0.054 C 
ATOM     10  C   UNL A   1      34.284  22.932  27.149  1.00  0.00     0.022 C 
ATOM     11  C   UNL A   1      34.333  22.670  24.714  1.00  0.00     0.093 C 
ATOM     12  C   UNL A   1      35.720  22.795  26.645  1.00  0.00     0.080 C 
BRANCH   9  13
ATOM     13  S   UNL A   1      32.055  24.061  25.802  1.00  0.00    -0.154 SA
BRANCH  13  14
ATOM     14  C   UNL A   1      32.919  25.664  25.933  1.00  0.00     0.105 C 
BRANCH  14  15
ATOM     15  C   UNL A   1      33.163  26.383  24.631  1.00  0.00    -0.038 A 
ATOM     16  C   UNL A   1      32.660  25.776  20.894  1.00  0.00     0.044 C 
ATOM     17  C   UNL A   1      33.025  26.431  22.192  1.00  0.00    -0.051 A 
ATOM     18  C   UNL A   1      33.616  27.700  22.193  1.00  0.00     0.003 A 
ATOM     19  C   UNL A   1      32.797  25.783  23.414  1.00  0.00     0.008 A 
ATOM     20  C   UNL A   1      33.956  28.318  23.395  1.00  0.00     0.001 A 
ATOM     21  C   UNL A   1      33.720  27.670  24.607  1.00  0.00     0.004 A 
ENDBRANCH  14  15
ENDBRANCH  13  14
ENDBRANCH   9  13
BRANCH   8  22
ATOM     22  N   UNL A   1      35.489  20.604  25.492  1.00  0.00    -0.345 N 
ATOM     23  H   UNL A   1      35.567  20.384  26.485  1.00  0.00     0.345 HD
ATOM     24  H   UNL A   1      36.223  20.119  24.977  1.00  0.00     0.345 HD
ATOM     25  H   UNL A   1      34.576  20.303  25.149  1.00  0.00     0.345 HD
ENDBRANCH   8  22
ENDBRANCH   5   8
ENDBRANCH   3   4
ENDBRANCH   2   3
ENDBRANCH   1   2
BRANCH   1  26
ATOM     26  C   UNL A   1      41.330  19.520  27.095  1.00  0.00     0.002 C 
BRANCH  26  27
ATOM     27  C   UNL A   1      42.645  18.851  26.701  1.00  0.00     0.021 C 
BRANCH  27  28
ATOM     28  C   UNL A   1      43.209  19.240  25.344  1.00  0.00     0.116 C 
BRANCH  28  29
ATOM     29  N   UNL A   1      44.573  19.748  25.356  1.00  0.00    -0.352 N 
ATOM     30  C   UNL A   1      45.027  21.049  25.517  1.00  0.00     0.251 C 
ATOM     31  H   UNL A   1      45.276  19.069  25.233  1.00  0.00     0.163 HD
ATOM     32  O   UNL A   1      46.220  21.295  25.446  1.00  0.00    -0.269 OA
BRANCH  30  33
ATOM     33  C   UNL A   1      44.075  22.120  25.920  1.00  0.00     0.039 A 
ATOM     34  C   UNL A   1      43.891  23.197  25.041  1.00  0.00     0.014 A 
ATOM     35  C   UNL A   1      43.561  22.185  27.209  1.00  0.00     0.014 A 
ATOM     36  C   UNL A   1      43.453  24.421  25.542  1.00  0.00     0.010 A 
ATOM     37  C   UNL A   1      43.252  23.420  27.734  1.00  0.00     0.010 A 
ATOM     38  C   UNL A   1      43.264  24.552  26.914  1.00  0.00    -0.014 A 
BRANCH  38  39
ATOM     39  C   UNL A   1      43.215  25.830  27.611  1.00  0.00     0.031 A 
ATOM     40  C   UNL A   1      41.968  26.617  27.657  1.00  0.00     0.074 A 
ATOM     41  C   UNL A   1      44.280  26.211  28.350  1.00  0.00     0.049 A 
ATOM     42  N   UNL A   1      41.907  27.862  27.986  1.00  0.00    -0.248 NA
ATOM     43  C   UNL A   1      40.674  26.065  27.267  1.00  0.00     0.031 C 
ATOM     44  C   UNL A   1      44.321  27.209  29.415  1.00  0.00     0.029 A 
ATOM     45  N   UNL A   1      45.617  25.891  28.132  1.00  0.00    -0.354 N 
ATOM     46  C   UNL A   1      40.580  28.178  28.162  1.00  0.00     0.074 A 
ATOM     47  C   UNL A   1      39.854  27.064  27.600  1.00  0.00     0.031 C 
ATOM     48  C   UNL A   1      45.593  27.590  29.608  1.00  0.00     0.029 A 
ATOM     49  C   UNL A   1      46.390  26.982  28.556  1.00  0.00     0.049 A 
ATOM     50  H   UNL A   1      45.957  25.051  27.747  1.00  0.00     0.167 HD
ATOM     51  C   UNL A   1      40.252  29.275  28.902  1.00  0.00     0.031 A 
ATOM     52  C   UNL A   1      47.152  27.686  27.667  1.00  0.00     0.031 A 
ATOM     53  C   UNL A   1      41.435  30.064  29.250  1.00  0.00     0.049 A 
ATOM     54  C   UNL A   1      46.744  29.138  27.530  1.00  0.00     0.074 A 
ATOM     55  C   UNL A   1      42.172  30.204  30.414  1.00  0.00     0.029 A 
ATOM     56  N   UNL A   1      42.195  30.633  28.233  1.00  0.00    -0.354 N 
ATOM     57  N   UNL A   1      45.583  29.612  27.890  1.00  0.00    -0.248 NA
ATOM     58  C   UNL A   1      47.604  30.163  26.944  1.00  0.00     0.031 C 
ATOM     59  C   UNL A   1      43.413  30.809  30.078  1.00  0.00     0.029 A 
ATOM     60  C   UNL A   1      43.416  31.059  28.717  1.00  0.00     0.049 A 
ATOM     61  H   UNL A   1      41.903  30.721  27.298  1.00  0.00     0.167 HD
ATOM     62  C   UNL A   1      45.516  30.948  27.588  1.00  0.00     0.074 A 
ATOM     63  C   UNL A   1      46.812  31.248  27.011  1.00  0.00     0.031 C 
ATOM     64  C   UNL A   1      44.389  31.682  27.827  1.00  0.00     0.031 A 
BRANCH  51  65
ATOM     65  C   UNL A   1      38.899  29.480  29.548  1.00  0.00    -0.014 A 
ATOM     66  C   UNL A   1      38.118  30.594  29.182  1.00  0.00     0.009 A 
ATOM     67  C   UNL A   1      38.362  28.676  30.569  1.00  0.00     0.009 A 
ATOM     68  C   UNL A   1      36.931  30.928  29.850  1.00  0.00     0.001 A 
ATOM     69  C   UNL A   1      37.191  29.016  31.261  1.00  0.00     0.001 A 
ATOM     70  C   UNL A   1      36.479  30.152  30.907  1.00  0.00     0.000 A 
ENDBRANCH  51  65
BRANCH  52  71
ATOM     71  C   UNL A   1      47.684  26.858  26.549  1.00  0.00    -0.014 A 
ATOM     72  C   UNL A   1      47.028  26.918  25.303  1.00  0.00     0.009 A 
ATOM     73  C   UNL A   1      48.987  26.343  26.596  1.00  0.00     0.009 A 
ATOM     74  C   UNL A   1      47.700  26.582  24.124  1.00  0.00     0.001 A 
ATOM     75  C   UNL A   1      49.653  25.998  25.413  1.00  0.00     0.001 A 
ATOM     76  C   UNL A   1      49.023  26.151  24.178  1.00  0.00     0.000 A 
ENDBRANCH  52  71
BRANCH  64  77
ATOM     77  C   UNL A   1      44.099  33.074  27.310  1.00  0.00    -0.014 A 
ATOM     78  C   UNL A   1      43.979  33.415  25.957  1.00  0.00     0.009 A 
ATOM     79  C   UNL A   1      43.798  34.097  28.242  1.00  0.00     0.009 A 
ATOM     80  C   UNL A   1      43.625  34.712  25.555  1.00  0.00     0.001 A 
ATOM     81  C   UNL A   1      43.397  35.376  27.848  1.00  0.00     0.001 A 
ATOM     82  C   UNL A   1      43.324  35.688  26.499  1.00  0.00     0.000 A 
ENDBRANCH  64  77
ENDBRANCH  38  39
ENDBRANCH  30  33
ENDBRANCH  28  29
ENDBRANCH  27  28
ENDBRANCH  26  27
ENDBRANCH   1  26
TORSDOF 17
ENDMDL
