MODEL 1
REMARK VINA RESULT:     -11.2      0.000      0.000
REMARK SMILES Cc1nsc(NC(=O)c2ccc(N)cc2)c1C(=O)NCCCCCCNC(=O)c1ccc(-c2c3nc(c(-c4ccccc4)c4ccc([nH]4)c(-c4ccccc4)c4nc(c(-c5ccccc5)c5ccc2[nH]5)C=C4)C=C3)cc1
REMARK SMILES IDX 22 1 21 2 20 3 19 4 17 5 18 6 16 8 1 9 2 10 3 11 4 12 5 13
REMARK SMILES IDX 6 14 7 15 8 17 9 18 10 19 15 20 11 21 14 22 12 23 13 24
REMARK SMILES IDX 23 27 24 28 25 29 26 30 27 31 28 33 29 34 30 35 76 36 31 37
REMARK SMILES IDX 75 38 32 39 33 40 34 41 69 42 35 43 74 44 68 45 70 46 36 47
REMARK SMILES IDX 73 48 67 49 66 50 37 52 59 53 44 54 58 55 45 56 48 57 57 58
REMARK SMILES IDX 71 59 46 60 47 61 56 63 72 64 49 65 38 66 39 67 43 68 40 69
REMARK SMILES IDX 42 70 41 71 60 72 61 73 65 74 62 75 64 76 63 77 50 78 51 79
REMARK SMILES IDX 55 80 52 81 54 82 53 83
REMARK H PARENT 19 7 6 16 13 25 13 26 26 32 70 51 48 62
REMARK Flexibility Score: inf
ROOT
ATOM      1  C   UNL A   1      39.464  21.932  25.976  1.00  0.00     0.002 C 
ENDROOT
BRANCH   1   2
ATOM      2  C   UNL A   1      38.856  23.249  26.469  1.00  0.00     0.021 C 
BRANCH   2   3
ATOM      3  C   UNL A   1      37.441  23.493  25.961  1.00  0.00     0.116 C 
BRANCH   3   4
ATOM      4  N   UNL A   1      37.289  23.249  24.558  1.00  0.00    -0.352 N 
ATOM      5  C   UNL A   1      36.226  23.048  23.729  1.00  0.00     0.256 C 
ATOM      6  O   UNL A   1      36.552  23.060  22.534  1.00  0.00    -0.269 OA
ATOM      7  H   UNL A   1      38.151  23.220  24.084  1.00  0.00     0.163 HD
BRANCH   5   8
ATOM      8  C   UNL A   1      34.833  22.749  24.112  1.00  0.00     0.097 A 
ATOM      9  C   UNL A   1      34.659  21.236  26.349  1.00  0.00     0.069 C 
ATOM     10  C   UNL A   1      34.160  21.934  25.131  1.00  0.00     0.066 A 
ATOM     11  N   UNL A   1      32.841  21.788  24.982  1.00  0.00    -0.195 NA
ATOM     12  S   UNL A   1      32.329  22.673  23.713  1.00  0.00    -0.017 S 
ATOM     13  C   UNL A   1      33.817  23.421  23.408  1.00  0.00     0.129 A 
BRANCH  13  14
ATOM     14  N   UNL A   1      33.956  24.450  22.486  1.00  0.00    -0.312 N 
ATOM     15  C   UNL A   1      33.528  25.759  22.502  1.00  0.00     0.256 C 
ATOM     16  H   UNL A   1      34.450  24.198  21.672  1.00  0.00     0.171 HD
ATOM     17  O   UNL A   1      33.596  26.453  21.488  1.00  0.00    -0.269 OA
BRANCH  15  18
ATOM     18  C   UNL A   1      33.033  26.389  23.738  1.00  0.00     0.040 A 
ATOM     19  C   UNL A   1      33.921  26.827  24.726  1.00  0.00     0.016 A 
ATOM     20  C   UNL A   1      31.655  26.474  23.933  1.00  0.00     0.016 A 
ATOM     21  C   UNL A   1      33.417  27.232  25.965  1.00  0.00     0.026 A 
ATOM     22  C   UNL A   1      31.166  26.896  25.170  1.00  0.00     0.026 A 
ATOM     23  C   UNL A   1      32.040  27.249  26.203  1.00  0.00     0.031 A 
BRANCH  23  24
ATOM     24  N   UNL A   1      31.550  27.551  27.460  1.00  0.00    -0.399 N 
ATOM     25  H   UNL A   1      31.714  26.937  28.212  1.00  0.00     0.156 HD
ATOM     26  H   UNL A   1      31.037  28.379  27.602  1.00  0.00     0.156 HD
ENDBRANCH  23  24
ENDBRANCH  15  18
ENDBRANCH  13  14
ENDBRANCH   5   8
ENDBRANCH   3   4
ENDBRANCH   2   3
ENDBRANCH   1   2
BRANCH   1  27
ATOM     27  C   UNL A   1      40.507  21.283  26.904  1.00  0.00     0.002 C 
BRANCH  27  28
ATOM     28  C   UNL A   1      41.150  19.972  26.417  1.00  0.00     0.021 C 
BRANCH  28  29
ATOM     29  C   UNL A   1      42.526  19.723  27.005  1.00  0.00     0.116 C 
BRANCH  29  30
ATOM     30  N   UNL A   1      43.562  19.632  25.972  1.00  0.00    -0.352 N 
ATOM     31  C   UNL A   1      44.086  20.627  25.165  1.00  0.00     0.251 C 
ATOM     32  H   UNL A   1      43.940  18.734  25.832  1.00  0.00     0.163 HD
ATOM     33  O   UNL A   1      44.689  20.365  24.141  1.00  0.00    -0.269 OA
BRANCH  31  34
ATOM     34  C   UNL A   1      43.905  22.026  25.590  1.00  0.00     0.039 A 
ATOM     35  C   UNL A   1      43.099  22.929  24.893  1.00  0.00     0.014 A 
ATOM     36  C   UNL A   1      44.549  22.402  26.759  1.00  0.00     0.014 A 
ATOM     37  C   UNL A   1      42.912  24.201  25.432  1.00  0.00     0.010 A 
ATOM     38  C   UNL A   1      44.145  23.523  27.414  1.00  0.00     0.010 A 
ATOM     39  C   UNL A   1      43.440  24.478  26.702  1.00  0.00    -0.014 A 
BRANCH  39  40
ATOM     40  C   UNL A   1      43.274  25.754  27.367  1.00  0.00     0.031 A 
ATOM     41  C   UNL A   1      44.234  26.801  26.964  1.00  0.00     0.074 A 
ATOM     42  C   UNL A   1      42.179  26.035  28.107  1.00  0.00     0.049 A 
ATOM     43  N   UNL A   1      45.205  27.268  27.670  1.00  0.00    -0.248 NA
ATOM     44  C   UNL A   1      44.200  27.297  25.581  1.00  0.00     0.031 C 
ATOM     45  C   UNL A   1      40.980  25.216  28.345  1.00  0.00     0.029 A 
ATOM     46  N   UNL A   1      41.863  27.203  28.719  1.00  0.00    -0.354 N 
ATOM     47  C   UNL A   1      45.792  28.265  26.902  1.00  0.00     0.074 A 
ATOM     48  C   UNL A   1      45.257  28.112  25.570  1.00  0.00     0.031 C 
ATOM     49  C   UNL A   1      39.993  25.992  28.846  1.00  0.00     0.029 A 
ATOM     50  C   UNL A   1      40.544  27.301  29.136  1.00  0.00     0.049 A 
ATOM     51  H   UNL A   1      42.519  27.923  28.857  1.00  0.00     0.167 HD
ATOM     52  C   UNL A   1      46.481  29.284  27.485  1.00  0.00     0.031 A 
ATOM     53  C   UNL A   1      39.953  28.395  29.673  1.00  0.00     0.031 A 
ATOM     54  C   UNL A   1      46.729  29.023  28.883  1.00  0.00     0.049 A 
ATOM     55  C   UNL A   1      41.039  29.247  30.215  1.00  0.00     0.074 A 
ATOM     56  C   UNL A   1      47.400  28.042  29.585  1.00  0.00     0.029 A 
ATOM     57  N   UNL A   1      45.874  29.613  29.787  1.00  0.00    -0.354 N 
ATOM     58  N   UNL A   1      41.791  28.881  31.214  1.00  0.00    -0.248 NA
ATOM     59  C   UNL A   1      41.608  30.269  29.349  1.00  0.00     0.031 C 
ATOM     60  C   UNL A   1      46.568  27.767  30.712  1.00  0.00     0.029 A 
ATOM     61  C   UNL A   1      45.482  28.645  30.676  1.00  0.00     0.049 A 
ATOM     62  H   UNL A   1      45.596  30.558  29.794  1.00  0.00     0.167 HD
ATOM     63  C   UNL A   1      43.072  29.275  30.857  1.00  0.00     0.074 A 
ATOM     64  C   UNL A   1      42.883  30.217  29.753  1.00  0.00     0.031 C 
ATOM     65  C   UNL A   1      44.171  28.584  31.286  1.00  0.00     0.031 A 
BRANCH  52  66
ATOM     66  C   UNL A   1      46.570  30.675  26.917  1.00  0.00    -0.014 A 
ATOM     67  C   UNL A   1      47.809  31.339  26.964  1.00  0.00     0.009 A 
ATOM     68  C   UNL A   1      45.444  31.455  26.595  1.00  0.00     0.009 A 
ATOM     69  C   UNL A   1      47.900  32.723  26.779  1.00  0.00     0.001 A 
ATOM     70  C   UNL A   1      45.537  32.830  26.369  1.00  0.00     0.001 A 
ATOM     71  C   UNL A   1      46.761  33.470  26.492  1.00  0.00     0.000 A 
ENDBRANCH  52  66
BRANCH  53  72
ATOM     72  C   UNL A   1      38.560  28.861  29.514  1.00  0.00    -0.014 A 
ATOM     73  C   UNL A   1      37.737  29.083  30.627  1.00  0.00     0.009 A 
ATOM     74  C   UNL A   1      38.124  29.351  28.268  1.00  0.00     0.009 A 
ATOM     75  C   UNL A   1      36.541  29.804  30.505  1.00  0.00     0.001 A 
ATOM     76  C   UNL A   1      36.932  30.072  28.146  1.00  0.00     0.001 A 
ATOM     77  C   UNL A   1      36.146  30.311  29.268  1.00  0.00     0.000 A 
ENDBRANCH  53  72
BRANCH  65  78
ATOM     78  C   UNL A   1      43.956  27.481  32.299  1.00  0.00    -0.014 A 
ATOM     79  C   UNL A   1      44.110  26.117  31.987  1.00  0.00     0.009 A 
ATOM     80  C   UNL A   1      43.756  27.830  33.641  1.00  0.00     0.009 A 
ATOM     81  C   UNL A   1      44.042  25.135  32.982  1.00  0.00     0.001 A 
ATOM     82  C   UNL A   1      43.706  26.852  34.638  1.00  0.00     0.001 A 
ATOM     83  C   UNL A   1      43.844  25.505  34.308  1.00  0.00     0.000 A 
ENDBRANCH  65  78
ENDBRANCH  39  40
ENDBRANCH  31  34
ENDBRANCH  29  30
ENDBRANCH  28  29
ENDBRANCH  27  28
ENDBRANCH   1  27
TORSDOF 16
ENDMDL
MODEL 2
REMARK VINA RESULT:     -11.1      1.877      5.280
REMARK SMILES Cc1nsc(NC(=O)c2ccc(N)cc2)c1C(=O)NCCCCCCNC(=O)c1ccc(-c2c3nc(c(-c4ccccc4)c4ccc([nH]4)c(-c4ccccc4)c4nc(c(-c5ccccc5)c5ccc2[nH]5)C=C4)C=C3)cc1
REMARK SMILES IDX 22 1 21 2 20 3 19 4 17 5 18 6 16 8 1 9 2 10 3 11 4 12 5 13
REMARK SMILES IDX 6 14 7 15 8 17 9 18 10 19 15 20 11 21 14 22 12 23 13 24
REMARK SMILES IDX 23 27 24 28 25 29 26 30 27 31 28 33 29 34 30 35 76 36 31 37
REMARK SMILES IDX 75 38 32 39 33 40 34 41 69 42 35 43 74 44 68 45 70 46 36 47
REMARK SMILES IDX 73 48 67 49 66 50 37 52 59 53 44 54 58 55 45 56 48 57 57 58
REMARK SMILES IDX 71 59 46 60 47 61 56 63 72 64 49 65 38 66 39 67 43 68 40 69
REMARK SMILES IDX 42 70 41 71 60 72 61 73 65 74 62 75 64 76 63 77 50 78 51 79
REMARK SMILES IDX 55 80 52 81 54 82 53 83
REMARK H PARENT 19 7 6 16 13 25 13 26 26 32 70 51 48 62
REMARK Flexibility Score: inf
ROOT
ATOM      1  C   UNL A   1      37.786  22.151  25.505  1.00  0.00     0.002 C 
ENDROOT
BRANCH   1   2
ATOM      2  C   UNL A   1      37.647  23.668  25.678  1.00  0.00     0.021 C 
BRANCH   2   3
ATOM      3  C   UNL A   1      36.201  24.148  25.687  1.00  0.00     0.116 C 
BRANCH   3   4
ATOM      4  N   UNL A   1      35.393  23.542  24.673  1.00  0.00    -0.352 N 
ATOM      5  C   UNL A   1      34.061  23.284  24.533  1.00  0.00     0.256 C 
ATOM      6  O   UNL A   1      33.772  22.904  23.391  1.00  0.00    -0.269 OA
ATOM      7  H   UNL A   1      35.920  23.243  23.897  1.00  0.00     0.163 HD
BRANCH   5   8
ATOM      8  C   UNL A   1      33.024  23.331  25.582  1.00  0.00     0.097 A 
ATOM      9  C   UNL A   1      33.849  22.259  27.925  1.00  0.00     0.069 C 
ATOM     10  C   UNL A   1      32.877  22.838  26.957  1.00  0.00     0.066 A 
ATOM     11  N   UNL A   1      31.653  22.933  27.481  1.00  0.00    -0.195 NA
ATOM     12  S   UNL A   1      30.660  23.687  26.430  1.00  0.00    -0.017 S 
ATOM     13  C   UNL A   1      31.861  24.068  25.298  1.00  0.00     0.129 A 
BRANCH  13  14
ATOM     14  N   UNL A   1      31.617  24.889  24.205  1.00  0.00    -0.312 N 
ATOM     15  C   UNL A   1      31.556  26.260  24.083  1.00  0.00     0.256 C 
ATOM     16  H   UNL A   1      31.457  24.403  23.364  1.00  0.00     0.171 HD
ATOM     17  O   UNL A   1      31.134  26.779  23.051  1.00  0.00    -0.269 OA
BRANCH  15  18
ATOM     18  C   UNL A   1      32.044  27.147  25.153  1.00  0.00     0.040 A 
ATOM     19  C   UNL A   1      31.239  27.455  26.254  1.00  0.00     0.016 A 
ATOM     20  C   UNL A   1      33.304  27.729  25.009  1.00  0.00     0.016 A 
ATOM     21  C   UNL A   1      31.651  28.451  27.144  1.00  0.00     0.026 A 
ATOM     22  C   UNL A   1      33.709  28.710  25.915  1.00  0.00     0.026 A 
ATOM     23  C   UNL A   1      32.877  29.099  26.969  1.00  0.00     0.031 A 
BRANCH  23  24
ATOM     24  N   UNL A   1      33.235  30.154  27.789  1.00  0.00    -0.399 N 
ATOM     25  H   UNL A   1      33.892  30.015  28.508  1.00  0.00     0.156 HD
ATOM     26  H   UNL A   1      32.832  31.041  27.653  1.00  0.00     0.156 HD
ENDBRANCH  23  24
ENDBRANCH  15  18
ENDBRANCH  13  14
ENDBRANCH   5   8
ENDBRANCH   3   4
ENDBRANCH   2   3
ENDBRANCH   1   2
BRANCH   1  27
ATOM     27  C   UNL A   1      39.151  21.553  25.891  1.00  0.00     0.002 C 
BRANCH  27  28
ATOM     28  C   UNL A   1      39.412  20.094  25.477  1.00  0.00     0.021 C 
BRANCH  28  29
ATOM     29  C   UNL A   1      40.301  19.342  26.449  1.00  0.00     0.116 C 
BRANCH  29  30
ATOM     30  N   UNL A   1      41.573  18.941  25.841  1.00  0.00    -0.352 N 
ATOM     31  C   UNL A   1      42.681  19.714  25.535  1.00  0.00     0.251 C 
ATOM     32  H   UNL A   1      41.652  17.985  25.619  1.00  0.00     0.163 HD
ATOM     33  O   UNL A   1      43.525  19.331  24.747  1.00  0.00    -0.269 OA
BRANCH  31  34
ATOM     34  C   UNL A   1      42.819  21.017  26.207  1.00  0.00     0.039 A 
ATOM     35  C   UNL A   1      43.064  22.204  25.512  1.00  0.00     0.014 A 
ATOM     36  C   UNL A   1      42.651  21.020  27.584  1.00  0.00     0.014 A 
ATOM     37  C   UNL A   1      43.078  23.399  26.229  1.00  0.00     0.010 A 
ATOM     38  C   UNL A   1      42.389  22.192  28.223  1.00  0.00     0.010 A 
ATOM     39  C   UNL A   1      42.730  23.373  27.588  1.00  0.00    -0.014 A 
BRANCH  39  40
ATOM     40  C   UNL A   1      42.679  24.562  28.414  1.00  0.00     0.031 A 
ATOM     41  C   UNL A   1      41.548  25.470  28.137  1.00  0.00     0.074 A 
ATOM     42  C   UNL A   1      43.456  24.703  29.510  1.00  0.00     0.049 A 
ATOM     43  N   UNL A   1      41.609  26.626  27.571  1.00  0.00    -0.248 NA
ATOM     44  C   UNL A   1      40.181  24.995  28.395  1.00  0.00     0.031 C 
ATOM     45  C   UNL A   1      44.407  23.751  30.106  1.00  0.00     0.029 A 
ATOM     46  N   UNL A   1      43.459  25.721  30.405  1.00  0.00    -0.354 N 
ATOM     47  C   UNL A   1      40.313  27.124  27.577  1.00  0.00     0.074 A 
ATOM     48  C   UNL A   1      39.458  26.014  27.922  1.00  0.00     0.031 C 
ATOM     49  C   UNL A   1      44.710  24.141  31.365  1.00  0.00     0.029 A 
ATOM     50  C   UNL A   1      44.130  25.451  31.589  1.00  0.00     0.049 A 
ATOM     51  H   UNL A   1      43.021  26.583  30.228  1.00  0.00     0.167 HD
ATOM     52  C   UNL A   1      40.078  28.465  27.538  1.00  0.00     0.031 A 
ATOM     53  C   UNL A   1      44.188  26.253  32.677  1.00  0.00     0.031 A 
ATOM     54  C   UNL A   1      41.277  29.203  27.223  1.00  0.00     0.049 A 
ATOM     55  C   UNL A   1      43.889  27.629  32.213  1.00  0.00     0.074 A 
ATOM     56  C   UNL A   1      42.149  29.229  26.153  1.00  0.00     0.029 A 
ATOM     57  N   UNL A   1      41.964  29.757  28.280  1.00  0.00    -0.354 N 
ATOM     58  N   UNL A   1      44.671  28.286  31.404  1.00  0.00    -0.248 NA
ATOM     59  C   UNL A   1      42.506  28.081  32.245  1.00  0.00     0.031 C 
ATOM     60  C   UNL A   1      43.446  29.327  26.742  1.00  0.00     0.029 A 
ATOM     61  C   UNL A   1      43.288  29.433  28.126  1.00  0.00     0.049 A 
ATOM     62  H   UNL A   1      41.576  30.288  29.012  1.00  0.00     0.167 HD
ATOM     63  C   UNL A   1      43.813  28.913  30.512  1.00  0.00     0.074 A 
ATOM     64  C   UNL A   1      42.494  28.838  31.141  1.00  0.00     0.031 C 
ATOM     65  C   UNL A   1      44.193  29.169  29.223  1.00  0.00     0.031 A 
BRANCH  52  66
ATOM     66  C   UNL A   1      38.890  29.131  28.180  1.00  0.00    -0.014 A 
ATOM     67  C   UNL A   1      38.655  28.905  29.548  1.00  0.00     0.009 A 
ATOM     68  C   UNL A   1      37.852  29.736  27.449  1.00  0.00     0.009 A 
ATOM     69  C   UNL A   1      37.417  29.197  30.131  1.00  0.00     0.001 A 
ATOM     70  C   UNL A   1      36.628  30.067  28.037  1.00  0.00     0.001 A 
ATOM     71  C   UNL A   1      36.400  29.768  29.372  1.00  0.00     0.000 A 
ENDBRANCH  52  66
BRANCH  53  72
ATOM     72  C   UNL A   1      44.226  25.870  34.104  1.00  0.00    -0.014 A 
ATOM     73  C   UNL A   1      43.071  25.436  34.770  1.00  0.00     0.009 A 
ATOM     74  C   UNL A   1      45.465  25.672  34.743  1.00  0.00     0.009 A 
ATOM     75  C   UNL A   1      43.157  24.791  36.012  1.00  0.00     0.001 A 
ATOM     76  C   UNL A   1      45.551  25.028  35.981  1.00  0.00     0.001 A 
ATOM     77  C   UNL A   1      44.397  24.574  36.610  1.00  0.00     0.000 A 
ENDBRANCH  53  72
BRANCH  65  78
ATOM     78  C   UNL A   1      45.636  28.902  28.851  1.00  0.00    -0.014 A 
ATOM     79  C   UNL A   1      46.100  27.634  28.453  1.00  0.00     0.009 A 
ATOM     80  C   UNL A   1      46.513  29.989  28.738  1.00  0.00     0.009 A 
ATOM     81  C   UNL A   1      47.405  27.457  27.981  1.00  0.00     0.001 A 
ATOM     82  C   UNL A   1      47.810  29.816  28.249  1.00  0.00     0.001 A 
ATOM     83  C   UNL A   1      48.258  28.551  27.875  1.00  0.00     0.000 A 
ENDBRANCH  65  78
ENDBRANCH  39  40
ENDBRANCH  31  34
ENDBRANCH  29  30
ENDBRANCH  28  29
ENDBRANCH  27  28
ENDBRANCH   1  27
TORSDOF 16
ENDMDL
MODEL 3
REMARK VINA RESULT:     -11.0      2.104      5.915
REMARK SMILES Cc1nsc(NC(=O)c2ccc(N)cc2)c1C(=O)NCCCCCCNC(=O)c1ccc(-c2c3nc(c(-c4ccccc4)c4ccc([nH]4)c(-c4ccccc4)c4nc(c(-c5ccccc5)c5ccc2[nH]5)C=C4)C=C3)cc1
REMARK SMILES IDX 22 1 21 2 20 3 19 4 17 5 18 6 16 8 1 9 2 10 3 11 4 12 5 13
REMARK SMILES IDX 6 14 7 15 8 17 9 18 10 19 15 20 11 21 14 22 12 23 13 24
REMARK SMILES IDX 23 27 24 28 25 29 26 30 27 31 28 33 29 34 30 35 76 36 31 37
REMARK SMILES IDX 75 38 32 39 33 40 34 41 69 42 35 43 74 44 68 45 70 46 36 47
REMARK SMILES IDX 73 48 67 49 66 50 37 52 59 53 44 54 58 55 45 56 48 57 57 58
REMARK SMILES IDX 71 59 46 60 47 61 56 63 72 64 49 65 38 66 39 67 43 68 40 69
REMARK SMILES IDX 42 70 41 71 60 72 61 73 65 74 62 75 64 76 63 77 50 78 51 79
REMARK SMILES IDX 55 80 52 81 54 82 53 83
REMARK H PARENT 19 7 6 16 13 25 13 26 26 32 70 51 48 62
REMARK Flexibility Score: inf
ROOT
ATOM      1  C   UNL A   1      37.251  22.438  25.027  1.00  0.00     0.002 C 
ENDROOT
BRANCH   1   2
ATOM      2  C   UNL A   1      36.732  23.786  25.540  1.00  0.00     0.021 C 
BRANCH   2   3
ATOM      3  C   UNL A   1      35.422  24.218  24.893  1.00  0.00     0.116 C 
BRANCH   3   4
ATOM      4  N   UNL A   1      34.738  25.244  25.621  1.00  0.00    -0.352 N 
ATOM      5  C   UNL A   1      33.493  25.797  25.559  1.00  0.00     0.256 C 
ATOM      6  O   UNL A   1      33.262  26.544  26.520  1.00  0.00    -0.269 OA
ATOM      7  H   UNL A   1      35.294  25.641  26.329  1.00  0.00     0.163 HD
BRANCH   5   8
ATOM      8  C   UNL A   1      32.504  25.661  24.473  1.00  0.00     0.097 A 
ATOM      9  C   UNL A   1      33.564  26.104  22.023  1.00  0.00     0.069 C 
ATOM     10  C   UNL A   1      32.483  25.868  23.020  1.00  0.00     0.066 A 
ATOM     11  N   UNL A   1      31.280  25.819  22.443  1.00  0.00    -0.195 NA
ATOM     12  S   UNL A   1      30.151  25.433  23.554  1.00  0.00    -0.017 S 
ATOM     13  C   UNL A   1      31.240  25.151  24.820  1.00  0.00     0.129 A 
BRANCH  13  14
ATOM     14  N   UNL A   1      30.841  24.617  26.037  1.00  0.00    -0.312 N 
ATOM     15  C   UNL A   1      31.064  23.386  26.616  1.00  0.00     0.256 C 
ATOM     16  H   UNL A   1      30.299  25.227  26.587  1.00  0.00     0.171 HD
ATOM     17  O   UNL A   1      30.454  23.050  27.629  1.00  0.00    -0.269 OA
BRANCH  15  18
ATOM     18  C   UNL A   1      32.077  22.461  26.081  1.00  0.00     0.040 A 
ATOM     19  C   UNL A   1      31.873  21.795  24.867  1.00  0.00     0.016 A 
ATOM     20  C   UNL A   1      33.216  22.209  26.846  1.00  0.00     0.016 A 
ATOM     21  C   UNL A   1      32.755  20.779  24.489  1.00  0.00     0.026 A 
ATOM     22  C   UNL A   1      34.096  21.202  26.448  1.00  0.00     0.026 A 
ATOM     23  C   UNL A   1      33.859  20.461  25.286  1.00  0.00     0.031 A 
BRANCH  23  24
ATOM     24  N   UNL A   1      34.669  19.389  24.963  1.00  0.00    -0.399 N 
ATOM     25  H   UNL A   1      34.449  18.822  24.189  1.00  0.00     0.156 HD
ATOM     26  H   UNL A   1      35.465  19.192  25.507  1.00  0.00     0.156 HD
ENDBRANCH  23  24
ENDBRANCH  15  18
ENDBRANCH  13  14
ENDBRANCH   5   8
ENDBRANCH   3   4
ENDBRANCH   2   3
ENDBRANCH   1   2
BRANCH   1  27
ATOM     27  C   UNL A   1      38.447  21.843  25.791  1.00  0.00     0.002 C 
BRANCH  27  28
ATOM     28  C   UNL A   1      39.085  20.572  25.203  1.00  0.00     0.021 C 
BRANCH  28  29
ATOM     29  C   UNL A   1      39.645  19.637  26.257  1.00  0.00     0.116 C 
BRANCH  29  30
ATOM     30  N   UNL A   1      40.915  19.032  25.844  1.00  0.00    -0.352 N 
ATOM     31  C   UNL A   1      42.153  19.626  25.667  1.00  0.00     0.251 C 
ATOM     32  H   UNL A   1      40.883  18.064  25.667  1.00  0.00     0.163 HD
ATOM     33  O   UNL A   1      43.029  19.090  25.015  1.00  0.00    -0.269 OA
BRANCH  31  34
ATOM     34  C   UNL A   1      42.389  20.931  26.308  1.00  0.00     0.039 A 
ATOM     35  C   UNL A   1      42.831  22.052  25.601  1.00  0.00     0.014 A 
ATOM     36  C   UNL A   1      42.107  21.011  27.664  1.00  0.00     0.014 A 
ATOM     37  C   UNL A   1      42.928  23.266  26.279  1.00  0.00     0.010 A 
ATOM     38  C   UNL A   1      41.933  22.231  28.240  1.00  0.00     0.010 A 
ATOM     39  C   UNL A   1      42.465  23.337  27.601  1.00  0.00    -0.014 A 
BRANCH  39  40
ATOM     40  C   UNL A   1      42.487  24.556  28.383  1.00  0.00     0.031 A 
ATOM     41  C   UNL A   1      41.362  25.480  28.135  1.00  0.00     0.074 A 
ATOM     42  C   UNL A   1      43.328  24.720  29.427  1.00  0.00     0.049 A 
ATOM     43  N   UNL A   1      41.415  26.612  27.523  1.00  0.00    -0.248 NA
ATOM     44  C   UNL A   1      40.002  25.047  28.488  1.00  0.00     0.031 C 
ATOM     45  C   UNL A   1      44.291  23.769  30.005  1.00  0.00     0.029 A 
ATOM     46  N   UNL A   1      43.405  25.771  30.280  1.00  0.00    -0.354 N 
ATOM     47  C   UNL A   1      40.132  27.140  27.583  1.00  0.00     0.074 A 
ATOM     48  C   UNL A   1      39.276  26.064  28.018  1.00  0.00     0.031 C 
ATOM     49  C   UNL A   1      44.674  24.199  31.228  1.00  0.00     0.029 A 
ATOM     50  C   UNL A   1      44.136  25.529  31.434  1.00  0.00     0.049 A 
ATOM     51  H   UNL A   1      42.975  26.636  30.095  1.00  0.00     0.167 HD
ATOM     52  C   UNL A   1      39.924  28.484  27.505  1.00  0.00     0.031 A 
ATOM     53  C   UNL A   1      44.274  26.370  32.486  1.00  0.00     0.031 A 
ATOM     54  C   UNL A   1      41.119  29.182  27.094  1.00  0.00     0.049 A 
ATOM     55  C   UNL A   1      43.978  27.735  31.986  1.00  0.00     0.074 A 
ATOM     56  C   UNL A   1      41.929  29.147  25.976  1.00  0.00     0.029 A 
ATOM     57  N   UNL A   1      41.877  29.758  28.088  1.00  0.00    -0.354 N 
ATOM     58  N   UNL A   1      44.726  28.342  31.109  1.00  0.00    -0.248 NA
ATOM     59  C   UNL A   1      42.609  28.220  32.078  1.00  0.00     0.031 C 
ATOM     60  C   UNL A   1      43.258  29.237  26.487  1.00  0.00     0.029 A 
ATOM     61  C   UNL A   1      43.182  29.398  27.872  1.00  0.00     0.049 A 
ATOM     62  H   UNL A   1      41.542  30.325  28.821  1.00  0.00     0.167 HD
ATOM     63  C   UNL A   1      43.832  28.955  30.243  1.00  0.00     0.074 A 
ATOM     64  C   UNL A   1      42.550  28.935  30.949  1.00  0.00     0.031 C 
ATOM     65  C   UNL A   1      44.143  29.154  28.927  1.00  0.00     0.031 A 
BRANCH  52  66
ATOM     66  C   UNL A   1      38.789  29.202  28.186  1.00  0.00    -0.014 A 
ATOM     67  C   UNL A   1      38.633  29.039  29.575  1.00  0.00     0.009 A 
ATOM     68  C   UNL A   1      37.721  29.797  27.493  1.00  0.00     0.009 A 
ATOM     69  C   UNL A   1      37.437  29.380  30.217  1.00  0.00     0.001 A 
ATOM     70  C   UNL A   1      36.541  30.177  28.137  1.00  0.00     0.001 A 
ATOM     71  C   UNL A   1      36.388  29.941  29.495  1.00  0.00     0.000 A 
ENDBRANCH  52  66
BRANCH  53  72
ATOM     72  C   UNL A   1      44.385  26.040  33.921  1.00  0.00    -0.014 A 
ATOM     73  C   UNL A   1      43.252  25.722  34.684  1.00  0.00     0.009 A 
ATOM     74  C   UNL A   1      45.648  25.771  34.482  1.00  0.00     0.009 A 
ATOM     75  C   UNL A   1      43.378  25.120  35.943  1.00  0.00     0.001 A 
ATOM     76  C   UNL A   1      45.775  25.170  35.739  1.00  0.00     0.001 A 
ATOM     77  C   UNL A   1      44.638  24.830  36.464  1.00  0.00     0.000 A 
ENDBRANCH  53  72
BRANCH  65  78
ATOM     78  C   UNL A   1      45.556  28.839  28.484  1.00  0.00    -0.014 A 
ATOM     79  C   UNL A   1      45.969  27.546  28.111  1.00  0.00     0.009 A 
ATOM     80  C   UNL A   1      46.448  29.900  28.278  1.00  0.00     0.009 A 
ATOM     81  C   UNL A   1      47.241  27.321  27.573  1.00  0.00     0.001 A 
ATOM     82  C   UNL A   1      47.711  29.679  27.724  1.00  0.00     0.001 A 
ATOM     83  C   UNL A   1      48.110  28.390  27.376  1.00  0.00     0.000 A 
ENDBRANCH  65  78
ENDBRANCH  39  40
ENDBRANCH  31  34
ENDBRANCH  29  30
ENDBRANCH  28  29
ENDBRANCH  27  28
ENDBRANCH   1  27
TORSDOF 16
ENDMDL
