MODEL 1
REMARK VINA RESULT:     -10.7      0.000      0.000
REMARK SMILES CC[C@H]1CCC[C@H](O[C@@H]2CC[C@]([NH2+]C(C)C)(C(=O)NCCCCCCNC(=O)c3ccc(-c4c5nc(c(-c6ccccc6)c6ccc([nH]6)c(-c6ccccc6)c6nc(c(-c7ccccc7)c7ccc4[nH]7)C=C6)C=C5)cc3)C2)C1
REMARK SMILES IDX 22 1 21 2 20 3 19 4 17 5 18 6 12 8 9 9 10 10 77 11 11 12
REMARK SMILES IDX 8 13 7 14 3 15 4 16 78 17 5 18 6 19 2 20 1 21 13 22 14 25
REMARK SMILES IDX 15 26 16 27 23 28 24 29 25 30 26 31 27 32 28 34 29 35 30 36
REMARK SMILES IDX 76 37 31 38 75 39 32 40 33 41 34 42 69 43 35 44 74 45 68 46
REMARK SMILES IDX 70 47 36 48 73 49 67 50 66 51 37 53 59 54 44 55 58 56 45 57
REMARK SMILES IDX 48 58 57 59 71 60 46 61 47 62 56 64 72 65 49 66 38 67 39 68
REMARK SMILES IDX 43 69 40 70 42 71 41 72 60 73 61 74 65 75 62 76 64 77 63 78
REMARK SMILES IDX 50 79 51 80 55 81 52 82 54 83 53 84
REMARK H PARENT 19 7 13 23 13 24 26 33 70 52 48 63
REMARK Flexibility Score: inf
ROOT
ATOM      1  C   UNL A   1      37.146  22.137  24.877  1.00  0.00     0.002 C 
ENDROOT
BRANCH   1   2
ATOM      2  C   UNL A   1      36.262  23.092  24.070  1.00  0.00     0.021 C 
BRANCH   2   3
ATOM      3  C   UNL A   1      35.339  23.976  24.904  1.00  0.00     0.116 C 
BRANCH   3   4
ATOM      4  N   UNL A   1      35.082  23.454  26.228  1.00  0.00    -0.351 N 
ATOM      5  C   UNL A   1      33.956  22.899  26.771  1.00  0.00     0.281 C 
ATOM      6  O   UNL A   1      34.102  22.359  27.874  1.00  0.00    -0.268 OA
ATOM      7  H   UNL A   1      35.849  23.508  26.843  1.00  0.00     0.163 HD
BRANCH   5   8
ATOM      8  C   UNL A   1      32.555  22.945  26.054  1.00  0.00     0.178 C 
ATOM      9  C   UNL A   1      30.878  24.578  25.318  1.00  0.00     0.125 C 
ATOM     10  C   UNL A   1      30.333  23.985  26.612  1.00  0.00     0.039 C 
ATOM     11  C   UNL A   1      32.364  24.275  25.331  1.00  0.00     0.111 C 
ATOM     12  C   UNL A   1      31.455  23.090  27.163  1.00  0.00     0.082 C 
BRANCH   9  13
ATOM     13  O   UNL A   1      30.484  25.902  24.970  1.00  0.00    -0.375 OA
BRANCH  13  14
ATOM     14  C   UNL A   1      31.338  27.042  25.127  1.00  0.00     0.118 C 
ATOM     15  C   UNL A   1      31.919  29.016  26.776  1.00  0.00    -0.009 C 
ATOM     16  C   UNL A   1      31.515  29.930  25.610  1.00  0.00     0.004 C 
ATOM     17  C   UNL A   1      31.430  27.564  26.583  1.00  0.00     0.035 C 
ATOM     18  C   UNL A   1      31.920  29.346  24.266  1.00  0.00     0.003 C 
ATOM     19  C   UNL A   1      31.118  28.081  24.032  1.00  0.00     0.032 C 
BRANCH  15  20
ATOM     20  C   UNL A   1      33.427  29.035  27.088  1.00  0.00     0.000 C 
ATOM     21  C   UNL A   1      33.971  30.426  27.388  1.00  0.00     0.004 C 
ENDBRANCH  15  20
ENDBRANCH  13  14
ENDBRANCH   9  13
BRANCH   8  22
ATOM     22  N   UNL A   1      32.346  21.679  25.336  1.00  0.00    -0.332 N 
ATOM     23  H   UNL A   1      31.341  21.625  25.167  1.00  0.00     0.347 HD
ATOM     24  H   UNL A   1      32.819  21.030  25.963  1.00  0.00     0.347 HD
BRANCH  22  25
ATOM     25  C   UNL A   1      32.969  21.328  24.072  1.00  0.00     0.176 C 
ATOM     26  C   UNL A   1      33.117  19.801  24.041  1.00  0.00     0.075 C 
ATOM     27  C   UNL A   1      32.180  21.769  22.843  1.00  0.00     0.075 C 
ENDBRANCH  22  25
ENDBRANCH   8  22
ENDBRANCH   5   8
ENDBRANCH   3   4
ENDBRANCH   2   3
ENDBRANCH   1   2
BRANCH   1  28
ATOM     28  C   UNL A   1      36.753  20.657  24.809  1.00  0.00     0.002 C 
BRANCH  28  29
ATOM     29  C   UNL A   1      37.907  19.657  24.905  1.00  0.00     0.021 C 
BRANCH  29  30
ATOM     30  C   UNL A   1      39.130  20.149  25.673  1.00  0.00     0.116 C 
BRANCH  30  31
ATOM     31  N   UNL A   1      40.143  19.117  25.821  1.00  0.00    -0.352 N 
ATOM     32  C   UNL A   1      41.482  19.231  26.102  1.00  0.00     0.251 C 
ATOM     33  H   UNL A   1      39.819  18.194  25.702  1.00  0.00     0.163 HD
ATOM     34  O   UNL A   1      42.216  18.254  26.009  1.00  0.00    -0.269 OA
BRANCH  32  35
ATOM     35  C   UNL A   1      42.050  20.539  26.498  1.00  0.00     0.039 A 
ATOM     36  C   UNL A   1      42.617  21.353  25.514  1.00  0.00     0.014 A 
ATOM     37  C   UNL A   1      42.044  20.955  27.832  1.00  0.00     0.014 A 
ATOM     38  C   UNL A   1      43.122  22.609  25.859  1.00  0.00     0.010 A 
ATOM     39  C   UNL A   1      42.482  22.235  28.163  1.00  0.00     0.010 A 
ATOM     40  C   UNL A   1      43.027  23.076  27.180  1.00  0.00    -0.014 A 
BRANCH  40  41
ATOM     41  C   UNL A   1      43.485  24.440  27.549  1.00  0.00     0.031 A 
ATOM     42  C   UNL A   1      42.488  25.495  27.946  1.00  0.00     0.074 A 
ATOM     43  C   UNL A   1      44.793  24.750  27.463  1.00  0.00     0.049 A 
ATOM     44  N   UNL A   1      42.693  26.754  28.240  1.00  0.00    -0.248 NA
ATOM     45  C   UNL A   1      41.075  25.089  27.998  1.00  0.00     0.031 C 
ATOM     46  C   UNL A   1      45.859  23.832  27.054  1.00  0.00     0.029 A 
ATOM     47  N   UNL A   1      45.452  25.930  27.708  1.00  0.00    -0.354 N 
ATOM     48  C   UNL A   1      41.437  27.293  28.493  1.00  0.00     0.074 A 
ATOM     49  C   UNL A   1      40.473  26.237  28.275  1.00  0.00     0.031 C 
ATOM     50  C   UNL A   1      47.037  24.474  27.099  1.00  0.00     0.029 A 
ATOM     51  C   UNL A   1      46.808  25.860  27.496  1.00  0.00     0.049 A 
ATOM     52  H   UNL A   1      44.996  26.749  28.008  1.00  0.00     0.167 HD
ATOM     53  C   UNL A   1      41.117  28.547  28.889  1.00  0.00     0.031 A 
ATOM     54  C   UNL A   1      47.761  26.806  27.599  1.00  0.00     0.031 A 
ATOM     55  C   UNL A   1      42.075  29.595  29.119  1.00  0.00     0.049 A 
ATOM     56  C   UNL A   1      47.374  28.196  28.025  1.00  0.00     0.074 A 
ATOM     57  C   UNL A   1      41.851  30.881  29.580  1.00  0.00     0.029 A 
ATOM     58  N   UNL A   1      43.439  29.479  28.903  1.00  0.00    -0.354 N 
ATOM     59  N   UNL A   1      46.190  28.667  28.331  1.00  0.00    -0.248 NA
ATOM     60  C   UNL A   1      48.459  29.182  28.131  1.00  0.00     0.031 C 
ATOM     61  C   UNL A   1      43.073  31.562  29.587  1.00  0.00     0.029 A 
ATOM     62  C   UNL A   1      44.065  30.680  29.194  1.00  0.00     0.049 A 
ATOM     63  H   UNL A   1      43.895  28.665  28.589  1.00  0.00     0.167 HD
ATOM     64  C   UNL A   1      46.392  29.992  28.696  1.00  0.00     0.074 A 
ATOM     65  C   UNL A   1      47.813  30.243  28.590  1.00  0.00     0.031 C 
ATOM     66  C   UNL A   1      45.481  30.916  29.087  1.00  0.00     0.031 A 
BRANCH  53  67
ATOM     67  C   UNL A   1      39.660  28.865  29.092  1.00  0.00    -0.014 A 
ATOM     68  C   UNL A   1      38.865  29.347  28.040  1.00  0.00     0.009 A 
ATOM     69  C   UNL A   1      39.060  28.624  30.338  1.00  0.00     0.009 A 
ATOM     70  C   UNL A   1      37.509  29.613  28.240  1.00  0.00     0.001 A 
ATOM     71  C   UNL A   1      37.697  28.860  30.527  1.00  0.00     0.001 A 
ATOM     72  C   UNL A   1      36.925  29.363  29.481  1.00  0.00     0.000 A 
ENDBRANCH  53  67
BRANCH  54  73
ATOM     73  C   UNL A   1      49.179  26.477  27.294  1.00  0.00    -0.014 A 
ATOM     74  C   UNL A   1      49.656  26.524  25.976  1.00  0.00     0.009 A 
ATOM     75  C   UNL A   1      50.058  26.092  28.320  1.00  0.00     0.009 A 
ATOM     76  C   UNL A   1      50.973  26.159  25.686  1.00  0.00     0.001 A 
ATOM     77  C   UNL A   1      51.383  25.760  28.030  1.00  0.00     0.001 A 
ATOM     78  C   UNL A   1      51.836  25.781  26.714  1.00  0.00     0.000 A 
ENDBRANCH  54  73
BRANCH  66  79
ATOM     79  C   UNL A   1      45.998  32.275  29.471  1.00  0.00    -0.014 A 
ATOM     80  C   UNL A   1      46.093  33.315  28.534  1.00  0.00     0.009 A 
ATOM     81  C   UNL A   1      46.355  32.527  30.806  1.00  0.00     0.009 A 
ATOM     82  C   UNL A   1      46.569  34.570  28.918  1.00  0.00     0.001 A 
ATOM     83  C   UNL A   1      46.799  33.791  31.194  1.00  0.00     0.001 A 
ATOM     84  C   UNL A   1      46.915  34.809  30.248  1.00  0.00     0.000 A 
ENDBRANCH  66  79
ENDBRANCH  40  41
ENDBRANCH  32  35
ENDBRANCH  30  31
ENDBRANCH  29  30
ENDBRANCH  28  29
ENDBRANCH   1  28
TORSDOF 18
ENDMDL
MODEL 2
REMARK VINA RESULT:     -10.7      1.219      5.878
REMARK SMILES CC[C@H]1CCC[C@H](O[C@@H]2CC[C@]([NH2+]C(C)C)(C(=O)NCCCCCCNC(=O)c3ccc(-c4c5nc(c(-c6ccccc6)c6ccc([nH]6)c(-c6ccccc6)c6nc(c(-c7ccccc7)c7ccc4[nH]7)C=C6)C=C5)cc3)C2)C1
REMARK SMILES IDX 22 1 21 2 20 3 19 4 17 5 18 6 12 8 9 9 10 10 77 11 11 12
REMARK SMILES IDX 8 13 7 14 3 15 4 16 78 17 5 18 6 19 2 20 1 21 13 22 14 25
REMARK SMILES IDX 15 26 16 27 23 28 24 29 25 30 26 31 27 32 28 34 29 35 30 36
REMARK SMILES IDX 76 37 31 38 75 39 32 40 33 41 34 42 69 43 35 44 74 45 68 46
REMARK SMILES IDX 70 47 36 48 73 49 67 50 66 51 37 53 59 54 44 55 58 56 45 57
REMARK SMILES IDX 48 58 57 59 71 60 46 61 47 62 56 64 72 65 49 66 38 67 39 68
REMARK SMILES IDX 43 69 40 70 42 71 41 72 60 73 61 74 65 75 62 76 64 77 63 78
REMARK SMILES IDX 50 79 51 80 55 81 52 82 54 83 53 84
REMARK H PARENT 19 7 13 23 13 24 26 33 70 52 48 63
REMARK Flexibility Score: inf
ROOT
ATOM      1  C   UNL A   1      37.035  22.036  24.726  1.00  0.00     0.002 C 
ENDROOT
BRANCH   1   2
ATOM      2  C   UNL A   1      36.106  22.904  23.872  1.00  0.00     0.021 C 
BRANCH   2   3
ATOM      3  C   UNL A   1      35.149  23.793  24.661  1.00  0.00     0.116 C 
BRANCH   3   4
ATOM      4  N   UNL A   1      34.932  23.345  26.019  1.00  0.00    -0.351 N 
ATOM      5  C   UNL A   1      33.820  22.831  26.628  1.00  0.00     0.281 C 
ATOM      6  O   UNL A   1      33.999  22.349  27.753  1.00  0.00    -0.268 OA
ATOM      7  H   UNL A   1      35.719  23.424  26.604  1.00  0.00     0.163 HD
BRANCH   5   8
ATOM      8  C   UNL A   1      32.397  22.852  25.955  1.00  0.00     0.178 C 
ATOM      9  C   UNL A   1      30.700  24.460  25.209  1.00  0.00     0.125 C 
ATOM     10  C   UNL A   1      30.196  23.921  26.543  1.00  0.00     0.039 C 
ATOM     11  C   UNL A   1      32.185  24.152  25.185  1.00  0.00     0.111 C 
ATOM     12  C   UNL A   1      31.334  23.046  27.092  1.00  0.00     0.082 C 
BRANCH   9  13
ATOM     13  O   UNL A   1      30.297  25.770  24.820  1.00  0.00    -0.375 OA
BRANCH  13  14
ATOM     14  C   UNL A   1      31.157  26.913  24.905  1.00  0.00     0.118 C 
ATOM     15  C   UNL A   1      31.821  28.926  26.471  1.00  0.00    -0.009 C 
ATOM     16  C   UNL A   1      31.356  29.811  25.305  1.00  0.00     0.004 C 
ATOM     17  C   UNL A   1      31.324  27.470  26.340  1.00  0.00     0.035 C 
ATOM     18  C   UNL A   1      31.692  29.194  23.957  1.00  0.00     0.003 C 
ATOM     19  C   UNL A   1      30.880  27.924  23.797  1.00  0.00     0.032 C 
BRANCH  15  20
ATOM     20  C   UNL A   1      33.343  28.953  26.704  1.00  0.00     0.000 C 
ATOM     21  C   UNL A   1      34.057  27.697  26.222  1.00  0.00     0.004 C 
ENDBRANCH  15  20
ENDBRANCH  13  14
ENDBRANCH   9  13
BRANCH   8  22
ATOM     22  N   UNL A   1      32.162  21.559  25.296  1.00  0.00    -0.332 N 
ATOM     23  H   UNL A   1      31.191  21.585  24.984  1.00  0.00     0.347 HD
ATOM     24  H   UNL A   1      32.473  20.919  26.027  1.00  0.00     0.347 HD
BRANCH  22  25
ATOM     25  C   UNL A   1      32.918  21.054  24.164  1.00  0.00     0.176 C 
ATOM     26  C   UNL A   1      33.105  19.546  24.372  1.00  0.00     0.075 C 
ATOM     27  C   UNL A   1      32.247  21.283  22.812  1.00  0.00     0.075 C 
ENDBRANCH  22  25
ENDBRANCH   8  22
ENDBRANCH   5   8
ENDBRANCH   3   4
ENDBRANCH   2   3
ENDBRANCH   1   2
BRANCH   1  28
ATOM     28  C   UNL A   1      36.704  20.540  24.749  1.00  0.00     0.002 C 
BRANCH  28  29
ATOM     29  C   UNL A   1      37.896  19.598  24.933  1.00  0.00     0.021 C 
BRANCH  29  30
ATOM     30  C   UNL A   1      39.051  20.166  25.753  1.00  0.00     0.116 C 
BRANCH  30  31
ATOM     31  N   UNL A   1      40.193  19.267  25.795  1.00  0.00    -0.352 N 
ATOM     32  C   UNL A   1      41.511  19.532  26.078  1.00  0.00     0.251 C 
ATOM     33  H   UNL A   1      39.993  18.326  25.589  1.00  0.00     0.163 HD
ATOM     34  O   UNL A   1      42.366  18.675  25.886  1.00  0.00    -0.269 OA
BRANCH  32  35
ATOM     35  C   UNL A   1      41.909  20.860  26.597  1.00  0.00     0.039 A 
ATOM     36  C   UNL A   1      42.363  21.827  25.695  1.00  0.00     0.014 A 
ATOM     37  C   UNL A   1      41.854  21.148  27.963  1.00  0.00     0.014 A 
ATOM     38  C   UNL A   1      42.704  23.100  26.156  1.00  0.00     0.010 A 
ATOM     39  C   UNL A   1      42.126  22.438  28.412  1.00  0.00     0.010 A 
ATOM     40  C   UNL A   1      42.556  23.428  27.514  1.00  0.00    -0.014 A 
BRANCH  40  41
ATOM     41  C   UNL A   1      42.836  24.800  28.009  1.00  0.00     0.031 A 
ATOM     42  C   UNL A   1      44.233  25.196  28.404  1.00  0.00     0.074 A 
ATOM     43  C   UNL A   1      41.821  25.673  28.166  1.00  0.00     0.049 A 
ATOM     44  N   UNL A   1      44.658  26.325  28.913  1.00  0.00    -0.248 NA
ATOM     45  C   UNL A   1      45.287  24.185  28.223  1.00  0.00     0.031 C 
ATOM     46  C   UNL A   1      40.415  25.403  27.858  1.00  0.00     0.029 A 
ATOM     47  N   UNL A   1      41.814  26.964  28.632  1.00  0.00    -0.354 N 
ATOM     48  C   UNL A   1      46.020  26.153  29.131  1.00  0.00     0.074 A 
ATOM     49  C   UNL A   1      46.342  24.798  28.741  1.00  0.00     0.031 C 
ATOM     50  C   UNL A   1      39.687  26.501  28.121  1.00  0.00     0.029 A 
ATOM     51  C   UNL A   1      40.565  27.536  28.658  1.00  0.00     0.049 A 
ATOM     52  H   UNL A   1      42.628  27.436  28.922  1.00  0.00     0.167 HD
ATOM     53  C   UNL A   1      46.924  27.047  29.596  1.00  0.00     0.031 A 
ATOM     54  C   UNL A   1      40.166  28.753  29.074  1.00  0.00     0.031 A 
ATOM     55  C   UNL A   1      46.607  28.399  29.972  1.00  0.00     0.049 A 
ATOM     56  C   UNL A   1      41.190  29.720  29.602  1.00  0.00     0.074 A 
ATOM     57  C   UNL A   1      47.466  29.398  30.398  1.00  0.00     0.029 A 
ATOM     58  N   UNL A   1      45.332  28.941  29.972  1.00  0.00    -0.354 N 
ATOM     59  N   UNL A   1      42.485  29.565  29.731  1.00  0.00    -0.248 NA
ATOM     60  C   UNL A   1      40.696  31.038  30.030  1.00  0.00     0.031 C 
ATOM     61  C   UNL A   1      46.702  30.527  30.711  1.00  0.00     0.029 A 
ATOM     62  C   UNL A   1      45.377  30.252  30.418  1.00  0.00     0.049 A 
ATOM     63  H   UNL A   1      44.515  28.465  29.697  1.00  0.00     0.167 HD
ATOM     64  C   UNL A   1      42.964  30.772  30.224  1.00  0.00     0.074 A 
ATOM     65  C   UNL A   1      41.823  31.654  30.353  1.00  0.00     0.031 C 
ATOM     66  C   UNL A   1      44.235  31.120  30.538  1.00  0.00     0.031 A 
BRANCH  53  67
ATOM     67  C   UNL A   1      48.350  26.590  29.735  1.00  0.00    -0.014 A 
ATOM     68  C   UNL A   1      48.798  25.943  30.898  1.00  0.00     0.009 A 
ATOM     69  C   UNL A   1      49.244  26.758  28.666  1.00  0.00     0.009 A 
ATOM     70  C   UNL A   1      50.120  25.503  30.999  1.00  0.00     0.001 A 
ATOM     71  C   UNL A   1      50.557  26.289  28.758  1.00  0.00     0.001 A 
ATOM     72  C   UNL A   1      50.995  25.671  29.928  1.00  0.00     0.000 A 
ENDBRANCH  53  67
BRANCH  54  73
ATOM     73  C   UNL A   1      38.729  29.133  29.011  1.00  0.00    -0.014 A 
ATOM     74  C   UNL A   1      38.187  29.683  27.841  1.00  0.00     0.009 A 
ATOM     75  C   UNL A   1      37.899  28.967  30.131  1.00  0.00     0.009 A 
ATOM     76  C   UNL A   1      36.852  30.093  27.803  1.00  0.00     0.001 A 
ATOM     77  C   UNL A   1      36.556  29.348  30.080  1.00  0.00     0.001 A 
ATOM     78  C   UNL A   1      36.037  29.921  28.922  1.00  0.00     0.000 A 
ENDBRANCH  54  73
BRANCH  66  79
ATOM     79  C   UNL A   1      44.469  32.527  31.013  1.00  0.00    -0.014 A 
ATOM     80  C   UNL A   1      44.696  33.577  30.110  1.00  0.00     0.009 A 
ATOM     81  C   UNL A   1      44.419  32.810  32.388  1.00  0.00     0.009 A 
ATOM     82  C   UNL A   1      44.902  34.877  30.577  1.00  0.00     0.001 A 
ATOM     83  C   UNL A   1      44.593  34.115  32.849  1.00  0.00     0.001 A 
ATOM     84  C   UNL A   1      44.845  35.146  31.945  1.00  0.00     0.000 A 
ENDBRANCH  66  79
ENDBRANCH  40  41
ENDBRANCH  32  35
ENDBRANCH  30  31
ENDBRANCH  29  30
ENDBRANCH  28  29
ENDBRANCH   1  28
TORSDOF 18
ENDMDL
MODEL 3
REMARK VINA RESULT:     -10.2      1.652      6.225
REMARK SMILES CC[C@H]1CCC[C@H](O[C@@H]2CC[C@]([NH2+]C(C)C)(C(=O)NCCCCCCNC(=O)c3ccc(-c4c5nc(c(-c6ccccc6)c6ccc([nH]6)c(-c6ccccc6)c6nc(c(-c7ccccc7)c7ccc4[nH]7)C=C6)C=C5)cc3)C2)C1
REMARK SMILES IDX 22 1 21 2 20 3 19 4 17 5 18 6 12 8 9 9 10 10 77 11 11 12
REMARK SMILES IDX 8 13 7 14 3 15 4 16 78 17 5 18 6 19 2 20 1 21 13 22 14 25
REMARK SMILES IDX 15 26 16 27 23 28 24 29 25 30 26 31 27 32 28 34 29 35 30 36
REMARK SMILES IDX 76 37 31 38 75 39 32 40 33 41 34 42 69 43 35 44 74 45 68 46
REMARK SMILES IDX 70 47 36 48 73 49 67 50 66 51 37 53 59 54 44 55 58 56 45 57
REMARK SMILES IDX 48 58 57 59 71 60 46 61 47 62 56 64 72 65 49 66 38 67 39 68
REMARK SMILES IDX 43 69 40 70 42 71 41 72 60 73 61 74 65 75 62 76 64 77 63 78
REMARK SMILES IDX 50 79 51 80 55 81 52 82 54 83 53 84
REMARK H PARENT 19 7 13 23 13 24 26 33 70 52 48 63
REMARK Flexibility Score: inf
ROOT
ATOM      1  C   UNL A   1      38.823  23.543  26.320  1.00  0.00     0.002 C 
ENDROOT
BRANCH   1   2
ATOM      2  C   UNL A   1      37.652  23.063  25.460  1.00  0.00     0.021 C 
BRANCH   2   3
ATOM      3  C   UNL A   1      36.287  23.618  25.861  1.00  0.00     0.116 C 
BRANCH   3   4
ATOM      4  N   UNL A   1      35.572  22.772  26.789  1.00  0.00    -0.351 N 
ATOM      5  C   UNL A   1      34.264  22.368  26.812  1.00  0.00     0.281 C 
ATOM      6  O   UNL A   1      33.992  21.477  27.625  1.00  0.00    -0.268 OA
ATOM      7  H   UNL A   1      36.118  22.428  27.532  1.00  0.00     0.163 HD
BRANCH   5   8
ATOM      8  C   UNL A   1      33.166  22.994  25.874  1.00  0.00     0.178 C 
ATOM      9  C   UNL A   1      31.434  24.732  25.916  1.00  0.00     0.125 C 
ATOM     10  C   UNL A   1      30.695  23.412  26.104  1.00  0.00     0.039 C 
ATOM     11  C   UNL A   1      32.879  24.439  26.271  1.00  0.00     0.111 C 
ATOM     12  C   UNL A   1      31.789  22.342  26.249  1.00  0.00     0.082 C 
BRANCH   9  13
ATOM     13  O   UNL A   1      30.851  25.910  26.466  1.00  0.00    -0.375 OA
BRANCH  13  14
ATOM     14  C   UNL A   1      30.696  27.128  25.726  1.00  0.00     0.118 C 
ATOM     15  C   UNL A   1      30.635  28.101  23.278  1.00  0.00    -0.009 C 
ATOM     16  C   UNL A   1      31.832  28.950  23.729  1.00  0.00     0.004 C 
ATOM     17  C   UNL A   1      30.360  26.916  24.229  1.00  0.00     0.035 C 
ATOM     18  C   UNL A   1      31.705  29.380  25.182  1.00  0.00     0.003 C 
ATOM     19  C   UNL A   1      31.785  28.144  26.055  1.00  0.00     0.032 C 
BRANCH  15  20
ATOM     20  C   UNL A   1      29.347  28.914  23.049  1.00  0.00     0.000 C 
ATOM     21  C   UNL A   1      29.508  30.043  22.039  1.00  0.00     0.004 C 
ENDBRANCH  15  20
ENDBRANCH  13  14
ENDBRANCH   9  13
BRANCH   8  22
ATOM     22  N   UNL A   1      33.487  22.664  24.477  1.00  0.00    -0.332 N 
ATOM     23  H   UNL A   1      33.788  21.689  24.491  1.00  0.00     0.347 HD
ATOM     24  H   UNL A   1      34.132  23.421  24.252  1.00  0.00     0.347 HD
BRANCH  22  25
ATOM     25  C   UNL A   1      32.559  22.767  23.365  1.00  0.00     0.176 C 
ATOM     26  C   UNL A   1      33.227  23.632  22.288  1.00  0.00     0.075 C 
ATOM     27  C   UNL A   1      32.173  21.425  22.748  1.00  0.00     0.075 C 
ENDBRANCH  22  25
ENDBRANCH   8  22
ENDBRANCH   5   8
ENDBRANCH   3   4
ENDBRANCH   2   3
ENDBRANCH   1   2
BRANCH   1  28
ATOM     28  C   UNL A   1      39.650  22.438  26.986  1.00  0.00     0.002 C 
BRANCH  28  29
ATOM     29  C   UNL A   1      39.974  21.228  26.107  1.00  0.00     0.021 C 
BRANCH  29  30
ATOM     30  C   UNL A   1      40.778  20.126  26.790  1.00  0.00     0.116 C 
BRANCH  30  31
ATOM     31  N   UNL A   1      42.034  19.855  26.109  1.00  0.00    -0.352 N 
ATOM     32  C   UNL A   1      43.040  20.714  25.743  1.00  0.00     0.251 C 
ATOM     33  H   UNL A   1      42.186  18.910  25.875  1.00  0.00     0.163 HD
ATOM     34  O   UNL A   1      43.945  20.326  25.012  1.00  0.00    -0.269 OA
BRANCH  32  35
ATOM     35  C   UNL A   1      43.027  22.118  26.211  1.00  0.00     0.039 A 
ATOM     36  C   UNL A   1      43.200  22.376  27.574  1.00  0.00     0.014 A 
ATOM     37  C   UNL A   1      42.828  23.175  25.319  1.00  0.00     0.014 A 
ATOM     38  C   UNL A   1      43.234  23.695  28.032  1.00  0.00     0.010 A 
ATOM     39  C   UNL A   1      42.933  24.490  25.766  1.00  0.00     0.010 A 
ATOM     40  C   UNL A   1      43.135  24.765  27.127  1.00  0.00    -0.014 A 
BRANCH  40  41
ATOM     41  C   UNL A   1      43.251  26.173  27.586  1.00  0.00     0.031 A 
ATOM     42  C   UNL A   1      44.599  26.836  27.676  1.00  0.00     0.074 A 
ATOM     43  C   UNL A   1      42.148  26.836  27.985  1.00  0.00     0.049 A 
ATOM     44  N   UNL A   1      44.902  28.033  28.111  1.00  0.00    -0.248 NA
ATOM     45  C   UNL A   1      45.760  26.043  27.242  1.00  0.00     0.031 C 
ATOM     46  C   UNL A   1      40.786  26.297  27.985  1.00  0.00     0.029 A 
ATOM     47  N   UNL A   1      41.997  28.110  28.477  1.00  0.00    -0.354 N 
ATOM     48  C   UNL A   1      46.285  28.129  28.020  1.00  0.00     0.074 A 
ATOM     49  C   UNL A   1      46.766  26.856  27.532  1.00  0.00     0.031 C 
ATOM     50  C   UNL A   1      39.938  27.238  28.431  1.00  0.00     0.029 A 
ATOM     51  C   UNL A   1      40.699  28.431  28.790  1.00  0.00     0.049 A 
ATOM     52  H   UNL A   1      42.749  28.734  28.594  1.00  0.00     0.167 HD
ATOM     53  C   UNL A   1      47.082  29.188  28.300  1.00  0.00     0.031 A 
ATOM     54  C   UNL A   1      40.177  29.555  29.317  1.00  0.00     0.031 A 
ATOM     55  C   UNL A   1      46.603  30.459  28.774  1.00  0.00     0.049 A 
ATOM     56  C   UNL A   1      41.087  30.709  29.634  1.00  0.00     0.074 A 
ATOM     57  C   UNL A   1      47.328  31.611  29.028  1.00  0.00     0.029 A 
ATOM     58  N   UNL A   1      45.280  30.746  29.067  1.00  0.00    -0.354 N 
ATOM     59  N   UNL A   1      42.384  30.808  29.472  1.00  0.00    -0.248 NA
ATOM     60  C   UNL A   1      40.458  31.914  30.196  1.00  0.00     0.031 C 
ATOM     61  C   UNL A   1      46.451  32.577  29.532  1.00  0.00     0.029 A 
ATOM     62  C   UNL A   1      45.171  32.048  29.528  1.00  0.00     0.049 A 
ATOM     63  H   UNL A   1      44.529  30.118  28.965  1.00  0.00     0.167 HD
ATOM     64  C   UNL A   1      42.721  32.092  29.881  1.00  0.00     0.074 A 
ATOM     65  C   UNL A   1      41.489  32.740  30.281  1.00  0.00     0.031 C 
ATOM     66  C   UNL A   1      43.940  32.682  29.919  1.00  0.00     0.031 A 
BRANCH  53  67
ATOM     67  C   UNL A   1      48.564  29.015  28.112  1.00  0.00    -0.014 A 
ATOM     68  C   UNL A   1      49.185  29.327  26.891  1.00  0.00     0.009 A 
ATOM     69  C   UNL A   1      49.359  28.588  29.187  1.00  0.00     0.009 A 
ATOM     70  C   UNL A   1      50.566  29.184  26.743  1.00  0.00     0.001 A 
ATOM     71  C   UNL A   1      50.744  28.476  29.045  1.00  0.00     0.001 A 
ATOM     72  C   UNL A   1      51.345  28.765  27.820  1.00  0.00     0.000 A 
ENDBRANCH  53  67
BRANCH  54  73
ATOM     73  C   UNL A   1      38.716  29.651  29.581  1.00  0.00    -0.014 A 
ATOM     74  C   UNL A   1      37.836  30.083  28.578  1.00  0.00     0.009 A 
ATOM     75  C   UNL A   1      38.197  29.331  30.846  1.00  0.00     0.009 A 
ATOM     76  C   UNL A   1      36.473  30.228  28.845  1.00  0.00     0.001 A 
ATOM     77  C   UNL A   1      36.829  29.445  31.100  1.00  0.00     0.001 A 
ATOM     78  C   UNL A   1      35.970  29.905  30.105  1.00  0.00     0.000 A 
ENDBRANCH  54  73
BRANCH  66  79
ATOM     79  C   UNL A   1      44.000  34.116  30.370  1.00  0.00    -0.014 A 
ATOM     80  C   UNL A   1      43.817  35.175  29.468  1.00  0.00     0.009 A 
ATOM     81  C   UNL A   1      44.201  34.405  31.729  1.00  0.00     0.009 A 
ATOM     82  C   UNL A   1      43.869  36.497  29.914  1.00  0.00     0.001 A 
ATOM     83  C   UNL A   1      44.220  35.726  32.176  1.00  0.00     0.001 A 
ATOM     84  C   UNL A   1      44.064  36.772  31.268  1.00  0.00     0.000 A 
ENDBRANCH  66  79
ENDBRANCH  40  41
ENDBRANCH  32  35
ENDBRANCH  30  31
ENDBRANCH  29  30
ENDBRANCH  28  29
ENDBRANCH   1  28
TORSDOF 18
ENDMDL
