MODEL 1
REMARK VINA RESULT:      -9.7      0.000      0.000
REMARK SMILES CC[C@@H]1CCCN1C(=O)N(CC(=O)NCCCCCCNC(=O)c1ccc(-c2c3nc(c(-c4ccccc4)c4ccc([nH]4)c(-c4ccccc4)c4nc(c(-c5ccccc5)c5ccc2[nH]5)C=C4)C=C3)cc1)CC(F)(F)F
REMARK SMILES IDX 16 1 15 2 14 3 12 4 13 5 11 7 10 8 8 9 9 10 7 11 3 12 4 13
REMARK SMILES IDX 5 14 6 15 2 16 1 17 72 18 73 19 74 20 75 21 76 22 17 23
REMARK SMILES IDX 18 24 19 25 20 26 21 27 22 28 23 30 24 31 25 32 71 33 26 34
REMARK SMILES IDX 70 35 27 36 28 37 29 38 64 39 30 40 69 41 63 42 65 43 31 44
REMARK SMILES IDX 68 45 62 46 61 47 32 49 54 50 39 51 53 52 40 53 43 54 52 55
REMARK SMILES IDX 66 56 41 57 42 58 51 60 67 61 44 62 33 63 34 64 38 65 35 66
REMARK SMILES IDX 37 67 36 68 55 69 56 70 60 71 57 72 59 73 58 74 45 75 46 76
REMARK SMILES IDX 50 77 47 78 49 79 48 80
REMARK H PARENT 14 6 21 29 65 48 43 59
REMARK Flexibility Score: inf
ROOT
ATOM      1  C   UNL A   1      33.905  27.827  26.063  1.00  0.00     0.021 C 
ENDROOT
BRANCH   1   2
ATOM      2  C   UNL A   1      32.962  27.232  25.027  1.00  0.00     0.116 C 
BRANCH   2   3
ATOM      3  N   UNL A   1      33.655  26.640  23.901  1.00  0.00    -0.355 N 
ATOM      4  C   UNL A   1      33.302  25.689  22.999  1.00  0.00     0.239 C 
ATOM      5  O   UNL A   1      34.052  25.572  22.020  1.00  0.00    -0.273 OA
ATOM      6  H   UNL A   1      34.562  26.996  23.764  1.00  0.00     0.163 HD
BRANCH   4   7
ATOM      7  C   UNL A   1      31.994  24.866  23.025  1.00  0.00     0.221 C 
BRANCH   7   8
ATOM      8  N   UNL A   1      31.877  23.562  23.641  1.00  0.00    -0.306 N 
BRANCH   8   9
ATOM      9  C   UNL A   1      32.406  22.356  23.273  1.00  0.00     0.321 C 
ATOM     10  O   UNL A   1      32.062  21.932  22.156  1.00  0.00    -0.248 OA
BRANCH   9  11
ATOM     11  N   UNL A   1      33.347  21.630  23.975  1.00  0.00    -0.322 N 
ATOM     12  C   UNL A   1      34.644  21.800  24.719  1.00  0.00     0.086 C 
ATOM     13  C   UNL A   1      35.120  20.339  24.873  1.00  0.00     0.027 C 
ATOM     14  C   UNL A   1      33.854  19.577  25.157  1.00  0.00     0.024 C 
ATOM     15  C   UNL A   1      32.849  20.269  24.266  1.00  0.00     0.122 C 
BRANCH  12  16
ATOM     16  C   UNL A   1      35.823  22.645  24.211  1.00  0.00     0.022 C 
ATOM     17  C   UNL A   1      36.138  23.908  25.015  1.00  0.00     0.006 C 
ENDBRANCH  12  16
ENDBRANCH   9  11
ENDBRANCH   8   9
BRANCH   8  18
ATOM     18  C   UNL A   1      30.987  23.537  24.842  1.00  0.00     0.237 C 
BRANCH  18  19
ATOM     19  C   UNL A   1      31.624  23.970  26.164  1.00  0.00     0.406 C 
ATOM     20  F   UNL A   1      31.118  25.119  26.652  1.00  0.00    -0.169 F 
ATOM     21  F   UNL A   1      31.450  23.013  27.108  1.00  0.00    -0.169 F 
ATOM     22  F   UNL A   1      32.961  24.134  26.021  1.00  0.00    -0.169 F 
ENDBRANCH  18  19
ENDBRANCH   8  18
ENDBRANCH   7   8
ENDBRANCH   4   7
ENDBRANCH   2   3
ENDBRANCH   1   2
BRANCH   1  23
ATOM     23  C   UNL A   1      33.224  28.652  27.156  1.00  0.00     0.002 C 
BRANCH  23  24
ATOM     24  C   UNL A   1      31.799  29.114  26.846  1.00  0.00     0.002 C 
BRANCH  24  25
ATOM     25  C   UNL A   1      31.633  30.611  26.583  1.00  0.00     0.021 C 
BRANCH  25  26
ATOM     26  C   UNL A   1      32.799  31.483  27.033  1.00  0.00     0.116 C 
BRANCH  26  27
ATOM     27  N   UNL A   1      32.392  32.833  27.387  1.00  0.00    -0.352 N 
ATOM     28  C   UNL A   1      33.047  33.741  28.189  1.00  0.00     0.251 C 
ATOM     29  H   UNL A   1      31.537  33.137  27.006  1.00  0.00     0.163 HD
ATOM     30  O   UNL A   1      32.528  34.798  28.501  1.00  0.00    -0.269 OA
BRANCH  28  31
ATOM     31  C   UNL A   1      34.393  33.395  28.691  1.00  0.00     0.039 A 
ATOM     32  C   UNL A   1      34.512  32.704  29.901  1.00  0.00     0.014 A 
ATOM     33  C   UNL A   1      35.527  33.719  27.941  1.00  0.00     0.014 A 
ATOM     34  C   UNL A   1      35.770  32.279  30.330  1.00  0.00     0.010 A 
ATOM     35  C   UNL A   1      36.768  33.239  28.338  1.00  0.00     0.010 A 
ATOM     36  C   UNL A   1      36.902  32.517  29.536  1.00  0.00    -0.014 A 
BRANCH  36  37
ATOM     37  C   UNL A   1      38.254  32.056  29.933  1.00  0.00     0.031 A 
ATOM     38  C   UNL A   1      38.763  30.740  29.420  1.00  0.00     0.074 A 
ATOM     39  C   UNL A   1      38.976  32.759  30.825  1.00  0.00     0.049 A 
ATOM     40  N   UNL A   1      39.831  30.070  29.770  1.00  0.00    -0.248 NA
ATOM     41  C   UNL A   1      37.940  30.075  28.397  1.00  0.00     0.031 C 
ATOM     42  C   UNL A   1      38.594  34.050  31.401  1.00  0.00     0.029 A 
ATOM     43  N   UNL A   1      40.180  32.473  31.418  1.00  0.00    -0.354 N 
ATOM     44  C   UNL A   1      39.787  28.890  29.040  1.00  0.00     0.074 A 
ATOM     45  C   UNL A   1      38.570  28.919  28.258  1.00  0.00     0.031 C 
ATOM     46  C   UNL A   1      39.556  34.452  32.249  1.00  0.00     0.029 A 
ATOM     47  C   UNL A   1      40.593  33.426  32.316  1.00  0.00     0.049 A 
ATOM     48  H   UNL A   1      40.699  31.660  31.217  1.00  0.00     0.167 HD
ATOM     49  C   UNL A   1      40.684  27.876  29.013  1.00  0.00     0.031 A 
ATOM     50  C   UNL A   1      41.675  33.461  33.115  1.00  0.00     0.031 A 
ATOM     51  C   UNL A   1      41.898  27.855  29.783  1.00  0.00     0.049 A 
ATOM     52  C   UNL A   1      42.639  32.308  33.100  1.00  0.00     0.074 A 
ATOM     53  C   UNL A   1      42.898  26.898  29.792  1.00  0.00     0.029 A 
ATOM     54  N   UNL A   1      42.276  28.841  30.681  1.00  0.00    -0.354 N 
ATOM     55  N   UNL A   1      42.604  31.212  32.381  1.00  0.00    -0.248 NA
ATOM     56  C   UNL A   1      43.792  32.396  34.009  1.00  0.00     0.031 C 
ATOM     57  C   UNL A   1      43.860  27.285  30.730  1.00  0.00     0.029 A 
ATOM     58  C   UNL A   1      43.485  28.506  31.266  1.00  0.00     0.049 A 
ATOM     59  H   UNL A   1      41.761  29.657  30.874  1.00  0.00     0.167 HD
ATOM     60  C   UNL A   1      43.747  30.500  32.721  1.00  0.00     0.074 A 
ATOM     61  C   UNL A   1      44.452  31.285  33.713  1.00  0.00     0.031 C 
ATOM     62  C   UNL A   1      44.178  29.307  32.243  1.00  0.00     0.031 A 
BRANCH  49  63
ATOM     63  C   UNL A   1      40.357  26.699  28.139  1.00  0.00    -0.014 A 
ATOM     64  C   UNL A   1      39.559  25.640  28.605  1.00  0.00     0.009 A 
ATOM     65  C   UNL A   1      40.863  26.640  26.831  1.00  0.00     0.009 A 
ATOM     66  C   UNL A   1      39.323  24.525  27.800  1.00  0.00     0.001 A 
ATOM     67  C   UNL A   1      40.599  25.539  26.017  1.00  0.00     0.001 A 
ATOM     68  C   UNL A   1      39.841  24.475  26.507  1.00  0.00     0.000 A 
ENDBRANCH  49  63
BRANCH  50  69
ATOM     69  C   UNL A   1      41.920  34.645  33.977  1.00  0.00    -0.014 A 
ATOM     70  C   UNL A   1      41.452  34.656  35.301  1.00  0.00     0.009 A 
ATOM     71  C   UNL A   1      42.630  35.756  33.498  1.00  0.00     0.009 A 
ATOM     72  C   UNL A   1      41.680  35.762  36.123  1.00  0.00     0.001 A 
ATOM     73  C   UNL A   1      42.876  36.850  34.329  1.00  0.00     0.001 A 
ATOM     74  C   UNL A   1      42.396  36.855  35.638  1.00  0.00     0.000 A 
ENDBRANCH  50  69
BRANCH  62  75
ATOM     75  C   UNL A   1      45.500  28.797  32.741  1.00  0.00    -0.014 A 
ATOM     76  C   UNL A   1      46.704  29.156  32.118  1.00  0.00     0.009 A 
ATOM     77  C   UNL A   1      45.539  28.001  33.898  1.00  0.00     0.009 A 
ATOM     78  C   UNL A   1      47.924  28.713  32.637  1.00  0.00     0.001 A 
ATOM     79  C   UNL A   1      46.759  27.582  34.427  1.00  0.00     0.001 A 
ATOM     80  C   UNL A   1      47.950  27.934  33.794  1.00  0.00     0.000 A 
ENDBRANCH  62  75
ENDBRANCH  36  37
ENDBRANCH  28  31
ENDBRANCH  26  27
ENDBRANCH  25  26
ENDBRANCH  24  25
ENDBRANCH  23  24
ENDBRANCH   1  23
TORSDOF 19
ENDMDL
MODEL 2
REMARK VINA RESULT:      -9.7      3.355      8.586
REMARK SMILES CC[C@@H]1CCCN1C(=O)N(CC(=O)NCCCCCCNC(=O)c1ccc(-c2c3nc(c(-c4ccccc4)c4ccc([nH]4)c(-c4ccccc4)c4nc(c(-c5ccccc5)c5ccc2[nH]5)C=C4)C=C3)cc1)CC(F)(F)F
REMARK SMILES IDX 16 1 15 2 14 3 12 4 13 5 11 7 10 8 8 9 9 10 7 11 3 12 4 13
REMARK SMILES IDX 5 14 6 15 2 16 1 17 72 18 73 19 74 20 75 21 76 22 17 23
REMARK SMILES IDX 18 24 19 25 20 26 21 27 22 28 23 30 24 31 25 32 71 33 26 34
REMARK SMILES IDX 70 35 27 36 28 37 29 38 64 39 30 40 69 41 63 42 65 43 31 44
REMARK SMILES IDX 68 45 62 46 61 47 32 49 54 50 39 51 53 52 40 53 43 54 52 55
REMARK SMILES IDX 66 56 41 57 42 58 51 60 67 61 44 62 33 63 34 64 38 65 35 66
REMARK SMILES IDX 37 67 36 68 55 69 56 70 60 71 57 72 59 73 58 74 45 75 46 76
REMARK SMILES IDX 50 77 47 78 49 79 48 80
REMARK H PARENT 14 6 21 29 65 48 43 59
REMARK Flexibility Score: inf
ROOT
ATOM      1  C   UNL A   1      34.270  20.290  24.961  1.00  0.00     0.021 C 
ENDROOT
BRANCH   1   2
ATOM      2  C   UNL A   1      32.793  20.542  25.231  1.00  0.00     0.116 C 
BRANCH   2   3
ATOM      3  N   UNL A   1      32.564  21.447  26.338  1.00  0.00    -0.355 N 
ATOM      4  C   UNL A   1      31.781  22.546  26.482  1.00  0.00     0.239 C 
ATOM      5  O   UNL A   1      31.647  22.963  27.641  1.00  0.00    -0.273 OA
ATOM      6  H   UNL A   1      33.079  21.221  27.146  1.00  0.00     0.163 HD
BRANCH   4   7
ATOM      7  C   UNL A   1      30.950  23.212  25.362  1.00  0.00     0.221 C 
BRANCH   7   8
ATOM      8  N   UNL A   1      31.193  24.550  24.867  1.00  0.00    -0.306 N 
BRANCH   8   9
ATOM      9  C   UNL A   1      30.808  25.764  25.364  1.00  0.00     0.321 C 
ATOM     10  O   UNL A   1      29.979  25.729  26.290  1.00  0.00    -0.248 OA
BRANCH   9  11
ATOM     11  N   UNL A   1      31.320  26.993  25.004  1.00  0.00    -0.322 N 
ATOM     12  C   UNL A   1      32.603  27.781  25.023  1.00  0.00     0.086 C 
ATOM     13  C   UNL A   1      32.107  29.209  24.704  1.00  0.00     0.027 C 
ATOM     14  C   UNL A   1      31.037  28.995  23.668  1.00  0.00     0.024 C 
ATOM     15  C   UNL A   1      30.365  27.730  24.148  1.00  0.00     0.122 C 
BRANCH  12  16
ATOM     16  C   UNL A   1      33.550  27.853  26.230  1.00  0.00     0.022 C 
ATOM     17  C   UNL A   1      33.602  29.194  26.964  1.00  0.00     0.006 C 
ENDBRANCH  12  16
ENDBRANCH   9  11
ENDBRANCH   8   9
BRANCH   8  18
ATOM     18  C   UNL A   1      31.945  24.591  23.575  1.00  0.00     0.237 C 
BRANCH  18  19
ATOM     19  C   UNL A   1      33.458  24.385  23.666  1.00  0.00     0.406 C 
ATOM     20  F   UNL A   1      33.857  23.163  23.264  1.00  0.00    -0.169 F 
ATOM     21  F   UNL A   1      34.106  25.298  22.901  1.00  0.00    -0.169 F 
ATOM     22  F   UNL A   1      33.891  24.566  24.936  1.00  0.00    -0.169 F 
ENDBRANCH  18  19
ENDBRANCH   8  18
ENDBRANCH   7   8
ENDBRANCH   4   7
ENDBRANCH   2   3
ENDBRANCH   1   2
BRANCH   1  23
ATOM     23  C   UNL A   1      35.226  21.273  25.637  1.00  0.00     0.002 C 
BRANCH  23  24
ATOM     24  C   UNL A   1      36.397  21.754  24.777  1.00  0.00     0.002 C 
BRANCH  24  25
ATOM     25  C   UNL A   1      37.561  20.771  24.637  1.00  0.00     0.021 C 
BRANCH  25  26
ATOM     26  C   UNL A   1      38.619  20.858  25.730  1.00  0.00     0.116 C 
BRANCH  26  27
ATOM     27  N   UNL A   1      39.561  19.751  25.694  1.00  0.00    -0.352 N 
ATOM     28  C   UNL A   1      40.903  19.760  26.004  1.00  0.00     0.251 C 
ATOM     29  H   UNL A   1      39.192  18.884  25.411  1.00  0.00     0.163 HD
ATOM     30  O   UNL A   1      41.602  18.781  25.811  1.00  0.00    -0.269 OA
BRANCH  28  31
ATOM     31  C   UNL A   1      41.491  20.998  26.555  1.00  0.00     0.039 A 
ATOM     32  C   UNL A   1      41.983  21.968  25.677  1.00  0.00     0.014 A 
ATOM     33  C   UNL A   1      41.514  21.211  27.936  1.00  0.00     0.014 A 
ATOM     34  C   UNL A   1      42.441  23.185  26.182  1.00  0.00     0.010 A 
ATOM     35  C   UNL A   1      41.910  22.446  28.431  1.00  0.00     0.010 A 
ATOM     36  C   UNL A   1      42.379  23.444  27.560  1.00  0.00    -0.014 A 
BRANCH  36  37
ATOM     37  C   UNL A   1      42.823  24.734  28.140  1.00  0.00     0.031 A 
ATOM     38  C   UNL A   1      41.804  25.795  28.440  1.00  0.00     0.074 A 
ATOM     39  C   UNL A   1      44.135  24.990  28.300  1.00  0.00     0.049 A 
ATOM     40  N   UNL A   1      41.985  27.044  28.785  1.00  0.00    -0.248 NA
ATOM     41  C   UNL A   1      40.392  25.403  28.302  1.00  0.00     0.031 C 
ATOM     42  C   UNL A   1      45.224  24.046  28.044  1.00  0.00     0.029 A 
ATOM     43  N   UNL A   1      44.773  26.136  28.702  1.00  0.00    -0.354 N 
ATOM     44  C   UNL A   1      40.713  27.596  28.867  1.00  0.00     0.074 A 
ATOM     45  C   UNL A   1      39.775  26.557  28.499  1.00  0.00     0.031 C 
ATOM     46  C   UNL A   1      46.396  24.647  28.315  1.00  0.00     0.029 A 
ATOM     47  C   UNL A   1      46.142  26.029  28.712  1.00  0.00     0.049 A 
ATOM     48  H   UNL A   1      44.295  26.957  28.961  1.00  0.00     0.167 HD
ATOM     49  C   UNL A   1      40.355  28.852  29.226  1.00  0.00     0.031 A 
ATOM     50  C   UNL A   1      47.087  26.946  28.992  1.00  0.00     0.031 A 
ATOM     51  C   UNL A   1      41.289  29.878  29.603  1.00  0.00     0.049 A 
ATOM     52  C   UNL A   1      46.671  28.346  29.350  1.00  0.00     0.074 A 
ATOM     53  C   UNL A   1      41.028  31.168  30.029  1.00  0.00     0.029 A 
ATOM     54  N   UNL A   1      42.667  29.727  29.596  1.00  0.00    -0.354 N 
ATOM     55  N   UNL A   1      45.464  28.847  29.457  1.00  0.00    -0.248 NA
ATOM     56  C   UNL A   1      47.750  29.306  29.627  1.00  0.00     0.031 C 
ATOM     57  C   UNL A   1      42.252  31.812  30.239  1.00  0.00     0.029 A 
ATOM     58  C   UNL A   1      43.272  30.907  29.993  1.00  0.00     0.049 A 
ATOM     59  H   UNL A   1      43.145  28.903  29.346  1.00  0.00     0.167 HD
ATOM     60  C   UNL A   1      45.637  30.168  29.849  1.00  0.00     0.074 A 
ATOM     61  C   UNL A   1      47.064  30.392  29.959  1.00  0.00     0.031 C 
ATOM     62  C   UNL A   1      44.695  31.107  30.107  1.00  0.00     0.031 A 
BRANCH  49  63
ATOM     63  C   UNL A   1      38.889  29.178  29.198  1.00  0.00    -0.014 A 
ATOM     64  C   UNL A   1      38.270  29.659  28.032  1.00  0.00     0.009 A 
ATOM     65  C   UNL A   1      38.116  29.013  30.357  1.00  0.00     0.009 A 
ATOM     66  C   UNL A   1      36.921  30.020  28.045  1.00  0.00     0.001 A 
ATOM     67  C   UNL A   1      36.761  29.343  30.359  1.00  0.00     0.001 A 
ATOM     68  C   UNL A   1      36.168  29.861  29.207  1.00  0.00     0.000 A 
ENDBRANCH  49  63
BRANCH  50  69
ATOM     69  C   UNL A   1      48.521  26.561  28.971  1.00  0.00    -0.014 A 
ATOM     70  C   UNL A   1      49.253  26.653  27.777  1.00  0.00     0.009 A 
ATOM     71  C   UNL A   1      49.169  26.120  30.134  1.00  0.00     0.009 A 
ATOM     72  C   UNL A   1      50.604  26.297  27.746  1.00  0.00     0.001 A 
ATOM     73  C   UNL A   1      50.525  25.787  30.105  1.00  0.00     0.001 A 
ATOM     74  C   UNL A   1      51.239  25.870  28.911  1.00  0.00     0.000 A 
ENDBRANCH  50  69
BRANCH  62  75
ATOM     75  C   UNL A   1      45.166  32.449  30.588  1.00  0.00    -0.014 A 
ATOM     76  C   UNL A   1      45.381  32.704  31.950  1.00  0.00     0.009 A 
ATOM     77  C   UNL A   1      45.467  33.449  29.649  1.00  0.00     0.009 A 
ATOM     78  C   UNL A   1      45.876  33.944  32.364  1.00  0.00     0.001 A 
ATOM     79  C   UNL A   1      45.982  34.677  30.064  1.00  0.00     0.001 A 
ATOM     80  C   UNL A   1      46.183  34.925  31.421  1.00  0.00     0.000 A 
ENDBRANCH  62  75
ENDBRANCH  36  37
ENDBRANCH  28  31
ENDBRANCH  26  27
ENDBRANCH  25  26
ENDBRANCH  24  25
ENDBRANCH  23  24
ENDBRANCH   1  23
TORSDOF 19
ENDMDL
MODEL 3
REMARK VINA RESULT:      -9.6      1.858      2.392
REMARK SMILES CC[C@@H]1CCCN1C(=O)N(CC(=O)NCCCCCCNC(=O)c1ccc(-c2c3nc(c(-c4ccccc4)c4ccc([nH]4)c(-c4ccccc4)c4nc(c(-c5ccccc5)c5ccc2[nH]5)C=C4)C=C3)cc1)CC(F)(F)F
REMARK SMILES IDX 16 1 15 2 14 3 12 4 13 5 11 7 10 8 8 9 9 10 7 11 3 12 4 13
REMARK SMILES IDX 5 14 6 15 2 16 1 17 72 18 73 19 74 20 75 21 76 22 17 23
REMARK SMILES IDX 18 24 19 25 20 26 21 27 22 28 23 30 24 31 25 32 71 33 26 34
REMARK SMILES IDX 70 35 27 36 28 37 29 38 64 39 30 40 69 41 63 42 65 43 31 44
REMARK SMILES IDX 68 45 62 46 61 47 32 49 54 50 39 51 53 52 40 53 43 54 52 55
REMARK SMILES IDX 66 56 41 57 42 58 51 60 67 61 44 62 33 63 34 64 38 65 35 66
REMARK SMILES IDX 37 67 36 68 55 69 56 70 60 71 57 72 59 73 58 74 45 75 46 76
REMARK SMILES IDX 50 77 47 78 49 79 48 80
REMARK H PARENT 14 6 21 29 65 48 43 59
REMARK Flexibility Score: inf
ROOT
ATOM      1  C   UNL A   1      32.797  29.319  24.402  1.00  0.00     0.021 C 
ENDROOT
BRANCH   1   2
ATOM      2  C   UNL A   1      33.154  27.853  24.202  1.00  0.00     0.116 C 
BRANCH   2   3
ATOM      3  N   UNL A   1      33.252  27.476  22.807  1.00  0.00    -0.355 N 
ATOM      4  C   UNL A   1      33.472  26.289  22.188  1.00  0.00     0.239 C 
ATOM      5  O   UNL A   1      33.273  26.276  20.965  1.00  0.00    -0.273 OA
ATOM      6  H   UNL A   1      33.138  28.231  22.186  1.00  0.00     0.163 HD
BRANCH   4   7
ATOM      7  C   UNL A   1      33.800  24.953  22.892  1.00  0.00     0.221 C 
BRANCH   7   8
ATOM      8  N   UNL A   1      32.860  24.227  23.718  1.00  0.00    -0.306 N 
BRANCH   8   9
ATOM      9  C   UNL A   1      32.646  24.271  25.067  1.00  0.00     0.321 C 
ATOM     10  O   UNL A   1      31.702  24.990  25.441  1.00  0.00    -0.248 OA
BRANCH   9  11
ATOM     11  N   UNL A   1      33.306  23.527  26.023  1.00  0.00    -0.322 N 
ATOM     12  C   UNL A   1      34.691  23.256  26.550  1.00  0.00     0.086 C 
ATOM     13  C   UNL A   1      34.462  22.002  27.422  1.00  0.00     0.027 C 
ATOM     14  C   UNL A   1      33.134  22.259  28.081  1.00  0.00     0.024 C 
ATOM     15  C   UNL A   1      32.349  22.934  26.981  1.00  0.00     0.122 C 
BRANCH  12  16
ATOM     16  C   UNL A   1      35.917  23.012  25.658  1.00  0.00     0.022 C 
ATOM     17  C   UNL A   1      37.205  23.723  26.079  1.00  0.00     0.006 C 
ENDBRANCH  12  16
ENDBRANCH   9  11
ENDBRANCH   8   9
BRANCH   8  18
ATOM     18  C   UNL A   1      32.033  23.234  22.965  1.00  0.00     0.237 C 
BRANCH  18  19
ATOM     19  C   UNL A   1      32.413  21.763  23.143  1.00  0.00     0.406 C 
ATOM     20  F   UNL A   1      31.801  21.174  24.189  1.00  0.00    -0.169 F 
ATOM     21  F   UNL A   1      32.095  21.055  22.032  1.00  0.00    -0.169 F 
ATOM     22  F   UNL A   1      33.750  21.631  23.317  1.00  0.00    -0.169 F 
ENDBRANCH  18  19
ENDBRANCH   8  18
ENDBRANCH   7   8
ENDBRANCH   4   7
ENDBRANCH   2   3
ENDBRANCH   1   2
BRANCH   1  23
ATOM     23  C   UNL A   1      31.482  29.568  25.141  1.00  0.00     0.002 C 
BRANCH  23  24
ATOM     24  C   UNL A   1      31.613  30.183  26.537  1.00  0.00     0.002 C 
BRANCH  24  25
ATOM     25  C   UNL A   1      31.378  31.692  26.618  1.00  0.00     0.021 C 
BRANCH  25  26
ATOM     26  C   UNL A   1      32.627  32.532  26.855  1.00  0.00     0.116 C 
BRANCH  26  27
ATOM     27  N   UNL A   1      32.332  33.836  27.423  1.00  0.00    -0.352 N 
ATOM     28  C   UNL A   1      33.001  34.505  28.424  1.00  0.00     0.251 C 
ATOM     29  H   UNL A   1      31.552  34.302  27.045  1.00  0.00     0.163 HD
ATOM     30  O   UNL A   1      32.568  35.544  28.890  1.00  0.00    -0.269 OA
BRANCH  28  31
ATOM     31  C   UNL A   1      34.252  33.918  28.948  1.00  0.00     0.039 A 
ATOM     32  C   UNL A   1      35.478  34.451  28.539  1.00  0.00     0.014 A 
ATOM     33  C   UNL A   1      34.204  32.873  29.875  1.00  0.00     0.014 A 
ATOM     34  C   UNL A   1      36.660  33.977  29.108  1.00  0.00     0.010 A 
ATOM     35  C   UNL A   1      35.376  32.448  30.487  1.00  0.00     0.010 A 
ATOM     36  C   UNL A   1      36.614  32.994  30.109  1.00  0.00    -0.014 A 
BRANCH  36  37
ATOM     37  C   UNL A   1      37.839  32.482  30.768  1.00  0.00     0.031 A 
ATOM     38  C   UNL A   1      38.550  31.296  30.181  1.00  0.00     0.074 A 
ATOM     39  C   UNL A   1      38.252  33.008  31.936  1.00  0.00     0.049 A 
ATOM     40  N   UNL A   1      39.528  30.585  30.680  1.00  0.00    -0.248 NA
ATOM     41  C   UNL A   1      38.072  30.832  28.868  1.00  0.00     0.031 C 
ATOM     42  C   UNL A   1      37.648  34.158  32.612  1.00  0.00     0.029 A 
ATOM     43  N   UNL A   1      39.271  32.627  32.772  1.00  0.00    -0.354 N 
ATOM     44  C   UNL A   1      39.756  29.568  29.762  1.00  0.00     0.074 A 
ATOM     45  C   UNL A   1      38.790  29.734  28.697  1.00  0.00     0.031 C 
ATOM     46  C   UNL A   1      38.323  34.399  33.750  1.00  0.00     0.029 A 
ATOM     47  C   UNL A   1      39.369  33.393  33.907  1.00  0.00     0.049 A 
ATOM     48  H   UNL A   1      39.876  31.875  32.575  1.00  0.00     0.167 HD
ATOM     49  C   UNL A   1      40.691  28.590  29.796  1.00  0.00     0.031 A 
ATOM     50  C   UNL A   1      40.196  33.286  34.963  1.00  0.00     0.031 A 
ATOM     51  C   UNL A   1      41.657  28.436  30.849  1.00  0.00     0.049 A 
ATOM     52  C   UNL A   1      41.202  32.169  35.000  1.00  0.00     0.074 A 
ATOM     53  C   UNL A   1      42.678  27.508  30.956  1.00  0.00     0.029 A 
ATOM     54  N   UNL A   1      41.719  29.233  31.982  1.00  0.00    -0.354 N 
ATOM     55  N   UNL A   1      41.430  31.233  34.111  1.00  0.00    -0.248 NA
ATOM     56  C   UNL A   1      42.064  32.095  36.189  1.00  0.00     0.031 C 
ATOM     57  C   UNL A   1      43.330  27.717  32.175  1.00  0.00     0.029 A 
ATOM     58  C   UNL A   1      42.748  28.807  32.802  1.00  0.00     0.049 A 
ATOM     59  H   UNL A   1      41.119  29.990  32.174  1.00  0.00     0.167 HD
ATOM     60  C   UNL A   1      42.486  30.484  34.613  1.00  0.00     0.074 A 
ATOM     61  C   UNL A   1      42.850  31.070  35.886  1.00  0.00     0.031 C 
ATOM     62  C   UNL A   1      43.104  29.411  34.061  1.00  0.00     0.031 A 
BRANCH  49  63
ATOM     63  C   UNL A   1      40.685  27.601  28.665  1.00  0.00    -0.014 A 
ATOM     64  C   UNL A   1      39.946  26.408  28.740  1.00  0.00     0.009 A 
ATOM     65  C   UNL A   1      41.438  27.859  27.510  1.00  0.00     0.009 A 
ATOM     66  C   UNL A   1      40.007  25.472  27.707  1.00  0.00     0.001 A 
ATOM     67  C   UNL A   1      41.472  26.935  26.464  1.00  0.00     0.001 A 
ATOM     68  C   UNL A   1      40.768  25.736  26.570  1.00  0.00     0.000 A 
ENDBRANCH  49  63
BRANCH  50  69
ATOM     69  C   UNL A   1      40.126  34.283  36.062  1.00  0.00    -0.014 A 
ATOM     70  C   UNL A   1      39.315  34.036  37.180  1.00  0.00     0.009 A 
ATOM     71  C   UNL A   1      40.873  35.469  36.011  1.00  0.00     0.009 A 
ATOM     72  C   UNL A   1      39.244  34.965  38.221  1.00  0.00     0.001 A 
ATOM     73  C   UNL A   1      40.819  36.385  37.065  1.00  0.00     0.001 A 
ATOM     74  C   UNL A   1      40.000  36.135  38.165  1.00  0.00     0.000 A 
ENDBRANCH  50  69
BRANCH  62  75
ATOM     75  C   UNL A   1      44.277  28.832  34.798  1.00  0.00    -0.014 A 
ATOM     76  C   UNL A   1      44.122  27.773  35.704  1.00  0.00     0.009 A 
ATOM     77  C   UNL A   1      45.568  29.311  34.521  1.00  0.00     0.009 A 
ATOM     78  C   UNL A   1      45.238  27.215  36.332  1.00  0.00     0.001 A 
ATOM     79  C   UNL A   1      46.682  28.736  35.132  1.00  0.00     0.001 A 
ATOM     80  C   UNL A   1      46.517  27.691  36.040  1.00  0.00     0.000 A 
ENDBRANCH  62  75
ENDBRANCH  36  37
ENDBRANCH  28  31
ENDBRANCH  26  27
ENDBRANCH  25  26
ENDBRANCH  24  25
ENDBRANCH  23  24
ENDBRANCH   1  23
TORSDOF 19
ENDMDL
