MODEL 1
REMARK VINA RESULT:     -10.9      0.000      0.000
REMARK SMILES Cc1ccccc1-c1nc(CC(=O)NCCCCCCNC(=O)c2ccc(-c3c4nc(c(-c5ccccc5)c5ccc([nH]5)c(-c5ccccc5)c5nc(c(-c6ccccc6)c6ccc3[nH]6)C=C5)C=C4)cc2)cs1
REMARK SMILES IDX 17 1 16 2 15 3 14 4 12 5 13 6 11 8 10 9 8 10 9 11 73 12
REMARK SMILES IDX 72 13 7 14 1 15 2 16 3 17 4 18 6 19 5 20 18 21 19 22 20 23
REMARK SMILES IDX 21 24 22 25 23 27 24 28 25 29 71 30 26 31 70 32 27 33 28 34
REMARK SMILES IDX 29 35 64 36 30 37 69 38 63 39 65 40 31 41 68 42 62 43 61 44
REMARK SMILES IDX 32 46 54 47 39 48 53 49 40 50 43 51 52 52 66 53 41 54 42 55
REMARK SMILES IDX 51 57 67 58 44 59 33 60 34 61 38 62 35 63 37 64 36 65 55 66
REMARK SMILES IDX 56 67 60 68 57 69 59 70 58 71 45 72 46 73 50 74 47 75 49 76
REMARK SMILES IDX 48 77
REMARK H PARENT 14 7 21 26 65 45 43 56
REMARK Flexibility Score: inf
ROOT
ATOM      1  C   UNL A   1      34.199  29.077  26.768  1.00  0.00     0.002 C 
ENDROOT
BRANCH   1   2
ATOM      2  C   UNL A   1      33.385  28.141  25.861  1.00  0.00     0.021 C 
BRANCH   2   3
ATOM      3  C   UNL A   1      31.869  28.184  26.074  1.00  0.00     0.116 C 
BRANCH   3   4
ATOM      4  N   UNL A   1      31.145  27.848  24.863  1.00  0.00    -0.356 N 
ATOM      5  C   UNL A   1      30.335  26.777  24.620  1.00  0.00     0.226 C 
ATOM      6  O   UNL A   1      29.863  26.646  23.487  1.00  0.00    -0.275 OA
ATOM      7  H   UNL A   1      31.255  28.478  24.114  1.00  0.00     0.163 HD
BRANCH   5   8
ATOM      8  C   UNL A   1      29.992  25.806  25.731  1.00  0.00     0.157 C 
BRANCH   8   9
ATOM      9  C   UNL A   1      30.940  24.657  25.800  1.00  0.00     0.061 A 
ATOM     10  C   UNL A   1      32.917  23.721  25.392  1.00  0.00     0.123 A 
ATOM     11  N   UNL A   1      32.219  24.833  25.287  1.00  0.00    -0.241 NA
ATOM     12  S   UNL A   1      32.089  22.414  26.149  1.00  0.00    -0.122 S 
ATOM     13  C   UNL A   1      30.701  23.404  26.327  1.00  0.00     0.091 A 
BRANCH  10  14
ATOM     14  C   UNL A   1      34.300  23.562  24.926  1.00  0.00     0.013 A 
ATOM     15  C   UNL A   1      33.549  23.055  22.524  1.00  0.00     0.045 C 
ATOM     16  C   UNL A   1      34.601  23.235  23.586  1.00  0.00    -0.041 A 
ATOM     17  C   UNL A   1      35.942  23.036  23.213  1.00  0.00     0.004 A 
ATOM     18  C   UNL A   1      36.975  23.171  24.142  1.00  0.00     0.000 A 
ATOM     19  C   UNL A   1      35.355  23.689  25.850  1.00  0.00     0.011 A 
ATOM     20  C   UNL A   1      36.681  23.499  25.460  1.00  0.00     0.001 A 
ENDBRANCH  10  14
ENDBRANCH   8   9
ENDBRANCH   5   8
ENDBRANCH   3   4
ENDBRANCH   2   3
ENDBRANCH   1   2
BRANCH   1  21
ATOM     21  C   UNL A   1      33.468  30.313  27.315  1.00  0.00     0.002 C 
BRANCH  21  22
ATOM     22  C   UNL A   1      34.309  31.268  28.164  1.00  0.00     0.021 C 
BRANCH  22  23
ATOM     23  C   UNL A   1      34.305  32.711  27.680  1.00  0.00     0.116 C 
BRANCH  23  24
ATOM     24  N   UNL A   1      33.581  33.626  28.551  1.00  0.00    -0.352 N 
ATOM     25  C   UNL A   1      33.960  34.202  29.756  1.00  0.00     0.251 C 
ATOM     26  H   UNL A   1      32.682  33.874  28.238  1.00  0.00     0.163 HD
ATOM     27  O   UNL A   1      33.176  34.899  30.366  1.00  0.00    -0.269 OA
BRANCH  25  28
ATOM     28  C   UNL A   1      35.371  34.089  30.217  1.00  0.00     0.039 A 
ATOM     29  C   UNL A   1      36.373  34.427  29.298  1.00  0.00     0.014 A 
ATOM     30  C   UNL A   1      35.707  33.467  31.414  1.00  0.00     0.014 A 
ATOM     31  C   UNL A   1      37.650  33.897  29.452  1.00  0.00     0.010 A 
ATOM     32  C   UNL A   1      36.940  32.856  31.522  1.00  0.00     0.010 A 
ATOM     33  C   UNL A   1      37.880  33.006  30.498  1.00  0.00    -0.014 A 
BRANCH  33  34
ATOM     34  C   UNL A   1      38.980  32.052  30.502  1.00  0.00     0.031 A 
ATOM     35  C   UNL A   1      38.781  30.655  30.082  1.00  0.00     0.074 A 
ATOM     36  C   UNL A   1      40.220  32.491  30.809  1.00  0.00     0.049 A 
ATOM     37  N   UNL A   1      39.575  29.688  30.401  1.00  0.00    -0.248 NA
ATOM     38  C   UNL A   1      37.614  30.215  29.325  1.00  0.00     0.031 C 
ATOM     39  C   UNL A   1      41.494  31.824  30.561  1.00  0.00     0.029 A 
ATOM     40  N   UNL A   1      40.555  33.568  31.617  1.00  0.00    -0.354 N 
ATOM     41  C   UNL A   1      39.226  28.607  29.628  1.00  0.00     0.074 A 
ATOM     42  C   UNL A   1      37.922  28.933  29.104  1.00  0.00     0.031 C 
ATOM     43  C   UNL A   1      42.429  32.356  31.366  1.00  0.00     0.029 A 
ATOM     44  C   UNL A   1      41.752  33.265  32.277  1.00  0.00     0.049 A 
ATOM     45  H   UNL A   1      40.040  34.402  31.711  1.00  0.00     0.167 HD
ATOM     46  C   UNL A   1      40.161  27.645  29.380  1.00  0.00     0.031 A 
ATOM     47  C   UNL A   1      41.793  33.164  33.639  1.00  0.00     0.031 A 
ATOM     48  C   UNL A   1      41.357  27.822  30.208  1.00  0.00     0.049 A 
ATOM     49  C   UNL A   1      42.168  31.784  34.140  1.00  0.00     0.074 A 
ATOM     50  C   UNL A   1      42.645  28.255  29.937  1.00  0.00     0.029 A 
ATOM     51  N   UNL A   1      41.238  27.788  31.594  1.00  0.00    -0.354 N 
ATOM     52  N   UNL A   1      42.132  30.706  33.407  1.00  0.00    -0.248 NA
ATOM     53  C   UNL A   1      42.570  31.504  35.516  1.00  0.00     0.031 C 
ATOM     54  C   UNL A   1      43.276  28.557  31.174  1.00  0.00     0.029 A 
ATOM     55  C   UNL A   1      42.385  28.274  32.193  1.00  0.00     0.049 A 
ATOM     56  H   UNL A   1      40.447  27.462  32.081  1.00  0.00     0.167 HD
ATOM     57  C   UNL A   1      42.473  29.618  34.167  1.00  0.00     0.074 A 
ATOM     58  C   UNL A   1      42.754  30.171  35.478  1.00  0.00     0.031 C 
ATOM     59  C   UNL A   1      42.477  28.355  33.647  1.00  0.00     0.031 A 
BRANCH  46  60
ATOM     60  C   UNL A   1      40.118  26.712  28.184  1.00  0.00    -0.014 A 
ATOM     61  C   UNL A   1      39.479  25.463  28.305  1.00  0.00     0.009 A 
ATOM     62  C   UNL A   1      40.764  26.938  26.955  1.00  0.00     0.009 A 
ATOM     63  C   UNL A   1      39.543  24.486  27.298  1.00  0.00     0.001 A 
ATOM     64  C   UNL A   1      40.833  25.971  25.943  1.00  0.00     0.001 A 
ATOM     65  C   UNL A   1      40.234  24.736  26.121  1.00  0.00     0.000 A 
ENDBRANCH  46  60
BRANCH  47  66
ATOM     66  C   UNL A   1      40.847  34.079  34.335  1.00  0.00    -0.014 A 
ATOM     67  C   UNL A   1      39.731  33.517  34.989  1.00  0.00     0.009 A 
ATOM     68  C   UNL A   1      41.221  35.390  34.661  1.00  0.00     0.009 A 
ATOM     69  C   UNL A   1      39.081  34.205  36.018  1.00  0.00     0.001 A 
ATOM     70  C   UNL A   1      40.560  36.080  35.686  1.00  0.00     0.001 A 
ATOM     71  C   UNL A   1      39.515  35.475  36.385  1.00  0.00     0.000 A 
ENDBRANCH  47  66
BRANCH  59  72
ATOM     72  C   UNL A   1      42.623  27.068  34.424  1.00  0.00    -0.014 A 
ATOM     73  C   UNL A   1      41.711  26.608  35.381  1.00  0.00     0.009 A 
ATOM     74  C   UNL A   1      43.680  26.189  34.088  1.00  0.00     0.009 A 
ATOM     75  C   UNL A   1      41.868  25.357  35.998  1.00  0.00     0.001 A 
ATOM     76  C   UNL A   1      43.815  24.925  34.666  1.00  0.00     0.001 A 
ATOM     77  C   UNL A   1      42.912  24.513  35.633  1.00  0.00     0.000 A 
ENDBRANCH  59  72
ENDBRANCH  33  34
ENDBRANCH  25  28
ENDBRANCH  23  24
ENDBRANCH  22  23
ENDBRANCH  21  22
ENDBRANCH   1  21
TORSDOF 15
ENDMDL
MODEL 2
REMARK VINA RESULT:     -10.8      2.465      3.914
REMARK SMILES Cc1ccccc1-c1nc(CC(=O)NCCCCCCNC(=O)c2ccc(-c3c4nc(c(-c5ccccc5)c5ccc([nH]5)c(-c5ccccc5)c5nc(c(-c6ccccc6)c6ccc3[nH]6)C=C5)C=C4)cc2)cs1
REMARK SMILES IDX 17 1 16 2 15 3 14 4 12 5 13 6 11 8 10 9 8 10 9 11 73 12
REMARK SMILES IDX 72 13 7 14 1 15 2 16 3 17 4 18 6 19 5 20 18 21 19 22 20 23
REMARK SMILES IDX 21 24 22 25 23 27 24 28 25 29 71 30 26 31 70 32 27 33 28 34
REMARK SMILES IDX 29 35 64 36 30 37 69 38 63 39 65 40 31 41 68 42 62 43 61 44
REMARK SMILES IDX 32 46 54 47 39 48 53 49 40 50 43 51 52 52 66 53 41 54 42 55
REMARK SMILES IDX 51 57 67 58 44 59 33 60 34 61 38 62 35 63 37 64 36 65 55 66
REMARK SMILES IDX 56 67 60 68 57 69 59 70 58 71 45 72 46 73 50 74 47 75 49 76
REMARK SMILES IDX 48 77
REMARK H PARENT 14 7 21 26 65 45 43 56
REMARK Flexibility Score: inf
ROOT
ATOM      1  C   UNL A   1      32.023  29.392  24.709  1.00  0.00     0.002 C 
ENDROOT
BRANCH   1   2
ATOM      2  C   UNL A   1      30.849  28.485  24.309  1.00  0.00     0.021 C 
BRANCH   2   3
ATOM      3  C   UNL A   1      30.679  28.265  22.804  1.00  0.00     0.116 C 
BRANCH   3   4
ATOM      4  N   UNL A   1      31.944  27.977  22.156  1.00  0.00    -0.356 N 
ATOM      5  C   UNL A   1      32.620  26.793  22.086  1.00  0.00     0.226 C 
ATOM      6  O   UNL A   1      33.723  26.782  21.535  1.00  0.00    -0.275 OA
ATOM      7  H   UNL A   1      32.373  28.740  21.705  1.00  0.00     0.163 HD
BRANCH   5   8
ATOM      8  C   UNL A   1      32.002  25.524  22.635  1.00  0.00     0.157 C 
BRANCH   8   9
ATOM      9  C   UNL A   1      32.694  25.034  23.861  1.00  0.00     0.061 A 
ATOM     10  C   UNL A   1      34.339  23.929  24.874  1.00  0.00     0.123 A 
ATOM     11  N   UNL A   1      33.873  24.316  23.704  1.00  0.00    -0.241 NA
ATOM     12  S   UNL A   1      33.408  24.438  26.230  1.00  0.00    -0.122 S 
ATOM     13  C   UNL A   1      32.302  25.211  25.173  1.00  0.00     0.091 A 
BRANCH  10  14
ATOM     14  C   UNL A   1      35.558  23.133  25.059  1.00  0.00     0.013 A 
ATOM     15  C   UNL A   1      34.347  20.941  24.491  1.00  0.00     0.045 C 
ATOM     16  C   UNL A   1      35.564  21.731  24.895  1.00  0.00    -0.041 A 
ATOM     17  C   UNL A   1      36.749  21.016  25.146  1.00  0.00     0.004 A 
ATOM     18  C   UNL A   1      37.916  21.672  25.538  1.00  0.00     0.000 A 
ATOM     19  C   UNL A   1      36.744  23.778  25.460  1.00  0.00     0.011 A 
ATOM     20  C   UNL A   1      37.915  23.053  25.693  1.00  0.00     0.001 A 
ENDBRANCH  10  14
ENDBRANCH   8   9
ENDBRANCH   5   8
ENDBRANCH   3   4
ENDBRANCH   2   3
ENDBRANCH   1   2
BRANCH   1  21
ATOM     21  C   UNL A   1      33.016  28.822  25.733  1.00  0.00     0.002 C 
BRANCH  21  22
ATOM     22  C   UNL A   1      34.029  29.814  26.309  1.00  0.00     0.021 C 
BRANCH  22  23
ATOM     23  C   UNL A   1      33.650  30.384  27.669  1.00  0.00     0.116 C 
BRANCH  23  24
ATOM     24  N   UNL A   1      34.496  31.485  28.106  1.00  0.00    -0.352 N 
ATOM     25  C   UNL A   1      35.808  31.482  28.556  1.00  0.00     0.251 C 
ATOM     26  H   UNL A   1      34.069  32.372  28.079  1.00  0.00     0.163 HD
ATOM     27  O   UNL A   1      36.320  32.514  28.937  1.00  0.00    -0.269 OA
BRANCH  25  28
ATOM     28  C   UNL A   1      36.630  30.247  28.427  1.00  0.00     0.039 A 
ATOM     29  C   UNL A   1      36.743  29.433  29.561  1.00  0.00     0.014 A 
ATOM     30  C   UNL A   1      37.436  30.010  27.319  1.00  0.00     0.014 A 
ATOM     31  C   UNL A   1      37.836  28.582  29.687  1.00  0.00     0.010 A 
ATOM     32  C   UNL A   1      38.574  29.246  27.477  1.00  0.00     0.010 A 
ATOM     33  C   UNL A   1      38.812  28.600  28.693  1.00  0.00    -0.014 A 
BRANCH  33  34
ATOM     34  C   UNL A   1      40.176  28.138  28.911  1.00  0.00     0.031 A 
ATOM     35  C   UNL A   1      40.621  26.817  28.440  1.00  0.00     0.074 A 
ATOM     36  C   UNL A   1      41.066  28.984  29.475  1.00  0.00     0.049 A 
ATOM     37  N   UNL A   1      41.655  26.198  28.902  1.00  0.00    -0.248 NA
ATOM     38  C   UNL A   1      39.880  26.040  27.451  1.00  0.00     0.031 C 
ATOM     39  C   UNL A   1      42.521  28.878  29.487  1.00  0.00     0.029 A 
ATOM     40  N   UNL A   1      40.797  30.028  30.350  1.00  0.00    -0.354 N 
ATOM     41  C   UNL A   1      41.906  25.143  28.059  1.00  0.00     0.074 A 
ATOM     42  C   UNL A   1      40.700  24.998  27.280  1.00  0.00     0.031 C 
ATOM     43  C   UNL A   1      43.007  29.646  30.476  1.00  0.00     0.029 A 
ATOM     44  C   UNL A   1      41.872  30.141  31.239  1.00  0.00     0.049 A 
ATOM     45  H   UNL A   1      39.990  30.591  30.347  1.00  0.00     0.167 HD
ATOM     46  C   UNL A   1      43.170  24.636  27.996  1.00  0.00     0.031 A 
ATOM     47  C   UNL A   1      41.697  29.935  32.579  1.00  0.00     0.031 A 
ATOM     48  C   UNL A   1      44.027  25.175  29.056  1.00  0.00     0.049 A 
ATOM     49  C   UNL A   1      42.482  28.761  33.127  1.00  0.00     0.074 A 
ATOM     50  C   UNL A   1      45.068  26.088  29.065  1.00  0.00     0.029 A 
ATOM     51  N   UNL A   1      43.676  24.969  30.387  1.00  0.00    -0.354 N 
ATOM     52  N   UNL A   1      43.006  27.824  32.387  1.00  0.00    -0.248 NA
ATOM     53  C   UNL A   1      42.698  28.527  34.552  1.00  0.00     0.031 C 
ATOM     54  C   UNL A   1      45.291  26.490  30.409  1.00  0.00     0.029 A 
ATOM     55  C   UNL A   1      44.408  25.795  31.218  1.00  0.00     0.049 A 
ATOM     56  H   UNL A   1      42.999  24.323  30.695  1.00  0.00     0.167 HD
ATOM     57  C   UNL A   1      43.597  26.880  33.185  1.00  0.00     0.074 A 
ATOM     58  C   UNL A   1      43.392  27.373  34.535  1.00  0.00     0.031 C 
ATOM     59  C   UNL A   1      44.191  25.768  32.660  1.00  0.00     0.031 A 
BRANCH  46  60
ATOM     60  C   UNL A   1      43.718  23.873  26.804  1.00  0.00    -0.014 A 
ATOM     61  C   UNL A   1      44.441  24.565  25.813  1.00  0.00     0.009 A 
ATOM     62  C   UNL A   1      43.480  22.514  26.532  1.00  0.00     0.009 A 
ATOM     63  C   UNL A   1      44.832  23.960  24.608  1.00  0.00     0.001 A 
ATOM     64  C   UNL A   1      43.868  21.899  25.334  1.00  0.00     0.001 A 
ATOM     65  C   UNL A   1      44.533  22.627  24.363  1.00  0.00     0.000 A 
ENDBRANCH  46  60
BRANCH  47  66
ATOM     66  C   UNL A   1      40.357  30.354  33.077  1.00  0.00    -0.014 A 
ATOM     67  C   UNL A   1      40.057  31.731  33.113  1.00  0.00     0.009 A 
ATOM     68  C   UNL A   1      39.299  29.437  33.155  1.00  0.00     0.009 A 
ATOM     69  C   UNL A   1      38.732  32.177  33.111  1.00  0.00     0.001 A 
ATOM     70  C   UNL A   1      37.972  29.889  33.165  1.00  0.00     0.001 A 
ATOM     71  C   UNL A   1      37.690  31.254  33.109  1.00  0.00     0.000 A 
ENDBRANCH  47  66
BRANCH  59  72
ATOM     72  C   UNL A   1      44.681  24.567  33.432  1.00  0.00    -0.014 A 
ATOM     73  C   UNL A   1      46.019  24.332  33.776  1.00  0.00     0.009 A 
ATOM     74  C   UNL A   1      43.727  23.668  33.966  1.00  0.00     0.009 A 
ATOM     75  C   UNL A   1      46.387  23.238  34.574  1.00  0.00     0.001 A 
ATOM     76  C   UNL A   1      44.084  22.604  34.797  1.00  0.00     0.001 A 
ATOM     77  C   UNL A   1      45.420  22.382  35.092  1.00  0.00     0.000 A 
ENDBRANCH  59  72
ENDBRANCH  33  34
ENDBRANCH  25  28
ENDBRANCH  23  24
ENDBRANCH  22  23
ENDBRANCH  21  22
ENDBRANCH   1  21
TORSDOF 15
ENDMDL
MODEL 3
REMARK VINA RESULT:     -10.5      3.826      9.108
REMARK SMILES Cc1ccccc1-c1nc(CC(=O)NCCCCCCNC(=O)c2ccc(-c3c4nc(c(-c5ccccc5)c5ccc([nH]5)c(-c5ccccc5)c5nc(c(-c6ccccc6)c6ccc3[nH]6)C=C5)C=C4)cc2)cs1
REMARK SMILES IDX 17 1 16 2 15 3 14 4 12 5 13 6 11 8 10 9 8 10 9 11 73 12
REMARK SMILES IDX 72 13 7 14 1 15 2 16 3 17 4 18 6 19 5 20 18 21 19 22 20 23
REMARK SMILES IDX 21 24 22 25 23 27 24 28 25 29 71 30 26 31 70 32 27 33 28 34
REMARK SMILES IDX 29 35 64 36 30 37 69 38 63 39 65 40 31 41 68 42 62 43 61 44
REMARK SMILES IDX 32 46 54 47 39 48 53 49 40 50 43 51 52 52 66 53 41 54 42 55
REMARK SMILES IDX 51 57 67 58 44 59 33 60 34 61 38 62 35 63 37 64 36 65 55 66
REMARK SMILES IDX 56 67 60 68 57 69 59 70 58 71 45 72 46 73 50 74 47 75 49 76
REMARK SMILES IDX 48 77
REMARK H PARENT 14 7 21 26 65 45 43 56
REMARK Flexibility Score: inf
ROOT
ATOM      1  C   UNL A   1      35.757  22.599  23.546  1.00  0.00     0.002 C 
ENDROOT
BRANCH   1   2
ATOM      2  C   UNL A   1      34.461  23.166  22.946  1.00  0.00     0.021 C 
BRANCH   2   3
ATOM      3  C   UNL A   1      33.183  22.828  23.719  1.00  0.00     0.116 C 
BRANCH   3   4
ATOM      4  N   UNL A   1      33.414  22.792  25.151  1.00  0.00    -0.356 N 
ATOM      5  C   UNL A   1      32.968  23.653  26.111  1.00  0.00     0.226 C 
ATOM      6  O   UNL A   1      33.338  23.474  27.274  1.00  0.00    -0.275 OA
ATOM      7  H   UNL A   1      33.968  22.044  25.472  1.00  0.00     0.163 HD
BRANCH   5   8
ATOM      8  C   UNL A   1      32.008  24.770  25.755  1.00  0.00     0.157 C 
BRANCH   8   9
ATOM      9  C   UNL A   1      32.710  26.038  25.405  1.00  0.00     0.061 A 
ATOM     10  C   UNL A   1      33.622  27.989  25.961  1.00  0.00     0.123 A 
ATOM     11  N   UNL A   1      33.041  26.908  26.436  1.00  0.00    -0.241 NA
ATOM     12  S   UNL A   1      33.839  28.006  24.252  1.00  0.00    -0.122 S 
ATOM     13  C   UNL A   1      33.086  26.469  24.148  1.00  0.00     0.091 A 
BRANCH  10  14
ATOM     14  C   UNL A   1      34.078  29.117  26.784  1.00  0.00     0.013 A 
ATOM     15  C   UNL A   1      31.931  30.452  26.341  1.00  0.00     0.045 C 
ATOM     16  C   UNL A   1      33.295  30.279  26.953  1.00  0.00    -0.041 A 
ATOM     17  C   UNL A   1      33.812  31.350  27.704  1.00  0.00     0.004 A 
ATOM     18  C   UNL A   1      35.075  31.274  28.292  1.00  0.00     0.000 A 
ATOM     19  C   UNL A   1      35.352  29.059  27.381  1.00  0.00     0.011 A 
ATOM     20  C   UNL A   1      35.844  30.128  28.132  1.00  0.00     0.001 A 
ENDBRANCH  10  14
ENDBRANCH   8   9
ENDBRANCH   5   8
ENDBRANCH   3   4
ENDBRANCH   2   3
ENDBRANCH   1   2
BRANCH   1  21
ATOM     21  C   UNL A   1      36.668  23.595  24.282  1.00  0.00     0.002 C 
BRANCH  21  22
ATOM     22  C   UNL A   1      36.910  23.312  25.766  1.00  0.00     0.021 C 
BRANCH  22  23
ATOM     23  C   UNL A   1      38.376  23.178  26.151  1.00  0.00     0.116 C 
BRANCH  23  24
ATOM     24  N   UNL A   1      38.881  21.813  26.095  1.00  0.00    -0.352 N 
ATOM     25  C   UNL A   1      40.164  21.325  26.296  1.00  0.00     0.251 C 
ATOM     26  H   UNL A   1      38.206  21.129  25.880  1.00  0.00     0.163 HD
ATOM     27  O   UNL A   1      40.393  20.143  26.140  1.00  0.00    -0.269 OA
BRANCH  25  28
ATOM     28  C   UNL A   1      41.218  22.221  26.847  1.00  0.00     0.039 A 
ATOM     29  C   UNL A   1      41.411  22.201  28.235  1.00  0.00     0.014 A 
ATOM     30  C   UNL A   1      41.831  23.200  26.075  1.00  0.00     0.014 A 
ATOM     31  C   UNL A   1      41.978  23.306  28.862  1.00  0.00     0.010 A 
ATOM     32  C   UNL A   1      42.301  24.339  26.696  1.00  0.00     0.010 A 
ATOM     33  C   UNL A   1      42.295  24.421  28.090  1.00  0.00    -0.014 A 
BRANCH  33  34
ATOM     34  C   UNL A   1      42.443  25.757  28.649  1.00  0.00     0.031 A 
ATOM     35  C   UNL A   1      41.310  26.696  28.696  1.00  0.00     0.074 A 
ATOM     36  C   UNL A   1      43.622  26.099  29.215  1.00  0.00     0.049 A 
ATOM     37  N   UNL A   1      41.439  27.974  28.819  1.00  0.00    -0.248 NA
ATOM     38  C   UNL A   1      39.925  26.271  28.527  1.00  0.00     0.031 C 
ATOM     39  C   UNL A   1      43.896  27.218  30.110  1.00  0.00     0.029 A 
ATOM     40  N   UNL A   1      44.879  25.595  28.909  1.00  0.00    -0.354 N 
ATOM     41  C   UNL A   1      40.192  28.483  29.088  1.00  0.00     0.074 A 
ATOM     42  C   UNL A   1      39.278  27.421  28.741  1.00  0.00     0.031 C 
ATOM     43  C   UNL A   1      45.217  27.464  30.109  1.00  0.00     0.029 A 
ATOM     44  C   UNL A   1      45.815  26.620  29.087  1.00  0.00     0.049 A 
ATOM     45  H   UNL A   1      45.078  24.676  28.618  1.00  0.00     0.167 HD
ATOM     46  C   UNL A   1      40.093  29.675  29.742  1.00  0.00     0.031 A 
ATOM     47  C   UNL A   1      46.547  27.090  28.032  1.00  0.00     0.031 A 
ATOM     48  C   UNL A   1      41.390  30.350  29.842  1.00  0.00     0.049 A 
ATOM     49  C   UNL A   1      46.291  28.548  27.710  1.00  0.00     0.074 A 
ATOM     50  C   UNL A   1      42.272  30.565  30.890  1.00  0.00     0.029 A 
ATOM     51  N   UNL A   1      42.075  30.690  28.679  1.00  0.00    -0.354 N 
ATOM     52  N   UNL A   1      45.260  29.221  28.138  1.00  0.00    -0.248 NA
ATOM     53  C   UNL A   1      47.153  29.349  26.844  1.00  0.00     0.031 C 
ATOM     54  C   UNL A   1      43.520  30.963  30.340  1.00  0.00     0.029 A 
ATOM     55  C   UNL A   1      43.385  31.024  28.964  1.00  0.00     0.049 A 
ATOM     56  H   UNL A   1      41.680  30.694  27.777  1.00  0.00     0.167 HD
ATOM     57  C   UNL A   1      45.290  30.491  27.625  1.00  0.00     0.074 A 
ATOM     58  C   UNL A   1      46.505  30.528  26.832  1.00  0.00     0.031 C 
ATOM     59  C   UNL A   1      44.300  31.394  27.890  1.00  0.00     0.031 A 
BRANCH  46  60
ATOM     60  C   UNL A   1      38.879  30.102  30.546  1.00  0.00    -0.014 A 
ATOM     61  C   UNL A   1      38.085  29.121  31.172  1.00  0.00     0.009 A 
ATOM     62  C   UNL A   1      38.395  31.418  30.647  1.00  0.00     0.009 A 
ATOM     63  C   UNL A   1      36.863  29.427  31.790  1.00  0.00     0.001 A 
ATOM     64  C   UNL A   1      37.176  31.735  31.263  1.00  0.00     0.001 A 
ATOM     65  C   UNL A   1      36.401  30.735  31.823  1.00  0.00     0.000 A 
ENDBRANCH  46  60
BRANCH  47  66
ATOM     66  C   UNL A   1      46.864  26.049  27.014  1.00  0.00    -0.014 A 
ATOM     67  C   UNL A   1      45.824  25.590  26.182  1.00  0.00     0.009 A 
ATOM     68  C   UNL A   1      48.188  25.798  26.630  1.00  0.00     0.009 A 
ATOM     69  C   UNL A   1      46.102  24.998  24.946  1.00  0.00     0.001 A 
ATOM     70  C   UNL A   1      48.462  25.194  25.395  1.00  0.00     0.001 A 
ATOM     71  C   UNL A   1      47.422  24.827  24.541  1.00  0.00     0.000 A 
ENDBRANCH  47  66
BRANCH  59  72
ATOM     72  C   UNL A   1      44.110  32.735  27.222  1.00  0.00    -0.014 A 
ATOM     73  C   UNL A   1      43.980  32.925  25.841  1.00  0.00     0.009 A 
ATOM     74  C   UNL A   1      43.919  33.877  28.036  1.00  0.00     0.009 A 
ATOM     75  C   UNL A   1      43.716  34.193  25.299  1.00  0.00     0.001 A 
ATOM     76  C   UNL A   1      43.611  35.131  27.504  1.00  0.00     0.001 A 
ATOM     77  C   UNL A   1      43.521  35.291  26.130  1.00  0.00     0.000 A 
ENDBRANCH  59  72
ENDBRANCH  33  34
ENDBRANCH  25  28
ENDBRANCH  23  24
ENDBRANCH  22  23
ENDBRANCH  21  22
ENDBRANCH   1  21
TORSDOF 15
ENDMDL
