MODEL 1
REMARK VINA RESULT:     -11.6      0.000      0.000
REMARK SMILES Cc1cc(Nc2nc3c(c(OCC(=O)NCCCCCCNC(=O)c4ccc(-c5c6nc(c(-c7ccccc7)c7ccc([nH]7)c(-c7ccccc7)c7nc(c(-c8ccccc8)c8ccc5[nH]8)C=C7)C=C6)cc4)n2)CCCC3)ccc1Br
REMARK SMILES IDX 17 1 16 2 15 3 13 4 14 5 12 7 11 8 10 9 6 10 7 11 73 12 8 13
REMARK SMILES IDX 9 14 77 15 74 16 76 17 75 18 5 19 4 21 1 22 2 23 3 24 80 25
REMARK SMILES IDX 79 26 81 27 78 28 18 29 19 30 20 31 21 32 22 33 23 34 24 36
REMARK SMILES IDX 25 37 26 38 72 39 27 40 71 41 28 42 29 43 30 44 65 45 31 46
REMARK SMILES IDX 70 47 64 48 66 49 32 50 69 51 63 52 62 53 33 55 55 56 40 57
REMARK SMILES IDX 54 58 41 59 44 60 53 61 67 62 42 63 43 64 52 66 68 67 45 68
REMARK SMILES IDX 34 69 35 70 39 71 36 72 38 73 37 74 56 75 57 76 61 77 58 78
REMARK SMILES IDX 60 79 59 80 46 81 47 82 51 83 48 84 50 85 49 86
REMARK H PARENT 15 6 5 20 22 35 66 54 44 65
REMARK Flexibility Score: inf
ROOT
ATOM      1  C   UNL A   1      36.980  23.118  24.514  1.00  0.00     0.021 C 
ENDROOT
BRANCH   1   2
ATOM      2  C   UNL A   1      36.635  23.322  25.989  1.00  0.00     0.116 C 
BRANCH   2   3
ATOM      3  N   UNL A   1      35.380  24.031  26.148  1.00  0.00    -0.353 N 
ATOM      4  C   UNL A   1      34.156  23.543  26.511  1.00  0.00     0.258 C 
ATOM      5  O   UNL A   1      33.210  24.328  26.586  1.00  0.00    -0.271 OA
ATOM      6  H   UNL A   1      35.414  24.997  25.967  1.00  0.00     0.163 HD
BRANCH   4   7
ATOM      7  C   UNL A   1      34.025  22.070  26.916  1.00  0.00     0.331 C 
BRANCH   7   8
ATOM      8  O   UNL A   1      32.806  21.423  26.582  1.00  0.00    -0.467 OA
BRANCH   8   9
ATOM      9  C   UNL A   1      32.605  21.247  25.228  1.00  0.00     0.222 A 
ATOM     10  C   UNL A   1      32.109  22.104  23.179  1.00  0.00     0.230 A 
ATOM     11  N   UNL A   1      32.113  20.884  22.621  1.00  0.00    -0.217 NA
ATOM     12  N   UNL A   1      32.402  22.328  24.462  1.00  0.00    -0.177 NA
ATOM     13  C   UNL A   1      32.397  19.824  23.403  1.00  0.00     0.053 A 
ATOM     14  C   UNL A   1      32.608  19.949  24.762  1.00  0.00     0.036 A 
ATOM     15  C   UNL A   1      32.391  18.481  22.724  1.00  0.00     0.057 C 
ATOM     16  C   UNL A   1      32.877  18.771  25.649  1.00  0.00     0.043 C 
ATOM     17  C   UNL A   1      33.038  17.382  23.566  1.00  0.00     0.007 C 
ATOM     18  C   UNL A   1      32.513  17.437  24.996  1.00  0.00     0.005 C 
BRANCH  10  19
ATOM     19  N   UNL A   1      31.720  23.216  22.436  1.00  0.00    -0.324 N 
ATOM     20  H   UNL A   1      31.522  23.053  21.486  1.00  0.00     0.170 HD
BRANCH  19  21
ATOM     21  C   UNL A   1      31.575  24.541  22.878  1.00  0.00     0.041 A 
ATOM     22  C   UNL A   1      33.582  27.780  22.674  1.00  0.00     0.045 C 
ATOM     23  C   UNL A   1      32.483  26.817  23.024  1.00  0.00    -0.035 A 
ATOM     24  C   UNL A   1      32.566  25.485  22.571  1.00  0.00     0.030 A 
ATOM     25  C   UNL A   1      31.377  27.196  23.797  1.00  0.00     0.021 A 
ATOM     26  C   UNL A   1      30.369  26.278  24.082  1.00  0.00     0.018 A 
ATOM     27  Br  UNL A   1      31.187  28.950  24.501  1.00  0.00    -0.051 Br
ATOM     28  C   UNL A   1      30.462  24.968  23.612  1.00  0.00     0.027 A 
ENDBRANCH  19  21
ENDBRANCH  10  19
ENDBRANCH   8   9
ENDBRANCH   7   8
ENDBRANCH   4   7
ENDBRANCH   2   3
ENDBRANCH   1   2
BRANCH   1  29
ATOM     29  C   UNL A   1      36.528  21.765  23.946  1.00  0.00     0.002 C 
BRANCH  29  30
ATOM     30  C   UNL A   1      36.525  20.605  24.948  1.00  0.00     0.002 C 
BRANCH  30  31
ATOM     31  C   UNL A   1      37.774  19.723  24.918  1.00  0.00     0.021 C 
BRANCH  31  32
ATOM     32  C   UNL A   1      38.920  20.218  25.792  1.00  0.00     0.116 C 
BRANCH  32  33
ATOM     33  N   UNL A   1      40.029  19.279  25.829  1.00  0.00    -0.352 N 
ATOM     34  C   UNL A   1      41.355  19.509  26.099  1.00  0.00     0.251 C 
ATOM     35  H   UNL A   1      39.796  18.342  25.632  1.00  0.00     0.163 HD
ATOM     36  O   UNL A   1      42.192  18.630  25.908  1.00  0.00    -0.269 OA
BRANCH  34  37
ATOM     37  C   UNL A   1      41.780  20.831  26.604  1.00  0.00     0.039 A 
ATOM     38  C   UNL A   1      42.231  21.789  25.693  1.00  0.00     0.014 A 
ATOM     39  C   UNL A   1      41.731  21.123  27.971  1.00  0.00     0.014 A 
ATOM     40  C   UNL A   1      42.575  23.063  26.147  1.00  0.00     0.010 A 
ATOM     41  C   UNL A   1      42.003  22.414  28.410  1.00  0.00     0.010 A 
ATOM     42  C   UNL A   1      42.433  23.395  27.505  1.00  0.00    -0.014 A 
BRANCH  42  43
ATOM     43  C   UNL A   1      42.747  24.761  27.994  1.00  0.00     0.031 A 
ATOM     44  C   UNL A   1      44.171  25.147  28.284  1.00  0.00     0.074 A 
ATOM     45  C   UNL A   1      41.750  25.640  28.209  1.00  0.00     0.049 A 
ATOM     46  N   UNL A   1      44.639  26.280  28.743  1.00  0.00    -0.248 NA
ATOM     47  C   UNL A   1      45.202  24.124  28.045  1.00  0.00     0.031 C 
ATOM     48  C   UNL A   1      40.326  25.379  27.986  1.00  0.00     0.029 A 
ATOM     49  N   UNL A   1      41.783  26.937  28.660  1.00  0.00    -0.354 N 
ATOM     50  C   UNL A   1      46.013  26.104  28.846  1.00  0.00     0.074 A 
ATOM     51  C   UNL A   1      46.298  24.740  28.463  1.00  0.00     0.031 C 
ATOM     52  C   UNL A   1      39.628  26.492  28.261  1.00  0.00     0.029 A 
ATOM     53  C   UNL A   1      40.545  27.530  28.721  1.00  0.00     0.049 A 
ATOM     54  H   UNL A   1      42.615  27.398  28.915  1.00  0.00     0.167 HD
ATOM     55  C   UNL A   1      46.957  27.006  29.202  1.00  0.00     0.031 A 
ATOM     56  C   UNL A   1      40.188  28.770  29.104  1.00  0.00     0.031 A 
ATOM     57  C   UNL A   1      46.676  28.365  29.578  1.00  0.00     0.049 A 
ATOM     58  C   UNL A   1      41.252  29.738  29.545  1.00  0.00     0.074 A 
ATOM     59  C   UNL A   1      47.569  29.364  29.922  1.00  0.00     0.029 A 
ATOM     60  N   UNL A   1      45.406  28.916  29.657  1.00  0.00    -0.354 N 
ATOM     61  N   UNL A   1      42.551  29.572  29.590  1.00  0.00    -0.248 NA
ATOM     62  C   UNL A   1      40.800  31.067  29.981  1.00  0.00     0.031 C 
ATOM     63  C   UNL A   1      46.837  30.504  30.265  1.00  0.00     0.029 A 
ATOM     64  C   UNL A   1      45.491  30.233  30.073  1.00  0.00     0.049 A 
ATOM     65  H   UNL A   1      44.569  28.441  29.450  1.00  0.00     0.167 HD
ATOM     66  C   UNL A   1      43.074  30.778  30.035  1.00  0.00     0.074 A 
ATOM     67  C   UNL A   1      41.953  31.674  30.229  1.00  0.00     0.031 C 
ATOM     68  C   UNL A   1      44.366  31.113  30.264  1.00  0.00     0.031 A 
BRANCH  55  69
ATOM     69  C   UNL A   1      48.391  26.557  29.195  1.00  0.00    -0.014 A 
ATOM     70  C   UNL A   1      48.977  25.992  30.338  1.00  0.00     0.009 A 
ATOM     71  C   UNL A   1      49.145  26.635  28.014  1.00  0.00     0.009 A 
ATOM     72  C   UNL A   1      50.296  25.537  30.307  1.00  0.00     0.001 A 
ATOM     73  C   UNL A   1      50.455  26.152  27.976  1.00  0.00     0.001 A 
ATOM     74  C   UNL A   1      51.031  25.609  29.124  1.00  0.00     0.000 A 
ENDBRANCH  55  69
BRANCH  56  75
ATOM     75  C   UNL A   1      38.758  29.178  29.066  1.00  0.00    -0.014 A 
ATOM     76  C   UNL A   1      38.204  29.715  27.894  1.00  0.00     0.009 A 
ATOM     77  C   UNL A   1      37.936  29.025  30.194  1.00  0.00     0.009 A 
ATOM     78  C   UNL A   1      36.863  30.108  27.857  1.00  0.00     0.001 A 
ATOM     79  C   UNL A   1      36.590  29.390  30.146  1.00  0.00     0.001 A 
ATOM     80  C   UNL A   1      36.056  29.938  28.981  1.00  0.00     0.000 A 
ENDBRANCH  56  75
BRANCH  68  81
ATOM     81  C   UNL A   1      44.653  32.512  30.734  1.00  0.00    -0.014 A 
ATOM     82  C   UNL A   1      44.750  32.812  32.101  1.00  0.00     0.009 A 
ATOM     83  C   UNL A   1      44.911  33.523  29.794  1.00  0.00     0.009 A 
ATOM     84  C   UNL A   1      45.080  34.103  32.518  1.00  0.00     0.001 A 
ATOM     85  C   UNL A   1      45.271  34.804  30.214  1.00  0.00     0.001 A 
ATOM     86  C   UNL A   1      45.349  35.095  31.576  1.00  0.00     0.000 A 
ENDBRANCH  68  81
ENDBRANCH  42  43
ENDBRANCH  34  37
ENDBRANCH  32  33
ENDBRANCH  31  32
ENDBRANCH  30  31
ENDBRANCH  29  30
ENDBRANCH   1  29
TORSDOF 17
ENDMDL
MODEL 2
REMARK VINA RESULT:     -11.4      1.136      5.801
REMARK SMILES Cc1cc(Nc2nc3c(c(OCC(=O)NCCCCCCNC(=O)c4ccc(-c5c6nc(c(-c7ccccc7)c7ccc([nH]7)c(-c7ccccc7)c7nc(c(-c8ccccc8)c8ccc5[nH]8)C=C7)C=C6)cc4)n2)CCCC3)ccc1Br
REMARK SMILES IDX 17 1 16 2 15 3 13 4 14 5 12 7 11 8 10 9 6 10 7 11 73 12 8 13
REMARK SMILES IDX 9 14 77 15 74 16 76 17 75 18 5 19 4 21 1 22 2 23 3 24 80 25
REMARK SMILES IDX 79 26 81 27 78 28 18 29 19 30 20 31 21 32 22 33 23 34 24 36
REMARK SMILES IDX 25 37 26 38 72 39 27 40 71 41 28 42 29 43 30 44 65 45 31 46
REMARK SMILES IDX 70 47 64 48 66 49 32 50 69 51 63 52 62 53 33 55 55 56 40 57
REMARK SMILES IDX 54 58 41 59 44 60 53 61 67 62 42 63 43 64 52 66 68 67 45 68
REMARK SMILES IDX 34 69 35 70 39 71 36 72 38 73 37 74 56 75 57 76 61 77 58 78
REMARK SMILES IDX 60 79 59 80 46 81 47 82 51 83 48 84 50 85 49 86
REMARK H PARENT 15 6 5 20 22 35 66 54 44 65
REMARK Flexibility Score: inf
ROOT
ATOM      1  C   UNL A   1      36.708  23.295  24.615  1.00  0.00     0.021 C 
ENDROOT
BRANCH   1   2
ATOM      2  C   UNL A   1      36.326  23.388  26.093  1.00  0.00     0.116 C 
BRANCH   2   3
ATOM      3  N   UNL A   1      34.993  23.929  26.263  1.00  0.00    -0.353 N 
ATOM      4  C   UNL A   1      33.849  23.290  26.654  1.00  0.00     0.258 C 
ATOM      5  O   UNL A   1      32.809  23.946  26.735  1.00  0.00    -0.271 OA
ATOM      6  H   UNL A   1      34.896  24.889  26.070  1.00  0.00     0.163 HD
BRANCH   4   7
ATOM      7  C   UNL A   1      33.918  21.820  27.081  1.00  0.00     0.331 C 
BRANCH   7   8
ATOM      8  O   UNL A   1      32.831  20.992  26.696  1.00  0.00    -0.467 OA
BRANCH   8   9
ATOM      9  C   UNL A   1      32.691  20.829  25.333  1.00  0.00     0.222 A 
ATOM     10  C   UNL A   1      32.311  21.707  23.268  1.00  0.00     0.230 A 
ATOM     11  N   UNL A   1      32.317  20.491  22.702  1.00  0.00    -0.217 NA
ATOM     12  N   UNL A   1      32.546  21.918  24.565  1.00  0.00    -0.177 NA
ATOM     13  C   UNL A   1      32.543  19.421  23.490  1.00  0.00     0.053 A 
ATOM     14  C   UNL A   1      32.690  19.533  24.858  1.00  0.00     0.036 A 
ATOM     15  C   UNL A   1      32.543  18.082  22.802  1.00  0.00     0.057 C 
ATOM     16  C   UNL A   1      32.894  18.345  25.749  1.00  0.00     0.043 C 
ATOM     17  C   UNL A   1      33.127  16.966  23.666  1.00  0.00     0.007 C 
ATOM     18  C   UNL A   1      32.535  17.023  25.070  1.00  0.00     0.005 C 
BRANCH  10  19
ATOM     19  N   UNL A   1      31.980  22.831  22.516  1.00  0.00    -0.324 N 
ATOM     20  H   UNL A   1      31.766  22.669  21.568  1.00  0.00     0.170 HD
BRANCH  19  21
ATOM     21  C   UNL A   1      31.913  24.167  22.944  1.00  0.00     0.041 A 
ATOM     22  C   UNL A   1      29.176  26.658  23.877  1.00  0.00     0.045 C 
ATOM     23  C   UNL A   1      30.542  26.091  23.612  1.00  0.00    -0.035 A 
ATOM     24  C   UNL A   1      30.664  24.744  23.216  1.00  0.00     0.030 A 
ATOM     25  C   UNL A   1      31.706  26.862  23.736  1.00  0.00     0.021 A 
ATOM     26  C   UNL A   1      32.957  26.293  23.501  1.00  0.00     0.018 A 
ATOM     27  Br  UNL A   1      31.659  28.699  24.214  1.00  0.00    -0.051 Br
ATOM     28  C   UNL A   1      33.056  24.954  23.125  1.00  0.00     0.027 A 
ENDBRANCH  19  21
ENDBRANCH  10  19
ENDBRANCH   8   9
ENDBRANCH   7   8
ENDBRANCH   4   7
ENDBRANCH   2   3
ENDBRANCH   1   2
BRANCH   1  29
ATOM     29  C   UNL A   1      36.447  21.920  23.986  1.00  0.00     0.002 C 
BRANCH  29  30
ATOM     30  C   UNL A   1      36.504  20.736  24.958  1.00  0.00     0.002 C 
BRANCH  30  31
ATOM     31  C   UNL A   1      37.750  19.858  24.833  1.00  0.00     0.021 C 
BRANCH  31  32
ATOM     32  C   UNL A   1      38.898  20.255  25.753  1.00  0.00     0.116 C 
BRANCH  32  33
ATOM     33  N   UNL A   1      39.888  19.198  25.886  1.00  0.00    -0.352 N 
ATOM     34  C   UNL A   1      41.241  19.294  26.098  1.00  0.00     0.251 C 
ATOM     35  H   UNL A   1      39.537  18.281  25.815  1.00  0.00     0.163 HD
ATOM     36  O   UNL A   1      41.958  18.302  26.001  1.00  0.00    -0.269 OA
BRANCH  34  37
ATOM     37  C   UNL A   1      41.839  20.606  26.421  1.00  0.00     0.039 A 
ATOM     38  C   UNL A   1      42.219  21.452  25.377  1.00  0.00     0.014 A 
ATOM     39  C   UNL A   1      42.022  20.999  27.751  1.00  0.00     0.014 A 
ATOM     40  C   UNL A   1      42.726  22.719  25.666  1.00  0.00     0.010 A 
ATOM     41  C   UNL A   1      42.457  22.288  28.036  1.00  0.00     0.010 A 
ATOM     42  C   UNL A   1      42.819  23.159  26.997  1.00  0.00    -0.014 A 
BRANCH  42  43
ATOM     43  C   UNL A   1      43.309  24.523  27.319  1.00  0.00     0.031 A 
ATOM     44  C   UNL A   1      42.341  25.586  27.759  1.00  0.00     0.074 A 
ATOM     45  C   UNL A   1      44.617  24.813  27.182  1.00  0.00     0.049 A 
ATOM     46  N   UNL A   1      42.574  26.839  28.056  1.00  0.00    -0.248 NA
ATOM     47  C   UNL A   1      40.925  25.197  27.863  1.00  0.00     0.031 C 
ATOM     48  C   UNL A   1      45.653  23.875  26.744  1.00  0.00     0.029 A 
ATOM     49  N   UNL A   1      45.301  25.983  27.405  1.00  0.00    -0.354 N 
ATOM     50  C   UNL A   1      41.338  27.384  28.381  1.00  0.00     0.074 A 
ATOM     51  C   UNL A   1      40.351  26.347  28.185  1.00  0.00     0.031 C 
ATOM     52  C   UNL A   1      46.844  24.494  26.768  1.00  0.00     0.029 A 
ATOM     53  C   UNL A   1      46.654  25.880  27.181  1.00  0.00     0.049 A 
ATOM     54  H   UNL A   1      44.865  26.815  27.698  1.00  0.00     0.167 HD
ATOM     55  C   UNL A   1      41.054  28.629  28.827  1.00  0.00     0.031 A 
ATOM     56  C   UNL A   1      47.630  26.800  27.296  1.00  0.00     0.031 A 
ATOM     57  C   UNL A   1      42.036  29.660  29.028  1.00  0.00     0.049 A 
ATOM     58  C   UNL A   1      47.280  28.192  27.745  1.00  0.00     0.074 A 
ATOM     59  C   UNL A   1      41.848  30.943  29.511  1.00  0.00     0.029 A 
ATOM     60  N   UNL A   1      43.389  29.525  28.759  1.00  0.00    -0.354 N 
ATOM     61  N   UNL A   1      46.114  28.677  28.095  1.00  0.00    -0.248 NA
ATOM     62  C   UNL A   1      48.382  29.161  27.823  1.00  0.00     0.031 C 
ATOM     63  C   UNL A   1      43.079  31.604  29.480  1.00  0.00     0.029 A 
ATOM     64  C   UNL A   1      44.044  30.712  29.038  1.00  0.00     0.049 A 
ATOM     65  H   UNL A   1      43.820  28.707  28.420  1.00  0.00     0.167 HD
ATOM     66  C   UNL A   1      46.344  29.998  28.456  1.00  0.00     0.074 A 
ATOM     67  C   UNL A   1      47.765  30.233  28.300  1.00  0.00     0.031 C 
ATOM     68  C   UNL A   1      45.458  30.932  28.877  1.00  0.00     0.031 A 
BRANCH  55  69
ATOM     69  C   UNL A   1      39.619  28.948  29.141  1.00  0.00    -0.014 A 
ATOM     70  C   UNL A   1      38.753  29.433  28.149  1.00  0.00     0.009 A 
ATOM     71  C   UNL A   1      39.108  28.698  30.424  1.00  0.00     0.009 A 
ATOM     72  C   UNL A   1      37.411  29.684  28.440  1.00  0.00     0.001 A 
ATOM     73  C   UNL A   1      37.759  28.920  30.705  1.00  0.00     0.001 A 
ATOM     74  C   UNL A   1      36.914  29.419  29.716  1.00  0.00     0.000 A 
ENDBRANCH  55  69
BRANCH  56  75
ATOM     75  C   UNL A   1      49.040  26.428  27.002  1.00  0.00    -0.014 A 
ATOM     76  C   UNL A   1      49.566  26.596  25.712  1.00  0.00     0.009 A 
ATOM     77  C   UNL A   1      49.872  25.912  28.010  1.00  0.00     0.009 A 
ATOM     78  C   UNL A   1      50.886  26.238  25.431  1.00  0.00     0.001 A 
ATOM     79  C   UNL A   1      51.200  25.583  27.733  1.00  0.00     0.001 A 
ATOM     80  C   UNL A   1      51.704  25.739  26.444  1.00  0.00     0.000 A 
ENDBRANCH  56  75
BRANCH  68  81
ATOM     81  C   UNL A   1      45.991  32.296  29.220  1.00  0.00    -0.014 A 
ATOM     82  C   UNL A   1      46.419  32.600  30.521  1.00  0.00     0.009 A 
ATOM     83  C   UNL A   1      46.142  33.259  28.209  1.00  0.00     0.009 A 
ATOM     84  C   UNL A   1      46.970  33.851  30.807  1.00  0.00     0.001 A 
ATOM     85  C   UNL A   1      46.722  34.496  28.492  1.00  0.00     0.001 A 
ATOM     86  C   UNL A   1      47.129  34.794  29.792  1.00  0.00     0.000 A 
ENDBRANCH  68  81
ENDBRANCH  42  43
ENDBRANCH  34  37
ENDBRANCH  32  33
ENDBRANCH  31  32
ENDBRANCH  30  31
ENDBRANCH  29  30
ENDBRANCH   1  29
TORSDOF 17
ENDMDL
MODEL 3
REMARK VINA RESULT:     -11.4      3.543      9.159
REMARK SMILES Cc1cc(Nc2nc3c(c(OCC(=O)NCCCCCCNC(=O)c4ccc(-c5c6nc(c(-c7ccccc7)c7ccc([nH]7)c(-c7ccccc7)c7nc(c(-c8ccccc8)c8ccc5[nH]8)C=C7)C=C6)cc4)n2)CCCC3)ccc1Br
REMARK SMILES IDX 17 1 16 2 15 3 13 4 14 5 12 7 11 8 10 9 6 10 7 11 73 12 8 13
REMARK SMILES IDX 9 14 77 15 74 16 76 17 75 18 5 19 4 21 1 22 2 23 3 24 80 25
REMARK SMILES IDX 79 26 81 27 78 28 18 29 19 30 20 31 21 32 22 33 23 34 24 36
REMARK SMILES IDX 25 37 26 38 72 39 27 40 71 41 28 42 29 43 30 44 65 45 31 46
REMARK SMILES IDX 70 47 64 48 66 49 32 50 69 51 63 52 62 53 33 55 55 56 40 57
REMARK SMILES IDX 54 58 41 59 44 60 53 61 67 62 42 63 43 64 52 66 68 67 45 68
REMARK SMILES IDX 34 69 35 70 39 71 36 72 38 73 37 74 56 75 57 76 61 77 58 78
REMARK SMILES IDX 60 79 59 80 46 81 47 82 51 83 48 84 50 85 49 86
REMARK H PARENT 15 6 5 20 22 35 66 54 44 65
REMARK Flexibility Score: inf
ROOT
ATOM      1  C   UNL A   1      34.991  31.881  27.858  1.00  0.00     0.021 C 
ENDROOT
BRANCH   1   2
ATOM      2  C   UNL A   1      33.796  30.959  27.617  1.00  0.00     0.116 C 
BRANCH   2   3
ATOM      3  N   UNL A   1      34.217  29.656  27.145  1.00  0.00    -0.353 N 
ATOM      4  C   UNL A   1      33.463  28.649  26.609  1.00  0.00     0.258 C 
ATOM      5  O   UNL A   1      34.030  27.609  26.270  1.00  0.00    -0.271 OA
ATOM      6  H   UNL A   1      35.180  29.468  27.223  1.00  0.00     0.163 HD
BRANCH   4   7
ATOM      7  C   UNL A   1      31.971  28.885  26.349  1.00  0.00     0.331 C 
BRANCH   7   8
ATOM      8  O   UNL A   1      31.640  29.850  25.362  1.00  0.00    -0.467 OA
BRANCH   8   9
ATOM      9  C   UNL A   1      31.036  29.331  24.235  1.00  0.00     0.222 A 
ATOM     10  C   UNL A   1      30.939  27.756  22.595  1.00  0.00     0.230 A 
ATOM     11  N   UNL A   1      29.922  28.388  21.989  1.00  0.00    -0.217 NA
ATOM     12  N   UNL A   1      31.482  28.167  23.743  1.00  0.00    -0.177 NA
ATOM     13  C   UNL A   1      29.444  29.515  22.552  1.00  0.00     0.053 A 
ATOM     14  C   UNL A   1      30.014  30.073  23.680  1.00  0.00     0.036 A 
ATOM     15  C   UNL A   1      28.302  30.181  21.832  1.00  0.00     0.057 C 
ATOM     16  C   UNL A   1      29.520  31.352  24.286  1.00  0.00     0.043 C 
ATOM     17  C   UNL A   1      27.597  31.240  22.678  1.00  0.00     0.007 C 
ATOM     18  C   UNL A   1      28.623  32.152  23.341  1.00  0.00     0.005 C 
BRANCH  10  19
ATOM     19  N   UNL A   1      31.534  26.648  21.998  1.00  0.00    -0.324 N 
ATOM     20  H   UNL A   1      31.807  26.758  21.059  1.00  0.00     0.170 HD
BRANCH  19  21
ATOM     21  C   UNL A   1      31.792  25.393  22.573  1.00  0.00     0.041 A 
ATOM     22  C   UNL A   1      34.836  23.159  23.130  1.00  0.00     0.045 C 
ATOM     23  C   UNL A   1      33.411  23.636  23.136  1.00  0.00    -0.035 A 
ATOM     24  C   UNL A   1      33.107  24.904  22.604  1.00  0.00     0.030 A 
ATOM     25  C   UNL A   1      32.366  22.854  23.647  1.00  0.00     0.021 A 
ATOM     26  C   UNL A   1      31.060  23.340  23.653  1.00  0.00     0.018 A 
ATOM     27  Br  UNL A   1      32.653  21.110  24.343  1.00  0.00    -0.051 Br
ATOM     28  C   UNL A   1      30.782  24.604  23.136  1.00  0.00     0.027 A 
ENDBRANCH  19  21
ENDBRANCH  10  19
ENDBRANCH   8   9
ENDBRANCH   7   8
ENDBRANCH   4   7
ENDBRANCH   2   3
ENDBRANCH   1   2
BRANCH   1  29
ATOM     29  C   UNL A   1      34.613  33.352  28.087  1.00  0.00     0.002 C 
BRANCH  29  30
ATOM     30  C   UNL A   1      35.298  34.022  29.283  1.00  0.00     0.002 C 
BRANCH  30  31
ATOM     31  C   UNL A   1      34.567  33.864  30.617  1.00  0.00     0.021 C 
BRANCH  31  32
ATOM     32  C   UNL A   1      34.781  32.518  31.300  1.00  0.00     0.116 C 
BRANCH  32  33
ATOM     33  N   UNL A   1      35.270  32.662  32.662  1.00  0.00    -0.352 N 
ATOM     34  C   UNL A   1      36.438  32.207  33.219  1.00  0.00     0.251 C 
ATOM     35  H   UNL A   1      34.678  33.159  33.272  1.00  0.00     0.163 HD
ATOM     36  O   UNL A   1      36.611  32.258  34.434  1.00  0.00    -0.269 OA
BRANCH  34  37
ATOM     37  C   UNL A   1      37.486  31.630  32.352  1.00  0.00     0.039 A 
ATOM     38  C   UNL A   1      37.404  31.823  30.972  1.00  0.00     0.014 A 
ATOM     39  C   UNL A   1      38.547  30.902  32.901  1.00  0.00     0.014 A 
ATOM     40  C   UNL A   1      38.420  31.339  30.146  1.00  0.00     0.010 A 
ATOM     41  C   UNL A   1      39.594  30.486  32.086  1.00  0.00     0.010 A 
ATOM     42  C   UNL A   1      39.539  30.695  30.700  1.00  0.00    -0.014 A 
BRANCH  42  43
ATOM     43  C   UNL A   1      40.651  30.219  29.840  1.00  0.00     0.031 A 
ATOM     44  C   UNL A   1      40.588  28.852  29.218  1.00  0.00     0.074 A 
ATOM     45  C   UNL A   1      41.729  31.002  29.647  1.00  0.00     0.049 A 
ATOM     46  N   UNL A   1      41.472  28.251  28.461  1.00  0.00    -0.248 NA
ATOM     47  C   UNL A   1      39.387  28.047  29.493  1.00  0.00     0.031 C 
ATOM     48  C   UNL A   1      41.919  32.340  30.213  1.00  0.00     0.029 A 
ATOM     49  N   UNL A   1      42.871  30.787  28.915  1.00  0.00    -0.354 N 
ATOM     50  C   UNL A   1      40.933  27.004  28.173  1.00  0.00     0.074 A 
ATOM     51  C   UNL A   1      39.677  26.908  28.883  1.00  0.00     0.031 C 
ATOM     52  C   UNL A   1      43.084  32.841  29.775  1.00  0.00     0.029 A 
ATOM     53  C   UNL A   1      43.745  31.848  28.935  1.00  0.00     0.049 A 
ATOM     54  H   UNL A   1      43.046  29.953  28.422  1.00  0.00     0.167 HD
ATOM     55  C   UNL A   1      41.426  26.035  27.367  1.00  0.00     0.031 A 
ATOM     56  C   UNL A   1      44.944  32.002  28.342  1.00  0.00     0.031 A 
ATOM     57  C   UNL A   1      42.671  26.132  26.655  1.00  0.00     0.049 A 
ATOM     58  C   UNL A   1      45.493  30.889  27.492  1.00  0.00     0.074 A 
ATOM     59  C   UNL A   1      43.237  25.216  25.786  1.00  0.00     0.029 A 
ATOM     60  N   UNL A   1      43.540  27.208  26.727  1.00  0.00    -0.354 N 
ATOM     61  N   UNL A   1      44.949  29.736  27.190  1.00  0.00    -0.248 NA
ATOM     62  C   UNL A   1      46.820  31.103  26.896  1.00  0.00     0.031 C 
ATOM     63  C   UNL A   1      44.478  25.713  25.378  1.00  0.00     0.029 A 
ATOM     64  C   UNL A   1      44.654  26.967  25.942  1.00  0.00     0.049 A 
ATOM     65  H   UNL A   1      43.389  28.024  27.259  1.00  0.00     0.167 HD
ATOM     66  C   UNL A   1      45.852  29.097  26.352  1.00  0.00     0.074 A 
ATOM     67  C   UNL A   1      46.972  29.998  26.177  1.00  0.00     0.031 C 
ATOM     68  C   UNL A   1      45.762  27.873  25.779  1.00  0.00     0.031 A 
BRANCH  55  69
ATOM     69  C   UNL A   1      40.611  24.783  27.201  1.00  0.00    -0.014 A 
ATOM     70  C   UNL A   1      39.380  24.805  26.528  1.00  0.00     0.009 A 
ATOM     71  C   UNL A   1      41.109  23.555  27.663  1.00  0.00     0.009 A 
ATOM     72  C   UNL A   1      38.653  23.628  26.342  1.00  0.00     0.001 A 
ATOM     73  C   UNL A   1      40.395  22.375  27.449  1.00  0.00     0.001 A 
ATOM     74  C   UNL A   1      39.165  22.413  26.795  1.00  0.00     0.000 A 
ENDBRANCH  55  69
BRANCH  56  75
ATOM     75  C   UNL A   1      45.699  33.273  28.512  1.00  0.00    -0.014 A 
ATOM     76  C   UNL A   1      46.653  33.401  29.532  1.00  0.00     0.009 A 
ATOM     77  C   UNL A   1      45.478  34.360  27.651  1.00  0.00     0.009 A 
ATOM     78  C   UNL A   1      47.357  34.597  29.700  1.00  0.00     0.001 A 
ATOM     79  C   UNL A   1      46.204  35.543  27.802  1.00  0.00     0.001 A 
ATOM     80  C   UNL A   1      47.136  35.664  28.831  1.00  0.00     0.000 A 
ENDBRANCH  56  75
BRANCH  68  81
ATOM     81  C   UNL A   1      46.893  27.431  24.892  1.00  0.00    -0.014 A 
ATOM     82  C   UNL A   1      47.823  26.474  25.326  1.00  0.00     0.009 A 
ATOM     83  C   UNL A   1      46.979  27.919  23.578  1.00  0.00     0.009 A 
ATOM     84  C   UNL A   1      48.830  26.029  24.467  1.00  0.00     0.001 A 
ATOM     85  C   UNL A   1      47.966  27.448  22.712  1.00  0.00     0.001 A 
ATOM     86  C   UNL A   1      48.895  26.509  23.159  1.00  0.00     0.000 A 
ENDBRANCH  68  81
ENDBRANCH  42  43
ENDBRANCH  34  37
ENDBRANCH  32  33
ENDBRANCH  31  32
ENDBRANCH  30  31
ENDBRANCH  29  30
ENDBRANCH   1  29
TORSDOF 17
ENDMDL
