MODEL 1
REMARK VINA RESULT:      -8.7      0.000      0.000
REMARK SMILES CCCCS[C@@H]1CCC[C@]([NH3+])(C(=O)NCCCCCCNC(=O)c2ccc(-c3c4nc(c(-c5ccccc5)c5ccc([nH]5)c(-c5ccccc5)c5nc(c(-c6ccccc6)c6ccc3[nH]6)C=C5)C=C4)cc2)C1
REMARK SMILES IDX 16 1 15 2 14 3 12 4 13 5 10 7 6 8 7 9 72 10 8 11 9 12 5 13
REMARK SMILES IDX 4 14 3 15 2 16 1 17 11 18 17 22 18 23 19 24 20 25 21 26
REMARK SMILES IDX 22 27 23 29 24 30 25 31 71 32 26 33 70 34 27 35 28 36 29 37
REMARK SMILES IDX 64 38 30 39 69 40 63 41 65 42 31 43 68 44 62 45 61 46 32 48
REMARK SMILES IDX 54 49 39 50 53 51 40 52 43 53 52 54 66 55 41 56 42 57 51 59
REMARK SMILES IDX 67 60 44 61 33 62 34 63 38 64 35 65 37 66 36 67 55 68 56 69
REMARK SMILES IDX 60 70 57 71 59 72 58 73 45 74 46 75 50 76 47 77 49 78 48 79
REMARK H PARENT 14 6 11 19 11 20 11 21 21 28 65 47 43 58
REMARK Flexibility Score: inf
ROOT
ATOM      1  C   UNL A   1      35.052  34.248  34.124  1.00  0.00     0.021 C 
ENDROOT
BRANCH   1   2
ATOM      2  C   UNL A   1      36.380  33.736  34.692  1.00  0.00     0.116 C 
BRANCH   2   3
ATOM      3  N   UNL A   1      36.861  32.531  34.012  1.00  0.00    -0.351 N 
ATOM      4  C   UNL A   1      37.660  31.470  34.338  1.00  0.00     0.281 C 
ATOM      5  O   UNL A   1      37.694  30.558  33.503  1.00  0.00    -0.268 OA
ATOM      6  H   UNL A   1      36.524  32.468  33.090  1.00  0.00     0.163 HD
BRANCH   4   7
ATOM      7  C   UNL A   1      38.529  31.398  35.640  1.00  0.00     0.175 C 
ATOM      8  C   UNL A   1      39.015  32.780  37.793  1.00  0.00     0.053 C 
ATOM      9  C   UNL A   1      40.520  32.718  37.481  1.00  0.00     0.015 C 
ATOM     10  C   UNL A   1      38.132  32.569  36.553  1.00  0.00     0.093 C 
ATOM     11  C   UNL A   1      40.910  31.578  36.546  1.00  0.00     0.008 C 
ATOM     12  C   UNL A   1      40.029  31.560  35.295  1.00  0.00     0.079 C 
BRANCH   8  13
ATOM     13  S   UNL A   1      38.698  34.481  38.472  1.00  0.00    -0.158 SA
BRANCH  13  14
ATOM     14  C   UNL A   1      40.335  34.987  39.091  1.00  0.00     0.070 C 
BRANCH  14  15
ATOM     15  C   UNL A   1      40.320  36.318  39.848  1.00  0.00     0.011 C 
BRANCH  15  16
ATOM     16  C   UNL A   1      39.286  37.335  39.383  1.00  0.00    -0.003 C 
ATOM     17  C   UNL A   1      39.312  38.641  40.168  1.00  0.00     0.004 C 
ENDBRANCH  15  16
ENDBRANCH  14  15
ENDBRANCH  13  14
ENDBRANCH   8  13
BRANCH   7  18
ATOM     18  N   UNL A   1      38.389  30.073  36.286  1.00  0.00    -0.345 N 
ATOM     19  H   UNL A   1      38.196  29.367  35.575  1.00  0.00     0.345 HD
ATOM     20  H   UNL A   1      37.619  30.101  36.954  1.00  0.00     0.345 HD
ATOM     21  H   UNL A   1      39.254  29.839  36.773  1.00  0.00     0.345 HD
ENDBRANCH   7  18
ENDBRANCH   4   7
ENDBRANCH   2   3
ENDBRANCH   1   2
BRANCH   1  22
ATOM     22  C   UNL A   1      35.155  35.356  33.065  1.00  0.00     0.002 C 
BRANCH  22  23
ATOM     23  C   UNL A   1      34.093  36.462  33.058  1.00  0.00     0.002 C 
BRANCH  23  24
ATOM     24  C   UNL A   1      32.979  36.386  32.010  1.00  0.00     0.021 C 
BRANCH  24  25
ATOM     25  C   UNL A   1      33.357  36.707  30.562  1.00  0.00     0.116 C 
BRANCH  25  26
ATOM     26  N   UNL A   1      32.650  35.897  29.589  1.00  0.00    -0.352 N 
ATOM     27  C   UNL A   1      33.041  34.788  28.885  1.00  0.00     0.251 C 
ATOM     28  H   UNL A   1      31.731  36.195  29.402  1.00  0.00     0.163 HD
ATOM     29  O   UNL A   1      32.290  34.351  28.006  1.00  0.00    -0.269 OA
BRANCH  27  30
ATOM     30  C   UNL A   1      34.331  34.095  29.124  1.00  0.00     0.039 A 
ATOM     31  C   UNL A   1      34.417  33.233  30.226  1.00  0.00     0.014 A 
ATOM     32  C   UNL A   1      35.483  34.360  28.376  1.00  0.00     0.014 A 
ATOM     33  C   UNL A   1      35.633  32.626  30.563  1.00  0.00     0.010 A 
ATOM     34  C   UNL A   1      36.689  33.716  28.685  1.00  0.00     0.010 A 
ATOM     35  C   UNL A   1      36.782  32.855  29.792  1.00  0.00    -0.014 A 
BRANCH  35  36
ATOM     36  C   UNL A   1      38.085  32.234  30.166  1.00  0.00     0.031 A 
ATOM     37  C   UNL A   1      39.027  32.940  31.107  1.00  0.00     0.074 A 
ATOM     38  C   UNL A   1      38.439  31.037  29.655  1.00  0.00     0.049 A 
ATOM     39  N   UNL A   1      40.213  32.570  31.526  1.00  0.00    -0.248 NA
ATOM     40  C   UNL A   1      38.583  34.239  31.637  1.00  0.00     0.031 C 
ATOM     41  C   UNL A   1      37.635  30.239  28.730  1.00  0.00     0.029 A 
ATOM     42  N   UNL A   1      39.572  30.284  29.846  1.00  0.00    -0.354 N 
ATOM     43  C   UNL A   1      40.661  33.593  32.352  1.00  0.00     0.074 A 
ATOM     44  C   UNL A   1      39.637  34.616  32.346  1.00  0.00     0.031 C 
ATOM     45  C   UNL A   1      38.290  29.101  28.449  1.00  0.00     0.029 A 
ATOM     46  C   UNL A   1      39.572  29.101  29.148  1.00  0.00     0.049 A 
ATOM     47  H   UNL A   1      40.314  30.565  30.429  1.00  0.00     0.167 HD
ATOM     48  C   UNL A   1      41.812  33.673  33.066  1.00  0.00     0.031 A 
ATOM     49  C   UNL A   1      40.498  28.124  29.073  1.00  0.00     0.031 A 
ATOM     50  C   UNL A   1      42.831  32.658  33.093  1.00  0.00     0.049 A 
ATOM     51  C   UNL A   1      41.774  28.245  29.859  1.00  0.00     0.074 A 
ATOM     52  C   UNL A   1      44.013  32.640  33.815  1.00  0.00     0.029 A 
ATOM     53  N   UNL A   1      42.789  31.477  32.369  1.00  0.00    -0.354 N 
ATOM     54  N   UNL A   1      42.162  29.202  30.666  1.00  0.00    -0.248 NA
ATOM     55  C   UNL A   1      42.735  27.138  29.733  1.00  0.00     0.031 C 
ATOM     56  C   UNL A   1      44.705  31.465  33.498  1.00  0.00     0.029 A 
ATOM     57  C   UNL A   1      43.929  30.731  32.616  1.00  0.00     0.049 A 
ATOM     58  H   UNL A   1      42.057  31.209  31.768  1.00  0.00     0.167 HD
ATOM     59  C   UNL A   1      43.393  28.799  31.167  1.00  0.00     0.074 A 
ATOM     60  C   UNL A   1      43.685  27.507  30.583  1.00  0.00     0.031 C 
ATOM     61  C   UNL A   1      44.207  29.443  32.038  1.00  0.00     0.031 A 
BRANCH  48  62
ATOM     62  C   UNL A   1      42.035  34.918  33.879  1.00  0.00    -0.014 A 
ATOM     63  C   UNL A   1      41.508  35.044  35.175  1.00  0.00     0.009 A 
ATOM     64  C   UNL A   1      42.813  35.964  33.358  1.00  0.00     0.009 A 
ATOM     65  C   UNL A   1      41.726  36.206  35.917  1.00  0.00     0.001 A 
ATOM     66  C   UNL A   1      43.052  37.114  34.113  1.00  0.00     0.001 A 
ATOM     67  C   UNL A   1      42.501  37.238  35.388  1.00  0.00     0.000 A 
ENDBRANCH  48  62
BRANCH  49  68
ATOM     68  C   UNL A   1      40.250  26.926  28.231  1.00  0.00    -0.014 A 
ATOM     69  C   UNL A   1      40.761  26.856  26.925  1.00  0.00     0.009 A 
ATOM     70  C   UNL A   1      39.486  25.855  28.719  1.00  0.00     0.009 A 
ATOM     71  C   UNL A   1      40.489  25.750  26.118  1.00  0.00     0.001 A 
ATOM     72  C   UNL A   1      39.239  24.739  27.918  1.00  0.00     0.001 A 
ATOM     73  C   UNL A   1      39.732  24.691  26.615  1.00  0.00     0.000 A 
ENDBRANCH  49  68
BRANCH  61  74
ATOM     74  C   UNL A   1      45.470  28.740  32.451  1.00  0.00    -0.014 A 
ATOM     75  C   UNL A   1      45.495  27.868  33.550  1.00  0.00     0.009 A 
ATOM     76  C   UNL A   1      46.643  28.927  31.703  1.00  0.00     0.009 A 
ATOM     77  C   UNL A   1      46.680  27.223  33.910  1.00  0.00     0.001 A 
ATOM     78  C   UNL A   1      47.819  28.261  32.050  1.00  0.00     0.001 A 
ATOM     79  C   UNL A   1      47.840  27.416  33.159  1.00  0.00     0.000 A 
ENDBRANCH  61  74
ENDBRANCH  35  36
ENDBRANCH  27  30
ENDBRANCH  25  26
ENDBRANCH  24  25
ENDBRANCH  23  24
ENDBRANCH  22  23
ENDBRANCH   1  22
TORSDOF 18
ENDMDL
MODEL 2
REMARK VINA RESULT:      -8.4      5.625     11.943
REMARK SMILES CCCCS[C@@H]1CCC[C@]([NH3+])(C(=O)NCCCCCCNC(=O)c2ccc(-c3c4nc(c(-c5ccccc5)c5ccc([nH]5)c(-c5ccccc5)c5nc(c(-c6ccccc6)c6ccc3[nH]6)C=C5)C=C4)cc2)C1
REMARK SMILES IDX 16 1 15 2 14 3 12 4 13 5 10 7 6 8 7 9 72 10 8 11 9 12 5 13
REMARK SMILES IDX 4 14 3 15 2 16 1 17 11 18 17 22 18 23 19 24 20 25 21 26
REMARK SMILES IDX 22 27 23 29 24 30 25 31 71 32 26 33 70 34 27 35 28 36 29 37
REMARK SMILES IDX 64 38 30 39 69 40 63 41 65 42 31 43 68 44 62 45 61 46 32 48
REMARK SMILES IDX 54 49 39 50 53 51 40 52 43 53 52 54 66 55 41 56 42 57 51 59
REMARK SMILES IDX 67 60 44 61 33 62 34 63 38 64 35 65 37 66 36 67 55 68 56 69
REMARK SMILES IDX 60 70 57 71 59 72 58 73 45 74 46 75 50 76 47 77 49 78 48 79
REMARK H PARENT 14 6 11 19 11 20 11 21 21 28 65 47 43 58
REMARK Flexibility Score: inf
ROOT
ATOM      1  C   UNL A   1      33.341  20.179  25.631  1.00  0.00     0.021 C 
ENDROOT
BRANCH   1   2
ATOM      2  C   UNL A   1      32.174  21.003  25.075  1.00  0.00     0.116 C 
BRANCH   2   3
ATOM      3  N   UNL A   1      31.526  21.830  26.094  1.00  0.00    -0.351 N 
ATOM      4  C   UNL A   1      31.568  23.146  26.467  1.00  0.00     0.281 C 
ATOM      5  O   UNL A   1      30.725  23.484  27.306  1.00  0.00    -0.268 OA
ATOM      6  H   UNL A   1      30.904  21.310  26.651  1.00  0.00     0.163 HD
BRANCH   4   7
ATOM      7  C   UNL A   1      32.624  24.171  25.932  1.00  0.00     0.175 C 
ATOM      8  C   UNL A   1      32.933  26.738  25.619  1.00  0.00     0.053 C 
ATOM      9  C   UNL A   1      33.263  26.507  24.134  1.00  0.00     0.015 C 
ATOM     10  C   UNL A   1      32.123  25.590  26.243  1.00  0.00     0.093 C 
ATOM     11  C   UNL A   1      33.727  25.089  23.818  1.00  0.00     0.008 C 
ATOM     12  C   UNL A   1      32.764  24.049  24.395  1.00  0.00     0.079 C 
BRANCH   8  13
ATOM     13  S   UNL A   1      31.918  28.293  25.687  1.00  0.00    -0.158 SA
BRANCH  13  14
ATOM     14  C   UNL A   1      31.368  28.499  23.961  1.00  0.00     0.070 C 
BRANCH  14  15
ATOM     15  C   UNL A   1      29.983  27.906  23.684  1.00  0.00     0.011 C 
BRANCH  15  16
ATOM     16  C   UNL A   1      28.997  28.826  22.978  1.00  0.00    -0.003 C 
ATOM     17  C   UNL A   1      29.655  29.819  22.026  1.00  0.00     0.004 C 
ENDBRANCH  15  16
ENDBRANCH  14  15
ENDBRANCH  13  14
ENDBRANCH   8  13
BRANCH   7  18
ATOM     18  N   UNL A   1      33.962  23.881  26.497  1.00  0.00    -0.345 N 
ATOM     19  H   UNL A   1      34.677  24.330  25.925  1.00  0.00     0.345 HD
ATOM     20  H   UNL A   1      34.116  22.872  26.504  1.00  0.00     0.345 HD
ATOM     21  H   UNL A   1      34.014  24.239  27.451  1.00  0.00     0.345 HD
ENDBRANCH   7  18
ENDBRANCH   4   7
ENDBRANCH   2   3
ENDBRANCH   1   2
BRANCH   1  22
ATOM     22  C   UNL A   1      34.554  20.017  24.702  1.00  0.00     0.002 C 
BRANCH  22  23
ATOM     23  C   UNL A   1      35.889  20.640  25.128  1.00  0.00     0.002 C 
BRANCH  23  24
ATOM     24  C   UNL A   1      37.165  19.815  24.934  1.00  0.00     0.021 C 
BRANCH  24  25
ATOM     25  C   UNL A   1      38.480  20.440  25.402  1.00  0.00     0.116 C 
BRANCH  25  26
ATOM     26  N   UNL A   1      39.543  19.472  25.591  1.00  0.00    -0.352 N 
ATOM     27  C   UNL A   1      40.836  19.624  26.019  1.00  0.00     0.251 C 
ATOM     28  H   UNL A   1      39.292  18.546  25.373  1.00  0.00     0.163 HD
ATOM     29  O   UNL A   1      41.594  18.650  25.967  1.00  0.00    -0.269 OA
BRANCH  27  30
ATOM     30  C   UNL A   1      41.370  20.911  26.531  1.00  0.00     0.039 A 
ATOM     31  C   UNL A   1      41.193  21.197  27.892  1.00  0.00     0.014 A 
ATOM     32  C   UNL A   1      41.922  21.887  25.696  1.00  0.00     0.014 A 
ATOM     33  C   UNL A   1      41.584  22.435  28.416  1.00  0.00     0.010 A 
ATOM     34  C   UNL A   1      42.358  23.108  26.230  1.00  0.00     0.010 A 
ATOM     35  C   UNL A   1      42.178  23.403  27.592  1.00  0.00    -0.014 A 
BRANCH  35  36
ATOM     36  C   UNL A   1      42.569  24.733  28.141  1.00  0.00     0.031 A 
ATOM     37  C   UNL A   1      41.535  25.811  28.343  1.00  0.00     0.074 A 
ATOM     38  C   UNL A   1      43.856  24.988  28.453  1.00  0.00     0.049 A 
ATOM     39  N   UNL A   1      41.690  27.036  28.783  1.00  0.00    -0.248 NA
ATOM     40  C   UNL A   1      40.147  25.471  27.993  1.00  0.00     0.031 C 
ATOM     41  C   UNL A   1      44.966  24.047  28.306  1.00  0.00     0.029 A 
ATOM     42  N   UNL A   1      44.445  26.122  28.958  1.00  0.00    -0.354 N 
ATOM     43  C   UNL A   1      40.427  27.616  28.747  1.00  0.00     0.074 A 
ATOM     44  C   UNL A   1      39.525  26.621  28.207  1.00  0.00     0.031 C 
ATOM     45  C   UNL A   1      46.098  24.634  28.731  1.00  0.00     0.029 A 
ATOM     46  C   UNL A   1      45.800  26.001  29.149  1.00  0.00     0.049 A 
ATOM     47  H   UNL A   1      43.943  26.944  29.164  1.00  0.00     0.167 HD
ATOM     48  C   UNL A   1      40.045  28.856  29.140  1.00  0.00     0.031 A 
ATOM     49  C   UNL A   1      46.706  26.888  29.607  1.00  0.00     0.031 A 
ATOM     50  C   UNL A   1      40.929  29.849  29.692  1.00  0.00     0.049 A 
ATOM     51  C   UNL A   1      46.260  28.264  30.019  1.00  0.00     0.074 A 
ATOM     52  C   UNL A   1      40.621  31.120  30.149  1.00  0.00     0.029 A 
ATOM     53  N   UNL A   1      42.292  29.683  29.866  1.00  0.00    -0.354 N 
ATOM     54  N   UNL A   1      45.055  28.779  30.015  1.00  0.00    -0.248 NA
ATOM     55  C   UNL A   1      47.302  29.176  30.514  1.00  0.00     0.031 C 
ATOM     56  C   UNL A   1      41.806  31.737  30.564  1.00  0.00     0.029 A 
ATOM     57  C   UNL A   1      42.842  30.832  30.410  1.00  0.00     0.049 A 
ATOM     58  H   UNL A   1      42.797  28.869  29.636  1.00  0.00     0.167 HD
ATOM     59  C   UNL A   1      45.190  30.061  30.534  1.00  0.00     0.074 A 
ATOM     60  C   UNL A   1      46.590  30.242  30.853  1.00  0.00     0.031 C 
ATOM     61  C   UNL A   1      44.235  31.001  30.733  1.00  0.00     0.031 A 
BRANCH  48  62
ATOM     62  C   UNL A   1      38.594  29.215  28.977  1.00  0.00    -0.014 A 
ATOM     63  C   UNL A   1      37.691  29.092  30.046  1.00  0.00     0.009 A 
ATOM     64  C   UNL A   1      38.131  29.719  27.752  1.00  0.00     0.009 A 
ATOM     65  C   UNL A   1      36.347  29.431  29.878  1.00  0.00     0.001 A 
ATOM     66  C   UNL A   1      36.792  30.083  27.596  1.00  0.00     0.001 A 
ATOM     67  C   UNL A   1      35.899  29.930  28.655  1.00  0.00     0.000 A 
ENDBRANCH  48  62
BRANCH  49  68
ATOM     68  C   UNL A   1      48.136  26.501  29.720  1.00  0.00    -0.014 A 
ATOM     69  C   UNL A   1      49.022  26.737  28.657  1.00  0.00     0.009 A 
ATOM     70  C   UNL A   1      48.617  25.878  30.881  1.00  0.00     0.009 A 
ATOM     71  C   UNL A   1      50.355  26.332  28.746  1.00  0.00     0.001 A 
ATOM     72  C   UNL A   1      49.958  25.498  30.976  1.00  0.00     0.001 A 
ATOM     73  C   UNL A   1      50.824  25.717  29.906  1.00  0.00     0.000 A 
ENDBRANCH  49  68
BRANCH  61  74
ATOM     74  C   UNL A   1      44.662  32.295  31.367  1.00  0.00    -0.014 A 
ATOM     75  C   UNL A   1      45.039  33.400  30.588  1.00  0.00     0.009 A 
ATOM     76  C   UNL A   1      44.648  32.419  32.764  1.00  0.00     0.009 A 
ATOM     77  C   UNL A   1      45.427  34.594  31.201  1.00  0.00     0.001 A 
ATOM     78  C   UNL A   1      45.011  33.621  33.373  1.00  0.00     0.001 A 
ATOM     79  C   UNL A   1      45.409  34.705  32.591  1.00  0.00     0.000 A 
ENDBRANCH  61  74
ENDBRANCH  35  36
ENDBRANCH  27  30
ENDBRANCH  25  26
ENDBRANCH  24  25
ENDBRANCH  23  24
ENDBRANCH  22  23
ENDBRANCH   1  22
TORSDOF 18
ENDMDL
MODEL 3
REMARK VINA RESULT:      -8.1      5.648      9.846
REMARK SMILES CCCCS[C@@H]1CCC[C@]([NH3+])(C(=O)NCCCCCCNC(=O)c2ccc(-c3c4nc(c(-c5ccccc5)c5ccc([nH]5)c(-c5ccccc5)c5nc(c(-c6ccccc6)c6ccc3[nH]6)C=C5)C=C4)cc2)C1
REMARK SMILES IDX 16 1 15 2 14 3 12 4 13 5 10 7 6 8 7 9 72 10 8 11 9 12 5 13
REMARK SMILES IDX 4 14 3 15 2 16 1 17 11 18 17 22 18 23 19 24 20 25 21 26
REMARK SMILES IDX 22 27 23 29 24 30 25 31 71 32 26 33 70 34 27 35 28 36 29 37
REMARK SMILES IDX 64 38 30 39 69 40 63 41 65 42 31 43 68 44 62 45 61 46 32 48
REMARK SMILES IDX 54 49 39 50 53 51 40 52 43 53 52 54 66 55 41 56 42 57 51 59
REMARK SMILES IDX 67 60 44 61 33 62 34 63 38 64 35 65 37 66 36 67 55 68 56 69
REMARK SMILES IDX 60 70 57 71 59 72 58 73 45 74 46 75 50 76 47 77 49 78 48 79
REMARK H PARENT 14 6 11 19 11 20 11 21 21 28 65 47 43 58
REMARK Flexibility Score: inf
ROOT
ATOM      1  C   UNL A   1      30.957  27.078  25.931  1.00  0.00     0.021 C 
ENDROOT
BRANCH   1   2
ATOM      2  C   UNL A   1      29.812  26.109  25.618  1.00  0.00     0.116 C 
BRANCH   2   3
ATOM      3  N   UNL A   1      29.854  24.896  26.436  1.00  0.00    -0.351 N 
ATOM      4  C   UNL A   1      30.501  23.692  26.378  1.00  0.00     0.281 C 
ATOM      5  O   UNL A   1      30.376  22.976  27.379  1.00  0.00    -0.268 OA
ATOM      6  H   UNL A   1      29.272  24.963  27.226  1.00  0.00     0.163 HD
BRANCH   4   7
ATOM      7  C   UNL A   1      31.308  23.193  25.132  1.00  0.00     0.175 C 
ATOM      8  C   UNL A   1      32.426  21.027  24.215  1.00  0.00     0.053 C 
ATOM      9  C   UNL A   1      33.747  21.796  24.037  1.00  0.00     0.015 C 
ATOM     10  C   UNL A   1      31.487  21.671  25.247  1.00  0.00     0.093 C 
ATOM     11  C   UNL A   1      33.574  23.310  23.958  1.00  0.00     0.008 C 
ATOM     12  C   UNL A   1      32.719  23.831  25.115  1.00  0.00     0.079 C 
BRANCH   8  13
ATOM     13  S   UNL A   1      32.893  19.329  24.806  1.00  0.00    -0.158 SA
BRANCH  13  14
ATOM     14  C   UNL A   1      32.665  18.300  23.320  1.00  0.00     0.070 C 
BRANCH  14  15
ATOM     15  C   UNL A   1      33.610  17.096  23.256  1.00  0.00     0.011 C 
BRANCH  15  16
ATOM     16  C   UNL A   1      34.789  17.126  24.219  1.00  0.00    -0.003 C 
ATOM     17  C   UNL A   1      34.721  16.060  25.307  1.00  0.00     0.004 C 
ENDBRANCH  15  16
ENDBRANCH  14  15
ENDBRANCH  13  14
ENDBRANCH   8  13
BRANCH   7  18
ATOM     18  N   UNL A   1      30.644  23.616  23.879  1.00  0.00    -0.345 N 
ATOM     19  H   UNL A   1      29.969  22.906  23.595  1.00  0.00     0.345 HD
ATOM     20  H   UNL A   1      31.344  23.732  23.145  1.00  0.00     0.345 HD
ATOM     21  H   UNL A   1      30.162  24.502  24.030  1.00  0.00     0.345 HD
ENDBRANCH   7  18
ENDBRANCH   4   7
ENDBRANCH   2   3
ENDBRANCH   1   2
BRANCH   1  22
ATOM     22  C   UNL A   1      31.256  28.137  24.859  1.00  0.00     0.002 C 
BRANCH  22  23
ATOM     23  C   UNL A   1      32.070  29.373  25.259  1.00  0.00     0.002 C 
BRANCH  23  24
ATOM     24  C   UNL A   1      32.303  29.633  26.751  1.00  0.00     0.021 C 
BRANCH  24  25
ATOM     25  C   UNL A   1      33.706  30.072  27.174  1.00  0.00     0.116 C 
BRANCH  25  26
ATOM     26  N   UNL A   1      33.721  31.321  27.911  1.00  0.00    -0.352 N 
ATOM     27  C   UNL A   1      34.622  31.827  28.811  1.00  0.00     0.251 C 
ATOM     28  H   UNL A   1      32.949  31.906  27.735  1.00  0.00     0.163 HD
ATOM     29  O   UNL A   1      34.339  32.870  29.410  1.00  0.00    -0.269 OA
BRANCH  27  30
ATOM     30  C   UNL A   1      35.920  31.171  29.107  1.00  0.00     0.039 A 
ATOM     31  C   UNL A   1      35.911  30.049  29.947  1.00  0.00     0.014 A 
ATOM     32  C   UNL A   1      37.147  31.696  28.686  1.00  0.00     0.014 A 
ATOM     33  C   UNL A   1      37.110  29.445  30.342  1.00  0.00     0.010 A 
ATOM     34  C   UNL A   1      38.345  31.062  29.044  1.00  0.00     0.010 A 
ATOM     35  C   UNL A   1      38.342  29.941  29.890  1.00  0.00    -0.014 A 
BRANCH  35  36
ATOM     36  C   UNL A   1      39.622  29.318  30.334  1.00  0.00     0.031 A 
ATOM     37  C   UNL A   1      40.333  29.824  31.562  1.00  0.00     0.074 A 
ATOM     38  C   UNL A   1      40.162  28.301  29.632  1.00  0.00     0.049 A 
ATOM     39  N   UNL A   1      41.468  29.427  32.086  1.00  0.00    -0.248 NA
ATOM     40  C   UNL A   1      39.693  30.930  32.290  1.00  0.00     0.031 C 
ATOM     41  C   UNL A   1      39.592  27.709  28.422  1.00  0.00     0.029 A 
ATOM     42  N   UNL A   1      41.316  27.585  29.840  1.00  0.00    -0.354 N 
ATOM     43  C   UNL A   1      41.683  30.242  33.191  1.00  0.00     0.074 A 
ATOM     44  C   UNL A   1      40.581  31.180  33.240  1.00  0.00     0.031 C 
ATOM     45  C   UNL A   1      40.387  26.709  28.006  1.00  0.00     0.029 A 
ATOM     46  C   UNL A   1      41.537  26.608  28.900  1.00  0.00     0.049 A 
ATOM     47  H   UNL A   1      41.928  27.756  30.594  1.00  0.00     0.167 HD
ATOM     48  C   UNL A   1      42.694  30.207  34.094  1.00  0.00     0.031 A 
ATOM     49  C   UNL A   1      42.550  25.729  28.767  1.00  0.00     0.031 A 
ATOM     50  C   UNL A   1      43.787  29.272  34.065  1.00  0.00     0.049 A 
ATOM     51  C   UNL A   1      43.670  25.724  29.771  1.00  0.00     0.074 A 
ATOM     52  C   UNL A   1      44.837  29.143  34.960  1.00  0.00     0.029 A 
ATOM     53  N   UNL A   1      43.970  28.302  33.094  1.00  0.00    -0.354 N 
ATOM     54  N   UNL A   1      43.834  26.476  30.831  1.00  0.00    -0.248 NA
ATOM     55  C   UNL A   1      44.738  24.733  29.565  1.00  0.00     0.031 C 
ATOM     56  C   UNL A   1      45.676  28.119  34.508  1.00  0.00     0.029 A 
ATOM     57  C   UNL A   1      45.121  27.579  33.359  1.00  0.00     0.049 A 
ATOM     58  H   UNL A   1      43.370  28.148  32.328  1.00  0.00     0.167 HD
ATOM     59  C   UNL A   1      45.003  26.030  31.434  1.00  0.00     0.074 A 
ATOM     60  C   UNL A   1      45.502  24.936  30.629  1.00  0.00     0.031 C 
ATOM     61  C   UNL A   1      45.606  26.486  32.559  1.00  0.00     0.031 A 
BRANCH  48  62
ATOM     62  C   UNL A   1      42.668  31.229  35.197  1.00  0.00    -0.014 A 
ATOM     63  C   UNL A   1      43.260  32.493  35.031  1.00  0.00     0.009 A 
ATOM     64  C   UNL A   1      42.011  30.942  36.403  1.00  0.00     0.009 A 
ATOM     65  C   UNL A   1      43.225  33.431  36.064  1.00  0.00     0.001 A 
ATOM     66  C   UNL A   1      41.955  31.892  37.425  1.00  0.00     0.001 A 
ATOM     67  C   UNL A   1      42.570  33.132  37.258  1.00  0.00     0.000 A 
ENDBRANCH  48  62
BRANCH  49  68
ATOM     68  C   UNL A   1      42.551  24.759  27.642  1.00  0.00    -0.014 A 
ATOM     69  C   UNL A   1      43.180  25.078  26.428  1.00  0.00     0.009 A 
ATOM     70  C   UNL A   1      41.907  23.518  27.768  1.00  0.00     0.009 A 
ATOM     71  C   UNL A   1      43.142  24.185  25.356  1.00  0.00     0.001 A 
ATOM     72  C   UNL A   1      41.894  22.617  26.702  1.00  0.00     0.001 A 
ATOM     73  C   UNL A   1      42.502  22.954  25.494  1.00  0.00     0.000 A 
ENDBRANCH  49  68
BRANCH  61  74
ATOM     74  C   UNL A   1      46.848  25.773  33.014  1.00  0.00    -0.014 A 
ATOM     75  C   UNL A   1      48.119  26.160  32.563  1.00  0.00     0.009 A 
ATOM     76  C   UNL A   1      46.744  24.722  33.938  1.00  0.00     0.009 A 
ATOM     77  C   UNL A   1      49.259  25.484  33.005  1.00  0.00     0.001 A 
ATOM     78  C   UNL A   1      47.886  24.065  34.397  1.00  0.00     0.001 A 
ATOM     79  C   UNL A   1      49.143  24.441  33.924  1.00  0.00     0.000 A 
ENDBRANCH  61  74
ENDBRANCH  35  36
ENDBRANCH  27  30
ENDBRANCH  25  26
ENDBRANCH  24  25
ENDBRANCH  23  24
ENDBRANCH  22  23
ENDBRANCH   1  22
TORSDOF 18
ENDMDL
