MODEL 1
REMARK VINA RESULT:     -10.8      0.000      0.000
REMARK SMILES CCc1c(C(=O)NCC(=O)NCCCCCCNC(=O)c2ccc(-c3c4nc(c(-c5ccccc5)c5ccc([nH]5)c(-c5ccccc5)c5nc(c(-c6ccccc6)c6ccc3[nH]6)C=C5)C=C4)cc2)nnn1-c1ccc(Cl)cc1
REMARK SMILES IDX 14 1 13 2 12 3 11 4 9 5 10 6 8 8 7 9 5 10 6 11 4 13 3 14
REMARK SMILES IDX 71 15 69 16 70 17 2 18 1 19 72 20 73 21 78 22 74 23 77 24
REMARK SMILES IDX 75 25 76 26 15 27 16 28 17 29 18 30 19 31 20 33 21 34 22 35
REMARK SMILES IDX 68 36 23 37 67 38 24 39 25 40 26 41 61 42 27 43 66 44 60 45
REMARK SMILES IDX 62 46 28 47 65 48 59 49 58 50 29 52 51 53 36 54 50 55 37 56
REMARK SMILES IDX 40 57 49 58 63 59 38 60 39 61 48 63 64 64 41 65 30 66 31 67
REMARK SMILES IDX 35 68 32 69 34 70 33 71 52 72 53 73 57 74 54 75 56 76 55 77
REMARK SMILES IDX 42 78 43 79 47 80 44 81 46 82 45 83
REMARK H PARENT 11 7 7 12 18 32 62 51 40 62
REMARK Flexibility Score: inf
ROOT
ATOM      1  C   UNL A   1      37.983  22.256  25.771  1.00  0.00     0.002 C 
ENDROOT
BRANCH   1   2
ATOM      2  C   UNL A   1      37.207  21.642  24.603  1.00  0.00     0.021 C 
BRANCH   2   3
ATOM      3  C   UNL A   1      36.058  20.745  25.034  1.00  0.00     0.116 C 
BRANCH   3   4
ATOM      4  N   UNL A   1      35.319  21.303  26.148  1.00  0.00    -0.355 N 
ATOM      5  C   UNL A   1      34.019  21.197  26.520  1.00  0.00     0.239 C 
ATOM      6  O   UNL A   1      33.729  21.647  27.636  1.00  0.00    -0.273 OA
ATOM      7  H   UNL A   1      35.862  21.864  26.747  1.00  0.00     0.163 HD
BRANCH   5   8
ATOM      8  C   UNL A   1      32.958  20.412  25.738  1.00  0.00     0.216 C 
BRANCH   8   9
ATOM      9  N   UNL A   1      32.507  20.814  24.429  1.00  0.00    -0.342 N 
ATOM     10  C   UNL A   1      32.147  21.980  23.812  1.00  0.00     0.274 C 
ATOM     11  O   UNL A   1      31.874  21.823  22.615  1.00  0.00    -0.267 OA
ATOM     12  H   UNL A   1      32.442  20.046  23.816  1.00  0.00     0.164 HD
BRANCH  10  13
ATOM     13  C   UNL A   1      31.958  23.303  24.433  1.00  0.00     0.174 A 
ATOM     14  C   UNL A   1      32.652  24.512  24.555  1.00  0.00     0.077 A 
ATOM     15  N   UNL A   1      31.756  25.336  25.247  1.00  0.00    -0.217 N 
ATOM     16  N   UNL A   1      30.791  23.424  25.177  1.00  0.00    -0.124 NA
ATOM     17  N   UNL A   1      30.753  24.606  25.755  1.00  0.00    -0.061 NA
BRANCH  14  18
ATOM     18  C   UNL A   1      34.026  24.998  24.228  1.00  0.00     0.055 C 
ATOM     19  C   UNL A   1      34.994  24.732  25.373  1.00  0.00     0.011 C 
ENDBRANCH  14  18
BRANCH  15  20
ATOM     20  C   UNL A   1      31.841  26.722  25.526  1.00  0.00     0.067 A 
ATOM     21  C   UNL A   1      31.452  27.644  24.548  1.00  0.00     0.030 A 
ATOM     22  C   UNL A   1      32.290  27.170  26.775  1.00  0.00     0.030 A 
ATOM     23  C   UNL A   1      31.403  29.004  24.865  1.00  0.00     0.023 A 
ATOM     24  C   UNL A   1      32.248  28.529  27.084  1.00  0.00     0.023 A 
ATOM     25  C   UNL A   1      31.783  29.438  26.136  1.00  0.00     0.041 A 
ATOM     26  Cl  UNL A   1      31.674  31.105  26.541  1.00  0.00    -0.084 Cl
ENDBRANCH  15  20
ENDBRANCH  10  13
ENDBRANCH   8   9
ENDBRANCH   5   8
ENDBRANCH   3   4
ENDBRANCH   2   3
ENDBRANCH   1   2
BRANCH   1  27
ATOM     27  C   UNL A   1      39.314  21.576  26.125  1.00  0.00     0.002 C 
BRANCH  27  28
ATOM     28  C   UNL A   1      39.555  20.175  25.544  1.00  0.00     0.021 C 
BRANCH  28  29
ATOM     29  C   UNL A   1      40.434  19.280  26.404  1.00  0.00     0.116 C 
BRANCH  29  30
ATOM     30  N   UNL A   1      41.713  18.963  25.767  1.00  0.00    -0.352 N 
ATOM     31  C   UNL A   1      42.755  19.814  25.474  1.00  0.00     0.251 C 
ATOM     32  H   UNL A   1      41.845  18.020  25.517  1.00  0.00     0.163 HD
ATOM     33  O   UNL A   1      43.591  19.518  24.619  1.00  0.00    -0.269 OA
BRANCH  31  34
ATOM     34  C   UNL A   1      42.871  21.083  26.208  1.00  0.00     0.039 A 
ATOM     35  C   UNL A   1      43.060  22.301  25.551  1.00  0.00     0.014 A 
ATOM     36  C   UNL A   1      42.772  21.033  27.596  1.00  0.00     0.014 A 
ATOM     37  C   UNL A   1      43.074  23.473  26.304  1.00  0.00     0.010 A 
ATOM     38  C   UNL A   1      42.613  22.188  28.314  1.00  0.00     0.010 A 
ATOM     39  C   UNL A   1      42.831  23.405  27.685  1.00  0.00    -0.014 A 
BRANCH  39  40
ATOM     40  C   UNL A   1      42.698  24.607  28.492  1.00  0.00     0.031 A 
ATOM     41  C   UNL A   1      41.462  25.388  28.235  1.00  0.00     0.074 A 
ATOM     42  C   UNL A   1      43.506  24.878  29.540  1.00  0.00     0.049 A 
ATOM     43  N   UNL A   1      41.385  26.551  27.685  1.00  0.00    -0.248 NA
ATOM     44  C   UNL A   1      40.156  24.760  28.490  1.00  0.00     0.031 C 
ATOM     45  C   UNL A   1      44.569  24.048  30.120  1.00  0.00     0.029 A 
ATOM     46  N   UNL A   1      43.454  25.930  30.398  1.00  0.00    -0.354 N 
ATOM     47  C   UNL A   1      40.038  26.896  27.688  1.00  0.00     0.074 A 
ATOM     48  C   UNL A   1      39.318  25.697  28.036  1.00  0.00     0.031 C 
ATOM     49  C   UNL A   1      44.876  24.507  31.355  1.00  0.00     0.029 A 
ATOM     50  C   UNL A   1      44.159  25.748  31.582  1.00  0.00     0.049 A 
ATOM     51  H   UNL A   1      42.957  26.754  30.196  1.00  0.00     0.167 HD
ATOM     52  C   UNL A   1      39.647  28.198  27.626  1.00  0.00     0.031 A 
ATOM     53  C   UNL A   1      44.121  26.551  32.676  1.00  0.00     0.031 A 
ATOM     54  C   UNL A   1      40.750  29.063  27.291  1.00  0.00     0.049 A 
ATOM     55  C   UNL A   1      43.599  27.866  32.233  1.00  0.00     0.074 A 
ATOM     56  C   UNL A   1      41.611  29.164  26.217  1.00  0.00     0.029 A 
ATOM     57  N   UNL A   1      41.364  29.718  28.335  1.00  0.00    -0.354 N 
ATOM     58  N   UNL A   1      44.262  28.667  31.450  1.00  0.00    -0.248 NA
ATOM     59  C   UNL A   1      42.159  28.078  32.268  1.00  0.00     0.031 C 
ATOM     60  C   UNL A   1      42.886  29.423  26.799  1.00  0.00     0.029 A 
ATOM     61  C   UNL A   1      42.717  29.561  28.177  1.00  0.00     0.049 A 
ATOM     62  H   UNL A   1      40.914  30.208  29.061  1.00  0.00     0.167 HD
ATOM     63  C   UNL A   1      43.313  29.146  30.558  1.00  0.00     0.074 A 
ATOM     64  C   UNL A   1      42.022  28.834  31.173  1.00  0.00     0.031 C 
ATOM     65  C   UNL A   1      43.652  29.475  29.277  1.00  0.00     0.031 A 
BRANCH  52  66
ATOM     66  C   UNL A   1      38.389  28.742  28.251  1.00  0.00    -0.014 A 
ATOM     67  C   UNL A   1      37.632  29.680  27.524  1.00  0.00     0.009 A 
ATOM     68  C   UNL A   1      38.077  28.592  29.614  1.00  0.00     0.009 A 
ATOM     69  C   UNL A   1      36.670  30.482  28.150  1.00  0.00     0.001 A 
ATOM     70  C   UNL A   1      37.088  29.362  30.232  1.00  0.00     0.001 A 
ATOM     71  C   UNL A   1      36.406  30.328  29.507  1.00  0.00     0.000 A 
ENDBRANCH  52  66
BRANCH  53  72
ATOM     72  C   UNL A   1      44.272  26.209  34.108  1.00  0.00    -0.014 A 
ATOM     73  C   UNL A   1      45.014  27.039  34.966  1.00  0.00     0.009 A 
ATOM     74  C   UNL A   1      43.455  25.228  34.696  1.00  0.00     0.009 A 
ATOM     75  C   UNL A   1      44.898  26.926  36.359  1.00  0.00     0.001 A 
ATOM     76  C   UNL A   1      43.342  25.112  36.086  1.00  0.00     0.001 A 
ATOM     77  C   UNL A   1      44.049  25.975  36.918  1.00  0.00     0.000 A 
ENDBRANCH  53  72
BRANCH  65  78
ATOM     78  C   UNL A   1      45.119  29.508  28.911  1.00  0.00    -0.014 A 
ATOM     79  C   UNL A   1      45.841  28.374  28.497  1.00  0.00     0.009 A 
ATOM     80  C   UNL A   1      45.746  30.759  28.824  1.00  0.00     0.009 A 
ATOM     81  C   UNL A   1      47.160  28.489  28.042  1.00  0.00     0.001 A 
ATOM     82  C   UNL A   1      47.053  30.878  28.347  1.00  0.00     0.001 A 
ATOM     83  C   UNL A   1      47.763  29.742  27.962  1.00  0.00     0.000 A 
ENDBRANCH  65  78
ENDBRANCH  39  40
ENDBRANCH  31  34
ENDBRANCH  29  30
ENDBRANCH  28  29
ENDBRANCH  27  28
ENDBRANCH   1  27
TORSDOF 17
ENDMDL
MODEL 2
REMARK VINA RESULT:     -10.8      4.460      9.278
REMARK SMILES CCc1c(C(=O)NCC(=O)NCCCCCCNC(=O)c2ccc(-c3c4nc(c(-c5ccccc5)c5ccc([nH]5)c(-c5ccccc5)c5nc(c(-c6ccccc6)c6ccc3[nH]6)C=C5)C=C4)cc2)nnn1-c1ccc(Cl)cc1
REMARK SMILES IDX 14 1 13 2 12 3 11 4 9 5 10 6 8 8 7 9 5 10 6 11 4 13 3 14
REMARK SMILES IDX 71 15 69 16 70 17 2 18 1 19 72 20 73 21 78 22 74 23 77 24
REMARK SMILES IDX 75 25 76 26 15 27 16 28 17 29 18 30 19 31 20 33 21 34 22 35
REMARK SMILES IDX 68 36 23 37 67 38 24 39 25 40 26 41 61 42 27 43 66 44 60 45
REMARK SMILES IDX 62 46 28 47 65 48 59 49 58 50 29 52 51 53 36 54 50 55 37 56
REMARK SMILES IDX 40 57 49 58 63 59 38 60 39 61 48 63 64 64 41 65 30 66 31 67
REMARK SMILES IDX 35 68 32 69 34 70 33 71 52 72 53 73 57 74 54 75 56 76 55 77
REMARK SMILES IDX 42 78 43 79 47 80 44 81 46 82 45 83
REMARK H PARENT 11 7 7 12 18 32 62 51 40 62
REMARK Flexibility Score: inf
ROOT
ATOM      1  C   UNL A   1      46.134  24.530  25.364  1.00  0.00     0.002 C 
ENDROOT
BRANCH   1   2
ATOM      2  C   UNL A   1      46.057  23.371  24.368  1.00  0.00     0.021 C 
BRANCH   2   3
ATOM      3  C   UNL A   1      44.644  22.866  24.123  1.00  0.00     0.116 C 
BRANCH   3   4
ATOM      4  N   UNL A   1      44.630  21.644  23.344  1.00  0.00    -0.355 N 
ATOM      5  C   UNL A   1      44.781  20.342  23.694  1.00  0.00     0.239 C 
ATOM      6  O   UNL A   1      44.531  19.506  22.816  1.00  0.00    -0.273 OA
ATOM      7  H   UNL A   1      44.482  21.785  22.381  1.00  0.00     0.163 HD
BRANCH   5   8
ATOM      8  C   UNL A   1      45.057  19.858  25.123  1.00  0.00     0.216 C 
BRANCH   8   9
ATOM      9  N   UNL A   1      44.048  19.221  25.932  1.00  0.00    -0.342 N 
ATOM     10  C   UNL A   1      42.844  19.566  26.480  1.00  0.00     0.274 C 
ATOM     11  O   UNL A   1      42.301  18.626  27.073  1.00  0.00    -0.267 OA
ATOM     12  H   UNL A   1      44.290  18.291  26.148  1.00  0.00     0.164 HD
BRANCH  10  13
ATOM     13  C   UNL A   1      42.226  20.903  26.518  1.00  0.00     0.174 A 
ATOM     14  C   UNL A   1      42.541  22.191  26.964  1.00  0.00     0.077 A 
ATOM     15  N   UNL A   1      41.440  22.957  26.561  1.00  0.00    -0.217 N 
ATOM     16  N   UNL A   1      40.925  20.945  26.033  1.00  0.00    -0.124 NA
ATOM     17  N   UNL A   1      40.433  22.157  26.184  1.00  0.00    -0.061 NA
BRANCH  14  18
ATOM     18  C   UNL A   1      43.633  22.808  27.776  1.00  0.00     0.055 C 
ATOM     19  C   UNL A   1      43.225  22.944  29.238  1.00  0.00     0.011 C 
ENDBRANCH  14  18
BRANCH  15  20
ATOM     20  C   UNL A   1      41.259  24.361  26.599  1.00  0.00     0.067 A 
ATOM     21  C   UNL A   1      42.045  25.177  25.776  1.00  0.00     0.030 A 
ATOM     22  C   UNL A   1      40.291  24.931  27.435  1.00  0.00     0.030 A 
ATOM     23  C   UNL A   1      41.777  26.546  25.708  1.00  0.00     0.023 A 
ATOM     24  C   UNL A   1      40.033  26.299  27.370  1.00  0.00     0.023 A 
ATOM     25  C   UNL A   1      40.761  27.098  26.491  1.00  0.00     0.041 A 
ATOM     26  Cl  UNL A   1      40.399  28.774  26.368  1.00  0.00    -0.084 Cl
ENDBRANCH  15  20
ENDBRANCH  10  13
ENDBRANCH   8   9
ENDBRANCH   5   8
ENDBRANCH   3   4
ENDBRANCH   2   3
ENDBRANCH   1   2
BRANCH   1  27
ATOM     27  C   UNL A   1      47.547  24.975  25.771  1.00  0.00     0.002 C 
BRANCH  27  28
ATOM     28  C   UNL A   1      47.841  25.062  27.276  1.00  0.00     0.021 C 
BRANCH  28  29
ATOM     29  C   UNL A   1      46.808  25.841  28.075  1.00  0.00     0.116 C 
BRANCH  29  30
ATOM     30  N   UNL A   1      46.281  25.082  29.210  1.00  0.00    -0.352 N 
ATOM     31  C   UNL A   1      45.467  25.524  30.229  1.00  0.00     0.251 C 
ATOM     32  H   UNL A   1      46.542  24.134  29.249  1.00  0.00     0.163 HD
ATOM     33  O   UNL A   1      45.405  24.916  31.298  1.00  0.00    -0.269 OA
BRANCH  31  34
ATOM     34  C   UNL A   1      44.652  26.730  30.021  1.00  0.00     0.039 A 
ATOM     35  C   UNL A   1      43.793  26.862  28.927  1.00  0.00     0.014 A 
ATOM     36  C   UNL A   1      44.756  27.747  30.968  1.00  0.00     0.014 A 
ATOM     37  C   UNL A   1      42.988  27.995  28.840  1.00  0.00     0.010 A 
ATOM     38  C   UNL A   1      43.849  28.771  30.976  1.00  0.00     0.010 A 
ATOM     39  C   UNL A   1      43.012  28.936  29.882  1.00  0.00    -0.014 A 
BRANCH  39  40
ATOM     40  C   UNL A   1      42.093  30.063  29.908  1.00  0.00     0.031 A 
ATOM     41  C   UNL A   1      42.723  31.377  29.625  1.00  0.00     0.074 A 
ATOM     42  C   UNL A   1      40.751  29.912  29.957  1.00  0.00     0.049 A 
ATOM     43  N   UNL A   1      42.885  32.348  30.457  1.00  0.00    -0.248 NA
ATOM     44  C   UNL A   1      43.363  31.596  28.318  1.00  0.00     0.031 C 
ATOM     45  C   UNL A   1      39.963  28.674  29.915  1.00  0.00     0.029 A 
ATOM     46  N   UNL A   1      39.791  30.872  29.933  1.00  0.00    -0.354 N 
ATOM     47  C   UNL A   1      43.482  33.380  29.740  1.00  0.00     0.074 A 
ATOM     48  C   UNL A   1      43.903  32.806  28.486  1.00  0.00     0.031 C 
ATOM     49  C   UNL A   1      38.677  28.969  29.619  1.00  0.00     0.029 A 
ATOM     50  C   UNL A   1      38.518  30.412  29.618  1.00  0.00     0.049 A 
ATOM     51  H   UNL A   1      39.982  31.818  30.123  1.00  0.00     0.167 HD
ATOM     52  C   UNL A   1      43.373  34.674  30.149  1.00  0.00     0.031 A 
ATOM     53  C   UNL A   1      37.429  31.173  29.346  1.00  0.00     0.031 A 
ATOM     54  C   UNL A   1      42.835  34.759  31.484  1.00  0.00     0.049 A 
ATOM     55  C   UNL A   1      37.691  32.524  29.897  1.00  0.00     0.074 A 
ATOM     56  C   UNL A   1      43.235  34.294  32.721  1.00  0.00     0.029 A 
ATOM     57  N   UNL A   1      41.491  35.033  31.596  1.00  0.00    -0.354 N 
ATOM     58  N   UNL A   1      37.762  32.769  31.174  1.00  0.00    -0.248 NA
ATOM     59  C   UNL A   1      38.347  33.498  29.037  1.00  0.00     0.031 C 
ATOM     60  C   UNL A   1      42.034  33.843  33.342  1.00  0.00     0.029 A 
ATOM     61  C   UNL A   1      40.965  34.144  32.497  1.00  0.00     0.049 A 
ATOM     62  H   UNL A   1      40.998  35.739  31.117  1.00  0.00     0.167 HD
ATOM     63  C   UNL A   1      38.842  33.631  31.303  1.00  0.00     0.074 A 
ATOM     64  C   UNL A   1      39.095  34.128  29.950  1.00  0.00     0.031 C 
ATOM     65  C   UNL A   1      39.615  33.631  32.429  1.00  0.00     0.031 A 
BRANCH  52  66
ATOM     66  C   UNL A   1      43.363  35.863  29.226  1.00  0.00    -0.014 A 
ATOM     67  C   UNL A   1      42.257  36.040  28.373  1.00  0.00     0.009 A 
ATOM     68  C   UNL A   1      44.503  36.643  28.959  1.00  0.00     0.009 A 
ATOM     69  C   UNL A   1      42.321  36.893  27.265  1.00  0.00     0.001 A 
ATOM     70  C   UNL A   1      44.555  37.526  27.877  1.00  0.00     0.001 A 
ATOM     71  C   UNL A   1      43.474  37.627  27.012  1.00  0.00     0.000 A 
ENDBRANCH  52  66
BRANCH  53  72
ATOM     72  C   UNL A   1      36.284  30.903  28.447  1.00  0.00    -0.014 A 
ATOM     73  C   UNL A   1      36.115  29.634  27.866  1.00  0.00     0.009 A 
ATOM     74  C   UNL A   1      35.201  31.798  28.384  1.00  0.00     0.009 A 
ATOM     75  C   UNL A   1      34.890  29.259  27.295  1.00  0.00     0.001 A 
ATOM     76  C   UNL A   1      33.980  31.425  27.811  1.00  0.00     0.001 A 
ATOM     77  C   UNL A   1      33.819  30.148  27.284  1.00  0.00     0.000 A 
ENDBRANCH  53  72
BRANCH  65  78
ATOM     78  C   UNL A   1      39.147  32.822  33.617  1.00  0.00    -0.014 A 
ATOM     79  C   UNL A   1      38.337  33.345  34.642  1.00  0.00     0.009 A 
ATOM     80  C   UNL A   1      39.398  31.442  33.613  1.00  0.00     0.009 A 
ATOM     81  C   UNL A   1      37.824  32.516  35.646  1.00  0.00     0.001 A 
ATOM     82  C   UNL A   1      38.867  30.610  34.600  1.00  0.00     0.001 A 
ATOM     83  C   UNL A   1      38.085  31.148  35.621  1.00  0.00     0.000 A 
ENDBRANCH  65  78
ENDBRANCH  39  40
ENDBRANCH  31  34
ENDBRANCH  29  30
ENDBRANCH  28  29
ENDBRANCH  27  28
ENDBRANCH   1  27
TORSDOF 17
ENDMDL
MODEL 3
REMARK VINA RESULT:     -10.7      1.755      5.310
REMARK SMILES CCc1c(C(=O)NCC(=O)NCCCCCCNC(=O)c2ccc(-c3c4nc(c(-c5ccccc5)c5ccc([nH]5)c(-c5ccccc5)c5nc(c(-c6ccccc6)c6ccc3[nH]6)C=C5)C=C4)cc2)nnn1-c1ccc(Cl)cc1
REMARK SMILES IDX 14 1 13 2 12 3 11 4 9 5 10 6 8 8 7 9 5 10 6 11 4 13 3 14
REMARK SMILES IDX 71 15 69 16 70 17 2 18 1 19 72 20 73 21 78 22 74 23 77 24
REMARK SMILES IDX 75 25 76 26 15 27 16 28 17 29 18 30 19 31 20 33 21 34 22 35
REMARK SMILES IDX 68 36 23 37 67 38 24 39 25 40 26 41 61 42 27 43 66 44 60 45
REMARK SMILES IDX 62 46 28 47 65 48 59 49 58 50 29 52 51 53 36 54 50 55 37 56
REMARK SMILES IDX 40 57 49 58 63 59 38 60 39 61 48 63 64 64 41 65 30 66 31 67
REMARK SMILES IDX 35 68 32 69 34 70 33 71 52 72 53 73 57 74 54 75 56 76 55 77
REMARK SMILES IDX 42 78 43 79 47 80 44 81 46 82 45 83
REMARK H PARENT 11 7 7 12 18 32 62 51 40 62
REMARK Flexibility Score: inf
ROOT
ATOM      1  C   UNL A   1      40.547  21.881  26.214  1.00  0.00     0.002 C 
ENDROOT
BRANCH   1   2
ATOM      2  C   UNL A   1      39.157  21.245  26.137  1.00  0.00     0.021 C 
BRANCH   2   3
ATOM      3  C   UNL A   1      38.135  22.092  25.397  1.00  0.00     0.116 C 
BRANCH   3   4
ATOM      4  N   UNL A   1      36.938  22.314  26.183  1.00  0.00    -0.355 N 
ATOM      5  C   UNL A   1      35.691  21.789  26.106  1.00  0.00     0.239 C 
ATOM      6  O   UNL A   1      34.928  22.046  27.047  1.00  0.00    -0.273 OA
ATOM      7  H   UNL A   1      37.053  22.969  26.909  1.00  0.00     0.163 HD
BRANCH   5   8
ATOM      8  C   UNL A   1      35.242  20.777  25.044  1.00  0.00     0.216 C 
BRANCH   8   9
ATOM      9  N   UNL A   1      33.922  20.199  25.036  1.00  0.00    -0.342 N 
ATOM     10  C   UNL A   1      32.634  20.653  24.959  1.00  0.00     0.274 C 
ATOM     11  O   UNL A   1      31.804  19.735  24.936  1.00  0.00    -0.267 OA
ATOM     12  H   UNL A   1      33.955  19.217  25.104  1.00  0.00     0.164 HD
BRANCH  10  13
ATOM     13  C   UNL A   1      32.171  22.051  25.010  1.00  0.00     0.174 A 
ATOM     14  C   UNL A   1      32.502  23.286  24.443  1.00  0.00     0.077 A 
ATOM     15  N   UNL A   1      31.520  24.151  24.942  1.00  0.00    -0.217 N 
ATOM     16  N   UNL A   1      31.139  22.278  25.912  1.00  0.00    -0.124 NA
ATOM     17  N   UNL A   1      30.852  23.562  25.945  1.00  0.00    -0.061 NA
BRANCH  14  18
ATOM     18  C   UNL A   1      33.617  23.816  23.602  1.00  0.00     0.055 C 
ATOM     19  C   UNL A   1      33.371  23.549  22.123  1.00  0.00     0.011 C 
ENDBRANCH  14  18
BRANCH  15  20
ATOM     20  C   UNL A   1      31.247  25.497  24.598  1.00  0.00     0.067 A 
ATOM     21  C   UNL A   1      30.519  25.773  23.435  1.00  0.00     0.030 A 
ATOM     22  C   UNL A   1      31.682  26.544  25.421  1.00  0.00     0.030 A 
ATOM     23  C   UNL A   1      30.130  27.088  23.164  1.00  0.00     0.023 A 
ATOM     24  C   UNL A   1      31.299  27.854  25.141  1.00  0.00     0.023 A 
ATOM     25  C   UNL A   1      30.505  28.118  24.027  1.00  0.00     0.041 A 
ATOM     26  Cl  UNL A   1      29.982  29.727  23.719  1.00  0.00    -0.084 Cl
ENDBRANCH  15  20
ENDBRANCH  10  13
ENDBRANCH   8   9
ENDBRANCH   5   8
ENDBRANCH   3   4
ENDBRANCH   2   3
ENDBRANCH   1   2
BRANCH   1  27
ATOM     27  C   UNL A   1      41.452  21.387  27.353  1.00  0.00     0.002 C 
BRANCH  27  28
ATOM     28  C   UNL A   1      42.340  20.169  27.056  1.00  0.00     0.021 C 
BRANCH  28  29
ATOM     29  C   UNL A   1      42.391  19.771  25.589  1.00  0.00     0.116 C 
BRANCH  29  30
ATOM     30  N   UNL A   1      43.758  19.581  25.102  1.00  0.00    -0.352 N 
ATOM     31  C   UNL A   1      44.675  20.540  24.735  1.00  0.00     0.251 C 
ATOM     32  H   UNL A   1      44.060  18.647  25.029  1.00  0.00     0.163 HD
ATOM     33  O   UNL A   1      45.624  20.260  24.002  1.00  0.00    -0.269 OA
BRANCH  31  34
ATOM     34  C   UNL A   1      44.519  21.911  25.244  1.00  0.00     0.039 A 
ATOM     35  C   UNL A   1      43.646  22.825  24.647  1.00  0.00     0.014 A 
ATOM     36  C   UNL A   1      45.268  22.271  26.361  1.00  0.00     0.014 A 
ATOM     37  C   UNL A   1      43.484  24.078  25.233  1.00  0.00     0.010 A 
ATOM     38  C   UNL A   1      44.983  23.429  27.033  1.00  0.00     0.010 A 
ATOM     39  C   UNL A   1      44.146  24.362  26.439  1.00  0.00    -0.014 A 
BRANCH  39  40
ATOM     40  C   UNL A   1      43.903  25.600  27.163  1.00  0.00     0.031 A 
ATOM     41  C   UNL A   1      44.818  26.713  26.804  1.00  0.00     0.074 A 
ATOM     42  C   UNL A   1      42.806  25.798  27.926  1.00  0.00     0.049 A 
ATOM     43  N   UNL A   1      45.729  27.233  27.552  1.00  0.00    -0.248 NA
ATOM     44  C   UNL A   1      44.819  27.218  25.422  1.00  0.00     0.031 C 
ATOM     45  C   UNL A   1      41.651  24.914  28.123  1.00  0.00     0.029 A 
ATOM     46  N   UNL A   1      42.440  26.915  28.605  1.00  0.00    -0.354 N 
ATOM     47  C   UNL A   1      46.303  28.261  26.812  1.00  0.00     0.074 A 
ATOM     48  C   UNL A   1      45.825  28.097  25.462  1.00  0.00     0.031 C 
ATOM     49  C   UNL A   1      40.627  25.622  28.651  1.00  0.00     0.029 A 
ATOM     50  C   UNL A   1      41.103  26.952  28.983  1.00  0.00     0.049 A 
ATOM     51  H   UNL A   1      43.071  27.641  28.813  1.00  0.00     0.167 HD
ATOM     52  C   UNL A   1      46.942  29.295  27.424  1.00  0.00     0.031 A 
ATOM     53  C   UNL A   1      40.438  28.017  29.498  1.00  0.00     0.031 A 
ATOM     54  C   UNL A   1      47.161  29.024  28.822  1.00  0.00     0.049 A 
ATOM     55  C   UNL A   1      41.459  28.954  30.028  1.00  0.00     0.074 A 
ATOM     56  C   UNL A   1      47.844  28.051  29.526  1.00  0.00     0.029 A 
ATOM     57  N   UNL A   1      46.268  29.580  29.710  1.00  0.00    -0.354 N 
ATOM     58  N   UNL A   1      42.197  28.687  31.066  1.00  0.00    -0.248 NA
ATOM     59  C   UNL A   1      41.989  29.967  29.128  1.00  0.00     0.031 C 
ATOM     60  C   UNL A   1      46.993  27.735  30.624  1.00  0.00     0.029 A 
ATOM     61  C   UNL A   1      45.893  28.594  30.586  1.00  0.00     0.049 A 
ATOM     62  H   UNL A   1      45.956  30.514  29.715  1.00  0.00     0.167 HD
ATOM     63  C   UNL A   1      43.465  29.128  30.714  1.00  0.00     0.074 A 
ATOM     64  C   UNL A   1      43.256  30.000  29.558  1.00  0.00     0.031 C 
ATOM     65  C   UNL A   1      44.585  28.513  31.197  1.00  0.00     0.031 A 
BRANCH  52  66
ATOM     66  C   UNL A   1      47.010  30.698  26.880  1.00  0.00    -0.014 A 
ATOM     67  C   UNL A   1      48.238  31.382  26.947  1.00  0.00     0.009 A 
ATOM     68  C   UNL A   1      45.871  31.464  26.574  1.00  0.00     0.009 A 
ATOM     69  C   UNL A   1      48.307  32.772  26.794  1.00  0.00     0.001 A 
ATOM     70  C   UNL A   1      45.943  32.846  26.381  1.00  0.00     0.001 A 
ATOM     71  C   UNL A   1      47.157  33.504  26.522  1.00  0.00     0.000 A 
ENDBRANCH  52  66
BRANCH  53  72
ATOM     72  C   UNL A   1      39.016  28.404  29.362  1.00  0.00    -0.014 A 
ATOM     73  C   UNL A   1      38.207  28.566  30.500  1.00  0.00     0.009 A 
ATOM     74  C   UNL A   1      38.525  28.894  28.139  1.00  0.00     0.009 A 
ATOM     75  C   UNL A   1      36.980  29.241  30.423  1.00  0.00     0.001 A 
ATOM     76  C   UNL A   1      37.300  29.564  28.062  1.00  0.00     0.001 A 
ATOM     77  C   UNL A   1      36.536  29.755  29.209  1.00  0.00     0.000 A 
ENDBRANCH  53  72
BRANCH  65  78
ATOM     78  C   UNL A   1      44.419  27.478  32.287  1.00  0.00    -0.014 A 
ATOM     79  C   UNL A   1      44.273  27.801  33.648  1.00  0.00     0.009 A 
ATOM     80  C   UNL A   1      44.241  26.142  31.902  1.00  0.00     0.009 A 
ATOM     81  C   UNL A   1      43.989  26.811  34.595  1.00  0.00     0.001 A 
ATOM     82  C   UNL A   1      43.933  25.156  32.843  1.00  0.00     0.001 A 
ATOM     83  C   UNL A   1      43.814  25.489  34.190  1.00  0.00     0.000 A 
ENDBRANCH  65  78
ENDBRANCH  39  40
ENDBRANCH  31  34
ENDBRANCH  29  30
ENDBRANCH  28  29
ENDBRANCH  27  28
ENDBRANCH   1  27
TORSDOF 17
ENDMDL
