MODEL 1
REMARK VINA RESULT:      -9.9      0.000      0.000
REMARK SMILES COC(=O)[C@H]1CCN(C(=O)CC(=O)NCCCCCCNC(=O)c2ccc(-c3c4nc(c(-c5ccccc5)c5ccc([nH]5)c(-c5ccccc5)c5nc(c(-c6ccccc6)c6ccc3[nH]6)C=C5)C=C4)cc2)C1
REMARK SMILES IDX 16 1 15 2 14 3 12 4 13 5 11 7 9 8 10 9 8 10 5 11 6 12 72 13
REMARK SMILES IDX 7 14 3 15 4 16 2 17 1 18 17 19 18 20 19 21 20 22 21 23 22 24
REMARK SMILES IDX 23 26 24 27 25 28 71 29 26 30 70 31 27 32 28 33 29 34 64 35
REMARK SMILES IDX 30 36 69 37 63 38 65 39 31 40 68 41 62 42 61 43 32 45 54 46
REMARK SMILES IDX 39 47 53 48 40 49 43 50 52 51 66 52 41 53 42 54 51 56 67 57
REMARK SMILES IDX 44 58 33 59 34 60 38 61 35 62 37 63 36 64 55 65 56 66 60 67
REMARK SMILES IDX 57 68 59 69 58 70 45 71 46 72 50 73 47 74 49 75 48 76
REMARK H PARENT 14 6 21 25 65 44 43 55
REMARK Flexibility Score: inf
ROOT
ATOM      1  C   UNL A   1      36.032  23.916  25.742  1.00  0.00     0.021 C 
ENDROOT
BRANCH   1   2
ATOM      2  C   UNL A   1      34.607  23.788  25.197  1.00  0.00     0.116 C 
BRANCH   2   3
ATOM      3  N   UNL A   1      33.638  23.839  26.275  1.00  0.00    -0.356 N 
ATOM      4  C   UNL A   1      32.785  22.865  26.697  1.00  0.00     0.229 C 
ATOM      5  O   UNL A   1      31.938  23.150  27.545  1.00  0.00    -0.275 OA
ATOM      6  H   UNL A   1      33.591  24.690  26.767  1.00  0.00     0.163 HD
BRANCH   4   7
ATOM      7  C   UNL A   1      32.923  21.464  26.171  1.00  0.00     0.200 C 
BRANCH   7   8
ATOM      8  C   UNL A   1      32.409  21.254  24.772  1.00  0.00     0.232 C 
ATOM      9  O   UNL A   1      31.747  22.132  24.214  1.00  0.00    -0.274 OA
BRANCH   8  10
ATOM     10  N   UNL A   1      32.725  20.085  24.124  1.00  0.00    -0.341 N 
ATOM     11  C   UNL A   1      33.475  17.851  23.855  1.00  0.00     0.120 C 
ATOM     12  C   UNL A   1      32.324  18.153  22.888  1.00  0.00     0.038 C 
ATOM     13  C   UNL A   1      33.517  19.060  24.783  1.00  0.00     0.134 C 
ATOM     14  C   UNL A   1      32.335  19.668  22.790  1.00  0.00     0.120 C 
BRANCH  11  15
ATOM     15  C   UNL A   1      33.348  16.599  24.688  1.00  0.00     0.310 C 
ATOM     16  O   UNL A   1      32.408  16.401  25.449  1.00  0.00    -0.252 OA
BRANCH  15  17
ATOM     17  O   UNL A   1      34.342  15.708  24.438  1.00  0.00    -0.469 OA
ATOM     18  C   UNL A   1      35.460  15.800  25.322  1.00  0.00     0.282 C 
ENDBRANCH  15  17
ENDBRANCH  11  15
ENDBRANCH   8  10
ENDBRANCH   7   8
ENDBRANCH   4   7
ENDBRANCH   2   3
ENDBRANCH   1   2
BRANCH   1  19
ATOM     19  C   UNL A   1      37.083  23.178  24.901  1.00  0.00     0.002 C 
BRANCH  19  20
ATOM     20  C   UNL A   1      36.597  21.879  24.249  1.00  0.00     0.002 C 
BRANCH  20  21
ATOM     21  C   UNL A   1      37.337  20.618  24.699  1.00  0.00     0.021 C 
BRANCH  21  22
ATOM     22  C   UNL A   1      38.458  20.871  25.699  1.00  0.00     0.116 C 
BRANCH  22  23
ATOM     23  N   UNL A   1      39.462  19.818  25.675  1.00  0.00    -0.352 N 
ATOM     24  C   UNL A   1      40.803  19.891  25.956  1.00  0.00     0.251 C 
ATOM     25  H   UNL A   1      39.132  18.926  25.420  1.00  0.00     0.163 HD
ATOM     26  O   UNL A   1      41.546  18.948  25.696  1.00  0.00    -0.269 OA
BRANCH  24  27
ATOM     27  C   UNL A   1      41.357  21.123  26.555  1.00  0.00     0.039 A 
ATOM     28  C   UNL A   1      41.918  22.092  25.720  1.00  0.00     0.014 A 
ATOM     29  C   UNL A   1      41.314  21.323  27.938  1.00  0.00     0.014 A 
ATOM     30  C   UNL A   1      42.375  23.292  26.266  1.00  0.00     0.010 A 
ATOM     31  C   UNL A   1      41.698  22.550  28.470  1.00  0.00     0.010 A 
ATOM     32  C   UNL A   1      42.234  23.546  27.640  1.00  0.00    -0.014 A 
BRANCH  32  33
ATOM     33  C   UNL A   1      42.635  24.848  28.231  1.00  0.00     0.031 A 
ATOM     34  C   UNL A   1      41.612  25.932  28.433  1.00  0.00     0.074 A 
ATOM     35  C   UNL A   1      43.930  25.082  28.516  1.00  0.00     0.049 A 
ATOM     36  N   UNL A   1      41.781  27.157  28.858  1.00  0.00    -0.248 NA
ATOM     37  C   UNL A   1      40.219  25.601  28.089  1.00  0.00     0.031 C 
ATOM     38  C   UNL A   1      45.026  24.128  28.331  1.00  0.00     0.029 A 
ATOM     39  N   UNL A   1      44.547  26.203  29.011  1.00  0.00    -0.354 N 
ATOM     40  C   UNL A   1      40.524  27.747  28.819  1.00  0.00     0.074 A 
ATOM     41  C   UNL A   1      39.613  26.762  28.275  1.00  0.00     0.031 C 
ATOM     42  C   UNL A   1      46.175  24.697  28.726  1.00  0.00     0.029 A 
ATOM     43  C   UNL A   1      45.908  26.069  29.147  1.00  0.00     0.049 A 
ATOM     44  H   UNL A   1      44.061  27.026  29.247  1.00  0.00     0.167 HD
ATOM     45  C   UNL A   1      40.155  28.988  29.217  1.00  0.00     0.031 A 
ATOM     46  C   UNL A   1      46.839  26.954  29.549  1.00  0.00     0.031 A 
ATOM     47  C   UNL A   1      41.062  29.967  29.753  1.00  0.00     0.049 A 
ATOM     48  C   UNL A   1      46.412  28.338  29.953  1.00  0.00     0.074 A 
ATOM     49  C   UNL A   1      40.780  31.236  30.226  1.00  0.00     0.029 A 
ATOM     50  N   UNL A   1      42.431  29.789  29.878  1.00  0.00    -0.354 N 
ATOM     51  N   UNL A   1      45.208  28.857  29.975  1.00  0.00    -0.248 NA
ATOM     52  C   UNL A   1      47.471  29.254  30.398  1.00  0.00     0.031 C 
ATOM     53  C   UNL A   1      41.985  31.848  30.581  1.00  0.00     0.029 A 
ATOM     54  C   UNL A   1      43.011  30.936  30.394  1.00  0.00     0.049 A 
ATOM     55  H   UNL A   1      42.919  28.969  29.635  1.00  0.00     0.167 HD
ATOM     56  C   UNL A   1      45.361  30.149  30.461  1.00  0.00     0.074 A 
ATOM     57  C   UNL A   1      46.771  30.328  30.739  1.00  0.00     0.031 C 
ATOM     58  C   UNL A   1      44.417  31.100  30.664  1.00  0.00     0.031 A 
BRANCH  45  59
ATOM     59  C   UNL A   1      38.703  29.355  29.073  1.00  0.00    -0.014 A 
ATOM     60  C   UNL A   1      38.184  29.809  27.849  1.00  0.00     0.009 A 
ATOM     61  C   UNL A   1      37.835  29.223  30.167  1.00  0.00     0.009 A 
ATOM     62  C   UNL A   1      36.838  30.166  27.738  1.00  0.00     0.001 A 
ATOM     63  C   UNL A   1      36.483  29.548  30.045  1.00  0.00     0.001 A 
ATOM     64  C   UNL A   1      35.989  30.032  28.835  1.00  0.00     0.000 A 
ENDBRANCH  45  59
BRANCH  46  65
ATOM     65  C   UNL A   1      48.271  26.558  29.590  1.00  0.00    -0.014 A 
ATOM     66  C   UNL A   1      48.810  25.937  30.727  1.00  0.00     0.009 A 
ATOM     67  C   UNL A   1      49.109  26.799  28.490  1.00  0.00     0.009 A 
ATOM     68  C   UNL A   1      50.164  25.592  30.772  1.00  0.00     0.001 A 
ATOM     69  C   UNL A   1      50.454  26.423  28.524  1.00  0.00     0.001 A 
ATOM     70  C   UNL A   1      50.983  25.829  29.669  1.00  0.00     0.000 A 
ENDBRANCH  46  65
BRANCH  58  71
ATOM     71  C   UNL A   1      44.870  32.410  31.248  1.00  0.00    -0.014 A 
ATOM     72  C   UNL A   1      45.241  33.488  30.430  1.00  0.00     0.009 A 
ATOM     73  C   UNL A   1      44.871  32.582  32.642  1.00  0.00     0.009 A 
ATOM     74  C   UNL A   1      45.635  34.701  30.998  1.00  0.00     0.001 A 
ATOM     75  C   UNL A   1      45.234  33.806  33.205  1.00  0.00     0.001 A 
ATOM     76  C   UNL A   1      45.624  34.861  32.384  1.00  0.00     0.000 A 
ENDBRANCH  58  71
ENDBRANCH  32  33
ENDBRANCH  24  27
ENDBRANCH  22  23
ENDBRANCH  21  22
ENDBRANCH  20  21
ENDBRANCH  19  20
ENDBRANCH   1  19
TORSDOF 17
ENDMDL
MODEL 2
REMARK VINA RESULT:      -9.8      6.243     11.068
REMARK SMILES COC(=O)[C@H]1CCN(C(=O)CC(=O)NCCCCCCNC(=O)c2ccc(-c3c4nc(c(-c5ccccc5)c5ccc([nH]5)c(-c5ccccc5)c5nc(c(-c6ccccc6)c6ccc3[nH]6)C=C5)C=C4)cc2)C1
REMARK SMILES IDX 16 1 15 2 14 3 12 4 13 5 11 7 9 8 10 9 8 10 5 11 6 12 72 13
REMARK SMILES IDX 7 14 3 15 4 16 2 17 1 18 17 19 18 20 19 21 20 22 21 23 22 24
REMARK SMILES IDX 23 26 24 27 25 28 71 29 26 30 70 31 27 32 28 33 29 34 64 35
REMARK SMILES IDX 30 36 69 37 63 38 65 39 31 40 68 41 62 42 61 43 32 45 54 46
REMARK SMILES IDX 39 47 53 48 40 49 43 50 52 51 66 52 41 53 42 54 51 56 67 57
REMARK SMILES IDX 44 58 33 59 34 60 38 61 35 62 37 63 36 64 55 65 56 66 60 67
REMARK SMILES IDX 57 68 59 69 58 70 45 71 46 72 50 73 47 74 49 75 48 76
REMARK H PARENT 14 6 21 25 65 44 43 55
REMARK Flexibility Score: inf
ROOT
ATOM      1  C   UNL A   1      34.852  31.486  28.156  1.00  0.00     0.021 C 
ENDROOT
BRANCH   1   2
ATOM      2  C   UNL A   1      33.652  30.921  27.394  1.00  0.00     0.116 C 
BRANCH   2   3
ATOM      3  N   UNL A   1      34.079  29.933  26.421  1.00  0.00    -0.356 N 
ATOM      4  C   UNL A   1      33.335  28.978  25.798  1.00  0.00     0.229 C 
ATOM      5  O   UNL A   1      33.912  28.141  25.104  1.00  0.00    -0.275 OA
ATOM      6  H   UNL A   1      35.033  29.956  26.180  1.00  0.00     0.163 HD
BRANCH   4   7
ATOM      7  C   UNL A   1      31.837  28.993  25.920  1.00  0.00     0.200 C 
BRANCH   7   8
ATOM      8  C   UNL A   1      31.116  27.997  25.052  1.00  0.00     0.232 C 
ATOM      9  O   UNL A   1      30.921  26.847  25.455  1.00  0.00    -0.274 OA
BRANCH   8  10
ATOM     10  N   UNL A   1      30.654  28.406  23.825  1.00  0.00    -0.341 N 
ATOM     11  C   UNL A   1      29.106  29.180  22.203  1.00  0.00     0.120 C 
ATOM     12  C   UNL A   1      30.494  29.782  21.954  1.00  0.00     0.038 C 
ATOM     13  C   UNL A   1      29.227  28.498  23.561  1.00  0.00     0.134 C 
ATOM     14  C   UNL A   1      31.428  28.823  22.671  1.00  0.00     0.120 C 
BRANCH  11  15
ATOM     15  C   UNL A   1      27.948  30.145  22.242  1.00  0.00     0.310 C 
ATOM     16  O   UNL A   1      27.183  30.227  23.196  1.00  0.00    -0.252 OA
BRANCH  15  17
ATOM     17  O   UNL A   1      27.905  30.946  21.145  1.00  0.00    -0.469 OA
ATOM     18  C   UNL A   1      28.016  32.343  21.423  1.00  0.00     0.282 C 
ENDBRANCH  15  17
ENDBRANCH  11  15
ENDBRANCH   8  10
ENDBRANCH   7   8
ENDBRANCH   4   7
ENDBRANCH   2   3
ENDBRANCH   1   2
BRANCH   1  19
ATOM     19  C   UNL A   1      34.466  32.420  29.312  1.00  0.00     0.002 C 
BRANCH  19  20
ATOM     20  C   UNL A   1      34.599  33.916  29.009  1.00  0.00     0.002 C 
BRANCH  20  21
ATOM     21  C   UNL A   1      33.293  34.708  29.093  1.00  0.00     0.021 C 
BRANCH  21  22
ATOM     22  C   UNL A   1      33.435  36.090  29.718  1.00  0.00     0.116 C 
BRANCH  22  23
ATOM     23  N   UNL A   1      32.506  36.291  30.819  1.00  0.00    -0.352 N 
ATOM     24  C   UNL A   1      32.538  35.768  32.087  1.00  0.00     0.251 C 
ATOM     25  H   UNL A   1      31.746  36.887  30.628  1.00  0.00     0.163 HD
ATOM     26  O   UNL A   1      31.569  35.883  32.833  1.00  0.00    -0.269 OA
BRANCH  24  27
ATOM     27  C   UNL A   1      33.740  35.042  32.547  1.00  0.00     0.039 A 
ATOM     28  C   UNL A   1      33.612  33.718  32.975  1.00  0.00     0.014 A 
ATOM     29  C   UNL A   1      34.991  35.665  32.548  1.00  0.00     0.014 A 
ATOM     30  C   UNL A   1      34.750  32.997  33.339  1.00  0.00     0.010 A 
ATOM     31  C   UNL A   1      36.132  34.923  32.836  1.00  0.00     0.010 A 
ATOM     32  C   UNL A   1      36.023  33.582  33.236  1.00  0.00    -0.014 A 
BRANCH  32  33
ATOM     33  C   UNL A   1      37.255  32.810  33.537  1.00  0.00     0.031 A 
ATOM     34  C   UNL A   1      38.025  33.078  34.801  1.00  0.00     0.074 A 
ATOM     35  C   UNL A   1      37.722  31.921  32.640  1.00  0.00     0.049 A 
ATOM     36  N   UNL A   1      39.161  32.566  35.200  1.00  0.00    -0.248 NA
ATOM     37  C   UNL A   1      37.454  34.071  35.726  1.00  0.00     0.031 C 
ATOM     38  C   UNL A   1      37.090  31.595  31.359  1.00  0.00     0.029 A 
ATOM     39  N   UNL A   1      38.847  31.135  32.663  1.00  0.00    -0.354 N 
ATOM     40  C   UNL A   1      39.447  33.183  36.411  1.00  0.00     0.074 A 
ATOM     41  C   UNL A   1      38.395  34.147  36.653  1.00  0.00     0.031 C 
ATOM     42  C   UNL A   1      37.824  30.665  30.730  1.00  0.00     0.029 A 
ATOM     43  C   UNL A   1      39.002  30.362  31.538  1.00  0.00     0.049 A 
ATOM     44  H   UNL A   1      39.482  31.126  33.415  1.00  0.00     0.167 HD
ATOM     45  C   UNL A   1      40.480  32.955  37.257  1.00  0.00     0.031 A 
ATOM     46  C   UNL A   1      39.989  29.516  31.186  1.00  0.00     0.031 A 
ATOM     47  C   UNL A   1      41.527  32.000  37.013  1.00  0.00     0.049 A 
ATOM     48  C   UNL A   1      41.145  29.305  32.124  1.00  0.00     0.074 A 
ATOM     49  C   UNL A   1      42.594  31.664  37.828  1.00  0.00     0.029 A 
ATOM     50  N   UNL A   1      41.645  31.235  35.863  1.00  0.00    -0.354 N 
ATOM     51  N   UNL A   1      41.365  29.845  33.298  1.00  0.00    -0.248 NA
ATOM     52  C   UNL A   1      42.182  28.358  31.693  1.00  0.00     0.031 C 
ATOM     53  C   UNL A   1      43.390  30.738  37.146  1.00  0.00     0.029 A 
ATOM     54  C   UNL A   1      42.783  30.447  35.935  1.00  0.00     0.049 A 
ATOM     55  H   UNL A   1      41.014  31.249  35.108  1.00  0.00     0.167 HD
ATOM     56  C   UNL A   1      42.550  29.285  33.758  1.00  0.00     0.074 A 
ATOM     57  C   UNL A   1      42.991  28.349  32.744  1.00  0.00     0.031 C 
ATOM     58  C   UNL A   1      43.210  29.521  34.917  1.00  0.00     0.031 A 
BRANCH  45  59
ATOM     59  C   UNL A   1      40.528  33.769  38.522  1.00  0.00    -0.014 A 
ATOM     60  C   UNL A   1      39.906  33.323  39.700  1.00  0.00     0.009 A 
ATOM     61  C   UNL A   1      41.225  34.986  38.544  1.00  0.00     0.009 A 
ATOM     62  C   UNL A   1      39.943  34.101  40.859  1.00  0.00     0.001 A 
ATOM     63  C   UNL A   1      41.289  35.747  39.714  1.00  0.00     0.001 A 
ATOM     64  C   UNL A   1      40.637  35.309  40.866  1.00  0.00     0.000 A 
ENDBRANCH  45  59
BRANCH  46  65
ATOM     65  C   UNL A   1      39.927  28.804  29.882  1.00  0.00    -0.014 A 
ATOM     66  C   UNL A   1      40.343  29.436  28.701  1.00  0.00     0.009 A 
ATOM     67  C   UNL A   1      39.451  27.485  29.813  1.00  0.00     0.009 A 
ATOM     68  C   UNL A   1      40.256  28.773  27.474  1.00  0.00     0.001 A 
ATOM     69  C   UNL A   1      39.395  26.813  28.590  1.00  0.00     0.001 A 
ATOM     70  C   UNL A   1      39.788  27.461  27.420  1.00  0.00     0.000 A 
ENDBRANCH  46  65
BRANCH  58  71
ATOM     71  C   UNL A   1      44.463  28.728  35.174  1.00  0.00    -0.014 A 
ATOM     72  C   UNL A   1      45.725  29.210  34.795  1.00  0.00     0.009 A 
ATOM     73  C   UNL A   1      44.379  27.503  35.854  1.00  0.00     0.009 A 
ATOM     74  C   UNL A   1      46.874  28.465  35.067  1.00  0.00     0.001 A 
ATOM     75  C   UNL A   1      45.531  26.776  36.152  1.00  0.00     0.001 A 
ATOM     76  C   UNL A   1      46.777  27.253  35.750  1.00  0.00     0.000 A 
ENDBRANCH  58  71
ENDBRANCH  32  33
ENDBRANCH  24  27
ENDBRANCH  22  23
ENDBRANCH  21  22
ENDBRANCH  20  21
ENDBRANCH  19  20
ENDBRANCH   1  19
TORSDOF 17
ENDMDL
MODEL 3
REMARK VINA RESULT:      -9.7      0.869      6.119
REMARK SMILES COC(=O)[C@H]1CCN(C(=O)CC(=O)NCCCCCCNC(=O)c2ccc(-c3c4nc(c(-c5ccccc5)c5ccc([nH]5)c(-c5ccccc5)c5nc(c(-c6ccccc6)c6ccc3[nH]6)C=C5)C=C4)cc2)C1
REMARK SMILES IDX 16 1 15 2 14 3 12 4 13 5 11 7 9 8 10 9 8 10 5 11 6 12 72 13
REMARK SMILES IDX 7 14 3 15 4 16 2 17 1 18 17 19 18 20 19 21 20 22 21 23 22 24
REMARK SMILES IDX 23 26 24 27 25 28 71 29 26 30 70 31 27 32 28 33 29 34 64 35
REMARK SMILES IDX 30 36 69 37 63 38 65 39 31 40 68 41 62 42 61 43 32 45 54 46
REMARK SMILES IDX 39 47 53 48 40 49 43 50 52 51 66 52 41 53 42 54 51 56 67 57
REMARK SMILES IDX 44 58 33 59 34 60 38 61 35 62 37 63 36 64 55 65 56 66 60 67
REMARK SMILES IDX 57 68 59 69 58 70 45 71 46 72 50 73 47 74 49 75 48 76
REMARK H PARENT 14 6 21 25 65 44 43 55
REMARK Flexibility Score: inf
ROOT
ATOM      1  C   UNL A   1      35.707  23.190  24.573  1.00  0.00     0.021 C 
ENDROOT
BRANCH   1   2
ATOM      2  C   UNL A   1      35.198  23.682  25.930  1.00  0.00     0.116 C 
BRANCH   2   3
ATOM      3  N   UNL A   1      34.243  24.761  25.760  1.00  0.00    -0.356 N 
ATOM      4  C   UNL A   1      32.918  24.779  26.074  1.00  0.00     0.229 C 
ATOM      5  O   UNL A   1      32.243  25.748  25.725  1.00  0.00    -0.275 OA
ATOM      6  H   UNL A   1      34.600  25.589  25.366  1.00  0.00     0.163 HD
BRANCH   4   7
ATOM      7  C   UNL A   1      32.320  23.660  26.879  1.00  0.00     0.200 C 
BRANCH   7   8
ATOM      8  C   UNL A   1      31.516  22.663  26.088  1.00  0.00     0.232 C 
ATOM      9  O   UNL A   1      30.286  22.648  26.174  1.00  0.00    -0.274 OA
BRANCH   8  10
ATOM     10  N   UNL A   1      32.179  21.803  25.247  1.00  0.00    -0.341 N 
ATOM     11  C   UNL A   1      33.344  19.852  24.565  1.00  0.00     0.120 C 
ATOM     12  C   UNL A   1      32.437  20.360  23.438  1.00  0.00     0.038 C 
ATOM     13  C   UNL A   1      32.945  20.687  25.777  1.00  0.00     0.134 C 
ATOM     14  C   UNL A   1      32.212  21.818  23.796  1.00  0.00     0.120 C 
BRANCH  11  15
ATOM     15  C   UNL A   1      33.228  18.390  24.918  1.00  0.00     0.310 C 
ATOM     16  O   UNL A   1      32.249  17.919  25.484  1.00  0.00    -0.252 OA
BRANCH  15  17
ATOM     17  O   UNL A   1      34.288  17.666  24.474  1.00  0.00    -0.469 OA
ATOM     18  C   UNL A   1      34.053  16.950  23.261  1.00  0.00     0.282 C 
ENDBRANCH  15  17
ENDBRANCH  11  15
ENDBRANCH   8  10
ENDBRANCH   7   8
ENDBRANCH   4   7
ENDBRANCH   2   3
ENDBRANCH   1   2
BRANCH   1  19
ATOM     19  C   UNL A   1      37.010  22.382  24.658  1.00  0.00     0.002 C 
BRANCH  19  20
ATOM     20  C   UNL A   1      36.915  20.944  24.136  1.00  0.00     0.002 C 
BRANCH  20  21
ATOM     21  C   UNL A   1      37.633  19.900  24.993  1.00  0.00     0.021 C 
BRANCH  21  22
ATOM     22  C   UNL A   1      38.850  20.430  25.740  1.00  0.00     0.116 C 
BRANCH  22  23
ATOM     23  N   UNL A   1      39.924  19.451  25.803  1.00  0.00    -0.352 N 
ATOM     24  C   UNL A   1      41.251  19.638  26.094  1.00  0.00     0.251 C 
ATOM     25  H   UNL A   1      39.661  18.522  25.610  1.00  0.00     0.163 HD
ATOM     26  O   UNL A   1      42.062  18.733  25.911  1.00  0.00    -0.269 OA
BRANCH  24  27
ATOM     27  C   UNL A   1      41.710  20.944  26.610  1.00  0.00     0.039 A 
ATOM     28  C   UNL A   1      42.211  21.891  25.713  1.00  0.00     0.014 A 
ATOM     29  C   UNL A   1      41.636  21.236  27.975  1.00  0.00     0.014 A 
ATOM     30  C   UNL A   1      42.575  23.156  26.177  1.00  0.00     0.010 A 
ATOM     31  C   UNL A   1      41.925  22.521  28.423  1.00  0.00     0.010 A 
ATOM     32  C   UNL A   1      42.399  23.493  27.530  1.00  0.00    -0.014 A 
BRANCH  32  33
ATOM     33  C   UNL A   1      42.699  24.858  28.031  1.00  0.00     0.031 A 
ATOM     34  C   UNL A   1      44.095  25.214  28.460  1.00  0.00     0.074 A 
ATOM     35  C   UNL A   1      41.703  25.753  28.169  1.00  0.00     0.049 A 
ATOM     36  N   UNL A   1      44.536  26.323  28.997  1.00  0.00    -0.248 NA
ATOM     37  C   UNL A   1      45.127  24.178  28.286  1.00  0.00     0.031 C 
ATOM     38  C   UNL A   1      40.298  25.520  27.825  1.00  0.00     0.029 A 
ATOM     39  N   UNL A   1      41.716  27.038  28.650  1.00  0.00    -0.354 N 
ATOM     40  C   UNL A   1      45.889  26.114  29.237  1.00  0.00     0.074 A 
ATOM     41  C   UNL A   1      46.182  24.753  28.840  1.00  0.00     0.031 C 
ATOM     42  C   UNL A   1      39.592  26.631  28.086  1.00  0.00     0.029 A 
ATOM     43  C   UNL A   1      40.480  27.637  28.660  1.00  0.00     0.049 A 
ATOM     44  H   UNL A   1      42.536  27.490  28.959  1.00  0.00     0.167 HD
ATOM     45  C   UNL A   1      46.809  26.980  29.725  1.00  0.00     0.031 A 
ATOM     46  C   UNL A   1      40.099  28.852  29.097  1.00  0.00     0.031 A 
ATOM     47  C   UNL A   1      46.514  28.330  30.124  1.00  0.00     0.049 A 
ATOM     48  C   UNL A   1      41.130  29.784  29.667  1.00  0.00     0.074 A 
ATOM     49  C   UNL A   1      47.384  29.300  30.588  1.00  0.00     0.029 A 
ATOM     50  N   UNL A   1      45.250  28.898  30.113  1.00  0.00    -0.354 N 
ATOM     51  N   UNL A   1      42.418  29.596  29.824  1.00  0.00    -0.248 NA
ATOM     52  C   UNL A   1      40.657  31.103  30.112  1.00  0.00     0.031 C 
ATOM     53  C   UNL A   1      46.638  30.436  30.916  1.00  0.00     0.029 A 
ATOM     54  C   UNL A   1      45.312  30.197  30.591  1.00  0.00     0.049 A 
ATOM     55  H   UNL A   1      44.429  28.445  29.812  1.00  0.00     0.167 HD
ATOM     56  C   UNL A   1      42.914  30.778  30.358  1.00  0.00     0.074 A 
ATOM     57  C   UNL A   1      41.790  31.684  30.482  1.00  0.00     0.031 C 
ATOM     58  C   UNL A   1      44.185  31.087  30.710  1.00  0.00     0.031 A 
BRANCH  45  59
ATOM     59  C   UNL A   1      48.221  26.480  29.864  1.00  0.00    -0.014 A 
ATOM     60  C   UNL A   1      49.154  26.630  28.824  1.00  0.00     0.009 A 
ATOM     61  C   UNL A   1      48.634  25.872  31.060  1.00  0.00     0.009 A 
ATOM     62  C   UNL A   1      50.454  26.141  28.962  1.00  0.00     0.001 A 
ATOM     63  C   UNL A   1      49.945  25.414  31.208  1.00  0.00     0.001 A 
ATOM     64  C   UNL A   1      50.849  25.537  30.155  1.00  0.00     0.000 A 
ENDBRANCH  45  59
BRANCH  46  65
ATOM     65  C   UNL A   1      38.671  29.258  29.010  1.00  0.00    -0.014 A 
ATOM     66  C   UNL A   1      38.158  29.826  27.835  1.00  0.00     0.009 A 
ATOM     67  C   UNL A   1      37.812  29.078  30.106  1.00  0.00     0.009 A 
ATOM     68  C   UNL A   1      36.822  30.232  27.768  1.00  0.00     0.001 A 
ATOM     69  C   UNL A   1      36.469  29.454  30.026  1.00  0.00     0.001 A 
ATOM     70  C   UNL A   1      35.978  30.040  28.860  1.00  0.00     0.000 A 
ENDBRANCH  46  65
BRANCH  58  71
ATOM     71  C   UNL A   1      44.441  32.476  31.229  1.00  0.00    -0.014 A 
ATOM     72  C   UNL A   1      44.733  33.540  30.361  1.00  0.00     0.009 A 
ATOM     73  C   UNL A   1      44.336  32.730  32.605  1.00  0.00     0.009 A 
ATOM     74  C   UNL A   1      44.944  34.824  30.867  1.00  0.00     0.001 A 
ATOM     75  C   UNL A   1      44.516  34.020  33.105  1.00  0.00     0.001 A 
ATOM     76  C   UNL A   1      44.828  35.064  32.236  1.00  0.00     0.000 A 
ENDBRANCH  58  71
ENDBRANCH  32  33
ENDBRANCH  24  27
ENDBRANCH  22  23
ENDBRANCH  21  22
ENDBRANCH  20  21
ENDBRANCH  19  20
ENDBRANCH   1  19
TORSDOF 17
ENDMDL
