MODEL 1
REMARK VINA RESULT:     -10.0      0.000      0.000
REMARK SMILES COCCCC(=O)N[C@H]1CC[C@@H](C(=O)NCCCCCCNC(=O)c2ccc(-c3c4nc(c(-c5ccccc5)c5ccc([nH]5)c(-c5ccccc5)c5nc(c(-c6ccccc6)c6ccc3[nH]6)C=C5)C=C4)cc2)CC1
REMARK SMILES IDX 17 1 16 2 15 3 13 4 14 5 12 7 9 8 10 9 74 10 11 11 73 12
REMARK SMILES IDX 8 13 6 14 7 15 5 17 4 18 3 19 2 20 1 21 18 22 19 23 20 24
REMARK SMILES IDX 21 25 22 26 23 27 24 29 25 30 26 31 72 32 27 33 71 34 28 35
REMARK SMILES IDX 29 36 30 37 65 38 31 39 70 40 64 41 66 42 32 43 69 44 63 45
REMARK SMILES IDX 62 46 33 48 55 49 40 50 54 51 41 52 44 53 53 54 67 55 42 56
REMARK SMILES IDX 43 57 52 59 68 60 45 61 34 62 35 63 39 64 36 65 38 66 37 67
REMARK SMILES IDX 56 68 57 69 61 70 58 71 60 72 59 73 46 74 47 75 51 76 48 77
REMARK SMILES IDX 50 78 49 79
REMARK H PARENT 15 6 8 16 22 28 66 47 44 58
REMARK Flexibility Score: inf
ROOT
ATOM      1  C   UNL A   1      32.929  22.684  27.403  1.00  0.00     0.021 C 
ENDROOT
BRANCH   1   2
ATOM      2  C   UNL A   1      31.890  23.207  26.413  1.00  0.00     0.116 C 
BRANCH   2   3
ATOM      3  N   UNL A   1      31.435  24.541  26.741  1.00  0.00    -0.356 N 
ATOM      4  C   UNL A   1      31.869  25.777  26.397  1.00  0.00     0.223 C 
ATOM      5  O   UNL A   1      31.254  26.718  26.917  1.00  0.00    -0.275 OA
ATOM      6  H   UNL A   1      30.651  24.551  27.336  1.00  0.00     0.163 HD
BRANCH   4   7
ATOM      7  C   UNL A   1      33.078  26.095  25.496  1.00  0.00     0.078 C 
ATOM      8  C   UNL A   1      32.682  27.712  22.975  1.00  0.00     0.082 C 
ATOM      9  C   UNL A   1      33.193  28.409  24.253  1.00  0.00     0.026 C 
ATOM     10  C   UNL A   1      32.171  26.296  23.164  1.00  0.00     0.026 C 
ATOM     11  C   UNL A   1      33.629  27.519  25.428  1.00  0.00     0.015 C 
ATOM     12  C   UNL A   1      32.985  25.452  24.118  1.00  0.00     0.015 C 
BRANCH   8  13
ATOM     13  N   UNL A   1      31.792  28.616  22.214  1.00  0.00    -0.353 N 
ATOM     14  C   UNL A   1      30.522  29.093  22.280  1.00  0.00     0.220 C 
ATOM     15  O   UNL A   1      30.163  29.815  21.341  1.00  0.00    -0.275 OA
ATOM     16  H   UNL A   1      32.258  28.979  21.428  1.00  0.00     0.163 HD
BRANCH  14  17
ATOM     17  C   UNL A   1      29.549  28.839  23.413  1.00  0.00     0.102 C 
BRANCH  17  18
ATOM     18  C   UNL A   1      28.076  28.975  23.023  1.00  0.00     0.038 C 
BRANCH  18  19
ATOM     19  C   UNL A   1      27.582  30.421  22.927  1.00  0.00     0.160 C 
BRANCH  19  20
ATOM     20  O   UNL A   1      28.334  31.267  23.795  1.00  0.00    -0.385 OA
ATOM     21  C   UNL A   1      28.694  32.510  23.205  1.00  0.00     0.194 C 
ENDBRANCH  19  20
ENDBRANCH  18  19
ENDBRANCH  17  18
ENDBRANCH  14  17
ENDBRANCH   8  13
ENDBRANCH   4   7
ENDBRANCH   2   3
ENDBRANCH   1   2
BRANCH   1  22
ATOM     22  C   UNL A   1      34.386  23.019  27.090  1.00  0.00     0.002 C 
BRANCH  22  23
ATOM     23  C   UNL A   1      35.022  22.237  25.934  1.00  0.00     0.002 C 
BRANCH  23  24
ATOM     24  C   UNL A   1      35.700  23.054  24.826  1.00  0.00     0.021 C 
BRANCH  24  25
ATOM     25  C   UNL A   1      37.023  23.727  25.189  1.00  0.00     0.116 C 
BRANCH  25  26
ATOM     26  N   UNL A   1      38.070  22.771  25.503  1.00  0.00    -0.352 N 
ATOM     27  C   UNL A   1      39.276  22.942  26.134  1.00  0.00     0.251 C 
ATOM     28  H   UNL A   1      37.884  21.848  25.215  1.00  0.00     0.163 HD
ATOM     29  O   UNL A   1      40.088  22.022  26.148  1.00  0.00    -0.269 OA
BRANCH  27  30
ATOM     30  C   UNL A   1      39.624  24.225  26.787  1.00  0.00     0.039 A 
ATOM     31  C   UNL A   1      39.192  24.442  28.100  1.00  0.00     0.014 A 
ATOM     32  C   UNL A   1      40.301  25.238  26.103  1.00  0.00     0.014 A 
ATOM     33  C   UNL A   1      39.480  25.650  28.743  1.00  0.00     0.010 A 
ATOM     34  C   UNL A   1      40.635  26.423  26.762  1.00  0.00     0.010 A 
ATOM     35  C   UNL A   1      40.221  26.642  28.085  1.00  0.00    -0.014 A 
BRANCH  35  36
ATOM     36  C   UNL A   1      40.561  27.923  28.759  1.00  0.00     0.031 A 
ATOM     37  C   UNL A   1      41.904  28.102  29.412  1.00  0.00     0.074 A 
ATOM     38  C   UNL A   1      39.643  28.905  28.834  1.00  0.00     0.049 A 
ATOM     39  N   UNL A   1      42.351  29.111  30.117  1.00  0.00    -0.248 NA
ATOM     40  C   UNL A   1      42.862  26.996  29.268  1.00  0.00     0.031 C 
ATOM     41  C   UNL A   1      38.298  28.855  28.259  1.00  0.00     0.029 A 
ATOM     42  N   UNL A   1      39.700  30.136  29.440  1.00  0.00    -0.354 N 
ATOM     43  C   UNL A   1      43.632  28.753  30.517  1.00  0.00     0.074 A 
ATOM     44  C   UNL A   1      43.878  27.422  30.004  1.00  0.00     0.031 C 
ATOM     45  C   UNL A   1      37.662  30.006  28.531  1.00  0.00     0.029 A 
ATOM     46  C   UNL A   1      38.537  30.858  29.331  1.00  0.00     0.049 A 
ATOM     47  H   UNL A   1      40.500  30.469  29.908  1.00  0.00     0.167 HD
ATOM     48  C   UNL A   1      44.528  29.469  31.239  1.00  0.00     0.031 A 
ATOM     49  C   UNL A   1      38.205  32.064  29.831  1.00  0.00     0.031 A 
ATOM     50  C   UNL A   1      44.292  30.795  31.745  1.00  0.00     0.049 A 
ATOM     51  C   UNL A   1      39.209  32.831  30.645  1.00  0.00     0.074 A 
ATOM     52  C   UNL A   1      45.157  31.616  32.448  1.00  0.00     0.029 A 
ATOM     53  N   UNL A   1      43.104  31.493  31.601  1.00  0.00    -0.354 N 
ATOM     54  N   UNL A   1      40.433  32.497  30.974  1.00  0.00    -0.248 NA
ATOM     55  C   UNL A   1      38.787  34.145  31.150  1.00  0.00     0.031 C 
ATOM     56  C   UNL A   1      44.477  32.797  32.765  1.00  0.00     0.029 A 
ATOM     57  C   UNL A   1      43.206  32.729  32.218  1.00  0.00     0.049 A 
ATOM     58  H   UNL A   1      42.305  31.160  31.132  1.00  0.00     0.167 HD
ATOM     59  C   UNL A   1      40.937  33.571  31.696  1.00  0.00     0.074 A 
ATOM     60  C   UNL A   1      39.890  34.570  31.751  1.00  0.00     0.031 C 
ATOM     61  C   UNL A   1      42.161  33.717  32.258  1.00  0.00     0.031 A 
BRANCH  48  62
ATOM     62  C   UNL A   1      45.849  28.819  31.540  1.00  0.00    -0.014 A 
ATOM     63  C   UNL A   1      46.946  28.973  30.677  1.00  0.00     0.009 A 
ATOM     64  C   UNL A   1      46.010  28.077  32.720  1.00  0.00     0.009 A 
ATOM     65  C   UNL A   1      48.168  28.364  30.972  1.00  0.00     0.001 A 
ATOM     66  C   UNL A   1      47.240  27.492  33.025  1.00  0.00     0.001 A 
ATOM     67  C   UNL A   1      48.315  27.628  32.148  1.00  0.00     0.000 A 
ENDBRANCH  48  62
BRANCH  49  68
ATOM     68  C   UNL A   1      36.858  32.630  29.568  1.00  0.00    -0.014 A 
ATOM     69  C   UNL A   1      35.811  32.425  30.479  1.00  0.00     0.009 A 
ATOM     70  C   UNL A   1      36.610  33.373  28.404  1.00  0.00     0.009 A 
ATOM     71  C   UNL A   1      34.537  32.933  30.219  1.00  0.00     0.001 A 
ATOM     72  C   UNL A   1      35.341  33.901  28.158  1.00  0.00     0.001 A 
ATOM     73  C   UNL A   1      34.304  33.674  29.061  1.00  0.00     0.000 A 
ENDBRANCH  49  68
BRANCH  61  74
ATOM     74  C   UNL A   1      42.455  35.021  32.942  1.00  0.00    -0.014 A 
ATOM     75  C   UNL A   1      42.010  35.277  34.247  1.00  0.00     0.009 A 
ATOM     76  C   UNL A   1      43.233  35.987  32.285  1.00  0.00     0.009 A 
ATOM     77  C   UNL A   1      42.319  36.487  34.873  1.00  0.00     0.001 A 
ATOM     78  C   UNL A   1      43.561  37.185  32.921  1.00  0.00     0.001 A 
ATOM     79  C   UNL A   1      43.097  37.436  34.212  1.00  0.00     0.000 A 
ENDBRANCH  61  74
ENDBRANCH  35  36
ENDBRANCH  27  30
ENDBRANCH  25  26
ENDBRANCH  24  25
ENDBRANCH  23  24
ENDBRANCH  22  23
ENDBRANCH   1  22
TORSDOF 18
ENDMDL
MODEL 2
REMARK VINA RESULT:      -9.9      2.862      7.156
REMARK SMILES COCCCC(=O)N[C@H]1CC[C@@H](C(=O)NCCCCCCNC(=O)c2ccc(-c3c4nc(c(-c5ccccc5)c5ccc([nH]5)c(-c5ccccc5)c5nc(c(-c6ccccc6)c6ccc3[nH]6)C=C5)C=C4)cc2)CC1
REMARK SMILES IDX 17 1 16 2 15 3 13 4 14 5 12 7 9 8 10 9 74 10 11 11 73 12
REMARK SMILES IDX 8 13 6 14 7 15 5 17 4 18 3 19 2 20 1 21 18 22 19 23 20 24
REMARK SMILES IDX 21 25 22 26 23 27 24 29 25 30 26 31 72 32 27 33 71 34 28 35
REMARK SMILES IDX 29 36 30 37 65 38 31 39 70 40 64 41 66 42 32 43 69 44 63 45
REMARK SMILES IDX 62 46 33 48 55 49 40 50 54 51 41 52 44 53 53 54 67 55 42 56
REMARK SMILES IDX 43 57 52 59 68 60 45 61 34 62 35 63 39 64 36 65 38 66 37 67
REMARK SMILES IDX 56 68 57 69 61 70 58 71 60 72 59 73 46 74 47 75 51 76 48 77
REMARK SMILES IDX 50 78 49 79
REMARK H PARENT 15 6 8 16 22 28 66 47 44 58
REMARK Flexibility Score: inf
ROOT
ATOM      1  C   UNL A   1      35.780  22.994  24.676  1.00  0.00     0.021 C 
ENDROOT
BRANCH   1   2
ATOM      2  C   UNL A   1      34.629  23.879  25.155  1.00  0.00     0.116 C 
BRANCH   2   3
ATOM      3  N   UNL A   1      34.118  23.470  26.446  1.00  0.00    -0.356 N 
ATOM      4  C   UNL A   1      33.020  22.775  26.828  1.00  0.00     0.223 C 
ATOM      5  O   UNL A   1      32.870  22.652  28.051  1.00  0.00    -0.275 OA
ATOM      6  H   UNL A   1      34.682  23.757  27.199  1.00  0.00     0.163 HD
BRANCH   4   7
ATOM      7  C   UNL A   1      31.936  22.205  25.892  1.00  0.00     0.078 C 
ATOM      8  C   UNL A   1      31.630  23.320  23.101  1.00  0.00     0.082 C 
ATOM      9  C   UNL A   1      32.420  22.012  23.315  1.00  0.00     0.026 C 
ATOM     10  C   UNL A   1      31.281  24.085  24.363  1.00  0.00     0.026 C 
ATOM     11  C   UNL A   1      32.333  21.342  24.696  1.00  0.00     0.015 C 
ATOM     12  C   UNL A   1      30.861  23.223  25.531  1.00  0.00     0.015 C 
BRANCH   8  13
ATOM     13  N   UNL A   1      32.240  24.120  22.016  1.00  0.00    -0.353 N 
ATOM     14  C   UNL A   1      32.921  25.285  21.866  1.00  0.00     0.220 C 
ATOM     15  O   UNL A   1      33.193  25.610  20.703  1.00  0.00    -0.275 OA
ATOM     16  H   UNL A   1      32.116  23.676  21.147  1.00  0.00     0.163 HD
BRANCH  14  17
ATOM     17  C   UNL A   1      33.389  26.179  22.996  1.00  0.00     0.102 C 
BRANCH  17  18
ATOM     18  C   UNL A   1      33.134  27.669  22.770  1.00  0.00     0.038 C 
BRANCH  18  19
ATOM     19  C   UNL A   1      33.905  28.591  23.720  1.00  0.00     0.160 C 
BRANCH  19  20
ATOM     20  O   UNL A   1      33.015  29.485  24.384  1.00  0.00    -0.385 OA
ATOM     21  C   UNL A   1      33.205  29.534  25.793  1.00  0.00     0.194 C 
ENDBRANCH  19  20
ENDBRANCH  18  19
ENDBRANCH  17  18
ENDBRANCH  14  17
ENDBRANCH   8  13
ENDBRANCH   4   7
ENDBRANCH   2   3
ENDBRANCH   1   2
BRANCH   1  22
ATOM     22  C   UNL A   1      36.181  21.850  25.604  1.00  0.00     0.002 C 
BRANCH  22  23
ATOM     23  C   UNL A   1      36.081  20.438  25.013  1.00  0.00     0.002 C 
BRANCH  23  24
ATOM     24  C   UNL A   1      37.369  19.604  24.975  1.00  0.00     0.021 C 
BRANCH  24  25
ATOM     25  C   UNL A   1      38.649  20.306  25.427  1.00  0.00     0.116 C 
BRANCH  25  26
ATOM     26  N   UNL A   1      39.756  19.385  25.614  1.00  0.00    -0.352 N 
ATOM     27  C   UNL A   1      41.043  19.609  26.035  1.00  0.00     0.251 C 
ATOM     28  H   UNL A   1      39.551  18.445  25.403  1.00  0.00     0.163 HD
ATOM     29  O   UNL A   1      41.869  18.705  25.962  1.00  0.00    -0.269 OA
BRANCH  27  30
ATOM     30  C   UNL A   1      41.458  20.929  26.561  1.00  0.00     0.039 A 
ATOM     31  C   UNL A   1      41.344  21.163  27.937  1.00  0.00     0.014 A 
ATOM     32  C   UNL A   1      41.883  21.958  25.716  1.00  0.00     0.014 A 
ATOM     33  C   UNL A   1      41.704  22.404  28.470  1.00  0.00     0.010 A 
ATOM     34  C   UNL A   1      42.292  23.179  26.254  1.00  0.00     0.010 A 
ATOM     35  C   UNL A   1      42.199  23.416  27.635  1.00  0.00    -0.014 A 
BRANCH  35  36
ATOM     36  C   UNL A   1      42.611  24.734  28.184  1.00  0.00     0.031 A 
ATOM     37  C   UNL A   1      41.593  25.822  28.387  1.00  0.00     0.074 A 
ATOM     38  C   UNL A   1      43.910  24.975  28.447  1.00  0.00     0.049 A 
ATOM     39  N   UNL A   1      41.772  27.060  28.775  1.00  0.00    -0.248 NA
ATOM     40  C   UNL A   1      40.191  25.477  28.101  1.00  0.00     0.031 C 
ATOM     41  C   UNL A   1      45.002  24.016  28.279  1.00  0.00     0.029 A 
ATOM     42  N   UNL A   1      44.533  26.112  28.900  1.00  0.00    -0.354 N 
ATOM     43  C   UNL A   1      40.513  27.646  28.758  1.00  0.00     0.074 A 
ATOM     44  C   UNL A   1      39.583  26.639  28.292  1.00  0.00     0.031 C 
ATOM     45  C   UNL A   1      46.158  24.600  28.633  1.00  0.00     0.029 A 
ATOM     46  C   UNL A   1      45.895  25.985  29.015  1.00  0.00     0.049 A 
ATOM     47  H   UNL A   1      44.048  26.940  29.121  1.00  0.00     0.167 HD
ATOM     48  C   UNL A   1      40.158  28.907  29.107  1.00  0.00     0.031 A 
ATOM     49  C   UNL A   1      46.831  26.884  29.374  1.00  0.00     0.031 A 
ATOM     50  C   UNL A   1      41.076  29.909  29.578  1.00  0.00     0.049 A 
ATOM     51  C   UNL A   1      46.415  28.282  29.738  1.00  0.00     0.074 A 
ATOM     52  C   UNL A   1      40.801  31.200  29.998  1.00  0.00     0.029 A 
ATOM     53  N   UNL A   1      42.446  29.733  29.691  1.00  0.00    -0.354 N 
ATOM     54  N   UNL A   1      45.215  28.805  29.763  1.00  0.00    -0.248 NA
ATOM     55  C   UNL A   1      47.486  29.209  30.132  1.00  0.00     0.031 C 
ATOM     56  C   UNL A   1      42.012  31.819  30.327  1.00  0.00     0.029 A 
ATOM     57  C   UNL A   1      43.033  30.898  30.158  1.00  0.00     0.049 A 
ATOM     58  H   UNL A   1      42.930  28.905  29.471  1.00  0.00     0.167 HD
ATOM     59  C   UNL A   1      45.381  30.111  30.204  1.00  0.00     0.074 A 
ATOM     60  C   UNL A   1      46.797  30.299  30.442  1.00  0.00     0.031 C 
ATOM     61  C   UNL A   1      44.441  31.068  30.400  1.00  0.00     0.031 A 
BRANCH  48  62
ATOM     62  C   UNL A   1      38.708  29.277  28.976  1.00  0.00    -0.014 A 
ATOM     63  C   UNL A   1      38.186  29.751  27.762  1.00  0.00     0.009 A 
ATOM     64  C   UNL A   1      37.844  29.115  30.071  1.00  0.00     0.009 A 
ATOM     65  C   UNL A   1      36.835  30.089  27.657  1.00  0.00     0.001 A 
ATOM     66  C   UNL A   1      36.489  29.429  29.955  1.00  0.00     0.001 A 
ATOM     67  C   UNL A   1      35.987  29.924  28.753  1.00  0.00     0.000 A 
ENDBRANCH  48  62
BRANCH  49  68
ATOM     68  C   UNL A   1      48.262  26.488  29.415  1.00  0.00    -0.014 A 
ATOM     69  C   UNL A   1      48.812  25.932  30.580  1.00  0.00     0.009 A 
ATOM     70  C   UNL A   1      49.085  26.666  28.293  1.00  0.00     0.009 A 
ATOM     71  C   UNL A   1      50.163  25.585  30.629  1.00  0.00     0.001 A 
ATOM     72  C   UNL A   1      50.430  26.295  28.336  1.00  0.00     0.001 A 
ATOM     73  C   UNL A   1      50.970  25.762  29.506  1.00  0.00     0.000 A 
ENDBRANCH  49  68
BRANCH  61  74
ATOM     74  C   UNL A   1      44.905  32.390  30.939  1.00  0.00    -0.014 A 
ATOM     75  C   UNL A   1      45.005  32.621  32.320  1.00  0.00     0.009 A 
ATOM     76  C   UNL A   1      45.296  33.402  30.049  1.00  0.00     0.009 A 
ATOM     77  C   UNL A   1      45.465  33.850  32.798  1.00  0.00     0.001 A 
ATOM     78  C   UNL A   1      45.778  34.621  30.529  1.00  0.00     0.001 A 
ATOM     79  C   UNL A   1      45.855  34.845  31.903  1.00  0.00     0.000 A 
ENDBRANCH  61  74
ENDBRANCH  35  36
ENDBRANCH  27  30
ENDBRANCH  25  26
ENDBRANCH  24  25
ENDBRANCH  23  24
ENDBRANCH  22  23
ENDBRANCH   1  22
TORSDOF 18
ENDMDL
MODEL 3
REMARK VINA RESULT:      -9.8      4.571     11.177
REMARK SMILES COCCCC(=O)N[C@H]1CC[C@@H](C(=O)NCCCCCCNC(=O)c2ccc(-c3c4nc(c(-c5ccccc5)c5ccc([nH]5)c(-c5ccccc5)c5nc(c(-c6ccccc6)c6ccc3[nH]6)C=C5)C=C4)cc2)CC1
REMARK SMILES IDX 17 1 16 2 15 3 13 4 14 5 12 7 9 8 10 9 74 10 11 11 73 12
REMARK SMILES IDX 8 13 6 14 7 15 5 17 4 18 3 19 2 20 1 21 18 22 19 23 20 24
REMARK SMILES IDX 21 25 22 26 23 27 24 29 25 30 26 31 72 32 27 33 71 34 28 35
REMARK SMILES IDX 29 36 30 37 65 38 31 39 70 40 64 41 66 42 32 43 69 44 63 45
REMARK SMILES IDX 62 46 33 48 55 49 40 50 54 51 41 52 44 53 53 54 67 55 42 56
REMARK SMILES IDX 43 57 52 59 68 60 45 61 34 62 35 63 39 64 36 65 38 66 37 67
REMARK SMILES IDX 56 68 57 69 61 70 58 71 60 72 59 73 46 74 47 75 51 76 48 77
REMARK SMILES IDX 50 78 49 79
REMARK H PARENT 15 6 8 16 22 28 66 47 44 58
REMARK Flexibility Score: inf
ROOT
ATOM      1  C   UNL A   1      36.309  33.628  34.243  1.00  0.00     0.021 C 
ENDROOT
BRANCH   1   2
ATOM      2  C   UNL A   1      37.060  32.341  33.903  1.00  0.00     0.116 C 
BRANCH   2   3
ATOM      3  N   UNL A   1      37.428  31.587  35.082  1.00  0.00    -0.356 N 
ATOM      4  C   UNL A   1      38.548  30.912  35.436  1.00  0.00     0.223 C 
ATOM      5  O   UNL A   1      38.491  30.328  36.527  1.00  0.00    -0.275 OA
ATOM      6  H   UNL A   1      36.720  31.558  35.765  1.00  0.00     0.163 HD
BRANCH   4   7
ATOM      7  C   UNL A   1      39.821  30.756  34.583  1.00  0.00     0.078 C 
ATOM      8  C   UNL A   1      41.337  28.143  34.617  1.00  0.00     0.082 C 
ATOM      9  C   UNL A   1      40.356  28.438  33.464  1.00  0.00     0.026 C 
ATOM     10  C   UNL A   1      41.269  29.100  35.793  1.00  0.00     0.026 C 
ATOM     11  C   UNL A   1      39.807  29.869  33.340  1.00  0.00     0.015 C 
ATOM     12  C   UNL A   1      41.080  30.552  35.417  1.00  0.00     0.015 C 
BRANCH   8  13
ATOM     13  N   UNL A   1      41.312  26.705  34.962  1.00  0.00    -0.353 N 
ATOM     14  C   UNL A   1      42.183  25.672  35.099  1.00  0.00     0.220 C 
ATOM     15  O   UNL A   1      41.683  24.568  35.350  1.00  0.00    -0.275 OA
ATOM     16  H   UNL A   1      40.392  26.409  35.145  1.00  0.00     0.163 HD
BRANCH  14  17
ATOM     17  C   UNL A   1      43.691  25.779  35.002  1.00  0.00     0.102 C 
BRANCH  17  18
ATOM     18  C   UNL A   1      44.370  26.295  36.272  1.00  0.00     0.038 C 
BRANCH  18  19
ATOM     19  C   UNL A   1      43.745  25.783  37.572  1.00  0.00     0.160 C 
BRANCH  19  20
ATOM     20  O   UNL A   1      44.750  25.276  38.447  1.00  0.00    -0.385 OA
ATOM     21  C   UNL A   1      45.634  24.353  37.824  1.00  0.00     0.194 C 
ENDBRANCH  19  20
ENDBRANCH  18  19
ENDBRANCH  17  18
ENDBRANCH  14  17
ENDBRANCH   8  13
ENDBRANCH   4   7
ENDBRANCH   2   3
ENDBRANCH   1   2
BRANCH   1  22
ATOM     22  C   UNL A   1      34.899  33.755  33.671  1.00  0.00     0.002 C 
BRANCH  22  23
ATOM     23  C   UNL A   1      34.567  35.091  32.993  1.00  0.00     0.002 C 
BRANCH  23  24
ATOM     24  C   UNL A   1      33.233  35.180  32.241  1.00  0.00     0.021 C 
BRANCH  24  25
ATOM     25  C   UNL A   1      33.227  36.014  30.961  1.00  0.00     0.116 C 
BRANCH  25  26
ATOM     26  N   UNL A   1      32.705  35.284  29.819  1.00  0.00    -0.352 N 
ATOM     27  C   UNL A   1      33.296  34.342  29.015  1.00  0.00     0.251 C 
ATOM     28  H   UNL A   1      31.774  35.500  29.582  1.00  0.00     0.163 HD
ATOM     29  O   UNL A   1      32.722  33.971  27.995  1.00  0.00    -0.269 OA
BRANCH  27  30
ATOM     30  C   UNL A   1      34.623  33.776  29.346  1.00  0.00     0.039 A 
ATOM     31  C   UNL A   1      35.757  34.347  28.755  1.00  0.00     0.014 A 
ATOM     32  C   UNL A   1      34.760  32.652  30.165  1.00  0.00     0.014 A 
ATOM     33  C   UNL A   1      37.026  33.826  29.025  1.00  0.00     0.010 A 
ATOM     34  C   UNL A   1      36.031  32.165  30.476  1.00  0.00     0.010 A 
ATOM     35  C   UNL A   1      37.175  32.743  29.903  1.00  0.00    -0.014 A 
BRANCH  35  36
ATOM     36  C   UNL A   1      38.516  32.190  30.223  1.00  0.00     0.031 A 
ATOM     37  C   UNL A   1      38.945  30.866  29.653  1.00  0.00     0.074 A 
ATOM     38  C   UNL A   1      39.329  32.848  31.071  1.00  0.00     0.049 A 
ATOM     39  N   UNL A   1      40.039  30.183  29.882  1.00  0.00    -0.248 NA
ATOM     40  C   UNL A   1      38.015  30.217  28.716  1.00  0.00     0.031 C 
ATOM     41  C   UNL A   1      39.030  34.132  31.707  1.00  0.00     0.029 A 
ATOM     42  N   UNL A   1      40.571  32.518  31.555  1.00  0.00    -0.354 N 
ATOM     43  C   UNL A   1      39.919  29.017  29.137  1.00  0.00     0.074 A 
ATOM     44  C   UNL A   1      38.634  29.070  28.473  1.00  0.00     0.031 C 
ATOM     45  C   UNL A   1      40.063  34.485  32.489  1.00  0.00     0.029 A 
ATOM     46  C   UNL A   1      41.079  33.437  32.441  1.00  0.00     0.049 A 
ATOM     47  H   UNL A   1      41.052  31.701  31.292  1.00  0.00     0.167 HD
ATOM     48  C   UNL A   1      40.802  27.997  29.008  1.00  0.00     0.031 A 
ATOM     49  C   UNL A   1      42.226  33.431  33.146  1.00  0.00     0.031 A 
ATOM     50  C   UNL A   1      42.083  27.942  29.658  1.00  0.00     0.049 A 
ATOM     51  C   UNL A   1      43.180  32.280  33.000  1.00  0.00     0.074 A 
ATOM     52  C   UNL A   1      43.064  26.970  29.551  1.00  0.00     0.029 A 
ATOM     53  N   UNL A   1      42.563  28.900  30.537  1.00  0.00    -0.354 N 
ATOM     54  N   UNL A   1      43.073  31.208  32.254  1.00  0.00    -0.248 NA
ATOM     55  C   UNL A   1      44.419  32.342  33.790  1.00  0.00     0.031 C 
ATOM     56  C   UNL A   1      44.121  27.321  30.398  1.00  0.00     0.029 A 
ATOM     57  C   UNL A   1      43.818  28.534  30.994  1.00  0.00     0.049 A 
ATOM     58  H   UNL A   1      42.082  29.719  30.799  1.00  0.00     0.167 HD
ATOM     59  C   UNL A   1      44.240  30.486  32.459  1.00  0.00     0.074 A 
ATOM     60  C   UNL A   1      45.046  31.243  33.394  1.00  0.00     0.031 C 
ATOM     61  C   UNL A   1      44.613  29.301  31.916  1.00  0.00     0.031 A 
BRANCH  48  62
ATOM     62  C   UNL A   1      40.399  26.842  28.135  1.00  0.00    -0.014 A 
ATOM     63  C   UNL A   1      40.804  26.771  26.792  1.00  0.00     0.009 A 
ATOM     64  C   UNL A   1      39.637  25.793  28.672  1.00  0.00     0.009 A 
ATOM     65  C   UNL A   1      40.423  25.689  25.995  1.00  0.00     0.001 A 
ATOM     66  C   UNL A   1      39.280  24.700  27.880  1.00  0.00     0.001 A 
ATOM     67  C   UNL A   1      39.664  24.653  26.541  1.00  0.00     0.000 A 
ENDBRANCH  48  62
BRANCH  49  68
ATOM     68  C   UNL A   1      42.543  34.564  34.054  1.00  0.00    -0.014 A 
ATOM     69  C   UNL A   1      43.222  35.692  33.571  1.00  0.00     0.009 A 
ATOM     70  C   UNL A   1      42.172  34.520  35.406  1.00  0.00     0.009 A 
ATOM     71  C   UNL A   1      43.545  36.745  34.429  1.00  0.00     0.001 A 
ATOM     72  C   UNL A   1      42.474  35.585  36.257  1.00  0.00     0.001 A 
ATOM     73  C   UNL A   1      43.167  36.693  35.771  1.00  0.00     0.000 A 
ENDBRANCH  49  68
BRANCH  61  74
ATOM     74  C   UNL A   1      45.970  28.772  32.280  1.00  0.00    -0.014 A 
ATOM     75  C   UNL A   1      47.100  29.062  31.501  1.00  0.00     0.009 A 
ATOM     76  C   UNL A   1      46.125  28.013  33.451  1.00  0.00     0.009 A 
ATOM     77  C   UNL A   1      48.357  28.581  31.876  1.00  0.00     0.001 A 
ATOM     78  C   UNL A   1      47.385  27.554  33.835  1.00  0.00     0.001 A 
ATOM     79  C   UNL A   1      48.498  27.832  33.044  1.00  0.00     0.000 A 
ENDBRANCH  61  74
ENDBRANCH  35  36
ENDBRANCH  27  30
ENDBRANCH  25  26
ENDBRANCH  24  25
ENDBRANCH  23  24
ENDBRANCH  22  23
ENDBRANCH   1  22
TORSDOF 18
ENDMDL
