MODEL 1
REMARK VINA RESULT:     -11.0      0.000      0.000
REMARK SMILES CCc1cc(OC(F)(F)F)cc2c1O[C@@H](C(F)(F)F)C(C(=O)NCCCCCCNC(=O)c1ccc(-c3c4nc(c(-c5ccccc5)c5ccc([nH]5)c(-c5ccccc5)c5nc(c(-c6ccccc6)c6ccc3[nH]6)C=C5)C=C4)cc1)=C2
REMARK SMILES IDX 26 1 25 2 24 3 23 4 21 5 22 6 20 8 3 9 4 10 13 11 5 12 12 13
REMARK SMILES IDX 14 14 11 15 81 16 15 17 2 18 1 19 6 20 7 21 8 22 9 23 10 24
REMARK SMILES IDX 16 25 17 26 18 27 19 28 27 29 28 30 29 31 30 32 31 33 32 35
REMARK SMILES IDX 33 36 34 37 80 38 35 39 79 40 36 41 37 42 38 43 73 44 39 45
REMARK SMILES IDX 78 46 72 47 74 48 40 49 77 50 71 51 70 52 41 54 63 55 48 56
REMARK SMILES IDX 62 57 49 58 52 59 61 60 75 61 50 62 51 63 60 65 76 66 53 67
REMARK SMILES IDX 42 68 43 69 47 70 44 71 46 72 45 73 64 74 65 75 69 76 66 77
REMARK SMILES IDX 68 78 67 79 54 80 55 81 59 82 56 83 58 84 57 85
REMARK H PARENT 23 7 30 34 74 53 52 64
REMARK Flexibility Score: inf
ROOT
ATOM      1  C   UNL A   1      36.135  22.004  25.616  1.00  0.00     0.002 C 
ENDROOT
BRANCH   1   2
ATOM      2  C   UNL A   1      35.121  23.080  25.200  1.00  0.00     0.021 C 
BRANCH   2   3
ATOM      3  C   UNL A   1      34.261  23.570  26.371  1.00  0.00     0.116 C 
BRANCH   3   4
ATOM      4  N   UNL A   1      32.919  23.030  26.235  1.00  0.00    -0.352 N 
ATOM      5  C   UNL A   1      31.692  23.607  26.168  1.00  0.00     0.251 C 
ATOM      6  O   UNL A   1      30.713  22.880  26.317  1.00  0.00    -0.270 OA
ATOM      7  H   UNL A   1      32.895  22.047  26.182  1.00  0.00     0.163 HD
BRANCH   5   8
ATOM      8  C   UNL A   1      31.485  25.041  25.834  1.00  0.00     0.067 C 
ATOM      9  C   UNL A   1      31.207  29.026  24.483  1.00  0.00    -0.002 A 
ATOM     10  C   UNL A   1      31.573  30.058  25.368  1.00  0.00     0.054 A 
ATOM     11  C   UNL A   1      31.257  27.695  24.943  1.00  0.00     0.131 A 
ATOM     12  C   UNL A   1      31.972  29.777  26.678  1.00  0.00     0.130 A 
ATOM     13  C   UNL A   1      31.627  27.411  26.254  1.00  0.00     0.021 A 
ATOM     14  O   UNL A   1      30.994  26.713  24.032  1.00  0.00    -0.475 OA
ATOM     15  C   UNL A   1      31.987  28.452  27.115  1.00  0.00     0.058 A 
ATOM     16  C   UNL A   1      31.725  26.032  26.702  1.00  0.00     0.025 C 
ATOM     17  C   UNL A   1      30.836  25.337  24.484  1.00  0.00     0.314 C 
BRANCH   9  18
ATOM     18  C   UNL A   1      30.744  29.293  23.063  1.00  0.00     0.036 C 
ATOM     19  C   UNL A   1      29.245  29.430  22.832  1.00  0.00     0.009 C 
ENDBRANCH   9  18
BRANCH  12  20
ATOM     20  O   UNL A   1      32.380  30.679  27.618  1.00  0.00    -0.406 OA
BRANCH  20  21
ATOM     21  C   UNL A   1      33.722  31.130  27.572  1.00  0.00     0.573 C 
ATOM     22  F   UNL A   1      34.253  31.207  28.810  1.00  0.00    -0.132 F 
ATOM     23  F   UNL A   1      34.479  30.320  26.802  1.00  0.00    -0.132 F 
ATOM     24  F   UNL A   1      33.743  32.368  27.029  1.00  0.00    -0.132 F 
ENDBRANCH  20  21
ENDBRANCH  12  20
BRANCH  17  25
ATOM     25  C   UNL A   1      31.226  24.423  23.298  1.00  0.00     0.429 C 
ATOM     26  F   UNL A   1      30.443  23.327  23.197  1.00  0.00    -0.167 F 
ATOM     27  F   UNL A   1      31.075  25.078  22.114  1.00  0.00    -0.167 F 
ATOM     28  F   UNL A   1      32.517  24.021  23.356  1.00  0.00    -0.167 F 
ENDBRANCH  17  25
ENDBRANCH   5   8
ENDBRANCH   3   4
ENDBRANCH   2   3
ENDBRANCH   1   2
BRANCH   1  29
ATOM     29  C   UNL A   1      36.872  21.340  24.447  1.00  0.00     0.002 C 
BRANCH  29  30
ATOM     30  C   UNL A   1      37.732  20.136  24.837  1.00  0.00     0.021 C 
BRANCH  30  31
ATOM     31  C   UNL A   1      38.934  20.493  25.705  1.00  0.00     0.116 C 
BRANCH  31  32
ATOM     32  N   UNL A   1      39.834  19.361  25.862  1.00  0.00    -0.352 N 
ATOM     33  C   UNL A   1      41.192  19.353  26.070  1.00  0.00     0.251 C 
ATOM     34  H   UNL A   1      39.410  18.474  25.810  1.00  0.00     0.163 HD
ATOM     35  O   UNL A   1      41.841  18.327  25.921  1.00  0.00    -0.269 OA
BRANCH  33  36
ATOM     36  C   UNL A   1      41.866  20.607  26.462  1.00  0.00     0.039 A 
ATOM     37  C   UNL A   1      42.302  21.484  25.468  1.00  0.00     0.014 A 
ATOM     38  C   UNL A   1      42.047  20.919  27.812  1.00  0.00     0.014 A 
ATOM     39  C   UNL A   1      42.851  22.715  25.830  1.00  0.00     0.010 A 
ATOM     40  C   UNL A   1      42.529  22.173  28.171  1.00  0.00     0.010 A 
ATOM     41  C   UNL A   1      42.924  23.088  27.183  1.00  0.00    -0.014 A 
BRANCH  41  42
ATOM     42  C   UNL A   1      43.363  24.446  27.585  1.00  0.00     0.031 A 
ATOM     43  C   UNL A   1      42.354  25.486  27.984  1.00  0.00     0.074 A 
ATOM     44  C   UNL A   1      44.670  24.765  27.511  1.00  0.00     0.049 A 
ATOM     45  N   UNL A   1      42.545  26.743  28.288  1.00  0.00    -0.248 NA
ATOM     46  C   UNL A   1      40.945  25.062  28.027  1.00  0.00     0.031 C 
ATOM     47  C   UNL A   1      45.743  23.853  27.104  1.00  0.00     0.029 A 
ATOM     48  N   UNL A   1      45.319  25.947  27.765  1.00  0.00    -0.354 N 
ATOM     49  C   UNL A   1      41.284  27.264  28.549  1.00  0.00     0.074 A 
ATOM     50  C   UNL A   1      40.331  26.199  28.320  1.00  0.00     0.031 C 
ATOM     51  C   UNL A   1      46.916  24.502  27.161  1.00  0.00     0.029 A 
ATOM     52  C   UNL A   1      46.676  25.886  27.555  1.00  0.00     0.049 A 
ATOM     53  H   UNL A   1      44.857  26.761  28.068  1.00  0.00     0.167 HD
ATOM     54  C   UNL A   1      40.951  28.512  28.956  1.00  0.00     0.031 A 
ATOM     55  C   UNL A   1      47.620  26.840  27.650  1.00  0.00     0.031 A 
ATOM     56  C   UNL A   1      41.902  29.569  29.179  1.00  0.00     0.049 A 
ATOM     57  C   UNL A   1      47.216  28.231  28.053  1.00  0.00     0.074 A 
ATOM     58  C   UNL A   1      41.669  30.852  29.645  1.00  0.00     0.029 A 
ATOM     59  N   UNL A   1      43.264  29.473  28.940  1.00  0.00    -0.354 N 
ATOM     60  N   UNL A   1      46.029  28.687  28.371  1.00  0.00    -0.248 NA
ATOM     61  C   UNL A   1      48.284  29.239  28.114  1.00  0.00     0.031 C 
ATOM     62  C   UNL A   1      42.879  31.550  29.624  1.00  0.00     0.029 A 
ATOM     63  C   UNL A   1      43.877  30.684  29.209  1.00  0.00     0.049 A 
ATOM     64  H   UNL A   1      43.726  28.662  28.626  1.00  0.00     0.167 HD
ATOM     65  C   UNL A   1      46.209  30.027  28.687  1.00  0.00     0.074 A 
ATOM     66  C   UNL A   1      47.624  30.303  28.547  1.00  0.00     0.031 C 
ATOM     67  C   UNL A   1      45.286  30.947  29.057  1.00  0.00     0.031 A 
BRANCH  54  68
ATOM     68  C   UNL A   1      39.494  28.807  29.177  1.00  0.00    -0.014 A 
ATOM     69  C   UNL A   1      38.894  28.623  30.433  1.00  0.00     0.009 A 
ATOM     70  C   UNL A   1      38.719  29.323  28.126  1.00  0.00     0.009 A 
ATOM     71  C   UNL A   1      37.542  28.918  30.623  1.00  0.00     0.001 A 
ATOM     72  C   UNL A   1      37.376  29.648  28.327  1.00  0.00     0.001 A 
ATOM     73  C   UNL A   1      36.787  29.436  29.572  1.00  0.00     0.000 A 
ENDBRANCH  54  68
BRANCH  55  74
ATOM     74  C   UNL A   1      49.041  26.520  27.347  1.00  0.00    -0.014 A 
ATOM     75  C   UNL A   1      49.508  26.533  26.024  1.00  0.00     0.009 A 
ATOM     76  C   UNL A   1      49.935  26.188  28.377  1.00  0.00     0.009 A 
ATOM     77  C   UNL A   1      50.832  26.190  25.737  1.00  0.00     0.001 A 
ATOM     78  C   UNL A   1      51.266  25.878  28.091  1.00  0.00     0.001 A 
ATOM     79  C   UNL A   1      51.710  25.869  26.771  1.00  0.00     0.000 A 
ENDBRANCH  55  74
BRANCH  67  80
ATOM     80  C   UNL A   1      45.777  32.337  29.352  1.00  0.00    -0.014 A 
ATOM     81  C   UNL A   1      45.745  33.341  28.372  1.00  0.00     0.009 A 
ATOM     82  C   UNL A   1      46.230  32.657  30.641  1.00  0.00     0.009 A 
ATOM     83  C   UNL A   1      46.185  34.633  28.671  1.00  0.00     0.001 A 
ATOM     84  C   UNL A   1      46.637  33.956  30.946  1.00  0.00     0.001 A 
ATOM     85  C   UNL A   1      46.623  34.940  29.960  1.00  0.00     0.000 A 
ENDBRANCH  67  80
ENDBRANCH  41  42
ENDBRANCH  33  36
ENDBRANCH  31  32
ENDBRANCH  30  31
ENDBRANCH  29  30
ENDBRANCH   1  29
TORSDOF 17
ENDMDL
MODEL 2
REMARK VINA RESULT:     -11.0      2.268      6.342
REMARK SMILES CCc1cc(OC(F)(F)F)cc2c1O[C@@H](C(F)(F)F)C(C(=O)NCCCCCCNC(=O)c1ccc(-c3c4nc(c(-c5ccccc5)c5ccc([nH]5)c(-c5ccccc5)c5nc(c(-c6ccccc6)c6ccc3[nH]6)C=C5)C=C4)cc1)=C2
REMARK SMILES IDX 26 1 25 2 24 3 23 4 21 5 22 6 20 8 3 9 4 10 13 11 5 12 12 13
REMARK SMILES IDX 14 14 11 15 81 16 15 17 2 18 1 19 6 20 7 21 8 22 9 23 10 24
REMARK SMILES IDX 16 25 17 26 18 27 19 28 27 29 28 30 29 31 30 32 31 33 32 35
REMARK SMILES IDX 33 36 34 37 80 38 35 39 79 40 36 41 37 42 38 43 73 44 39 45
REMARK SMILES IDX 78 46 72 47 74 48 40 49 77 50 71 51 70 52 41 54 63 55 48 56
REMARK SMILES IDX 62 57 49 58 52 59 61 60 75 61 50 62 51 63 60 65 76 66 53 67
REMARK SMILES IDX 42 68 43 69 47 70 44 71 46 72 45 73 64 74 65 75 69 76 66 77
REMARK SMILES IDX 68 78 67 79 54 80 55 81 59 82 56 83 58 84 57 85
REMARK H PARENT 23 7 30 34 74 53 52 64
REMARK Flexibility Score: inf
ROOT
ATOM      1  C   UNL A   1      34.836  20.875  25.844  1.00  0.00     0.002 C 
ENDROOT
BRANCH   1   2
ATOM      2  C   UNL A   1      33.661  20.284  25.051  1.00  0.00     0.021 C 
BRANCH   2   3
ATOM      3  C   UNL A   1      32.603  21.333  24.688  1.00  0.00     0.116 C 
BRANCH   3   4
ATOM      4  N   UNL A   1      32.101  21.945  25.907  1.00  0.00    -0.352 N 
ATOM      5  C   UNL A   1      31.881  23.233  26.273  1.00  0.00     0.251 C 
ATOM      6  O   UNL A   1      31.697  23.462  27.466  1.00  0.00    -0.270 OA
ATOM      7  H   UNL A   1      31.874  21.292  26.609  1.00  0.00     0.163 HD
BRANCH   5   8
ATOM      8  C   UNL A   1      31.765  24.348  25.295  1.00  0.00     0.067 C 
ATOM      9  C   UNL A   1      31.776  27.760  22.818  1.00  0.00    -0.002 A 
ATOM     10  C   UNL A   1      30.550  28.401  22.560  1.00  0.00     0.054 A 
ATOM     11  C   UNL A   1      31.773  26.595  23.610  1.00  0.00     0.131 A 
ATOM     12  C   UNL A   1      29.350  27.895  23.068  1.00  0.00     0.130 A 
ATOM     13  C   UNL A   1      30.579  26.071  24.096  1.00  0.00     0.021 A 
ATOM     14  O   UNL A   1      32.987  26.055  23.926  1.00  0.00    -0.475 OA
ATOM     15  C   UNL A   1      29.374  26.725  23.827  1.00  0.00     0.058 A 
ATOM     16  C   UNL A   1      30.593  24.898  24.954  1.00  0.00     0.025 C 
ATOM     17  C   UNL A   1      33.048  24.750  24.571  1.00  0.00     0.314 C 
BRANCH   9  18
ATOM     18  C   UNL A   1      33.095  28.265  22.263  1.00  0.00     0.036 C 
ATOM     19  C   UNL A   1      34.000  29.040  23.212  1.00  0.00     0.009 C 
ENDBRANCH   9  18
BRANCH  12  20
ATOM     20  O   UNL A   1      28.107  28.438  22.917  1.00  0.00    -0.406 OA
BRANCH  20  21
ATOM     21  C   UNL A   1      27.975  29.845  23.022  1.00  0.00     0.573 C 
ATOM     22  F   UNL A   1      28.945  30.369  23.800  1.00  0.00    -0.132 F 
ATOM     23  F   UNL A   1      28.006  30.426  21.804  1.00  0.00    -0.132 F 
ATOM     24  F   UNL A   1      26.782  30.125  23.592  1.00  0.00    -0.132 F 
ENDBRANCH  20  21
ENDBRANCH  12  20
BRANCH  17  25
ATOM     25  C   UNL A   1      34.362  24.708  25.386  1.00  0.00     0.429 C 
ATOM     26  F   UNL A   1      35.425  24.312  24.651  1.00  0.00    -0.167 F 
ATOM     27  F   UNL A   1      34.687  25.949  25.842  1.00  0.00    -0.167 F 
ATOM     28  F   UNL A   1      34.272  23.908  26.472  1.00  0.00    -0.167 F 
ENDBRANCH  17  25
ENDBRANCH   5   8
ENDBRANCH   3   4
ENDBRANCH   2   3
ENDBRANCH   1   2
BRANCH   1  29
ATOM     29  C   UNL A   1      36.051  21.254  24.989  1.00  0.00     0.002 C 
BRANCH  29  30
ATOM     30  C   UNL A   1      37.162  20.201  24.956  1.00  0.00     0.021 C 
BRANCH  30  31
ATOM     31  C   UNL A   1      38.502  20.703  25.482  1.00  0.00     0.116 C 
BRANCH  31  32
ATOM     32  N   UNL A   1      39.448  19.611  25.657  1.00  0.00    -0.352 N 
ATOM     33  C   UNL A   1      40.777  19.661  26.001  1.00  0.00     0.251 C 
ATOM     34  H   UNL A   1      39.084  18.709  25.505  1.00  0.00     0.163 HD
ATOM     35  O   UNL A   1      41.497  18.683  25.854  1.00  0.00    -0.269 OA
BRANCH  33  36
ATOM     36  C   UNL A   1      41.334  20.919  26.539  1.00  0.00     0.039 A 
ATOM     37  C   UNL A   1      41.963  21.810  25.669  1.00  0.00     0.014 A 
ATOM     38  C   UNL A   1      41.214  21.219  27.899  1.00  0.00     0.014 A 
ATOM     39  C   UNL A   1      42.405  23.043  26.150  1.00  0.00     0.010 A 
ATOM     40  C   UNL A   1      41.590  22.475  28.362  1.00  0.00     0.010 A 
ATOM     41  C   UNL A   1      42.178  23.404  27.489  1.00  0.00    -0.014 A 
BRANCH  41  42
ATOM     42  C   UNL A   1      42.501  24.763  27.986  1.00  0.00     0.031 A 
ATOM     43  C   UNL A   1      43.896  25.100  28.432  1.00  0.00     0.074 A 
ATOM     44  C   UNL A   1      41.513  25.671  28.111  1.00  0.00     0.049 A 
ATOM     45  N   UNL A   1      44.344  26.206  28.967  1.00  0.00    -0.248 NA
ATOM     46  C   UNL A   1      44.914  24.049  28.276  1.00  0.00     0.031 C 
ATOM     47  C   UNL A   1      40.111  25.453  27.744  1.00  0.00     0.029 A 
ATOM     48  N   UNL A   1      41.534  26.957  28.590  1.00  0.00    -0.354 N 
ATOM     49  C   UNL A   1      45.691  25.984  29.220  1.00  0.00     0.074 A 
ATOM     50  C   UNL A   1      45.976  24.620  28.825  1.00  0.00     0.031 C 
ATOM     51  C   UNL A   1      39.414  26.574  27.988  1.00  0.00     0.029 A 
ATOM     52  C   UNL A   1      40.303  27.569  28.576  1.00  0.00     0.049 A 
ATOM     53  H   UNL A   1      42.352  27.399  28.913  1.00  0.00     0.167 HD
ATOM     54  C   UNL A   1      46.612  26.842  29.721  1.00  0.00     0.031 A 
ATOM     55  C   UNL A   1      39.928  28.789  29.005  1.00  0.00     0.031 A 
ATOM     56  C   UNL A   1      46.323  28.195  30.116  1.00  0.00     0.049 A 
ATOM     57  C   UNL A   1      40.960  29.701  29.607  1.00  0.00     0.074 A 
ATOM     58  C   UNL A   1      47.198  29.160  30.585  1.00  0.00     0.029 A 
ATOM     59  N   UNL A   1      45.063  28.772  30.102  1.00  0.00    -0.354 N 
ATOM     60  N   UNL A   1      42.245  29.503  29.769  1.00  0.00    -0.248 NA
ATOM     61  C   UNL A   1      40.488  31.010  30.085  1.00  0.00     0.031 C 
ATOM     62  C   UNL A   1      46.457  30.297  30.916  1.00  0.00     0.029 A 
ATOM     63  C   UNL A   1      45.131  30.065  30.592  1.00  0.00     0.049 A 
ATOM     64  H   UNL A   1      44.242  28.328  29.789  1.00  0.00     0.167 HD
ATOM     65  C   UNL A   1      42.739  30.665  30.347  1.00  0.00     0.074 A 
ATOM     66  C   UNL A   1      41.619  31.573  30.484  1.00  0.00     0.031 C 
ATOM     67  C   UNL A   1      44.005  30.954  30.732  1.00  0.00     0.031 A 
BRANCH  54  68
ATOM     68  C   UNL A   1      48.019  26.337  29.884  1.00  0.00    -0.014 A 
ATOM     69  C   UNL A   1      48.962  26.462  28.851  1.00  0.00     0.009 A 
ATOM     70  C   UNL A   1      48.421  25.773  31.105  1.00  0.00     0.009 A 
ATOM     71  C   UNL A   1      50.269  26.003  29.027  1.00  0.00     0.001 A 
ATOM     72  C   UNL A   1      49.737  25.343  31.288  1.00  0.00     0.001 A 
ATOM     73  C   UNL A   1      50.657  25.449  30.247  1.00  0.00     0.000 A 
ENDBRANCH  54  68
BRANCH  55  74
ATOM     74  C   UNL A   1      38.507  29.216  28.895  1.00  0.00    -0.014 A 
ATOM     75  C   UNL A   1      37.645  29.116  29.997  1.00  0.00     0.009 A 
ATOM     76  C   UNL A   1      38.003  29.713  27.683  1.00  0.00     0.009 A 
ATOM     77  C   UNL A   1      36.301  29.478  29.879  1.00  0.00     0.001 A 
ATOM     78  C   UNL A   1      36.667  30.105  27.577  1.00  0.00     0.001 A 
ATOM     79  C   UNL A   1      35.814  29.977  28.672  1.00  0.00     0.000 A 
ENDBRANCH  55  74
BRANCH  67  80
ATOM     80  C   UNL A   1      44.252  32.313  31.325  1.00  0.00    -0.014 A 
ATOM     81  C   UNL A   1      44.230  32.513  32.715  1.00  0.00     0.009 A 
ATOM     82  C   UNL A   1      44.562  33.394  30.487  1.00  0.00     0.009 A 
ATOM     83  C   UNL A   1      44.484  33.778  33.249  1.00  0.00     0.001 A 
ATOM     84  C   UNL A   1      44.848  34.649  31.025  1.00  0.00     0.001 A 
ATOM     85  C   UNL A   1      44.800  34.842  32.404  1.00  0.00     0.000 A 
ENDBRANCH  67  80
ENDBRANCH  41  42
ENDBRANCH  33  36
ENDBRANCH  31  32
ENDBRANCH  30  31
ENDBRANCH  29  30
ENDBRANCH   1  29
TORSDOF 17
ENDMDL
MODEL 3
REMARK VINA RESULT:     -11.0      2.689      8.274
REMARK SMILES CCc1cc(OC(F)(F)F)cc2c1O[C@@H](C(F)(F)F)C(C(=O)NCCCCCCNC(=O)c1ccc(-c3c4nc(c(-c5ccccc5)c5ccc([nH]5)c(-c5ccccc5)c5nc(c(-c6ccccc6)c6ccc3[nH]6)C=C5)C=C4)cc1)=C2
REMARK SMILES IDX 26 1 25 2 24 3 23 4 21 5 22 6 20 8 3 9 4 10 13 11 5 12 12 13
REMARK SMILES IDX 14 14 11 15 81 16 15 17 2 18 1 19 6 20 7 21 8 22 9 23 10 24
REMARK SMILES IDX 16 25 17 26 18 27 19 28 27 29 28 30 29 31 30 32 31 33 32 35
REMARK SMILES IDX 33 36 34 37 80 38 35 39 79 40 36 41 37 42 38 43 73 44 39 45
REMARK SMILES IDX 78 46 72 47 74 48 40 49 77 50 71 51 70 52 41 54 63 55 48 56
REMARK SMILES IDX 62 57 49 58 52 59 61 60 75 61 50 62 51 63 60 65 76 66 53 67
REMARK SMILES IDX 42 68 43 69 47 70 44 71 46 72 45 73 64 74 65 75 69 76 66 77
REMARK SMILES IDX 68 78 67 79 54 80 55 81 59 82 56 83 58 84 57 85
REMARK H PARENT 23 7 30 34 74 53 52 64
REMARK Flexibility Score: inf
ROOT
ATOM      1  C   UNL A   1      30.785  27.767  25.315  1.00  0.00     0.002 C 
ENDROOT
BRANCH   1   2
ATOM      2  C   UNL A   1      30.664  26.597  26.302  1.00  0.00     0.021 C 
BRANCH   2   3
ATOM      3  C   UNL A   1      29.770  25.467  25.777  1.00  0.00     0.116 C 
BRANCH   3   4
ATOM      4  N   UNL A   1      29.926  25.367  24.336  1.00  0.00    -0.352 N 
ATOM      5  C   UNL A   1      30.872  24.802  23.543  1.00  0.00     0.251 C 
ATOM      6  O   UNL A   1      30.872  25.105  22.352  1.00  0.00    -0.270 OA
ATOM      7  H   UNL A   1      29.196  25.796  23.832  1.00  0.00     0.163 HD
BRANCH   5   8
ATOM      8  C   UNL A   1      31.836  23.780  24.031  1.00  0.00     0.067 C 
ATOM      9  C   UNL A   1      34.901  21.077  25.069  1.00  0.00    -0.002 A 
ATOM     10  C   UNL A   1      34.630  19.697  24.989  1.00  0.00     0.054 A 
ATOM     11  C   UNL A   1      33.868  21.985  24.765  1.00  0.00     0.131 A 
ATOM     12  C   UNL A   1      33.364  19.231  24.623  1.00  0.00     0.130 A 
ATOM     13  C   UNL A   1      32.598  21.527  24.427  1.00  0.00     0.021 A 
ATOM     14  O   UNL A   1      34.190  23.311  24.753  1.00  0.00    -0.475 OA
ATOM     15  C   UNL A   1      32.352  20.153  24.353  1.00  0.00     0.058 A 
ATOM     16  C   UNL A   1      31.554  22.471  24.064  1.00  0.00     0.025 C 
ATOM     17  C   UNL A   1      33.133  24.307  24.641  1.00  0.00     0.314 C 
BRANCH   9  18
ATOM     18  C   UNL A   1      36.254  21.621  25.487  1.00  0.00     0.036 C 
ATOM     19  C   UNL A   1      37.247  21.947  24.379  1.00  0.00     0.009 C 
ENDBRANCH   9  18
BRANCH  12  20
ATOM     20  O   UNL A   1      32.985  17.928  24.479  1.00  0.00    -0.406 OA
BRANCH  20  21
ATOM     21  C   UNL A   1      33.484  17.207  23.366  1.00  0.00     0.573 C 
ATOM     22  F   UNL A   1      32.938  17.649  22.214  1.00  0.00    -0.132 F 
ATOM     23  F   UNL A   1      34.829  17.298  23.295  1.00  0.00    -0.132 F 
ATOM     24  F   UNL A   1      33.156  15.904  23.514  1.00  0.00    -0.132 F 
ENDBRANCH  20  21
ENDBRANCH  12  20
BRANCH  17  25
ATOM     25  C   UNL A   1      33.760  25.563  23.990  1.00  0.00     0.429 C 
ATOM     26  F   UNL A   1      32.881  26.579  23.849  1.00  0.00    -0.167 F 
ATOM     27  F   UNL A   1      34.759  26.062  24.769  1.00  0.00    -0.167 F 
ATOM     28  F   UNL A   1      34.306  25.301  22.780  1.00  0.00    -0.167 F 
ENDBRANCH  17  25
ENDBRANCH   5   8
ENDBRANCH   3   4
ENDBRANCH   2   3
ENDBRANCH   1   2
BRANCH   1  29
ATOM     29  C   UNL A   1      31.643  28.934  25.816  1.00  0.00     0.002 C 
BRANCH  29  30
ATOM     30  C   UNL A   1      32.327  28.690  27.164  1.00  0.00     0.021 C 
BRANCH  30  31
ATOM     31  C   UNL A   1      33.762  29.200  27.228  1.00  0.00     0.116 C 
BRANCH  31  32
ATOM     32  N   UNL A   1      33.829  30.531  27.813  1.00  0.00    -0.352 N 
ATOM     33  C   UNL A   1      34.795  31.074  28.625  1.00  0.00     0.251 C 
ATOM     34  H   UNL A   1      33.075  31.125  27.598  1.00  0.00     0.163 HD
ATOM     35  O   UNL A   1      34.581  32.108  29.244  1.00  0.00    -0.269 OA
BRANCH  33  36
ATOM     36  C   UNL A   1      36.094  30.385  28.757  1.00  0.00     0.039 A 
ATOM     37  C   UNL A   1      36.989  30.409  27.686  1.00  0.00     0.014 A 
ATOM     38  C   UNL A   1      36.430  29.735  29.948  1.00  0.00     0.014 A 
ATOM     39  C   UNL A   1      38.256  29.846  27.837  1.00  0.00     0.010 A 
ATOM     40  C   UNL A   1      37.717  29.237  30.121  1.00  0.00     0.010 A 
ATOM     41  C   UNL A   1      38.646  29.298  29.072  1.00  0.00    -0.014 A 
BRANCH  41  42
ATOM     42  C   UNL A   1      40.034  28.831  29.303  1.00  0.00     0.031 A 
ATOM     43  C   UNL A   1      41.057  29.750  29.907  1.00  0.00     0.074 A 
ATOM     44  C   UNL A   1      40.391  27.598  28.891  1.00  0.00     0.049 A 
ATOM     45  N   UNL A   1      42.333  29.542  30.109  1.00  0.00    -0.248 NA
ATOM     46  C   UNL A   1      40.591  31.084  30.318  1.00  0.00     0.031 C 
ATOM     47  C   UNL A   1      39.497  26.624  28.260  1.00  0.00     0.029 A 
ATOM     48  N   UNL A   1      41.604  26.957  28.933  1.00  0.00    -0.354 N 
ATOM     49  C   UNL A   1      42.824  30.718  30.661  1.00  0.00     0.074 A 
ATOM     50  C   UNL A   1      41.719  31.653  30.716  1.00  0.00     0.031 C 
ATOM     51  C   UNL A   1      40.185  25.502  27.997  1.00  0.00     0.029 A 
ATOM     52  C   UNL A   1      41.577  25.694  28.390  1.00  0.00     0.049 A 
ATOM     53  H   UNL A   1      42.415  27.362  29.314  1.00  0.00     0.167 HD
ATOM     54  C   UNL A   1      44.077  30.991  31.096  1.00  0.00     0.031 A 
ATOM     55  C   UNL A   1      42.564  24.797  28.212  1.00  0.00     0.031 A 
ATOM     56  C   UNL A   1      45.173  30.060  31.035  1.00  0.00     0.049 A 
ATOM     57  C   UNL A   1      43.958  25.146  28.655  1.00  0.00     0.074 A 
ATOM     58  C   UNL A   1      46.467  30.223  31.500  1.00  0.00     0.029 A 
ATOM     59  N   UNL A   1      45.110  28.799  30.465  1.00  0.00    -0.354 N 
ATOM     60  N   UNL A   1      44.389  26.234  29.245  1.00  0.00    -0.248 NA
ATOM     61  C   UNL A   1      45.002  24.140  28.410  1.00  0.00     0.031 C 
ATOM     62  C   UNL A   1      47.202  29.087  31.151  1.00  0.00     0.029 A 
ATOM     63  C   UNL A   1      46.351  28.190  30.528  1.00  0.00     0.049 A 
ATOM     64  H   UNL A   1      44.301  28.396  30.073  1.00  0.00     0.167 HD
ATOM     65  C   UNL A   1      45.746  26.037  29.459  1.00  0.00     0.074 A 
ATOM     66  C   UNL A   1      46.062  24.715  28.959  1.00  0.00     0.031 C 
ATOM     67  C   UNL A   1      46.652  26.876  30.018  1.00  0.00     0.031 A 
BRANCH  54  68
ATOM     68  C   UNL A   1      44.334  32.358  31.666  1.00  0.00    -0.014 A 
ATOM     69  C   UNL A   1      44.735  33.427  30.848  1.00  0.00     0.009 A 
ATOM     70  C   UNL A   1      44.125  32.594  33.035  1.00  0.00     0.009 A 
ATOM     71  C   UNL A   1      44.953  34.694  31.394  1.00  0.00     0.001 A 
ATOM     72  C   UNL A   1      44.313  33.869  33.572  1.00  0.00     0.001 A 
ATOM     73  C   UNL A   1      44.736  34.915  32.753  1.00  0.00     0.000 A 
ENDBRANCH  54  68
BRANCH  55  74
ATOM     74  C   UNL A   1      42.277  23.485  27.572  1.00  0.00    -0.014 A 
ATOM     75  C   UNL A   1      41.810  22.406  28.336  1.00  0.00     0.009 A 
ATOM     76  C   UNL A   1      42.482  23.302  26.194  1.00  0.00     0.009 A 
ATOM     77  C   UNL A   1      41.582  21.163  27.740  1.00  0.00     0.001 A 
ATOM     78  C   UNL A   1      42.221  22.068  25.595  1.00  0.00     0.001 A 
ATOM     79  C   UNL A   1      41.782  20.997  26.370  1.00  0.00     0.000 A 
ENDBRANCH  55  74
BRANCH  67  80
ATOM     80  C   UNL A   1      48.068  26.385  30.131  1.00  0.00    -0.014 A 
ATOM     81  C   UNL A   1      49.003  26.623  29.111  1.00  0.00     0.009 A 
ATOM     82  C   UNL A   1      48.485  25.722  31.296  1.00  0.00     0.009 A 
ATOM     83  C   UNL A   1      50.321  26.179  29.244  1.00  0.00     0.001 A 
ATOM     84  C   UNL A   1      49.810  25.310  31.440  1.00  0.00     0.001 A 
ATOM     85  C   UNL A   1      50.724  25.530  30.411  1.00  0.00     0.000 A 
ENDBRANCH  67  80
ENDBRANCH  41  42
ENDBRANCH  33  36
ENDBRANCH  31  32
ENDBRANCH  30  31
ENDBRANCH  29  30
ENDBRANCH   1  29
TORSDOF 17
ENDMDL
