MODEL 1
REMARK VINA RESULT:      -8.0      0.000      0.000
REMARK SMILES Cc1cc(C(=O)N2CCO[C@H](C)C2)sc1/C=C/C(=O)NCCCCCCNC(=O)c1ccc(-c2c3nc(c(-c4ccccc4)c4ccc([nH]4)c(-c4ccccc4)c4nc(c(-c5ccccc5)c5ccc2[nH]5)C=C4)C=C3)cc1
REMARK SMILES IDX 23 1 22 2 21 3 20 4 18 5 19 6 17 8 16 9 15 10 1 11 2 12 3 13
REMARK SMILES IDX 4 14 14 15 5 16 6 17 7 18 8 19 13 20 9 21 11 22 10 23 12 24
REMARK SMILES IDX 24 25 25 26 26 27 27 28 28 29 29 31 30 32 31 33 77 34 32 35
REMARK SMILES IDX 76 36 33 37 34 38 35 39 70 40 36 41 75 42 69 43 71 44 37 45
REMARK SMILES IDX 74 46 68 47 67 48 38 50 60 51 45 52 59 53 46 54 49 55 58 56
REMARK SMILES IDX 72 57 47 58 48 59 57 61 73 62 50 63 39 64 40 65 44 66 41 67
REMARK SMILES IDX 43 68 42 69 61 70 62 71 66 72 63 73 65 74 64 75 51 76 52 77
REMARK SMILES IDX 56 78 53 79 55 80 54 81
REMARK H PARENT 20 7 27 30 71 49 49 60
REMARK Flexibility Score: inf
ROOT
ATOM      1  C   UNL A   1      37.366  32.824  30.606  1.00  0.00     0.002 C 
ENDROOT
BRANCH   1   2
ATOM      2  C   UNL A   1      37.747  34.308  30.696  1.00  0.00     0.021 C 
BRANCH   2   3
ATOM      3  C   UNL A   1      39.145  34.536  31.267  1.00  0.00     0.116 C 
BRANCH   3   4
ATOM      4  N   UNL A   1      39.077  34.717  32.704  1.00  0.00    -0.353 N 
ATOM      5  C   UNL A   1      39.353  33.855  33.716  1.00  0.00     0.244 C 
ATOM      6  O   UNL A   1      39.282  34.235  34.881  1.00  0.00    -0.270 OA
ATOM      7  H   UNL A   1      38.782  35.610  32.993  1.00  0.00     0.163 HD
BRANCH   5   8
ATOM      8  C   UNL A   1      39.842  32.493  33.425  1.00  0.00     0.072 C 
ATOM      9  C   UNL A   1      39.532  31.403  34.144  1.00  0.00     0.025 C 
BRANCH   9  10
ATOM     10  C   UNL A   1      40.033  30.109  33.806  1.00  0.00     0.031 A 
ATOM     11  C   UNL A   1      37.963  29.029  32.719  1.00  0.00     0.046 C 
ATOM     12  C   UNL A   1      39.372  29.034  33.224  1.00  0.00    -0.032 A 
ATOM     13  C   UNL A   1      40.236  27.889  33.108  1.00  0.00     0.029 A 
ATOM     14  C   UNL A   1      41.525  28.119  33.550  1.00  0.00     0.093 A 
ATOM     15  S   UNL A   1      41.672  29.716  34.114  1.00  0.00    -0.130 S 
BRANCH  14  16
ATOM     16  C   UNL A   1      42.669  27.226  33.377  1.00  0.00     0.264 C 
ATOM     17  O   UNL A   1      43.346  27.275  32.348  1.00  0.00    -0.268 OA
BRANCH  16  18
ATOM     18  N   UNL A   1      43.070  26.391  34.415  1.00  0.00    -0.333 N 
ATOM     19  C   UNL A   1      42.076  25.935  35.381  1.00  0.00     0.148 C 
ATOM     20  C   UNL A   1      44.427  25.910  34.702  1.00  0.00     0.151 C 
ATOM     21  C   UNL A   1      42.132  24.405  35.462  1.00  0.00     0.182 C 
ATOM     22  C   UNL A   1      44.431  24.375  34.852  1.00  0.00     0.134 C 
ATOM     23  O   UNL A   1      43.451  23.958  35.826  1.00  0.00    -0.375 OA
ATOM     24  C   UNL A   1      45.790  23.872  35.318  1.00  0.00     0.040 C 
ENDBRANCH  16  18
ENDBRANCH  14  16
ENDBRANCH   9  10
ENDBRANCH   5   8
ENDBRANCH   3   4
ENDBRANCH   2   3
ENDBRANCH   1   2
BRANCH   1  25
ATOM     25  C   UNL A   1      36.198  32.405  31.507  1.00  0.00     0.002 C 
BRANCH  25  26
ATOM     26  C   UNL A   1      34.823  32.428  30.835  1.00  0.00     0.021 C 
BRANCH  26  27
ATOM     27  C   UNL A   1      34.862  32.693  29.333  1.00  0.00     0.116 C 
BRANCH  27  28
ATOM     28  N   UNL A   1      34.099  31.701  28.592  1.00  0.00    -0.352 N 
ATOM     29  C   UNL A   1      34.532  30.554  27.976  1.00  0.00     0.251 C 
ATOM     30  H   UNL A   1      33.134  31.878  28.523  1.00  0.00     0.163 HD
ATOM     31  O   UNL A   1      33.793  29.950  27.206  1.00  0.00    -0.269 OA
BRANCH  29  32
ATOM     32  C   UNL A   1      35.897  30.052  28.233  1.00  0.00     0.039 A 
ATOM     33  C   UNL A   1      36.874  30.214  27.247  1.00  0.00     0.014 A 
ATOM     34  C   UNL A   1      36.207  29.403  29.432  1.00  0.00     0.014 A 
ATOM     35  C   UNL A   1      38.176  29.770  27.484  1.00  0.00     0.010 A 
ATOM     36  C   UNL A   1      37.519  29.021  29.694  1.00  0.00     0.010 A 
ATOM     37  C   UNL A   1      38.515  29.194  28.720  1.00  0.00    -0.014 A 
BRANCH  37  38
ATOM     38  C   UNL A   1      39.904  28.762  29.011  1.00  0.00     0.031 A 
ATOM     39  C   UNL A   1      40.867  29.706  29.675  1.00  0.00     0.074 A 
ATOM     40  C   UNL A   1      40.315  27.540  28.623  1.00  0.00     0.049 A 
ATOM     41  N   UNL A   1      42.132  29.530  29.961  1.00  0.00    -0.248 NA
ATOM     42  C   UNL A   1      40.346  31.033  30.044  1.00  0.00     0.031 C 
ATOM     43  C   UNL A   1      39.489  26.544  27.938  1.00  0.00     0.029 A 
ATOM     44  N   UNL A   1      41.539  26.931  28.744  1.00  0.00    -0.354 N 
ATOM     45  C   UNL A   1      42.561  30.724  30.525  1.00  0.00     0.074 A 
ATOM     46  C   UNL A   1      41.437  31.634  30.497  1.00  0.00     0.031 C 
ATOM     47  C   UNL A   1      40.222  25.439  27.724  1.00  0.00     0.029 A 
ATOM     48  C   UNL A   1      41.576  25.662  28.220  1.00  0.00     0.049 A 
ATOM     49  H   UNL A   1      42.316  27.363  29.167  1.00  0.00     0.167 HD
ATOM     50  C   UNL A   1      43.777  31.032  31.037  1.00  0.00     0.031 A 
ATOM     51  C   UNL A   1      42.588  24.778  28.144  1.00  0.00     0.031 A 
ATOM     52  C   UNL A   1      44.893  30.125  31.073  1.00  0.00     0.049 A 
ATOM     53  C   UNL A   1      43.931  25.147  28.707  1.00  0.00     0.074 A 
ATOM     54  C   UNL A   1      46.148  30.322  31.623  1.00  0.00     0.029 A 
ATOM     55  N   UNL A   1      44.888  28.848  30.535  1.00  0.00    -0.354 N 
ATOM     56  N   UNL A   1      44.302  26.258  29.296  1.00  0.00    -0.248 NA
ATOM     57  C   UNL A   1      44.991  24.135  28.602  1.00  0.00     0.031 C 
ATOM     58  C   UNL A   1      46.918  29.182  31.373  1.00  0.00     0.029 A 
ATOM     59  C   UNL A   1      46.126  28.254  30.716  1.00  0.00     0.049 A 
ATOM     60  H   UNL A   1      44.118  28.424  30.090  1.00  0.00     0.167 HD
ATOM     61  C   UNL A   1      45.631  26.069  29.655  1.00  0.00     0.074 A 
ATOM     62  C   UNL A   1      45.994  24.732  29.230  1.00  0.00     0.031 C 
ATOM     63  C   UNL A   1      46.473  26.925  30.283  1.00  0.00     0.031 A 
BRANCH  50  64
ATOM     64  C   UNL A   1      43.962  32.419  31.589  1.00  0.00    -0.014 A 
ATOM     65  C   UNL A   1      44.411  33.472  30.776  1.00  0.00     0.009 A 
ATOM     66  C   UNL A   1      43.661  32.682  32.934  1.00  0.00     0.009 A 
ATOM     67  C   UNL A   1      44.594  34.750  31.309  1.00  0.00     0.001 A 
ATOM     68  C   UNL A   1      43.816  33.966  33.457  1.00  0.00     0.001 A 
ATOM     69  C   UNL A   1      44.293  34.996  32.648  1.00  0.00     0.000 A 
ENDBRANCH  50  64
BRANCH  51  70
ATOM     70  C   UNL A   1      42.363  23.446  27.526  1.00  0.00    -0.014 A 
ATOM     71  C   UNL A   1      41.812  22.399  28.280  1.00  0.00     0.009 A 
ATOM     72  C   UNL A   1      42.695  23.215  26.183  1.00  0.00     0.009 A 
ATOM     73  C   UNL A   1      41.618  21.140  27.706  1.00  0.00     0.001 A 
ATOM     74  C   UNL A   1      42.475  21.963  25.604  1.00  0.00     0.001 A 
ATOM     75  C   UNL A   1      41.945  20.924  26.368  1.00  0.00     0.000 A 
ENDBRANCH  51  70
BRANCH  63  76
ATOM     76  C   UNL A   1      47.862  26.431  30.573  1.00  0.00    -0.014 A 
ATOM     77  C   UNL A   1      48.910  26.623  29.659  1.00  0.00     0.009 A 
ATOM     78  C   UNL A   1      48.132  25.797  31.796  1.00  0.00     0.009 A 
ATOM     79  C   UNL A   1      50.194  26.161  29.952  1.00  0.00     0.001 A 
ATOM     80  C   UNL A   1      49.423  25.361  32.098  1.00  0.00     0.001 A 
ATOM     81  C   UNL A   1      50.450  25.535  31.172  1.00  0.00     0.000 A 
ENDBRANCH  63  76
ENDBRANCH  37  38
ENDBRANCH  29  32
ENDBRANCH  27  28
ENDBRANCH  26  27
ENDBRANCH  25  26
ENDBRANCH   1  25
TORSDOF 16
ENDMDL
MODEL 2
REMARK VINA RESULT:      -7.8      5.362     10.040
REMARK SMILES Cc1cc(C(=O)N2CCO[C@H](C)C2)sc1/C=C/C(=O)NCCCCCCNC(=O)c1ccc(-c2c3nc(c(-c4ccccc4)c4ccc([nH]4)c(-c4ccccc4)c4nc(c(-c5ccccc5)c5ccc2[nH]5)C=C4)C=C3)cc1
REMARK SMILES IDX 23 1 22 2 21 3 20 4 18 5 19 6 17 8 16 9 15 10 1 11 2 12 3 13
REMARK SMILES IDX 4 14 14 15 5 16 6 17 7 18 8 19 13 20 9 21 11 22 10 23 12 24
REMARK SMILES IDX 24 25 25 26 26 27 27 28 28 29 29 31 30 32 31 33 77 34 32 35
REMARK SMILES IDX 76 36 33 37 34 38 35 39 70 40 36 41 75 42 69 43 71 44 37 45
REMARK SMILES IDX 74 46 68 47 67 48 38 50 60 51 45 52 59 53 46 54 49 55 58 56
REMARK SMILES IDX 72 57 47 58 48 59 57 61 73 62 50 63 39 64 40 65 44 66 41 67
REMARK SMILES IDX 43 68 42 69 61 70 62 71 66 72 63 73 65 74 64 75 51 76 52 77
REMARK SMILES IDX 56 78 53 79 55 80 54 81
REMARK H PARENT 20 7 27 30 71 49 49 60
REMARK Flexibility Score: inf
ROOT
ATOM      1  C   UNL A   1      40.561  27.834  27.556  1.00  0.00     0.002 C 
ENDROOT
BRANCH   1   2
ATOM      2  C   UNL A   1      39.603  29.026  27.430  1.00  0.00     0.021 C 
BRANCH   2   3
ATOM      3  C   UNL A   1      38.338  28.872  28.272  1.00  0.00     0.116 C 
BRANCH   3   4
ATOM      4  N   UNL A   1      37.893  30.167  28.749  1.00  0.00    -0.353 N 
ATOM      5  C   UNL A   1      36.790  30.893  28.431  1.00  0.00     0.244 C 
ATOM      6  O   UNL A   1      36.571  31.957  29.002  1.00  0.00    -0.270 OA
ATOM      7  H   UNL A   1      38.486  30.589  29.411  1.00  0.00     0.163 HD
BRANCH   5   8
ATOM      8  C   UNL A   1      35.795  30.362  27.480  1.00  0.00     0.072 C 
ATOM      9  C   UNL A   1      34.466  30.502  27.610  1.00  0.00     0.025 C 
BRANCH   9  10
ATOM     10  C   UNL A   1      33.553  29.970  26.650  1.00  0.00     0.031 A 
ATOM     11  C   UNL A   1      31.635  31.685  26.765  1.00  0.00     0.046 C 
ATOM     12  C   UNL A   1      32.293  30.430  26.283  1.00  0.00    -0.032 A 
ATOM     13  C   UNL A   1      31.682  29.562  25.313  1.00  0.00     0.029 A 
ATOM     14  C   UNL A   1      32.485  28.505  24.928  1.00  0.00     0.093 A 
ATOM     15  S   UNL A   1      33.967  28.566  25.758  1.00  0.00    -0.130 S 
BRANCH  14  16
ATOM     16  C   UNL A   1      32.225  27.579  23.827  1.00  0.00     0.264 C 
ATOM     17  O   UNL A   1      33.120  26.839  23.413  1.00  0.00    -0.268 OA
BRANCH  16  18
ATOM     18  N   UNL A   1      30.940  27.447  23.310  1.00  0.00    -0.333 N 
ATOM     19  C   UNL A   1      30.193  26.223  23.575  1.00  0.00     0.148 C 
ATOM     20  C   UNL A   1      30.213  28.404  22.468  1.00  0.00     0.151 C 
ATOM     21  C   UNL A   1      28.834  26.595  24.180  1.00  0.00     0.182 C 
ATOM     22  C   UNL A   1      28.822  28.697  23.066  1.00  0.00     0.134 C 
ATOM     23  O   UNL A   1      28.102  27.468  23.300  1.00  0.00    -0.375 OA
ATOM     24  C   UNL A   1      27.987  29.550  22.123  1.00  0.00     0.040 C 
ENDBRANCH  16  18
ENDBRANCH  14  16
ENDBRANCH   9  10
ENDBRANCH   5   8
ENDBRANCH   3   4
ENDBRANCH   2   3
ENDBRANCH   1   2
BRANCH   1  25
ATOM     25  C   UNL A   1      40.273  26.902  28.740  1.00  0.00     0.002 C 
BRANCH  25  26
ATOM     26  C   UNL A   1      39.618  25.570  28.369  1.00  0.00     0.021 C 
BRANCH  26  27
ATOM     27  C   UNL A   1      39.655  25.245  26.879  1.00  0.00     0.116 C 
BRANCH  27  28
ATOM     28  N   UNL A   1      40.314  23.975  26.621  1.00  0.00    -0.352 N 
ATOM     29  C   UNL A   1      41.612  23.729  26.252  1.00  0.00     0.251 C 
ATOM     30  H   UNL A   1      39.748  23.177  26.728  1.00  0.00     0.163 HD
ATOM     31  O   UNL A   1      41.942  22.615  25.859  1.00  0.00    -0.269 OA
BRANCH  29  32
ATOM     32  C   UNL A   1      42.614  24.813  26.318  1.00  0.00     0.039 A 
ATOM     33  C   UNL A   1      43.287  25.040  27.521  1.00  0.00     0.014 A 
ATOM     34  C   UNL A   1      42.869  25.619  25.204  1.00  0.00     0.014 A 
ATOM     35  C   UNL A   1      44.256  26.042  27.592  1.00  0.00     0.010 A 
ATOM     36  C   UNL A   1      43.882  26.572  25.256  1.00  0.00     0.010 A 
ATOM     37  C   UNL A   1      44.580  26.798  26.453  1.00  0.00    -0.014 A 
BRANCH  37  38
ATOM     38  C   UNL A   1      45.641  27.833  26.494  1.00  0.00     0.031 A 
ATOM     39  C   UNL A   1      45.281  29.281  26.673  1.00  0.00     0.074 A 
ATOM     40  C   UNL A   1      46.926  27.475  26.308  1.00  0.00     0.049 A 
ATOM     41  N   UNL A   1      46.062  30.332  26.680  1.00  0.00    -0.248 NA
ATOM     42  C   UNL A   1      43.852  29.593  26.842  1.00  0.00     0.031 C 
ATOM     43  C   UNL A   1      47.403  26.108  26.088  1.00  0.00     0.029 A 
ATOM     44  N   UNL A   1      48.067  28.236  26.269  1.00  0.00    -0.354 N 
ATOM     45  C   UNL A   1      45.220  31.426  26.835  1.00  0.00     0.074 A 
ATOM     46  C   UNL A   1      43.866  30.917  26.870  1.00  0.00     0.031 C 
ATOM     47  C   UNL A   1      48.740  26.125  25.964  1.00  0.00     0.029 A 
ATOM     48  C   UNL A   1      49.210  27.504  26.056  1.00  0.00     0.049 A 
ATOM     49  H   UNL A   1      48.067  29.214  26.383  1.00  0.00     0.167 HD
ATOM     50  C   UNL A   1      45.545  32.736  26.956  1.00  0.00     0.031 A 
ATOM     51  C   UNL A   1      50.492  27.898  25.944  1.00  0.00     0.031 A 
ATOM     52  C   UNL A   1      46.891  33.241  26.931  1.00  0.00     0.049 A 
ATOM     53  C   UNL A   1      50.825  29.358  26.069  1.00  0.00     0.074 A 
ATOM     54  C   UNL A   1      47.327  34.544  27.104  1.00  0.00     0.029 A 
ATOM     55  N   UNL A   1      48.020  32.466  26.717  1.00  0.00    -0.354 N 
ATOM     56  N   UNL A   1      50.024  30.373  26.281  1.00  0.00    -0.248 NA
ATOM     57  C   UNL A   1      52.244  29.723  25.947  1.00  0.00     0.031 C 
ATOM     58  C   UNL A   1      48.716  34.563  26.944  1.00  0.00     0.029 A 
ATOM     59  C   UNL A   1      49.151  33.266  26.727  1.00  0.00     0.049 A 
ATOM     60  H   UNL A   1      48.019  31.491  26.578  1.00  0.00     0.167 HD
ATOM     61  C   UNL A   1      50.842  31.493  26.345  1.00  0.00     0.074 A 
ATOM     62  C   UNL A   1      52.203  31.030  26.163  1.00  0.00     0.031 C 
ATOM     63  C   UNL A   1      50.497  32.790  26.539  1.00  0.00     0.031 A 
BRANCH  50  64
ATOM     64  C   UNL A   1      44.414  33.715  27.115  1.00  0.00    -0.014 A 
ATOM     65  C   UNL A   1      43.886  34.017  28.380  1.00  0.00     0.009 A 
ATOM     66  C   UNL A   1      43.886  34.362  25.987  1.00  0.00     0.009 A 
ATOM     67  C   UNL A   1      42.823  34.915  28.508  1.00  0.00     0.001 A 
ATOM     68  C   UNL A   1      42.844  35.282  26.120  1.00  0.00     0.001 A 
ATOM     69  C   UNL A   1      42.307  35.549  27.379  1.00  0.00     0.000 A 
ENDBRANCH  50  64
BRANCH  51  70
ATOM     70  C   UNL A   1      51.560  26.890  25.720  1.00  0.00    -0.014 A 
ATOM     71  C   UNL A   1      52.121  26.199  26.804  1.00  0.00     0.009 A 
ATOM     72  C   UNL A   1      52.023  26.614  24.425  1.00  0.00     0.009 A 
ATOM     73  C   UNL A   1      53.139  25.265  26.598  1.00  0.00     0.001 A 
ATOM     74  C   UNL A   1      53.023  25.661  24.218  1.00  0.00     0.001 A 
ATOM     75  C   UNL A   1      53.585  24.994  25.305  1.00  0.00     0.000 A 
ENDBRANCH  51  70
BRANCH  63  76
ATOM     76  C   UNL A   1      51.612  33.795  26.592  1.00  0.00    -0.014 A 
ATOM     77  C   UNL A   1      52.221  34.145  27.808  1.00  0.00     0.009 A 
ATOM     78  C   UNL A   1      52.085  34.371  25.402  1.00  0.00     0.009 A 
ATOM     79  C   UNL A   1      53.261  35.077  27.832  1.00  0.00     0.001 A 
ATOM     80  C   UNL A   1      53.142  35.281  25.427  1.00  0.00     0.001 A 
ATOM     81  C   UNL A   1      53.723  35.640  26.642  1.00  0.00     0.000 A 
ENDBRANCH  63  76
ENDBRANCH  37  38
ENDBRANCH  29  32
ENDBRANCH  27  28
ENDBRANCH  26  27
ENDBRANCH  25  26
ENDBRANCH   1  25
TORSDOF 16
ENDMDL
MODEL 3
REMARK VINA RESULT:      -7.6      6.918     12.488
REMARK SMILES Cc1cc(C(=O)N2CCO[C@H](C)C2)sc1/C=C/C(=O)NCCCCCCNC(=O)c1ccc(-c2c3nc(c(-c4ccccc4)c4ccc([nH]4)c(-c4ccccc4)c4nc(c(-c5ccccc5)c5ccc2[nH]5)C=C4)C=C3)cc1
REMARK SMILES IDX 23 1 22 2 21 3 20 4 18 5 19 6 17 8 16 9 15 10 1 11 2 12 3 13
REMARK SMILES IDX 4 14 14 15 5 16 6 17 7 18 8 19 13 20 9 21 11 22 10 23 12 24
REMARK SMILES IDX 24 25 25 26 26 27 27 28 28 29 29 31 30 32 31 33 77 34 32 35
REMARK SMILES IDX 76 36 33 37 34 38 35 39 70 40 36 41 75 42 69 43 71 44 37 45
REMARK SMILES IDX 74 46 68 47 67 48 38 50 60 51 45 52 59 53 46 54 49 55 58 56
REMARK SMILES IDX 72 57 47 58 48 59 57 61 73 62 50 63 39 64 40 65 44 66 41 67
REMARK SMILES IDX 43 68 42 69 61 70 62 71 66 72 63 73 65 74 64 75 51 76 52 77
REMARK SMILES IDX 56 78 53 79 55 80 54 81
REMARK H PARENT 20 7 27 30 71 49 49 60
REMARK Flexibility Score: inf
ROOT
ATOM      1  C   UNL A   1      46.735  20.374  35.962  1.00  0.00     0.002 C 
ENDROOT
BRANCH   1   2
ATOM      2  C   UNL A   1      46.206  20.289  37.400  1.00  0.00     0.021 C 
BRANCH   2   3
ATOM      3  C   UNL A   1      46.094  18.855  37.915  1.00  0.00     0.116 C 
BRANCH   3   4
ATOM      4  N   UNL A   1      47.129  18.593  38.896  1.00  0.00    -0.353 N 
ATOM      5  C   UNL A   1      47.120  17.800  39.998  1.00  0.00     0.244 C 
ATOM      6  O   UNL A   1      48.138  17.675  40.672  1.00  0.00    -0.270 OA
ATOM      7  H   UNL A   1      47.976  19.068  38.738  1.00  0.00     0.163 HD
BRANCH   5   8
ATOM      8  C   UNL A   1      45.926  17.000  40.332  1.00  0.00     0.072 C 
ATOM      9  C   UNL A   1      45.264  17.069  41.498  1.00  0.00     0.025 C 
BRANCH   9  10
ATOM     10  C   UNL A   1      44.109  16.272  41.759  1.00  0.00     0.031 A 
ATOM     11  C   UNL A   1      43.002  16.205  39.434  1.00  0.00     0.046 C 
ATOM     12  C   UNL A   1      43.079  15.908  40.898  1.00  0.00    -0.032 A 
ATOM     13  C   UNL A   1      42.073  15.141  41.583  1.00  0.00     0.029 A 
ATOM     14  C   UNL A   1      42.367  14.897  42.912  1.00  0.00     0.093 A 
ATOM     15  S   UNL A   1      43.854  15.614  43.320  1.00  0.00    -0.130 S 
BRANCH  14  16
ATOM     16  C   UNL A   1      41.647  13.990  43.803  1.00  0.00     0.264 C 
ATOM     17  O   UNL A   1      40.552  14.314  44.267  1.00  0.00    -0.268 OA
BRANCH  16  18
ATOM     18  N   UNL A   1      42.138  12.712  44.049  1.00  0.00    -0.333 N 
ATOM     19  C   UNL A   1      41.483  11.570  43.421  1.00  0.00     0.148 C 
ATOM     20  C   UNL A   1      43.258  12.337  44.921  1.00  0.00     0.151 C 
ATOM     21  C   UNL A   1      42.538  10.748  42.670  1.00  0.00     0.182 C 
ATOM     22  C   UNL A   1      44.260  11.449  44.155  1.00  0.00     0.134 C 
ATOM     23  O   UNL A   1      43.585  10.319  43.562  1.00  0.00    -0.375 OA
ATOM     24  C   UNL A   1      45.336  10.908  45.084  1.00  0.00     0.040 C 
ENDBRANCH  16  18
ENDBRANCH  14  16
ENDBRANCH   9  10
ENDBRANCH   5   8
ENDBRANCH   3   4
ENDBRANCH   2   3
ENDBRANCH   1   2
BRANCH   1  25
ATOM     25  C   UNL A   1      45.811  21.106  34.980  1.00  0.00     0.002 C 
BRANCH  25  26
ATOM     26  C   UNL A   1      45.470  22.547  35.366  1.00  0.00     0.021 C 
BRANCH  26  27
ATOM     27  C   UNL A   1      46.548  23.565  35.009  1.00  0.00     0.116 C 
BRANCH  27  28
ATOM     28  N   UNL A   1      46.908  24.389  36.151  1.00  0.00    -0.352 N 
ATOM     29  C   UNL A   1      46.569  25.690  36.426  1.00  0.00     0.251 C 
ATOM     30  H   UNL A   1      47.477  23.951  36.824  1.00  0.00     0.163 HD
ATOM     31  O   UNL A   1      47.143  26.302  37.321  1.00  0.00    -0.269 OA
BRANCH  29  32
ATOM     32  C   UNL A   1      45.517  26.359  35.634  1.00  0.00     0.039 A 
ATOM     33  C   UNL A   1      44.224  25.831  35.645  1.00  0.00     0.014 A 
ATOM     34  C   UNL A   1      45.811  27.488  34.863  1.00  0.00     0.014 A 
ATOM     35  C   UNL A   1      43.212  26.467  34.923  1.00  0.00     0.010 A 
ATOM     36  C   UNL A   1      44.789  28.159  34.199  1.00  0.00     0.010 A 
ATOM     37  C   UNL A   1      43.481  27.651  34.216  1.00  0.00    -0.014 A 
BRANCH  37  38
ATOM     38  C   UNL A   1      42.409  28.370  33.485  1.00  0.00     0.031 A 
ATOM     39  C   UNL A   1      41.527  29.350  34.206  1.00  0.00     0.074 A 
ATOM     40  C   UNL A   1      42.191  28.095  32.185  1.00  0.00     0.049 A 
ATOM     41  N   UNL A   1      40.506  30.032  33.752  1.00  0.00    -0.248 NA
ATOM     42  C   UNL A   1      41.813  29.574  35.633  1.00  0.00     0.031 C 
ATOM     43  C   UNL A   1      42.954  27.138  31.380  1.00  0.00     0.029 A 
ATOM     44  N   UNL A   1      41.257  28.592  31.313  1.00  0.00    -0.354 N 
ATOM     45  C   UNL A   1      40.019  30.750  34.837  1.00  0.00     0.074 A 
ATOM     46  C   UNL A   1      40.825  30.385  35.982  1.00  0.00     0.031 C 
ATOM     47  C   UNL A   1      42.473  27.139  30.127  1.00  0.00     0.029 A 
ATOM     48  C   UNL A   1      41.347  28.063  30.048  1.00  0.00     0.049 A 
ATOM     49  H   UNL A   1      40.584  29.264  31.569  1.00  0.00     0.167 HD
ATOM     50  C   UNL A   1      39.005  31.647  34.874  1.00  0.00     0.031 A 
ATOM     51  C   UNL A   1      40.604  28.294  28.950  1.00  0.00     0.031 A 
ATOM     52  C   UNL A   1      38.210  32.017  33.734  1.00  0.00     0.049 A 
ATOM     53  C   UNL A   1      39.476  29.284  29.019  1.00  0.00     0.074 A 
ATOM     54  C   UNL A   1      37.198  32.960  33.656  1.00  0.00     0.029 A 
ATOM     55  N   UNL A   1      38.337  31.462  32.470  1.00  0.00    -0.354 N 
ATOM     56  N   UNL A   1      39.071  30.003  30.037  1.00  0.00    -0.248 NA
ATOM     57  C   UNL A   1      38.710  29.498  27.784  1.00  0.00     0.031 C 
ATOM     58  C   UNL A   1      36.680  32.936  32.358  1.00  0.00     0.029 A 
ATOM     59  C   UNL A   1      37.404  32.020  31.613  1.00  0.00     0.049 A 
ATOM     60  H   UNL A   1      38.993  30.771  32.220  1.00  0.00     0.167 HD
ATOM     61  C   UNL A   1      38.019  30.775  29.559  1.00  0.00     0.074 A 
ATOM     62  C   UNL A   1      37.861  30.445  28.157  1.00  0.00     0.031 C 
ATOM     63  C   UNL A   1      37.256  31.678  30.222  1.00  0.00     0.031 A 
BRANCH  50  64
ATOM     64  C   UNL A   1      38.693  32.280  36.202  1.00  0.00    -0.014 A 
ATOM     65  C   UNL A   1      39.237  33.524  36.561  1.00  0.00     0.009 A 
ATOM     66  C   UNL A   1      37.824  31.636  37.096  1.00  0.00     0.009 A 
ATOM     67  C   UNL A   1      38.951  34.089  37.806  1.00  0.00     0.001 A 
ATOM     68  C   UNL A   1      37.515  32.217  38.328  1.00  0.00     0.001 A 
ATOM     69  C   UNL A   1      38.087  33.437  38.686  1.00  0.00     0.000 A 
ENDBRANCH  50  64
BRANCH  51  70
ATOM     70  C   UNL A   1      40.919  27.587  27.681  1.00  0.00    -0.014 A 
ATOM     71  C   UNL A   1      40.348  26.337  27.405  1.00  0.00     0.009 A 
ATOM     72  C   UNL A   1      41.790  28.160  26.741  1.00  0.00     0.009 A 
ATOM     73  C   UNL A   1      40.658  25.663  26.221  1.00  0.00     0.001 A 
ATOM     74  C   UNL A   1      42.078  27.496  25.547  1.00  0.00     0.001 A 
ATOM     75  C   UNL A   1      41.519  26.245  25.292  1.00  0.00     0.000 A 
ENDBRANCH  51  70
BRANCH  63  76
ATOM     76  C   UNL A   1      36.198  32.393  29.430  1.00  0.00    -0.014 A 
ATOM     77  C   UNL A   1      35.066  31.717  28.949  1.00  0.00     0.009 A 
ATOM     78  C   UNL A   1      36.320  33.772  29.195  1.00  0.00     0.009 A 
ATOM     79  C   UNL A   1      34.092  32.403  28.221  1.00  0.00     0.001 A 
ATOM     80  C   UNL A   1      35.332  34.460  28.491  1.00  0.00     0.001 A 
ATOM     81  C   UNL A   1      34.224  33.774  27.997  1.00  0.00     0.000 A 
ENDBRANCH  63  76
ENDBRANCH  37  38
ENDBRANCH  29  32
ENDBRANCH  27  28
ENDBRANCH  26  27
ENDBRANCH  25  26
ENDBRANCH   1  25
TORSDOF 16
ENDMDL
