MODEL 1
REMARK VINA RESULT:     -11.2      0.000      0.000
REMARK SMILES C[C@H](Oc1ccc(/C=N/c2ccc(Cl)cc2Cl)cc1)C(=O)NCCCCCCNC(=O)c1ccc(-c2c3nc(c(-c4ccccc4)c4ccc([nH]4)c(-c4ccccc4)c4nc(c(-c5ccccc5)c5ccc2[nH]5)C=C4)C=C3)cc1
REMARK SMILES IDX 24 1 23 2 22 3 20 4 21 5 2 7 1 8 3 9 4 10 5 11 19 12 6 13
REMARK SMILES IDX 18 14 7 15 8 16 9 17 10 18 11 19 16 20 12 21 15 22 17 23
REMARK SMILES IDX 13 24 14 25 25 26 26 27 27 28 28 29 29 30 30 31 31 33 32 34
REMARK SMILES IDX 33 35 79 36 34 37 78 38 35 39 36 40 37 41 72 42 38 43 77 44
REMARK SMILES IDX 71 45 73 46 39 47 76 48 70 49 69 50 40 52 62 53 47 54 61 55
REMARK SMILES IDX 48 56 51 57 60 58 74 59 49 60 50 61 59 63 75 64 52 65 41 66
REMARK SMILES IDX 42 67 46 68 43 69 45 70 44 71 63 72 64 73 68 74 65 75 67 76
REMARK SMILES IDX 66 77 53 78 54 79 58 80 55 81 57 82 56 83
REMARK H PARENT 22 6 29 32 73 51 51 62
REMARK Flexibility Score: inf
ROOT
ATOM      1  C   UNL A   1      33.488  28.404  23.017  1.00  0.00     0.021 C 
ENDROOT
BRANCH   1   2
ATOM      2  C   UNL A   1      32.115  28.561  22.371  1.00  0.00     0.116 C 
BRANCH   2   3
ATOM      3  N   UNL A   1      31.331  29.595  23.026  1.00  0.00    -0.353 N 
ATOM      4  C   UNL A   1      30.012  29.573  23.396  1.00  0.00     0.260 C 
ATOM      5  O   UNL A   1      29.536  30.579  23.929  1.00  0.00    -0.271 OA
ATOM      6  H   UNL A   1      31.816  30.427  23.233  1.00  0.00     0.163 HD
BRANCH   4   7
ATOM      7  C   UNL A   1      29.186  28.289  23.218  1.00  0.00     0.258 C 
ATOM      8  C   UNL A   1      27.734  28.715  22.965  1.00  0.00     0.064 C 
BRANCH   7   9
ATOM      9  O   UNL A   1      29.472  27.503  24.381  1.00  0.00    -0.481 OA
BRANCH   9  10
ATOM     10  C   UNL A   1      30.073  26.287  24.321  1.00  0.00     0.120 A 
ATOM     11  C   UNL A   1      30.396  25.581  23.169  1.00  0.00     0.047 A 
ATOM     12  C   UNL A   1      30.338  25.713  25.573  1.00  0.00     0.047 A 
ATOM     13  C   UNL A   1      30.871  24.272  23.264  1.00  0.00     0.013 A 
ATOM     14  C   UNL A   1      30.858  24.420  25.678  1.00  0.00     0.013 A 
ATOM     15  C   UNL A   1      31.091  23.690  24.516  1.00  0.00    -0.007 A 
BRANCH  15  16
ATOM     16  C   UNL A   1      31.575  22.298  24.596  1.00  0.00     0.119 C 
ATOM     17  N   UNL A   1      32.478  21.882  23.770  1.00  0.00    -0.255 NA
BRANCH  17  18
ATOM     18  C   UNL A   1      32.973  20.572  23.877  1.00  0.00     0.082 A 
ATOM     19  C   UNL A   1      32.241  19.592  23.192  1.00  0.00     0.031 A 
ATOM     20  C   UNL A   1      34.053  20.162  24.680  1.00  0.00     0.068 A 
ATOM     21  C   UNL A   1      32.584  18.242  23.278  1.00  0.00     0.023 A 
ATOM     22  C   UNL A   1      34.408  18.811  24.759  1.00  0.00     0.043 A 
ATOM     23  Cl  UNL A   1      34.969  21.280  25.631  1.00  0.00    -0.082 Cl
ATOM     24  C   UNL A   1      33.669  17.859  24.059  1.00  0.00     0.042 A 
ATOM     25  Cl  UNL A   1      34.087  16.194  24.175  1.00  0.00    -0.084 Cl
ENDBRANCH  17  18
ENDBRANCH  15  16
ENDBRANCH   9  10
ENDBRANCH   7   9
ENDBRANCH   4   7
ENDBRANCH   2   3
ENDBRANCH   1   2
BRANCH   1  26
ATOM     26  C   UNL A   1      33.692  27.061  23.723  1.00  0.00     0.002 C 
BRANCH  26  27
ATOM     27  C   UNL A   1      33.664  27.123  25.254  1.00  0.00     0.002 C 
BRANCH  27  28
ATOM     28  C   UNL A   1      33.274  28.480  25.844  1.00  0.00     0.021 C 
BRANCH  28  29
ATOM     29  C   UNL A   1      33.626  28.659  27.317  1.00  0.00     0.116 C 
BRANCH  29  30
ATOM     30  N   UNL A   1      33.624  30.057  27.719  1.00  0.00    -0.352 N 
ATOM     31  C   UNL A   1      34.601  30.781  28.349  1.00  0.00     0.251 C 
ATOM     32  H   UNL A   1      32.801  30.554  27.506  1.00  0.00     0.163 HD
ATOM     33  O   UNL A   1      34.359  31.910  28.774  1.00  0.00    -0.269 OA
BRANCH  31  34
ATOM     34  C   UNL A   1      35.945  30.199  28.540  1.00  0.00     0.039 A 
ATOM     35  C   UNL A   1      36.840  30.201  27.467  1.00  0.00     0.014 A 
ATOM     36  C   UNL A   1      36.322  29.649  29.769  1.00  0.00     0.014 A 
ATOM     37  C   UNL A   1      38.133  29.707  27.644  1.00  0.00     0.010 A 
ATOM     38  C   UNL A   1      37.632  29.224  29.964  1.00  0.00     0.010 A 
ATOM     39  C   UNL A   1      38.550  29.246  28.903  1.00  0.00    -0.014 A 
BRANCH  39  40
ATOM     40  C   UNL A   1      39.944  28.786  29.129  1.00  0.00     0.031 A 
ATOM     41  C   UNL A   1      40.961  29.713  29.736  1.00  0.00     0.074 A 
ATOM     42  C   UNL A   1      40.311  27.552  28.730  1.00  0.00     0.049 A 
ATOM     43  N   UNL A   1      42.234  29.509  29.961  1.00  0.00    -0.248 NA
ATOM     44  C   UNL A   1      40.492  31.055  30.119  1.00  0.00     0.031 C 
ATOM     45  C   UNL A   1      39.431  26.570  28.093  1.00  0.00     0.029 A 
ATOM     46  N   UNL A   1      41.526  26.916  28.796  1.00  0.00    -0.354 N 
ATOM     47  C   UNL A   1      42.720  30.698  30.491  1.00  0.00     0.074 A 
ATOM     48  C   UNL A   1      41.618  31.634  30.511  1.00  0.00     0.031 C 
ATOM     49  C   UNL A   1      40.127  25.448  27.852  1.00  0.00     0.029 A 
ATOM     50  C   UNL A   1      41.510  25.644  28.276  1.00  0.00     0.049 A 
ATOM     51  H   UNL A   1      42.332  27.331  29.179  1.00  0.00     0.167 HD
ATOM     52  C   UNL A   1      43.967  30.979  30.940  1.00  0.00     0.031 A 
ATOM     53  C   UNL A   1      42.499  24.740  28.146  1.00  0.00     0.031 A 
ATOM     54  C   UNL A   1      45.060  30.045  30.930  1.00  0.00     0.049 A 
ATOM     55  C   UNL A   1      43.879  25.086  28.635  1.00  0.00     0.074 A 
ATOM     56  C   UNL A   1      46.344  30.217  31.419  1.00  0.00     0.029 A 
ATOM     57  N   UNL A   1      45.002  28.766  30.398  1.00  0.00    -0.354 N 
ATOM     58  N   UNL A   1      44.302  26.187  29.205  1.00  0.00    -0.248 NA
ATOM     59  C   UNL A   1      44.914  24.056  28.470  1.00  0.00     0.031 C 
ATOM     60  C   UNL A   1      47.079  29.063  31.131  1.00  0.00     0.029 A 
ATOM     61  C   UNL A   1      46.236  28.149  30.521  1.00  0.00     0.049 A 
ATOM     62  H   UNL A   1      44.202  28.358  29.994  1.00  0.00     0.167 HD
ATOM     63  C   UNL A   1      45.643  25.972  29.495  1.00  0.00     0.074 A 
ATOM     64  C   UNL A   1      45.958  24.630  29.052  1.00  0.00     0.031 C 
ATOM     65  C   UNL A   1      46.534  26.812  30.076  1.00  0.00     0.031 A 
BRANCH  52  66
ATOM     66  C   UNL A   1      44.218  32.364  31.469  1.00  0.00    -0.014 A 
ATOM     67  C   UNL A   1      44.128  32.650  32.841  1.00  0.00     0.009 A 
ATOM     68  C   UNL A   1      44.592  33.391  30.586  1.00  0.00     0.009 A 
ATOM     69  C   UNL A   1      44.368  33.942  33.312  1.00  0.00     0.001 A 
ATOM     70  C   UNL A   1      44.862  34.674  31.065  1.00  0.00     0.001 A 
ATOM     71  C   UNL A   1      44.742  34.951  32.425  1.00  0.00     0.000 A 
ENDBRANCH  52  66
BRANCH  53  72
ATOM     72  C   UNL A   1      42.223  23.413  27.535  1.00  0.00    -0.014 A 
ATOM     73  C   UNL A   1      41.662  22.379  28.299  1.00  0.00     0.009 A 
ATOM     74  C   UNL A   1      42.535  23.168  26.189  1.00  0.00     0.009 A 
ATOM     75  C   UNL A   1      41.448  21.118  27.737  1.00  0.00     0.001 A 
ATOM     76  C   UNL A   1      42.290  21.916  25.620  1.00  0.00     0.001 A 
ATOM     77  C   UNL A   1      41.758  20.890  26.398  1.00  0.00     0.000 A 
ENDBRANCH  53  72
BRANCH  65  78
ATOM     78  C   UNL A   1      47.926  26.288  30.304  1.00  0.00    -0.014 A 
ATOM     79  C   UNL A   1      48.313  25.752  31.542  1.00  0.00     0.009 A 
ATOM     80  C   UNL A   1      48.850  26.295  29.247  1.00  0.00     0.009 A 
ATOM     81  C   UNL A   1      49.609  25.267  31.726  1.00  0.00     0.001 A 
ATOM     82  C   UNL A   1      50.134  25.780  29.425  1.00  0.00     0.001 A 
ATOM     83  C   UNL A   1      50.516  25.276  30.667  1.00  0.00     0.000 A 
ENDBRANCH  65  78
ENDBRANCH  39  40
ENDBRANCH  31  34
ENDBRANCH  29  30
ENDBRANCH  28  29
ENDBRANCH  27  28
ENDBRANCH  26  27
ENDBRANCH   1  26
TORSDOF 17
ENDMDL
MODEL 2
REMARK VINA RESULT:     -10.2      3.312      7.146
REMARK SMILES C[C@H](Oc1ccc(/C=N/c2ccc(Cl)cc2Cl)cc1)C(=O)NCCCCCCNC(=O)c1ccc(-c2c3nc(c(-c4ccccc4)c4ccc([nH]4)c(-c4ccccc4)c4nc(c(-c5ccccc5)c5ccc2[nH]5)C=C4)C=C3)cc1
REMARK SMILES IDX 24 1 23 2 22 3 20 4 21 5 2 7 1 8 3 9 4 10 5 11 19 12 6 13
REMARK SMILES IDX 18 14 7 15 8 16 9 17 10 18 11 19 16 20 12 21 15 22 17 23
REMARK SMILES IDX 13 24 14 25 25 26 26 27 27 28 28 29 29 30 30 31 31 33 32 34
REMARK SMILES IDX 33 35 79 36 34 37 78 38 35 39 36 40 37 41 72 42 38 43 77 44
REMARK SMILES IDX 71 45 73 46 39 47 76 48 70 49 69 50 40 52 62 53 47 54 61 55
REMARK SMILES IDX 48 56 51 57 60 58 74 59 49 60 50 61 59 63 75 64 52 65 41 66
REMARK SMILES IDX 42 67 46 68 43 69 45 70 44 71 63 72 64 73 68 74 65 75 67 76
REMARK SMILES IDX 66 77 53 78 54 79 58 80 55 81 57 82 56 83
REMARK H PARENT 22 6 29 32 73 51 51 62
REMARK Flexibility Score: inf
ROOT
ATOM      1  C   UNL A   1      33.310  29.064  24.383  1.00  0.00     0.021 C 
ENDROOT
BRANCH   1   2
ATOM      2  C   UNL A   1      32.299  28.821  23.266  1.00  0.00     0.116 C 
BRANCH   2   3
ATOM      3  N   UNL A   1      31.222  29.795  23.300  1.00  0.00    -0.353 N 
ATOM      4  C   UNL A   1      29.867  29.584  23.288  1.00  0.00     0.260 C 
ATOM      5  O   UNL A   1      29.122  30.568  23.303  1.00  0.00    -0.271 OA
ATOM      6  H   UNL A   1      31.504  30.738  23.336  1.00  0.00     0.163 HD
BRANCH   4   7
ATOM      7  C   UNL A   1      29.313  28.152  23.340  1.00  0.00     0.258 C 
ATOM      8  C   UNL A   1      27.792  28.248  23.162  1.00  0.00     0.064 C 
BRANCH   7   9
ATOM      9  O   UNL A   1      29.823  27.603  24.561  1.00  0.00    -0.481 OA
BRANCH   9  10
ATOM     10  C   UNL A   1      30.130  26.289  24.709  1.00  0.00     0.120 A 
ATOM     11  C   UNL A   1      30.338  25.619  25.908  1.00  0.00     0.047 A 
ATOM     12  C   UNL A   1      30.280  25.592  23.500  1.00  0.00     0.047 A 
ATOM     13  C   UNL A   1      30.800  24.302  25.899  1.00  0.00     0.013 A 
ATOM     14  C   UNL A   1      30.698  24.259  23.483  1.00  0.00     0.013 A 
ATOM     15  C   UNL A   1      30.990  23.628  24.689  1.00  0.00    -0.007 A 
BRANCH  15  16
ATOM     16  C   UNL A   1      31.499  22.243  24.701  1.00  0.00     0.119 C 
ATOM     17  N   UNL A   1      32.285  21.838  23.758  1.00  0.00    -0.255 NA
BRANCH  17  18
ATOM     18  C   UNL A   1      32.808  20.535  23.795  1.00  0.00     0.082 A 
ATOM     19  C   UNL A   1      32.169  19.604  22.964  1.00  0.00     0.031 A 
ATOM     20  C   UNL A   1      33.825  20.079  24.654  1.00  0.00     0.068 A 
ATOM     21  C   UNL A   1      32.543  18.260  22.963  1.00  0.00     0.023 A 
ATOM     22  C   UNL A   1      34.211  18.734  24.647  1.00  0.00     0.043 A 
ATOM     23  Cl  UNL A   1      34.619  21.127  25.778  1.00  0.00    -0.082 Cl
ATOM     24  C   UNL A   1      33.567  17.833  23.803  1.00  0.00     0.042 A 
ATOM     25  Cl  UNL A   1      34.022  16.174  23.811  1.00  0.00    -0.084 Cl
ENDBRANCH  17  18
ENDBRANCH  15  16
ENDBRANCH   9  10
ENDBRANCH   7   9
ENDBRANCH   4   7
ENDBRANCH   2   3
ENDBRANCH   1   2
BRANCH   1  26
ATOM     26  C   UNL A   1      33.140  28.135  25.588  1.00  0.00     0.002 C 
BRANCH  26  27
ATOM     27  C   UNL A   1      32.728  28.831  26.889  1.00  0.00     0.002 C 
BRANCH  27  28
ATOM     28  C   UNL A   1      32.448  30.331  26.766  1.00  0.00     0.021 C 
BRANCH  28  29
ATOM     29  C   UNL A   1      33.505  31.230  27.399  1.00  0.00     0.116 C 
BRANCH  29  30
ATOM     30  N   UNL A   1      33.037  32.597  27.564  1.00  0.00    -0.352 N 
ATOM     31  C   UNL A   1      33.471  33.565  28.433  1.00  0.00     0.251 C 
ATOM     32  H   UNL A   1      32.304  32.866  26.965  1.00  0.00     0.163 HD
ATOM     33  O   UNL A   1      32.838  34.613  28.557  1.00  0.00    -0.269 OA
BRANCH  31  34
ATOM     34  C   UNL A   1      34.688  33.342  29.238  1.00  0.00     0.039 A 
ATOM     35  C   UNL A   1      34.637  32.440  30.304  1.00  0.00     0.014 A 
ATOM     36  C   UNL A   1      35.875  34.021  28.947  1.00  0.00     0.014 A 
ATOM     37  C   UNL A   1      35.792  32.174  31.041  1.00  0.00     0.010 A 
ATOM     38  C   UNL A   1      37.042  33.701  29.635  1.00  0.00     0.010 A 
ATOM     39  C   UNL A   1      37.012  32.777  30.691  1.00  0.00    -0.014 A 
BRANCH  39  40
ATOM     40  C   UNL A   1      38.265  32.449  31.416  1.00  0.00     0.031 A 
ATOM     41  C   UNL A   1      39.239  31.457  30.840  1.00  0.00     0.074 A 
ATOM     42  C   UNL A   1      38.499  32.998  32.624  1.00  0.00     0.049 A 
ATOM     43  N   UNL A   1      40.357  31.006  31.350  1.00  0.00    -0.248 NA
ATOM     44  C   UNL A   1      38.900  30.877  29.530  1.00  0.00     0.031 C 
ATOM     45  C   UNL A   1      37.616  33.943  33.311  1.00  0.00     0.029 A 
ATOM     46  N   UNL A   1      39.549  32.833  33.493  1.00  0.00    -0.354 N 
ATOM     47  C   UNL A   1      40.843  30.080  30.436  1.00  0.00     0.074 A 
ATOM     48  C   UNL A   1      39.876  29.997  29.363  1.00  0.00     0.031 C 
ATOM     49  C   UNL A   1      38.174  34.295  34.480  1.00  0.00     0.029 A 
ATOM     50  C   UNL A   1      39.429  33.570  34.647  1.00  0.00     0.049 A 
ATOM     51  H   UNL A   1      40.315  32.243  33.307  1.00  0.00     0.167 HD
ATOM     52  C   UNL A   1      41.999  29.375  30.476  1.00  0.00     0.031 A 
ATOM     53  C   UNL A   1      40.235  33.646  35.723  1.00  0.00     0.031 A 
ATOM     54  C   UNL A   1      42.965  29.465  31.537  1.00  0.00     0.049 A 
ATOM     55  C   UNL A   1      41.503  32.838  35.750  1.00  0.00     0.074 A 
ATOM     56  C   UNL A   1      44.195  28.838  31.638  1.00  0.00     0.029 A 
ATOM     57  N   UNL A   1      42.808  30.226  32.686  1.00  0.00    -0.354 N 
ATOM     58  N   UNL A   1      41.985  32.026  34.841  1.00  0.00    -0.248 NA
ATOM     59  C   UNL A   1      42.343  32.968  36.949  1.00  0.00     0.031 C 
ATOM     60  C   UNL A   1      44.757  29.173  32.874  1.00  0.00     0.029 A 
ATOM     61  C   UNL A   1      43.906  30.059  33.514  1.00  0.00     0.049 A 
ATOM     62  H   UNL A   1      42.032  30.798  32.883  1.00  0.00     0.167 HD
ATOM     63  C   UNL A   1      43.197  31.572  35.344  1.00  0.00     0.074 A 
ATOM     64  C   UNL A   1      43.384  32.212  36.630  1.00  0.00     0.031 C 
ATOM     65  C   UNL A   1      44.078  30.703  34.791  1.00  0.00     0.031 A 
BRANCH  52  66
ATOM     66  C   UNL A   1      42.276  28.431  29.338  1.00  0.00    -0.014 A 
ATOM     67  C   UNL A   1      41.786  27.116  29.344  1.00  0.00     0.009 A 
ATOM     68  C   UNL A   1      43.005  28.879  28.223  1.00  0.00     0.009 A 
ATOM     69  C   UNL A   1      42.052  26.257  28.275  1.00  0.00     0.001 A 
ATOM     70  C   UNL A   1      43.242  28.027  27.143  1.00  0.00     0.001 A 
ATOM     71  C   UNL A   1      42.773  26.714  27.174  1.00  0.00     0.000 A 
ENDBRANCH  52  66
BRANCH  53  72
ATOM     72  C   UNL A   1      39.875  34.528  36.865  1.00  0.00    -0.014 A 
ATOM     73  C   UNL A   1      40.263  35.876  36.874  1.00  0.00     0.009 A 
ATOM     74  C   UNL A   1      39.156  34.022  37.958  1.00  0.00     0.009 A 
ATOM     75  C   UNL A   1      39.967  36.692  37.969  1.00  0.00     0.001 A 
ATOM     76  C   UNL A   1      38.833  34.848  39.038  1.00  0.00     0.001 A 
ATOM     77  C   UNL A   1      39.248  36.178  39.047  1.00  0.00     0.000 A 
ENDBRANCH  53  72
BRANCH  65  78
ATOM     78  C   UNL A   1      45.343  30.425  35.555  1.00  0.00    -0.014 A 
ATOM     79  C   UNL A   1      46.488  31.220  35.391  1.00  0.00     0.009 A 
ATOM     80  C   UNL A   1      45.372  29.373  36.485  1.00  0.00     0.009 A 
ATOM     81  C   UNL A   1      47.648  30.944  36.117  1.00  0.00     0.001 A 
ATOM     82  C   UNL A   1      46.524  29.120  37.233  1.00  0.00     0.001 A 
ATOM     83  C   UNL A   1      47.664  29.898  37.040  1.00  0.00     0.000 A 
ENDBRANCH  65  78
ENDBRANCH  39  40
ENDBRANCH  31  34
ENDBRANCH  29  30
ENDBRANCH  28  29
ENDBRANCH  27  28
ENDBRANCH  26  27
ENDBRANCH   1  26
TORSDOF 17
ENDMDL
MODEL 3
REMARK VINA RESULT:     -10.2      5.001      8.908
REMARK SMILES C[C@H](Oc1ccc(/C=N/c2ccc(Cl)cc2Cl)cc1)C(=O)NCCCCCCNC(=O)c1ccc(-c2c3nc(c(-c4ccccc4)c4ccc([nH]4)c(-c4ccccc4)c4nc(c(-c5ccccc5)c5ccc2[nH]5)C=C4)C=C3)cc1
REMARK SMILES IDX 24 1 23 2 22 3 20 4 21 5 2 7 1 8 3 9 4 10 5 11 19 12 6 13
REMARK SMILES IDX 18 14 7 15 8 16 9 17 10 18 11 19 16 20 12 21 15 22 17 23
REMARK SMILES IDX 13 24 14 25 25 26 26 27 27 28 28 29 29 30 30 31 31 33 32 34
REMARK SMILES IDX 33 35 79 36 34 37 78 38 35 39 36 40 37 41 72 42 38 43 77 44
REMARK SMILES IDX 71 45 73 46 39 47 76 48 70 49 69 50 40 52 62 53 47 54 61 55
REMARK SMILES IDX 48 56 51 57 60 58 74 59 49 60 50 61 59 63 75 64 52 65 41 66
REMARK SMILES IDX 42 67 46 68 43 69 45 70 44 71 63 72 64 73 68 74 65 75 67 76
REMARK SMILES IDX 66 77 53 78 54 79 58 80 55 81 57 82 56 83
REMARK H PARENT 22 6 29 32 73 51 51 62
REMARK Flexibility Score: inf
ROOT
ATOM      1  C   UNL A   1      36.240  33.651  32.265  1.00  0.00     0.021 C 
ENDROOT
BRANCH   1   2
ATOM      2  C   UNL A   1      36.634  33.592  33.738  1.00  0.00     0.116 C 
BRANCH   2   3
ATOM      3  N   UNL A   1      37.652  34.579  34.058  1.00  0.00    -0.353 N 
ATOM      4  C   UNL A   1      38.522  34.609  35.117  1.00  0.00     0.260 C 
ATOM      5  O   UNL A   1      39.300  35.562  35.208  1.00  0.00    -0.271 OA
ATOM      6  H   UNL A   1      37.728  35.330  33.426  1.00  0.00     0.163 HD
BRANCH   4   7
ATOM      7  C   UNL A   1      38.566  33.434  36.107  1.00  0.00     0.258 C 
ATOM      8  C   UNL A   1      37.698  33.824  37.311  1.00  0.00     0.064 C 
BRANCH   7   9
ATOM      9  O   UNL A   1      39.959  33.187  36.324  1.00  0.00    -0.481 OA
BRANCH   9  10
ATOM     10  C   UNL A   1      40.553  32.000  36.036  1.00  0.00     0.120 A 
ATOM     11  C   UNL A   1      40.112  31.058  35.115  1.00  0.00     0.047 A 
ATOM     12  C   UNL A   1      41.697  31.727  36.800  1.00  0.00     0.047 A 
ATOM     13  C   UNL A   1      40.738  29.813  35.037  1.00  0.00     0.013 A 
ATOM     14  C   UNL A   1      42.359  30.501  36.695  1.00  0.00     0.013 A 
ATOM     15  C   UNL A   1      41.853  29.532  35.834  1.00  0.00    -0.007 A 
BRANCH  15  16
ATOM     16  C   UNL A   1      42.488  28.203  35.751  1.00  0.00     0.119 C 
ATOM     17  N   UNL A   1      42.094  27.354  34.859  1.00  0.00    -0.255 NA
BRANCH  17  18
ATOM     18  C   UNL A   1      42.732  26.108  34.750  1.00  0.00     0.082 A 
ATOM     19  C   UNL A   1      43.762  26.038  33.803  1.00  0.00     0.031 A 
ATOM     20  C   UNL A   1      42.359  24.930  35.423  1.00  0.00     0.068 A 
ATOM     21  C   UNL A   1      44.426  24.838  33.544  1.00  0.00     0.023 A 
ATOM     22  C   UNL A   1      43.030  23.727  35.175  1.00  0.00     0.043 A 
ATOM     23  Cl  UNL A   1      41.046  24.889  36.549  1.00  0.00    -0.082 Cl
ATOM     24  C   UNL A   1      44.058  23.688  34.236  1.00  0.00     0.042 A 
ATOM     25  Cl  UNL A   1      44.867  22.206  33.910  1.00  0.00    -0.084 Cl
ENDBRANCH  17  18
ENDBRANCH  15  16
ENDBRANCH   9  10
ENDBRANCH   7   9
ENDBRANCH   4   7
ENDBRANCH   2   3
ENDBRANCH   1   2
BRANCH   1  26
ATOM     26  C   UNL A   1      37.341  33.188  31.308  1.00  0.00     0.002 C 
BRANCH  26  27
ATOM     27  C   UNL A   1      37.111  33.542  29.835  1.00  0.00     0.002 C 
BRANCH  27  28
ATOM     28  C   UNL A   1      35.645  33.697  29.424  1.00  0.00     0.021 C 
BRANCH  28  29
ATOM     29  C   UNL A   1      35.340  33.290  27.986  1.00  0.00     0.116 C 
BRANCH  29  30
ATOM     30  N   UNL A   1      34.323  32.253  27.911  1.00  0.00    -0.352 N 
ATOM     31  C   UNL A   1      34.467  30.891  27.942  1.00  0.00     0.251 C 
ATOM     32  H   UNL A   1      33.397  32.578  27.826  1.00  0.00     0.163 HD
ATOM     33  O   UNL A   1      33.510  30.161  27.686  1.00  0.00    -0.269 OA
BRANCH  31  34
ATOM     34  C   UNL A   1      35.780  30.294  28.263  1.00  0.00     0.039 A 
ATOM     35  C   UNL A   1      36.788  30.322  27.296  1.00  0.00     0.014 A 
ATOM     36  C   UNL A   1      36.016  29.708  29.510  1.00  0.00     0.014 A 
ATOM     37  C   UNL A   1      38.052  29.815  27.601  1.00  0.00     0.010 A 
ATOM     38  C   UNL A   1      37.296  29.269  29.836  1.00  0.00     0.010 A 
ATOM     39  C   UNL A   1      38.326  29.315  28.884  1.00  0.00    -0.014 A 
BRANCH  39  40
ATOM     40  C   UNL A   1      39.685  28.840  29.249  1.00  0.00     0.031 A 
ATOM     41  C   UNL A   1      40.620  29.732  30.018  1.00  0.00     0.074 A 
ATOM     42  C   UNL A   1      40.100  27.627  28.834  1.00  0.00     0.049 A 
ATOM     43  N   UNL A   1      41.859  29.513  30.382  1.00  0.00    -0.248 NA
ATOM     44  C   UNL A   1      40.105  31.054  30.411  1.00  0.00     0.031 C 
ATOM     45  C   UNL A   1      39.304  26.681  28.048  1.00  0.00     0.029 A 
ATOM     46  N   UNL A   1      41.300  26.984  29.011  1.00  0.00    -0.354 N 
ATOM     47  C   UNL A   1      42.275  30.671  31.025  1.00  0.00     0.074 A 
ATOM     48  C   UNL A   1      41.175  31.609  30.962  1.00  0.00     0.031 C 
ATOM     49  C   UNL A   1      40.027  25.570  27.835  1.00  0.00     0.029 A 
ATOM     50  C   UNL A   1      41.349  25.741  28.428  1.00  0.00     0.049 A 
ATOM     51  H   UNL A   1      42.054  27.378  29.507  1.00  0.00     0.167 HD
ATOM     52  C   UNL A   1      43.459  30.926  31.631  1.00  0.00     0.031 A 
ATOM     53  C   UNL A   1      42.349  24.841  28.370  1.00  0.00     0.031 A 
ATOM     54  C   UNL A   1      44.549  29.990  31.703  1.00  0.00     0.049 A 
ATOM     55  C   UNL A   1      43.661  25.158  29.036  1.00  0.00     0.074 A 
ATOM     56  C   UNL A   1      45.765  30.133  32.348  1.00  0.00     0.029 A 
ATOM     57  N   UNL A   1      44.557  28.740  31.104  1.00  0.00    -0.354 N 
ATOM     58  N   UNL A   1      44.010  26.228  29.707  1.00  0.00    -0.248 NA
ATOM     59  C   UNL A   1      44.712  24.135  28.942  1.00  0.00     0.031 C 
ATOM     60  C   UNL A   1      46.533  28.993  32.091  1.00  0.00     0.029 A 
ATOM     61  C   UNL A   1      45.770  28.114  31.340  1.00  0.00     0.049 A 
ATOM     62  H   UNL A   1      43.812  28.355  30.588  1.00  0.00     0.167 HD
ATOM     63  C   UNL A   1      45.309  25.994  30.141  1.00  0.00     0.074 A 
ATOM     64  C   UNL A   1      45.678  24.674  29.671  1.00  0.00     0.031 C 
ATOM     65  C   UNL A   1      46.123  26.800  30.866  1.00  0.00     0.031 A 
BRANCH  52  66
ATOM     66  C   UNL A   1      43.642  32.281  32.257  1.00  0.00    -0.014 A 
ATOM     67  C   UNL A   1      44.150  33.363  31.521  1.00  0.00     0.009 A 
ATOM     68  C   UNL A   1      43.259  32.490  33.592  1.00  0.00     0.009 A 
ATOM     69  C   UNL A   1      44.308  34.615  32.119  1.00  0.00     0.001 A 
ATOM     70  C   UNL A   1      43.389  33.751  34.179  1.00  0.00     0.001 A 
ATOM     71  C   UNL A   1      43.922  34.809  33.445  1.00  0.00     0.000 A 
ENDBRANCH  52  66
BRANCH  53  72
ATOM     72  C   UNL A   1      42.152  23.548  27.665  1.00  0.00    -0.014 A 
ATOM     73  C   UNL A   1      41.579  22.453  28.329  1.00  0.00     0.009 A 
ATOM     74  C   UNL A   1      42.550  23.397  26.327  1.00  0.00     0.009 A 
ATOM     75  C   UNL A   1      41.437  21.224  27.679  1.00  0.00     0.001 A 
ATOM     76  C   UNL A   1      42.378  22.175  25.670  1.00  0.00     0.001 A 
ATOM     77  C   UNL A   1      41.833  21.089  26.350  1.00  0.00     0.000 A 
ENDBRANCH  53  72
BRANCH  65  78
ATOM     78  C   UNL A   1      47.479  26.261  31.230  1.00  0.00    -0.014 A 
ATOM     79  C   UNL A   1      47.724  25.680  32.483  1.00  0.00     0.009 A 
ATOM     80  C   UNL A   1      48.516  26.300  30.283  1.00  0.00     0.009 A 
ATOM     81  C   UNL A   1      48.991  25.182  32.793  1.00  0.00     0.001 A 
ATOM     82  C   UNL A   1      49.772  25.772  30.585  1.00  0.00     0.001 A 
ATOM     83  C   UNL A   1      50.011  25.223  31.844  1.00  0.00     0.000 A 
ENDBRANCH  65  78
ENDBRANCH  39  40
ENDBRANCH  31  34
ENDBRANCH  29  30
ENDBRANCH  28  29
ENDBRANCH  27  28
ENDBRANCH  26  27
ENDBRANCH   1  26
TORSDOF 17
ENDMDL
