MODEL 1
REMARK VINA RESULT:     -10.7      0.000      0.000
REMARK SMILES Cc1sc(NC(=O)c2ccc(Br)nc2)c(C(=O)NCCCCCCNC(=O)c2ccc(-c3c4nc(c(-c5ccccc5)c5ccc([nH]5)c(-c5ccccc5)c5nc(c(-c6ccccc6)c6ccc3[nH]6)C=C5)C=C4)cc2)c1C
REMARK SMILES IDX 21 1 20 2 19 3 18 4 16 5 17 6 15 8 1 9 2 10 3 11 76 12 4 13
REMARK SMILES IDX 77 14 5 15 6 16 7 18 8 19 9 20 14 21 10 22 13 23 11 24 12 25
REMARK SMILES IDX 22 26 23 27 24 28 25 29 26 30 27 32 28 33 29 34 75 35 30 36
REMARK SMILES IDX 74 37 31 38 32 39 33 40 68 41 34 42 73 43 67 44 69 45 35 46
REMARK SMILES IDX 72 47 66 48 65 49 36 51 58 52 43 53 57 54 44 55 47 56 56 57
REMARK SMILES IDX 70 58 45 59 46 60 55 62 71 63 48 64 37 65 38 66 42 67 39 68
REMARK SMILES IDX 41 69 40 70 59 71 60 72 64 73 61 74 63 75 62 76 49 77 50 78
REMARK SMILES IDX 54 79 51 80 53 81 52 82
REMARK H PARENT 18 7 5 17 25 31 69 50 47 61
REMARK Flexibility Score: inf
ROOT
ATOM      1  C   UNL A   1      33.933  30.075  26.732  1.00  0.00     0.002 C 
ENDROOT
BRANCH   1   2
ATOM      2  C   UNL A   1      34.115  28.740  25.997  1.00  0.00     0.021 C 
BRANCH   2   3
ATOM      3  C   UNL A   1      33.674  28.723  24.529  1.00  0.00     0.116 C 
BRANCH   3   4
ATOM      4  N   UNL A   1      32.375  29.339  24.322  1.00  0.00    -0.352 N 
ATOM      5  C   UNL A   1      31.137  28.768  24.145  1.00  0.00     0.254 C 
ATOM      6  O   UNL A   1      30.220  29.507  23.789  1.00  0.00    -0.269 OA
ATOM      7  H   UNL A   1      32.382  30.323  24.305  1.00  0.00     0.163 HD
BRANCH   5   8
ATOM      8  C   UNL A   1      30.941  27.324  24.310  1.00  0.00     0.077 A 
ATOM      9  C   UNL A   1      29.961  24.379  26.527  1.00  0.00     0.057 C 
ATOM     10  C   UNL A   1      30.346  25.362  25.469  1.00  0.00     0.007 A 
ATOM     11  S   UNL A   1      30.320  24.883  23.830  1.00  0.00    -0.122 S 
ATOM     12  C   UNL A   1      30.782  26.671  25.608  1.00  0.00    -0.022 A 
ATOM     13  C   UNL A   1      31.044  26.342  23.342  1.00  0.00     0.109 A 
ATOM     14  C   UNL A   1      31.051  27.349  26.919  1.00  0.00     0.046 C 
BRANCH  13  15
ATOM     15  N   UNL A   1      31.591  26.244  22.083  1.00  0.00    -0.313 N 
ATOM     16  C   UNL A   1      32.794  25.678  21.715  1.00  0.00     0.257 C 
ATOM     17  H   UNL A   1      31.056  26.627  21.351  1.00  0.00     0.171 HD
ATOM     18  O   UNL A   1      33.249  25.885  20.591  1.00  0.00    -0.269 OA
BRANCH  16  19
ATOM     19  C   UNL A   1      33.528  24.769  22.618  1.00  0.00     0.058 A 
ATOM     20  C   UNL A   1      34.240  25.218  23.729  1.00  0.00     0.018 A 
ATOM     21  C   UNL A   1      33.509  23.404  22.367  1.00  0.00     0.126 A 
ATOM     22  C   UNL A   1      34.996  24.306  24.465  1.00  0.00     0.037 A 
ATOM     23  N   UNL A   1      34.232  22.496  23.063  1.00  0.00    -0.249 NA
ATOM     24  C   UNL A   1      34.984  22.971  24.080  1.00  0.00     0.106 A 
ATOM     25  Br  UNL A   1      36.073  21.736  25.017  1.00  0.00    -0.029 Br
ENDBRANCH  16  19
ENDBRANCH  13  15
ENDBRANCH   5   8
ENDBRANCH   3   4
ENDBRANCH   2   3
ENDBRANCH   1   2
BRANCH   1  26
ATOM     26  C   UNL A   1      32.628  30.245  27.511  1.00  0.00     0.002 C 
BRANCH  26  27
ATOM     27  C   UNL A   1      31.690  31.360  27.065  1.00  0.00     0.021 C 
BRANCH  27  28
ATOM     28  C   UNL A   1      32.359  32.615  26.527  1.00  0.00     0.116 C 
BRANCH  28  29
ATOM     29  N   UNL A   1      32.165  33.798  27.351  1.00  0.00    -0.352 N 
ATOM     30  C   UNL A   1      32.974  34.301  28.344  1.00  0.00     0.251 C 
ATOM     31  H   UNL A   1      31.341  34.308  27.174  1.00  0.00     0.163 HD
ATOM     32  O   UNL A   1      32.635  35.298  28.975  1.00  0.00    -0.269 OA
BRANCH  30  33
ATOM     33  C   UNL A   1      34.234  33.605  28.689  1.00  0.00     0.039 A 
ATOM     34  C   UNL A   1      35.394  33.925  27.978  1.00  0.00     0.014 A 
ATOM     35  C   UNL A   1      34.286  32.678  29.731  1.00  0.00     0.014 A 
ATOM     36  C   UNL A   1      36.621  33.383  28.372  1.00  0.00     0.010 A 
ATOM     37  C   UNL A   1      35.516  32.208  30.177  1.00  0.00     0.010 A 
ATOM     38  C   UNL A   1      36.697  32.556  29.503  1.00  0.00    -0.014 A 
BRANCH  38  39
ATOM     39  C   UNL A   1      37.995  32.039  30.004  1.00  0.00     0.031 A 
ATOM     40  C   UNL A   1      38.537  30.737  29.481  1.00  0.00     0.074 A 
ATOM     41  C   UNL A   1      38.645  32.693  30.987  1.00  0.00     0.049 A 
ATOM     42  N   UNL A   1      39.600  30.074  29.858  1.00  0.00    -0.248 NA
ATOM     43  C   UNL A   1      37.761  30.077  28.418  1.00  0.00     0.031 C 
ATOM     44  C   UNL A   1      38.203  33.937  31.620  1.00  0.00     0.029 A 
ATOM     45  N   UNL A   1      39.817  32.390  31.633  1.00  0.00    -0.354 N 
ATOM     46  C   UNL A   1      39.599  28.906  29.107  1.00  0.00     0.074 A 
ATOM     47  C   UNL A   1      38.410  28.930  28.285  1.00  0.00     0.031 C 
ATOM     48  C   UNL A   1      39.109  34.308  32.539  1.00  0.00     0.029 A 
ATOM     49  C   UNL A   1      40.174  33.312  32.586  1.00  0.00     0.049 A 
ATOM     50  H   UNL A   1      40.352  31.588  31.433  1.00  0.00     0.167 HD
ATOM     51  C   UNL A   1      40.515  27.908  29.087  1.00  0.00     0.031 A 
ATOM     52  C   UNL A   1      41.240  33.351  33.407  1.00  0.00     0.031 A 
ATOM     53  C   UNL A   1      41.718  27.898  29.873  1.00  0.00     0.049 A 
ATOM     54  C   UNL A   1      42.261  32.251  33.344  1.00  0.00     0.074 A 
ATOM     55  C   UNL A   1      42.746  26.972  29.866  1.00  0.00     0.029 A 
ATOM     56  N   UNL A   1      42.056  28.868  30.803  1.00  0.00    -0.354 N 
ATOM     57  N   UNL A   1      42.277  31.183  32.584  1.00  0.00    -0.248 NA
ATOM     58  C   UNL A   1      43.415  32.367  34.247  1.00  0.00     0.031 C 
ATOM     59  C   UNL A   1      43.694  27.365  30.817  1.00  0.00     0.029 A 
ATOM     60  C   UNL A   1      43.272  28.556  31.388  1.00  0.00     0.049 A 
ATOM     61  H   UNL A   1      41.513  29.661  31.016  1.00  0.00     0.167 HD
ATOM     62  C   UNL A   1      43.451  30.512  32.898  1.00  0.00     0.074 A 
ATOM     63  C   UNL A   1      44.125  31.300  33.910  1.00  0.00     0.031 C 
ATOM     64  C   UNL A   1      43.928  29.350  32.393  1.00  0.00     0.031 A 
BRANCH  51  65
ATOM     65  C   UNL A   1      40.237  26.744  28.179  1.00  0.00    -0.014 A 
ATOM     66  C   UNL A   1      39.460  25.656  28.608  1.00  0.00     0.009 A 
ATOM     67  C   UNL A   1      40.756  26.736  26.875  1.00  0.00     0.009 A 
ATOM     68  C   UNL A   1      39.247  24.563  27.765  1.00  0.00     0.001 A 
ATOM     69  C   UNL A   1      40.518  25.655  26.025  1.00  0.00     0.001 A 
ATOM     70  C   UNL A   1      39.774  24.565  26.475  1.00  0.00     0.000 A 
ENDBRANCH  51  65
BRANCH  52  71
ATOM     71  C   UNL A   1      41.418  34.495  34.337  1.00  0.00    -0.014 A 
ATOM     72  C   UNL A   1      40.903  34.431  35.640  1.00  0.00     0.009 A 
ATOM     73  C   UNL A   1      42.107  35.648  33.934  1.00  0.00     0.009 A 
ATOM     74  C   UNL A   1      41.057  35.507  36.517  1.00  0.00     0.001 A 
ATOM     75  C   UNL A   1      42.279  36.715  34.819  1.00  0.00     0.001 A 
ATOM     76  C   UNL A   1      41.747  36.646  36.107  1.00  0.00     0.000 A 
ENDBRANCH  52  71
BRANCH  64  77
ATOM     77  C   UNL A   1      45.255  28.875  32.905  1.00  0.00    -0.014 A 
ATOM     78  C   UNL A   1      46.453  29.280  32.297  1.00  0.00     0.009 A 
ATOM     79  C   UNL A   1      45.308  28.044  34.035  1.00  0.00     0.009 A 
ATOM     80  C   UNL A   1      47.679  28.840  32.798  1.00  0.00     0.001 A 
ATOM     81  C   UNL A   1      46.536  27.624  34.545  1.00  0.00     0.001 A 
ATOM     82  C   UNL A   1      47.720  28.016  33.923  1.00  0.00     0.000 A 
ENDBRANCH  64  77
ENDBRANCH  38  39
ENDBRANCH  30  33
ENDBRANCH  28  29
ENDBRANCH  27  28
ENDBRANCH  26  27
ENDBRANCH   1  26
TORSDOF 15
ENDMDL
MODEL 2
REMARK VINA RESULT:     -10.6      2.566      7.319
REMARK SMILES Cc1sc(NC(=O)c2ccc(Br)nc2)c(C(=O)NCCCCCCNC(=O)c2ccc(-c3c4nc(c(-c5ccccc5)c5ccc([nH]5)c(-c5ccccc5)c5nc(c(-c6ccccc6)c6ccc3[nH]6)C=C5)C=C4)cc2)c1C
REMARK SMILES IDX 21 1 20 2 19 3 18 4 16 5 17 6 15 8 1 9 2 10 3 11 76 12 4 13
REMARK SMILES IDX 77 14 5 15 6 16 7 18 8 19 9 20 14 21 10 22 13 23 11 24 12 25
REMARK SMILES IDX 22 26 23 27 24 28 25 29 26 30 27 32 28 33 29 34 75 35 30 36
REMARK SMILES IDX 74 37 31 38 32 39 33 40 68 41 34 42 73 43 67 44 69 45 35 46
REMARK SMILES IDX 72 47 66 48 65 49 36 51 58 52 43 53 57 54 44 55 47 56 56 57
REMARK SMILES IDX 70 58 45 59 46 60 55 62 71 63 48 64 37 65 38 66 42 67 39 68
REMARK SMILES IDX 41 69 40 70 59 71 60 72 64 73 61 74 63 75 62 76 49 77 50 78
REMARK SMILES IDX 54 79 51 80 53 81 52 82
REMARK H PARENT 18 7 5 17 25 31 69 50 47 61
REMARK Flexibility Score: inf
ROOT
ATOM      1  C   UNL A   1      33.960  22.319  24.564  1.00  0.00     0.002 C 
ENDROOT
BRANCH   1   2
ATOM      2  C   UNL A   1      33.573  22.514  26.037  1.00  0.00     0.021 C 
BRANCH   2   3
ATOM      3  C   UNL A   1      33.312  23.961  26.471  1.00  0.00     0.116 C 
BRANCH   3   4
ATOM      4  N   UNL A   1      31.910  24.331  26.394  1.00  0.00    -0.352 N 
ATOM      5  C   UNL A   1      31.322  25.553  26.169  1.00  0.00     0.254 C 
ATOM      6  O   UNL A   1      30.109  25.638  26.350  1.00  0.00    -0.269 OA
ATOM      7  H   UNL A   1      31.279  23.587  26.525  1.00  0.00     0.163 HD
BRANCH   5   8
ATOM      8  C   UNL A   1      32.127  26.720  25.793  1.00  0.00     0.077 A 
ATOM      9  C   UNL A   1      33.789  30.011  26.771  1.00  0.00     0.057 C 
ATOM     10  C   UNL A   1      33.265  28.748  26.168  1.00  0.00     0.007 A 
ATOM     11  S   UNL A   1      33.924  28.185  24.696  1.00  0.00    -0.122 S 
ATOM     12  C   UNL A   1      32.244  27.923  26.616  1.00  0.00    -0.022 A 
ATOM     13  C   UNL A   1      32.745  26.964  24.581  1.00  0.00     0.109 A 
ATOM     14  C   UNL A   1      31.369  28.209  27.801  1.00  0.00     0.046 C 
BRANCH  13  15
ATOM     15  N   UNL A   1      32.644  26.473  23.300  1.00  0.00    -0.313 N 
ATOM     16  C   UNL A   1      31.647  26.698  22.373  1.00  0.00     0.257 C 
ATOM     17  H   UNL A   1      33.377  25.885  23.005  1.00  0.00     0.171 HD
ATOM     18  O   UNL A   1      31.579  25.998  21.365  1.00  0.00    -0.269 OA
BRANCH  16  19
ATOM     19  C   UNL A   1      30.689  27.811  22.526  1.00  0.00     0.058 A 
ATOM     20  C   UNL A   1      30.981  29.120  22.144  1.00  0.00     0.018 A 
ATOM     21  C   UNL A   1      29.435  27.557  23.064  1.00  0.00     0.126 A 
ATOM     22  C   UNL A   1      30.063  30.130  22.426  1.00  0.00     0.037 A 
ATOM     23  N   UNL A   1      28.523  28.516  23.348  1.00  0.00    -0.249 NA
ATOM     24  C   UNL A   1      28.869  29.787  23.049  1.00  0.00     0.106 A 
ATOM     25  Br  UNL A   1      27.650  31.160  23.516  1.00  0.00    -0.029 Br
ENDBRANCH  16  19
ENDBRANCH  13  15
ENDBRANCH   5   8
ENDBRANCH   3   4
ENDBRANCH   2   3
ENDBRANCH   1   2
BRANCH   1  26
ATOM     26  C   UNL A   1      35.395  21.865  24.296  1.00  0.00     0.002 C 
BRANCH  26  27
ATOM     27  C   UNL A   1      36.427  22.950  24.014  1.00  0.00     0.021 C 
BRANCH  27  28
ATOM     28  C   UNL A   1      37.251  23.410  25.207  1.00  0.00     0.116 C 
BRANCH  28  29
ATOM     29  N   UNL A   1      38.435  22.606  25.463  1.00  0.00    -0.352 N 
ATOM     30  C   UNL A   1      39.564  22.934  26.179  1.00  0.00     0.251 C 
ATOM     31  H   UNL A   1      38.428  21.703  25.071  1.00  0.00     0.163 HD
ATOM     32  O   UNL A   1      40.498  22.142  26.263  1.00  0.00    -0.269 OA
BRANCH  30  33
ATOM     33  C   UNL A   1      39.674  24.270  26.807  1.00  0.00     0.039 A 
ATOM     34  C   UNL A   1      39.148  24.455  28.089  1.00  0.00     0.014 A 
ATOM     35  C   UNL A   1      40.327  25.321  26.161  1.00  0.00     0.014 A 
ATOM     36  C   UNL A   1      39.357  25.665  28.757  1.00  0.00     0.010 A 
ATOM     37  C   UNL A   1      40.610  26.491  26.858  1.00  0.00     0.010 A 
ATOM     38  C   UNL A   1      40.129  26.676  28.163  1.00  0.00    -0.014 A 
BRANCH  38  39
ATOM     39  C   UNL A   1      40.447  27.935  28.881  1.00  0.00     0.031 A 
ATOM     40  C   UNL A   1      41.768  28.084  29.584  1.00  0.00     0.074 A 
ATOM     41  C   UNL A   1      39.521  28.909  28.973  1.00  0.00     0.049 A 
ATOM     42  N   UNL A   1      42.195  29.063  30.341  1.00  0.00    -0.248 NA
ATOM     43  C   UNL A   1      42.720  26.970  29.448  1.00  0.00     0.031 C 
ATOM     44  C   UNL A   1      38.181  28.869  28.383  1.00  0.00     0.029 A 
ATOM     45  N   UNL A   1      39.566  30.122  29.612  1.00  0.00    -0.354 N 
ATOM     46  C   UNL A   1      43.444  28.667  30.798  1.00  0.00     0.074 A 
ATOM     47  C   UNL A   1      43.689  27.343  30.270  1.00  0.00     0.031 C 
ATOM     48  C   UNL A   1      37.545  30.020  28.659  1.00  0.00     0.029 A 
ATOM     49  C   UNL A   1      38.416  30.861  29.474  1.00  0.00     0.049 A 
ATOM     50  H   UNL A   1      40.348  30.435  30.121  1.00  0.00     0.167 HD
ATOM     51  C   UNL A   1      44.321  29.348  31.573  1.00  0.00     0.031 A 
ATOM     52  C   UNL A   1      38.097  32.078  29.951  1.00  0.00     0.031 A 
ATOM     53  C   UNL A   1      44.098  30.679  32.068  1.00  0.00     0.049 A 
ATOM     54  C   UNL A   1      39.098  32.831  30.780  1.00  0.00     0.074 A 
ATOM     55  C   UNL A   1      44.957  31.485  32.795  1.00  0.00     0.029 A 
ATOM     56  N   UNL A   1      42.932  31.403  31.878  1.00  0.00    -0.354 N 
ATOM     57  N   UNL A   1      40.301  32.467  31.153  1.00  0.00    -0.248 NA
ATOM     58  C   UNL A   1      38.699  34.165  31.248  1.00  0.00     0.031 C 
ATOM     59  C   UNL A   1      44.297  32.687  33.073  1.00  0.00     0.029 A 
ATOM     60  C   UNL A   1      43.042  32.641  32.487  1.00  0.00     0.049 A 
ATOM     61  H   UNL A   1      42.143  31.084  31.384  1.00  0.00     0.167 HD
ATOM     62  C   UNL A   1      40.813  33.535  31.877  1.00  0.00     0.074 A 
ATOM     63  C   UNL A   1      39.793  34.564  31.882  1.00  0.00     0.031 C 
ATOM     64  C   UNL A   1      42.018  33.653  32.482  1.00  0.00     0.031 A 
BRANCH  51  65
ATOM     65  C   UNL A   1      45.603  28.652  31.930  1.00  0.00    -0.014 A 
ATOM     66  C   UNL A   1      45.704  27.861  33.087  1.00  0.00     0.009 A 
ATOM     67  C   UNL A   1      46.724  28.783  31.096  1.00  0.00     0.009 A 
ATOM     68  C   UNL A   1      46.916  27.255  33.425  1.00  0.00     0.001 A 
ATOM     69  C   UNL A   1      47.926  28.153  31.422  1.00  0.00     0.001 A 
ATOM     70  C   UNL A   1      48.024  27.400  32.592  1.00  0.00     0.000 A 
ENDBRANCH  51  65
BRANCH  52  71
ATOM     71  C   UNL A   1      36.780  32.681  29.624  1.00  0.00    -0.014 A 
ATOM     72  C   UNL A   1      35.764  32.720  30.589  1.00  0.00     0.009 A 
ATOM     73  C   UNL A   1      36.535  33.227  28.355  1.00  0.00     0.009 A 
ATOM     74  C   UNL A   1      34.519  33.276  30.286  1.00  0.00     0.001 A 
ATOM     75  C   UNL A   1      35.297  33.802  28.060  1.00  0.00     0.001 A 
ATOM     76  C   UNL A   1      34.288  33.819  29.023  1.00  0.00     0.000 A 
ENDBRANCH  52  71
BRANCH  64  77
ATOM     77  C   UNL A   1      42.312  34.951  33.175  1.00  0.00    -0.014 A 
ATOM     78  C   UNL A   1      43.077  35.948  32.549  1.00  0.00     0.009 A 
ATOM     79  C   UNL A   1      41.784  35.193  34.451  1.00  0.00     0.009 A 
ATOM     80  C   UNL A   1      43.327  37.155  33.203  1.00  0.00     0.001 A 
ATOM     81  C   UNL A   1      42.018  36.409  35.093  1.00  0.00     0.001 A 
ATOM     82  C   UNL A   1      42.794  37.387  34.471  1.00  0.00     0.000 A 
ENDBRANCH  64  77
ENDBRANCH  38  39
ENDBRANCH  30  33
ENDBRANCH  28  29
ENDBRANCH  27  28
ENDBRANCH  26  27
ENDBRANCH   1  26
TORSDOF 15
ENDMDL
MODEL 3
REMARK VINA RESULT:     -10.5      3.049      7.353
REMARK SMILES Cc1sc(NC(=O)c2ccc(Br)nc2)c(C(=O)NCCCCCCNC(=O)c2ccc(-c3c4nc(c(-c5ccccc5)c5ccc([nH]5)c(-c5ccccc5)c5nc(c(-c6ccccc6)c6ccc3[nH]6)C=C5)C=C4)cc2)c1C
REMARK SMILES IDX 21 1 20 2 19 3 18 4 16 5 17 6 15 8 1 9 2 10 3 11 76 12 4 13
REMARK SMILES IDX 77 14 5 15 6 16 7 18 8 19 9 20 14 21 10 22 13 23 11 24 12 25
REMARK SMILES IDX 22 26 23 27 24 28 25 29 26 30 27 32 28 33 29 34 75 35 30 36
REMARK SMILES IDX 74 37 31 38 32 39 33 40 68 41 34 42 73 43 67 44 69 45 35 46
REMARK SMILES IDX 72 47 66 48 65 49 36 51 58 52 43 53 57 54 44 55 47 56 56 57
REMARK SMILES IDX 70 58 45 59 46 60 55 62 71 63 48 64 37 65 38 66 42 67 39 68
REMARK SMILES IDX 41 69 40 70 59 71 60 72 64 73 61 74 63 75 62 76 49 77 50 78
REMARK SMILES IDX 54 79 51 80 53 81 52 82
REMARK H PARENT 18 7 5 17 25 31 69 50 47 61
REMARK Flexibility Score: inf
ROOT
ATOM      1  C   UNL A   1      31.740  28.340  23.893  1.00  0.00     0.002 C 
ENDROOT
BRANCH   1   2
ATOM      2  C   UNL A   1      32.190  27.391  22.772  1.00  0.00     0.021 C 
BRANCH   2   3
ATOM      3  C   UNL A   1      33.245  26.352  23.164  1.00  0.00     0.116 C 
BRANCH   3   4
ATOM      4  N   UNL A   1      33.129  25.116  22.410  1.00  0.00    -0.352 N 
ATOM      5  C   UNL A   1      33.654  23.869  22.657  1.00  0.00     0.254 C 
ATOM      6  O   UNL A   1      33.574  23.035  21.757  1.00  0.00    -0.269 OA
ATOM      7  H   UNL A   1      32.589  25.181  21.590  1.00  0.00     0.163 HD
BRANCH   5   8
ATOM      8  C   UNL A   1      34.340  23.576  23.919  1.00  0.00     0.077 A 
ATOM      9  C   UNL A   1      37.595  23.143  25.861  1.00  0.00     0.057 C 
ATOM     10  C   UNL A   1      36.207  23.297  25.329  1.00  0.00     0.007 A 
ATOM     11  S   UNL A   1      34.908  23.501  26.419  1.00  0.00    -0.122 S 
ATOM     12  C   UNL A   1      35.766  23.265  24.014  1.00  0.00    -0.022 A 
ATOM     13  C   UNL A   1      33.770  23.371  25.162  1.00  0.00     0.109 A 
ATOM     14  C   UNL A   1      36.632  22.962  22.827  1.00  0.00     0.046 C 
BRANCH  13  15
ATOM     15  N   UNL A   1      32.513  23.082  25.640  1.00  0.00    -0.313 N 
ATOM     16  C   UNL A   1      31.740  21.966  25.396  1.00  0.00     0.257 C 
ATOM     17  H   UNL A   1      32.113  23.759  26.234  1.00  0.00     0.171 HD
ATOM     18  O   UNL A   1      30.548  21.968  25.700  1.00  0.00    -0.269 OA
BRANCH  16  19
ATOM     19  C   UNL A   1      32.323  20.732  24.833  1.00  0.00     0.058 A 
ATOM     20  C   UNL A   1      32.160  20.358  23.500  1.00  0.00     0.018 A 
ATOM     21  C   UNL A   1      33.076  19.903  25.653  1.00  0.00     0.126 A 
ATOM     22  C   UNL A   1      32.648  19.122  23.077  1.00  0.00     0.037 A 
ATOM     23  N   UNL A   1      33.563  18.700  25.270  1.00  0.00    -0.249 NA
ATOM     24  C   UNL A   1      33.313  18.321  23.998  1.00  0.00     0.106 A 
ATOM     25  Br  UNL A   1      33.907  16.604  23.460  1.00  0.00    -0.029 Br
ENDBRANCH  16  19
ENDBRANCH  13  15
ENDBRANCH   5   8
ENDBRANCH   3   4
ENDBRANCH   2   3
ENDBRANCH   1   2
BRANCH   1  26
ATOM     26  C   UNL A   1      32.526  28.259  25.202  1.00  0.00     0.002 C 
BRANCH  26  27
ATOM     27  C   UNL A   1      32.625  29.532  26.034  1.00  0.00     0.021 C 
BRANCH  27  28
ATOM     28  C   UNL A   1      33.641  29.510  27.165  1.00  0.00     0.116 C 
BRANCH  28  29
ATOM     29  N   UNL A   1      33.656  30.715  27.980  1.00  0.00    -0.352 N 
ATOM     30  C   UNL A   1      34.675  31.221  28.755  1.00  0.00     0.251 C 
ATOM     31  H   UNL A   1      32.823  31.240  27.978  1.00  0.00     0.163 HD
ATOM     32  O   UNL A   1      34.503  32.238  29.420  1.00  0.00    -0.269 OA
BRANCH  30  33
ATOM     33  C   UNL A   1      35.968  30.504  28.828  1.00  0.00     0.039 A 
ATOM     34  C   UNL A   1      36.857  30.609  27.755  1.00  0.00     0.014 A 
ATOM     35  C   UNL A   1      36.325  29.770  29.962  1.00  0.00     0.014 A 
ATOM     36  C   UNL A   1      38.136  30.055  27.855  1.00  0.00     0.010 A 
ATOM     37  C   UNL A   1      37.625  29.295  30.096  1.00  0.00     0.010 A 
ATOM     38  C   UNL A   1      38.545  29.433  29.045  1.00  0.00    -0.014 A 
BRANCH  38  39
ATOM     39  C   UNL A   1      39.925  28.916  29.219  1.00  0.00     0.031 A 
ATOM     40  C   UNL A   1      40.996  29.809  29.781  1.00  0.00     0.074 A 
ATOM     41  C   UNL A   1      40.237  27.676  28.794  1.00  0.00     0.049 A 
ATOM     42  N   UNL A   1      42.277  29.577  29.921  1.00  0.00    -0.248 NA
ATOM     43  C   UNL A   1      40.579  31.155  30.207  1.00  0.00     0.031 C 
ATOM     44  C   UNL A   1      39.306  26.726  28.182  1.00  0.00     0.029 A 
ATOM     45  N   UNL A   1      41.435  27.006  28.805  1.00  0.00    -0.354 N 
ATOM     46  C   UNL A   1      42.820  30.755  30.417  1.00  0.00     0.074 A 
ATOM     47  C   UNL A   1      41.741  31.713  30.512  1.00  0.00     0.031 C 
ATOM     48  C   UNL A   1      39.960  25.585  27.907  1.00  0.00     0.029 A 
ATOM     49  C   UNL A   1      41.360  25.735  28.289  1.00  0.00     0.049 A 
ATOM     50  H   UNL A   1      42.269  27.398  29.150  1.00  0.00     0.167 HD
ATOM     51  C   UNL A   1      44.098  31.014  30.778  1.00  0.00     0.031 A 
ATOM     52  C   UNL A   1      42.312  24.797  28.139  1.00  0.00     0.031 A 
ATOM     53  C   UNL A   1      45.166  30.053  30.722  1.00  0.00     0.049 A 
ATOM     54  C   UNL A   1      43.717  25.093  28.580  1.00  0.00     0.074 A 
ATOM     55  C   UNL A   1      46.478  30.195  31.139  1.00  0.00     0.029 A 
ATOM     56  N   UNL A   1      45.039  28.767  30.222  1.00  0.00    -0.354 N 
ATOM     57  N   UNL A   1      44.202  26.193  29.103  1.00  0.00    -0.248 NA
ATOM     58  C   UNL A   1      44.704  24.017  28.414  1.00  0.00     0.031 C 
ATOM     59  C   UNL A   1      47.155  29.002  30.862  1.00  0.00     0.029 A 
ATOM     60  C   UNL A   1      46.254  28.108  30.307  1.00  0.00     0.049 A 
ATOM     61  H   UNL A   1      44.210  28.380  29.861  1.00  0.00     0.167 HD
ATOM     62  C   UNL A   1      45.543  25.934  29.353  1.00  0.00     0.074 A 
ATOM     63  C   UNL A   1      45.791  24.569  28.932  1.00  0.00     0.031 C 
ATOM     64  C   UNL A   1      46.483  26.751  29.883  1.00  0.00     0.031 A 
BRANCH  51  65
ATOM     65  C   UNL A   1      44.403  32.402  31.267  1.00  0.00    -0.014 A 
ATOM     66  C   UNL A   1      44.801  33.414  30.379  1.00  0.00     0.009 A 
ATOM     67  C   UNL A   1      44.285  32.702  32.632  1.00  0.00     0.009 A 
ATOM     68  C   UNL A   1      45.120  34.687  30.855  1.00  0.00     0.001 A 
ATOM     69  C   UNL A   1      44.578  33.984  33.102  1.00  0.00     0.001 A 
ATOM     70  C   UNL A   1      45.006  34.971  32.216  1.00  0.00     0.000 A 
ENDBRANCH  51  65
BRANCH  52  71
ATOM     71  C   UNL A   1      41.961  23.466  27.579  1.00  0.00    -0.014 A 
ATOM     72  C   UNL A   1      42.243  23.171  26.237  1.00  0.00     0.009 A 
ATOM     73  C   UNL A   1      41.353  22.488  28.379  1.00  0.00     0.009 A 
ATOM     74  C   UNL A   1      41.905  21.926  25.700  1.00  0.00     0.001 A 
ATOM     75  C   UNL A   1      41.037  21.236  27.846  1.00  0.00     0.001 A 
ATOM     76  C   UNL A   1      41.306  20.960  26.505  1.00  0.00     0.000 A 
ENDBRANCH  52  71
BRANCH  64  77
ATOM     77  C   UNL A   1      47.859  26.183  30.067  1.00  0.00    -0.014 A 
ATOM     78  C   UNL A   1      48.760  26.109  28.993  1.00  0.00     0.009 A 
ATOM     79  C   UNL A   1      48.272  25.757  31.338  1.00  0.00     0.009 A 
ATOM     80  C   UNL A   1      50.042  25.592  29.186  1.00  0.00     0.001 A 
ATOM     81  C   UNL A   1      49.562  25.261  31.531  1.00  0.00     0.001 A 
ATOM     82  C   UNL A   1      50.443  25.172  30.455  1.00  0.00     0.000 A 
ENDBRANCH  64  77
ENDBRANCH  38  39
ENDBRANCH  30  33
ENDBRANCH  28  29
ENDBRANCH  27  28
ENDBRANCH  26  27
ENDBRANCH   1  26
TORSDOF 15
ENDMDL
