MODEL 1
REMARK VINA RESULT:     -10.8      0.000      0.000
REMARK SMILES CN(C)Nc1ncnc(Nc2ccc(C(=O)NCCCCCCNC(=O)c3ccc(-c4c5nc(c(-c6ccccc6)c6ccc([nH]6)c(-c6ccccc6)c6nc(c(-c7ccccc7)c7ccc4[nH]7)C=C6)C=C5)cc3)cc2)c1[N+](=O)[O-]
REMARK SMILES IDX 19 1 18 2 17 3 15 4 16 5 14 7 11 8 12 9 76 10 13 11 75 12
REMARK SMILES IDX 10 13 9 15 5 16 6 17 77 18 7 19 8 20 4 21 2 23 1 24 3 25
REMARK SMILES IDX 78 26 79 27 80 28 20 29 21 30 22 31 23 32 24 33 25 34 26 36
REMARK SMILES IDX 27 37 28 38 74 39 29 40 73 41 30 42 31 43 32 44 67 45 33 46
REMARK SMILES IDX 72 47 66 48 68 49 34 50 71 51 65 52 64 53 35 55 57 56 42 57
REMARK SMILES IDX 56 58 43 59 46 60 55 61 69 62 44 63 45 64 54 66 70 67 47 68
REMARK SMILES IDX 36 69 37 70 41 71 38 72 40 73 39 74 58 75 59 76 63 77 60 78
REMARK SMILES IDX 62 79 61 80 48 81 49 82 53 83 50 84 52 85 51 86
REMARK H PARENT 17 6 10 14 4 22 24 35 68 54 46 65
REMARK Flexibility Score: inf
ROOT
ATOM      1  C   UNL A   1      33.692  28.740  23.992  1.00  0.00     0.021 C 
ENDROOT
BRANCH   1   2
ATOM      2  C   UNL A   1      33.414  28.888  22.495  1.00  0.00     0.116 C 
BRANCH   2   3
ATOM      3  N   UNL A   1      32.030  29.271  22.298  1.00  0.00    -0.352 N 
ATOM      4  C   UNL A   1      30.856  28.566  22.312  1.00  0.00     0.251 C 
ATOM      5  O   UNL A   1      29.823  29.174  22.030  1.00  0.00    -0.269 OA
ATOM      6  H   UNL A   1      31.910  30.232  22.118  1.00  0.00     0.163 HD
BRANCH   4   7
ATOM      7  C   UNL A   1      30.765  27.143  22.736  1.00  0.00     0.039 A 
ATOM      8  C   UNL A   1      30.688  24.570  23.878  1.00  0.00     0.040 A 
ATOM      9  C   UNL A   1      29.887  25.587  24.393  1.00  0.00     0.027 A 
ATOM     10  C   UNL A   1      31.411  24.811  22.704  1.00  0.00     0.027 A 
ATOM     11  C   UNL A   1      29.945  26.870  23.841  1.00  0.00     0.016 A 
ATOM     12  C   UNL A   1      31.430  26.082  22.120  1.00  0.00     0.016 A 
BRANCH   8  13
ATOM     13  N   UNL A   1      30.681  23.299  24.482  1.00  0.00    -0.334 N 
ATOM     14  H   UNL A   1      29.952  22.683  24.245  1.00  0.00     0.168 HD
BRANCH  13  15
ATOM     15  C   UNL A   1      31.648  22.849  25.405  1.00  0.00     0.215 A 
ATOM     16  C   UNL A   1      33.473  21.491  26.084  1.00  0.00     0.225 A 
ATOM     17  N   UNL A   1      33.485  22.092  27.294  1.00  0.00    -0.212 NA
ATOM     18  C   UNL A   1      32.496  21.782  25.154  1.00  0.00     0.354 A 
ATOM     19  C   UNL A   1      32.583  23.050  27.500  1.00  0.00     0.227 A 
ATOM     20  N   UNL A   1      31.698  23.482  26.600  1.00  0.00    -0.212 NA
BRANCH  16  21
ATOM     21  N   UNL A   1      34.609  20.702  25.878  1.00  0.00    -0.298 N 
ATOM     22  H   UNL A   1      34.661  19.848  26.364  1.00  0.00     0.184 HD
BRANCH  21  23
ATOM     23  N   UNL A   1      35.696  21.036  25.021  1.00  0.00    -0.228 NA
ATOM     24  C   UNL A   1      36.561  22.087  25.587  1.00  0.00     0.130 C 
ATOM     25  C   UNL A   1      36.518  19.816  24.884  1.00  0.00     0.130 C 
ENDBRANCH  21  23
ENDBRANCH  16  21
BRANCH  18  26
ATOM     26  N   UNL A   1      32.328  20.982  23.978  1.00  0.00     0.070 N 
ATOM     27  O   UNL A   1      32.310  19.749  24.135  1.00  0.00    -0.258 OA
ATOM     28  O   UNL A   1      32.323  21.559  22.882  1.00  0.00    -0.258 OA
ENDBRANCH  18  26
ENDBRANCH  13  15
ENDBRANCH   8  13
ENDBRANCH   4   7
ENDBRANCH   2   3
ENDBRANCH   1   2
BRANCH   1  29
ATOM     29  C   UNL A   1      33.927  27.282  24.414  1.00  0.00     0.002 C 
BRANCH  29  30
ATOM     30  C   UNL A   1      33.167  26.854  25.676  1.00  0.00     0.002 C 
BRANCH  30  31
ATOM     31  C   UNL A   1      32.546  28.004  26.470  1.00  0.00     0.021 C 
BRANCH  31  32
ATOM     32  C   UNL A   1      33.414  28.504  27.620  1.00  0.00     0.116 C 
BRANCH  32  33
ATOM     33  N   UNL A   1      33.457  29.957  27.666  1.00  0.00    -0.352 N 
ATOM     34  C   UNL A   1      34.460  30.780  28.110  1.00  0.00     0.251 C 
ATOM     35  H   UNL A   1      32.652  30.415  27.331  1.00  0.00     0.163 HD
ATOM     36  O   UNL A   1      34.247  31.970  28.306  1.00  0.00    -0.269 OA
BRANCH  34  37
ATOM     37  C   UNL A   1      35.804  30.220  28.363  1.00  0.00     0.039 A 
ATOM     38  C   UNL A   1      36.740  30.209  27.327  1.00  0.00     0.014 A 
ATOM     39  C   UNL A   1      36.131  29.698  29.619  1.00  0.00     0.014 A 
ATOM     40  C   UNL A   1      38.025  29.719  27.566  1.00  0.00     0.010 A 
ATOM     41  C   UNL A   1      37.433  29.281  29.874  1.00  0.00     0.010 A 
ATOM     42  C   UNL A   1      38.390  29.279  28.848  1.00  0.00    -0.014 A 
BRANCH  42  43
ATOM     43  C   UNL A   1      39.767  28.808  29.135  1.00  0.00     0.031 A 
ATOM     44  C   UNL A   1      40.762  29.731  29.781  1.00  0.00     0.074 A 
ATOM     45  C   UNL A   1      40.139  27.570  28.758  1.00  0.00     0.049 A 
ATOM     46  N   UNL A   1      42.024  29.520  30.059  1.00  0.00    -0.248 NA
ATOM     47  C   UNL A   1      40.285  31.078  30.135  1.00  0.00     0.031 C 
ATOM     48  C   UNL A   1      39.278  26.596  28.084  1.00  0.00     0.029 A 
ATOM     49  N   UNL A   1      41.342  26.924  28.881  1.00  0.00    -0.354 N 
ATOM     50  C   UNL A   1      42.491  30.707  30.609  1.00  0.00     0.074 A 
ATOM     51  C   UNL A   1      41.397  31.652  30.570  1.00  0.00     0.031 C 
ATOM     52  C   UNL A   1      39.976  25.468  27.873  1.00  0.00     0.029 A 
ATOM     53  C   UNL A   1      41.340  25.653  28.359  1.00  0.00     0.049 A 
ATOM     54  H   UNL A   1      42.132  27.331  29.303  1.00  0.00     0.167 HD
ATOM     55  C   UNL A   1      43.715  30.981  31.122  1.00  0.00     0.031 A 
ATOM     56  C   UNL A   1      42.327  24.743  28.271  1.00  0.00     0.031 A 
ATOM     57  C   UNL A   1      44.803  30.041  31.159  1.00  0.00     0.049 A 
ATOM     58  C   UNL A   1      43.682  25.074  28.830  1.00  0.00     0.074 A 
ATOM     59  C   UNL A   1      46.067  30.205  31.697  1.00  0.00     0.029 A 
ATOM     60  N   UNL A   1      44.757  28.761  30.628  1.00  0.00    -0.354 N 
ATOM     61  N   UNL A   1      44.090  26.178  29.407  1.00  0.00    -0.248 NA
ATOM     62  C   UNL A   1      44.710  24.028  28.736  1.00  0.00     0.031 C 
ATOM     63  C   UNL A   1      46.804  29.043  31.443  1.00  0.00     0.029 A 
ATOM     64  C   UNL A   1      45.979  28.132  30.804  1.00  0.00     0.049 A 
ATOM     65  H   UNL A   1      43.972  28.358  30.193  1.00  0.00     0.167 HD
ATOM     66  C   UNL A   1      45.411  25.952  29.769  1.00  0.00     0.074 A 
ATOM     67  C   UNL A   1      45.730  24.598  29.361  1.00  0.00     0.031 C 
ATOM     68  C   UNL A   1      46.283  26.788  30.385  1.00  0.00     0.031 A 
BRANCH  55  69
ATOM     69  C   UNL A   1      43.935  32.362  31.677  1.00  0.00    -0.014 A 
ATOM     70  C   UNL A   1      43.671  32.657  33.025  1.00  0.00     0.009 A 
ATOM     71  C   UNL A   1      44.427  33.381  30.847  1.00  0.00     0.009 A 
ATOM     72  C   UNL A   1      43.851  33.951  33.517  1.00  0.00     0.001 A 
ATOM     73  C   UNL A   1      44.639  34.667  31.349  1.00  0.00     0.001 A 
ATOM     74  C   UNL A   1      44.338  34.953  32.679  1.00  0.00     0.000 A 
ENDBRANCH  55  69
BRANCH  56  75
ATOM     75  C   UNL A   1      42.063  23.426  27.634  1.00  0.00    -0.014 A 
ATOM     76  C   UNL A   1      41.511  22.370  28.375  1.00  0.00     0.009 A 
ATOM     77  C   UNL A   1      42.355  23.221  26.276  1.00  0.00     0.009 A 
ATOM     78  C   UNL A   1      41.279  21.131  27.775  1.00  0.00     0.001 A 
ATOM     79  C   UNL A   1      42.094  21.990  25.671  1.00  0.00     0.001 A 
ATOM     80  C   UNL A   1      41.565  20.943  26.424  1.00  0.00     0.000 A 
ENDBRANCH  56  75
BRANCH  68  81
ATOM     81  C   UNL A   1      47.655  26.253  30.680  1.00  0.00    -0.014 A 
ATOM     82  C   UNL A   1      48.667  26.255  29.706  1.00  0.00     0.009 A 
ATOM     83  C   UNL A   1      47.952  25.776  31.966  1.00  0.00     0.009 A 
ATOM     84  C   UNL A   1      49.937  25.758  30.007  1.00  0.00     0.001 A 
ATOM     85  C   UNL A   1      49.230  25.308  32.273  1.00  0.00     0.001 A 
ATOM     86  C   UNL A   1      50.219  25.291  31.290  1.00  0.00     0.000 A 
ENDBRANCH  68  81
ENDBRANCH  42  43
ENDBRANCH  34  37
ENDBRANCH  32  33
ENDBRANCH  31  32
ENDBRANCH  30  31
ENDBRANCH  29  30
ENDBRANCH   1  29
TORSDOF 18
ENDMDL
MODEL 2
REMARK VINA RESULT:     -10.3      0.520      5.726
REMARK SMILES CN(C)Nc1ncnc(Nc2ccc(C(=O)NCCCCCCNC(=O)c3ccc(-c4c5nc(c(-c6ccccc6)c6ccc([nH]6)c(-c6ccccc6)c6nc(c(-c7ccccc7)c7ccc4[nH]7)C=C6)C=C5)cc3)cc2)c1[N+](=O)[O-]
REMARK SMILES IDX 19 1 18 2 17 3 15 4 16 5 14 7 11 8 12 9 76 10 13 11 75 12
REMARK SMILES IDX 10 13 9 15 5 16 6 17 77 18 7 19 8 20 4 21 2 23 1 24 3 25
REMARK SMILES IDX 78 26 79 27 80 28 20 29 21 30 22 31 23 32 24 33 25 34 26 36
REMARK SMILES IDX 27 37 28 38 74 39 29 40 73 41 30 42 31 43 32 44 67 45 33 46
REMARK SMILES IDX 72 47 66 48 68 49 34 50 71 51 65 52 64 53 35 55 57 56 42 57
REMARK SMILES IDX 56 58 43 59 46 60 55 61 69 62 44 63 45 64 54 66 70 67 47 68
REMARK SMILES IDX 36 69 37 70 41 71 38 72 40 73 39 74 58 75 59 76 63 77 60 78
REMARK SMILES IDX 62 79 61 80 48 81 49 82 53 83 50 84 52 85 51 86
REMARK H PARENT 17 6 10 14 4 22 24 35 68 54 46 65
REMARK Flexibility Score: inf
ROOT
ATOM      1  C   UNL A   1      33.611  28.882  23.965  1.00  0.00     0.021 C 
ENDROOT
BRANCH   1   2
ATOM      2  C   UNL A   1      33.326  28.946  22.463  1.00  0.00     0.116 C 
BRANCH   2   3
ATOM      3  N   UNL A   1      31.933  29.287  22.252  1.00  0.00    -0.352 N 
ATOM      4  C   UNL A   1      30.781  28.547  22.258  1.00  0.00     0.251 C 
ATOM      5  O   UNL A   1      29.733  29.123  21.964  1.00  0.00    -0.269 OA
ATOM      6  H   UNL A   1      31.786  30.243  22.067  1.00  0.00     0.163 HD
BRANCH   4   7
ATOM      7  C   UNL A   1      30.728  27.124  22.688  1.00  0.00     0.039 A 
ATOM      8  C   UNL A   1      30.705  24.556  23.843  1.00  0.00     0.040 A 
ATOM      9  C   UNL A   1      29.848  25.544  24.320  1.00  0.00     0.027 A 
ATOM     10  C   UNL A   1      31.463  24.818  22.695  1.00  0.00     0.027 A 
ATOM     11  C   UNL A   1      29.877  26.826  23.763  1.00  0.00     0.016 A 
ATOM     12  C   UNL A   1      31.455  26.087  22.104  1.00  0.00     0.016 A 
BRANCH   8  13
ATOM     13  N   UNL A   1      30.724  23.289  24.454  1.00  0.00    -0.334 N 
ATOM     14  H   UNL A   1      30.005  22.658  24.224  1.00  0.00     0.168 HD
BRANCH  13  15
ATOM     15  C   UNL A   1      31.702  22.861  25.376  1.00  0.00     0.215 A 
ATOM     16  C   UNL A   1      33.589  21.581  26.037  1.00  0.00     0.225 A 
ATOM     17  N   UNL A   1      33.555  22.144  27.264  1.00  0.00    -0.212 NA
ATOM     18  C   UNL A   1      32.608  21.849  25.104  1.00  0.00     0.354 A 
ATOM     19  C   UNL A   1      32.601  23.046  27.488  1.00  0.00     0.227 A 
ATOM     20  N   UNL A   1      31.705  23.459  26.590  1.00  0.00    -0.212 NA
BRANCH  16  21
ATOM     21  N   UNL A   1      34.767  20.859  25.822  1.00  0.00    -0.298 N 
ATOM     22  H   UNL A   1      34.862  19.999  26.289  1.00  0.00     0.184 HD
BRANCH  21  23
ATOM     23  N   UNL A   1      35.840  21.271  24.980  1.00  0.00    -0.228 NA
ATOM     24  C   UNL A   1      36.532  22.469  25.490  1.00  0.00     0.130 C 
ATOM     25  C   UNL A   1      36.820  20.165  24.973  1.00  0.00     0.130 C 
ENDBRANCH  21  23
ENDBRANCH  16  21
BRANCH  18  26
ATOM     26  N   UNL A   1      32.497  21.078  23.902  1.00  0.00     0.070 N 
ATOM     27  O   UNL A   1      32.521  21.704  22.828  1.00  0.00    -0.258 OA
ATOM     28  O   UNL A   1      32.276  19.865  24.011  1.00  0.00    -0.258 OA
ENDBRANCH  18  26
ENDBRANCH  13  15
ENDBRANCH   8  13
ENDBRANCH   4   7
ENDBRANCH   2   3
ENDBRANCH   1   2
BRANCH   1  29
ATOM     29  C   UNL A   1      33.852  27.451  24.466  1.00  0.00     0.002 C 
BRANCH  29  30
ATOM     30  C   UNL A   1      32.990  27.042  25.667  1.00  0.00     0.002 C 
BRANCH  30  31
ATOM     31  C   UNL A   1      32.523  28.206  26.544  1.00  0.00     0.021 C 
BRANCH  31  32
ATOM     32  C   UNL A   1      33.513  28.595  27.637  1.00  0.00     0.116 C 
BRANCH  32  33
ATOM     33  N   UNL A   1      33.534  30.034  27.852  1.00  0.00    -0.352 N 
ATOM     34  C   UNL A   1      34.537  30.818  28.361  1.00  0.00     0.251 C 
ATOM     35  H   UNL A   1      32.713  30.512  27.595  1.00  0.00     0.163 HD
ATOM     36  O   UNL A   1      34.311  31.973  28.701  1.00  0.00    -0.269 OA
BRANCH  34  37
ATOM     37  C   UNL A   1      35.896  30.258  28.510  1.00  0.00     0.039 A 
ATOM     38  C   UNL A   1      36.748  30.243  27.403  1.00  0.00     0.014 A 
ATOM     39  C   UNL A   1      36.321  29.740  29.737  1.00  0.00     0.014 A 
ATOM     40  C   UNL A   1      38.048  29.753  27.542  1.00  0.00     0.010 A 
ATOM     41  C   UNL A   1      37.639  29.322  29.891  1.00  0.00     0.010 A 
ATOM     42  C   UNL A   1      38.512  29.317  28.793  1.00  0.00    -0.014 A 
BRANCH  42  43
ATOM     43  C   UNL A   1      39.907  28.846  28.972  1.00  0.00     0.031 A 
ATOM     44  C   UNL A   1      40.277  27.430  28.628  1.00  0.00     0.074 A 
ATOM     45  C   UNL A   1      40.826  29.674  29.503  1.00  0.00     0.049 A 
ATOM     46  N   UNL A   1      41.427  26.820  28.767  1.00  0.00    -0.248 NA
ATOM     47  C   UNL A   1      39.207  26.580  28.080  1.00  0.00     0.031 C 
ATOM     48  C   UNL A   1      40.581  31.057  29.920  1.00  0.00     0.029 A 
ATOM     49  N   UNL A   1      42.151  29.469  29.792  1.00  0.00    -0.354 N 
ATOM     50  C   UNL A   1      41.215  25.517  28.336  1.00  0.00     0.074 A 
ATOM     51  C   UNL A   1      39.816  25.407  27.989  1.00  0.00     0.031 C 
ATOM     52  C   UNL A   1      41.723  31.582  30.389  1.00  0.00     0.029 A 
ATOM     53  C   UNL A   1      42.769  30.564  30.346  1.00  0.00     0.049 A 
ATOM     54  H   UNL A   1      42.615  28.619  29.620  1.00  0.00     0.167 HD
ATOM     55  C   UNL A   1      42.110  24.506  28.219  1.00  0.00     0.031 A 
ATOM     56  C   UNL A   1      44.032  30.729  30.779  1.00  0.00     0.031 A 
ATOM     57  C   UNL A   1      43.501  24.616  28.567  1.00  0.00     0.049 A 
ATOM     58  C   UNL A   1      45.003  29.588  30.657  1.00  0.00     0.074 A 
ATOM     59  C   UNL A   1      44.500  23.665  28.444  1.00  0.00     0.029 A 
ATOM     60  N   UNL A   1      44.090  25.745  29.115  1.00  0.00    -0.354 N 
ATOM     61  N   UNL A   1      44.805  28.382  30.185  1.00  0.00    -0.248 NA
ATOM     62  C   UNL A   1      46.377  29.839  31.115  1.00  0.00     0.031 C 
ATOM     63  C   UNL A   1      45.681  24.201  28.968  1.00  0.00     0.029 A 
ATOM     64  C   UNL A   1      45.433  25.507  29.359  1.00  0.00     0.049 A 
ATOM     65  H   UNL A   1      43.623  26.591  29.302  1.00  0.00     0.167 HD
ATOM     66  C   UNL A   1      46.032  27.736  30.265  1.00  0.00     0.074 A 
ATOM     67  C   UNL A   1      46.972  28.693  30.815  1.00  0.00     0.031 C 
ATOM     68  C   UNL A   1      46.353  26.466  29.914  1.00  0.00     0.031 A 
BRANCH  55  69
ATOM     69  C   UNL A   1      41.598  23.191  27.697  1.00  0.00    -0.014 A 
ATOM     70  C   UNL A   1      40.878  23.115  26.494  1.00  0.00     0.009 A 
ATOM     71  C   UNL A   1      41.851  22.008  28.409  1.00  0.00     0.009 A 
ATOM     72  C   UNL A   1      40.383  21.891  26.039  1.00  0.00     0.001 A 
ATOM     73  C   UNL A   1      41.384  20.780  27.936  1.00  0.00     0.001 A 
ATOM     74  C   UNL A   1      40.640  20.725  26.759  1.00  0.00     0.000 A 
ENDBRANCH  55  69
BRANCH  56  75
ATOM     75  C   UNL A   1      44.450  32.030  31.362  1.00  0.00    -0.014 A 
ATOM     76  C   UNL A   1      44.343  32.264  32.742  1.00  0.00     0.009 A 
ATOM     77  C   UNL A   1      44.969  33.044  30.541  1.00  0.00     0.009 A 
ATOM     78  C   UNL A   1      44.724  33.494  33.282  1.00  0.00     0.001 A 
ATOM     79  C   UNL A   1      45.377  34.262  31.089  1.00  0.00     0.001 A 
ATOM     80  C   UNL A   1      45.246  34.489  32.457  1.00  0.00     0.000 A 
ENDBRANCH  56  75
BRANCH  68  81
ATOM     81  C   UNL A   1      47.786  26.048  30.087  1.00  0.00    -0.014 A 
ATOM     82  C   UNL A   1      48.688  26.068  29.012  1.00  0.00     0.009 A 
ATOM     83  C   UNL A   1      48.248  25.665  31.356  1.00  0.00     0.009 A 
ATOM     84  C   UNL A   1      50.017  25.681  29.199  1.00  0.00     0.001 A 
ATOM     85  C   UNL A   1      49.584  25.308  31.546  1.00  0.00     0.001 A 
ATOM     86  C   UNL A   1      50.465  25.307  30.465  1.00  0.00     0.000 A 
ENDBRANCH  68  81
ENDBRANCH  42  43
ENDBRANCH  34  37
ENDBRANCH  32  33
ENDBRANCH  31  32
ENDBRANCH  30  31
ENDBRANCH  29  30
ENDBRANCH   1  29
TORSDOF 18
ENDMDL
MODEL 3
REMARK VINA RESULT:      -9.9      5.703      8.581
REMARK SMILES CN(C)Nc1ncnc(Nc2ccc(C(=O)NCCCCCCNC(=O)c3ccc(-c4c5nc(c(-c6ccccc6)c6ccc([nH]6)c(-c6ccccc6)c6nc(c(-c7ccccc7)c7ccc4[nH]7)C=C6)C=C5)cc3)cc2)c1[N+](=O)[O-]
REMARK SMILES IDX 19 1 18 2 17 3 15 4 16 5 14 7 11 8 12 9 76 10 13 11 75 12
REMARK SMILES IDX 10 13 9 15 5 16 6 17 77 18 7 19 8 20 4 21 2 23 1 24 3 25
REMARK SMILES IDX 78 26 79 27 80 28 20 29 21 30 22 31 23 32 24 33 25 34 26 36
REMARK SMILES IDX 27 37 28 38 74 39 29 40 73 41 30 42 31 43 32 44 67 45 33 46
REMARK SMILES IDX 72 47 66 48 68 49 34 50 71 51 65 52 64 53 35 55 57 56 42 57
REMARK SMILES IDX 56 58 43 59 46 60 55 61 69 62 44 63 45 64 54 66 70 67 47 68
REMARK SMILES IDX 36 69 37 70 41 71 38 72 40 73 39 74 58 75 59 76 63 77 60 78
REMARK SMILES IDX 62 79 61 80 48 81 49 82 53 83 50 84 52 85 51 86
REMARK H PARENT 17 6 10 14 4 22 24 35 68 54 46 65
REMARK Flexibility Score: inf
ROOT
ATOM      1  C   UNL A   1      38.249  33.000  29.611  1.00  0.00     0.021 C 
ENDROOT
BRANCH   1   2
ATOM      2  C   UNL A   1      37.382  32.020  28.819  1.00  0.00     0.116 C 
BRANCH   2   3
ATOM      3  N   UNL A   1      36.844  31.018  29.718  1.00  0.00    -0.352 N 
ATOM      4  C   UNL A   1      37.213  29.732  30.009  1.00  0.00     0.251 C 
ATOM      5  O   UNL A   1      36.496  29.095  30.781  1.00  0.00    -0.269 OA
ATOM      6  H   UNL A   1      36.054  31.325  30.219  1.00  0.00     0.163 HD
BRANCH   4   7
ATOM      7  C   UNL A   1      38.472  29.114  29.515  1.00  0.00     0.039 A 
ATOM      8  C   UNL A   1      40.961  27.929  28.937  1.00  0.00     0.040 A 
ATOM      9  C   UNL A   1      40.065  27.291  29.791  1.00  0.00     0.027 A 
ATOM     10  C   UNL A   1      40.543  29.083  28.263  1.00  0.00     0.027 A 
ATOM     11  C   UNL A   1      38.841  27.892  30.098  1.00  0.00     0.016 A 
ATOM     12  C   UNL A   1      39.296  29.659  28.530  1.00  0.00     0.016 A 
BRANCH   8  13
ATOM     13  N   UNL A   1      42.222  27.357  28.688  1.00  0.00    -0.334 N 
ATOM     14  H   UNL A   1      42.881  27.366  29.418  1.00  0.00     0.168 HD
BRANCH  13  15
ATOM     15  C   UNL A   1      42.605  26.772  27.463  1.00  0.00     0.215 A 
ATOM     16  C   UNL A   1      42.698  24.998  25.888  1.00  0.00     0.225 A 
ATOM     17  N   UNL A   1      43.401  25.776  25.036  1.00  0.00    -0.212 NA
ATOM     18  C   UNL A   1      42.374  25.441  27.154  1.00  0.00     0.354 A 
ATOM     19  C   UNL A   1      43.667  27.020  25.434  1.00  0.00     0.227 A 
ATOM     20  N   UNL A   1      43.266  27.563  26.585  1.00  0.00    -0.212 NA
BRANCH  16  21
ATOM     21  N   UNL A   1      42.251  23.823  25.278  1.00  0.00    -0.298 N 
ATOM     22  H   UNL A   1      41.373  23.849  24.833  1.00  0.00     0.184 HD
BRANCH  21  23
ATOM     23  N   UNL A   1      42.964  22.591  25.248  1.00  0.00    -0.228 NA
ATOM     24  C   UNL A   1      44.245  22.660  25.974  1.00  0.00     0.130 C 
ATOM     25  C   UNL A   1      42.120  21.595  25.939  1.00  0.00     0.130 C 
ENDBRANCH  21  23
ENDBRANCH  16  21
BRANCH  18  26
ATOM     26  N   UNL A   1      41.852  24.546  28.142  1.00  0.00     0.070 N 
ATOM     27  O   UNL A   1      40.671  24.182  28.003  1.00  0.00    -0.258 OA
ATOM     28  O   UNL A   1      42.565  24.283  29.119  1.00  0.00    -0.258 OA
ENDBRANCH  18  26
ENDBRANCH  13  15
ENDBRANCH   8  13
ENDBRANCH   4   7
ENDBRANCH   2   3
ENDBRANCH   1   2
BRANCH   1  29
ATOM     29  C   UNL A   1      37.891  33.040  31.104  1.00  0.00     0.002 C 
BRANCH  29  30
ATOM     30  C   UNL A   1      37.929  34.440  31.731  1.00  0.00     0.002 C 
BRANCH  30  31
ATOM     31  C   UNL A   1      37.649  34.474  33.235  1.00  0.00     0.021 C 
BRANCH  31  32
ATOM     32  C   UNL A   1      36.625  33.445  33.700  1.00  0.00     0.116 C 
BRANCH  32  33
ATOM     33  N   UNL A   1      36.926  32.954  35.036  1.00  0.00    -0.352 N 
ATOM     34  C   UNL A   1      37.847  32.015  35.426  1.00  0.00     0.251 C 
ATOM     35  H   UNL A   1      36.395  33.352  35.762  1.00  0.00     0.163 HD
ATOM     36  O   UNL A   1      37.811  31.541  36.555  1.00  0.00    -0.269 OA
BRANCH  34  37
ATOM     37  C   UNL A   1      38.882  31.568  34.470  1.00  0.00     0.039 A 
ATOM     38  C   UNL A   1      40.143  32.166  34.508  1.00  0.00     0.014 A 
ATOM     39  C   UNL A   1      38.600  30.568  33.534  1.00  0.00     0.014 A 
ATOM     40  C   UNL A   1      41.140  31.724  33.637  1.00  0.00     0.010 A 
ATOM     41  C   UNL A   1      39.615  30.079  32.720  1.00  0.00     0.010 A 
ATOM     42  C   UNL A   1      40.893  30.657  32.757  1.00  0.00    -0.014 A 
BRANCH  42  43
ATOM     43  C   UNL A   1      41.956  30.136  31.865  1.00  0.00     0.031 A 
ATOM     44  C   UNL A   1      42.611  28.816  32.159  1.00  0.00     0.074 A 
ATOM     45  C   UNL A   1      42.375  30.881  30.824  1.00  0.00     0.049 A 
ATOM     46  N   UNL A   1      43.593  28.222  31.529  1.00  0.00    -0.248 NA
ATOM     47  C   UNL A   1      42.116  28.078  33.333  1.00  0.00     0.031 C 
ATOM     48  C   UNL A   1      41.850  32.199  30.459  1.00  0.00     0.029 A 
ATOM     49  N   UNL A   1      43.347  30.638  29.887  1.00  0.00    -0.354 N 
ATOM     50  C   UNL A   1      43.838  27.051  32.234  1.00  0.00     0.074 A 
ATOM     51  C   UNL A   1      42.946  27.047  33.372  1.00  0.00     0.031 C 
ATOM     52  C   UNL A   1      42.491  32.637  29.364  1.00  0.00     0.029 A 
ATOM     53  C   UNL A   1      43.497  31.654  28.974  1.00  0.00     0.049 A 
ATOM     54  H   UNL A   1      43.886  29.815  29.870  1.00  0.00     0.167 HD
ATOM     55  C   UNL A   1      44.713  26.057  31.949  1.00  0.00     0.031 A 
ATOM     56  C   UNL A   1      44.354  31.785  27.945  1.00  0.00     0.031 A 
ATOM     57  C   UNL A   1      45.602  26.063  30.818  1.00  0.00     0.049 A 
ATOM     58  C   UNL A   1      45.328  30.677  27.658  1.00  0.00     0.074 A 
ATOM     59  C   UNL A   1      46.494  25.085  30.415  1.00  0.00     0.029 A 
ATOM     60  N   UNL A   1      45.716  27.106  29.911  1.00  0.00    -0.354 N 
ATOM     61  N   UNL A   1      45.503  29.545  28.294  1.00  0.00    -0.248 NA
ATOM     62  C   UNL A   1      46.215  30.861  26.500  1.00  0.00     0.031 C 
ATOM     63  C   UNL A   1      47.187  25.559  29.296  1.00  0.00     0.029 A 
ATOM     64  C   UNL A   1      46.681  26.806  28.964  1.00  0.00     0.049 A 
ATOM     65  H   UNL A   1      45.188  27.937  29.936  1.00  0.00     0.167 HD
ATOM     66  C   UNL A   1      46.500  28.870  27.603  1.00  0.00     0.074 A 
ATOM     67  C   UNL A   1      46.878  29.714  26.485  1.00  0.00     0.031 C 
ATOM     68  C   UNL A   1      47.052  27.660  27.865  1.00  0.00     0.031 A 
BRANCH  55  69
ATOM     69  C   UNL A   1      44.750  24.882  32.888  1.00  0.00    -0.014 A 
ATOM     70  C   UNL A   1      45.634  24.848  33.979  1.00  0.00     0.009 A 
ATOM     71  C   UNL A   1      43.880  23.799  32.691  1.00  0.00     0.009 A 
ATOM     72  C   UNL A   1      45.678  23.737  34.824  1.00  0.00     0.001 A 
ATOM     73  C   UNL A   1      43.901  22.703  33.557  1.00  0.00     0.001 A 
ATOM     74  C   UNL A   1      44.809  22.668  34.614  1.00  0.00     0.000 A 
ENDBRANCH  55  69
BRANCH  56  75
ATOM     75  C   UNL A   1      44.320  33.011  27.106  1.00  0.00    -0.014 A 
ATOM     76  C   UNL A   1      44.930  34.195  27.545  1.00  0.00     0.009 A 
ATOM     77  C   UNL A   1      43.684  32.999  25.854  1.00  0.00     0.009 A 
ATOM     78  C   UNL A   1      44.883  35.349  26.758  1.00  0.00     0.001 A 
ATOM     79  C   UNL A   1      43.665  34.145  25.056  1.00  0.00     0.001 A 
ATOM     80  C   UNL A   1      44.256  35.321  25.514  1.00  0.00     0.000 A 
ENDBRANCH  56  75
BRANCH  68  81
ATOM     81  C   UNL A   1      48.104  27.164  26.913  1.00  0.00    -0.014 A 
ATOM     82  C   UNL A   1      47.765  26.413  25.776  1.00  0.00     0.009 A 
ATOM     83  C   UNL A   1      49.451  27.487  27.137  1.00  0.00     0.009 A 
ATOM     84  C   UNL A   1      48.760  25.968  24.902  1.00  0.00     0.001 A 
ATOM     85  C   UNL A   1      50.440  27.068  26.247  1.00  0.00     0.001 A 
ATOM     86  C   UNL A   1      50.094  26.301  25.135  1.00  0.00     0.000 A 
ENDBRANCH  68  81
ENDBRANCH  42  43
ENDBRANCH  34  37
ENDBRANCH  32  33
ENDBRANCH  31  32
ENDBRANCH  30  31
ENDBRANCH  29  30
ENDBRANCH   1  29
TORSDOF 18
ENDMDL
