MODEL 1
REMARK VINA RESULT:     -11.6      0.000      0.000
REMARK SMILES CCOc1ccc(C(=O)NC(=S)Nc2cccc(C(=O)NCCCCCCNC(=O)c3ccc(-c4c5nc(c(-c6ccccc6)c6ccc([nH]6)c(-c6ccccc6)c6nc(c(-c7ccccc7)c7ccc4[nH]7)C=C6)C=C5)cc3)c2C)cc1Br
REMARK SMILES IDX 22 1 21 2 19 3 20 4 18 6 14 7 15 8 79 9 16 10 80 11 17 12
REMARK SMILES IDX 13 13 11 15 12 16 10 17 8 18 9 19 7 21 4 22 5 23 82 24 6 25
REMARK SMILES IDX 81 26 83 27 3 28 2 29 1 30 23 31 24 32 25 33 26 34 27 35
REMARK SMILES IDX 28 36 29 37 30 39 31 40 32 41 78 42 33 43 77 44 34 45 35 46
REMARK SMILES IDX 36 47 71 48 37 49 76 50 70 51 72 52 38 53 75 54 69 55 68 56
REMARK SMILES IDX 39 58 61 59 46 60 60 61 47 62 50 63 59 64 73 65 48 66 49 67
REMARK SMILES IDX 58 69 74 70 51 71 40 72 41 73 45 74 42 75 44 76 43 77 62 78
REMARK SMILES IDX 63 79 67 80 64 81 66 82 65 83 52 84 53 85 57 86 54 87 56 88
REMARK SMILES IDX 55 89
REMARK H PARENT 21 5 13 14 10 20 28 38 72 57 50 68
REMARK Flexibility Score: inf
ROOT
ATOM      1  C   UNL A   1      37.650  23.285  26.196  1.00  0.00     0.116 C 
ENDROOT
BRANCH   1   2
ATOM      2  N   UNL A   1      37.898  21.884  25.783  1.00  0.00    -0.352 N 
ATOM      3  C   UNL A   1      37.240  20.855  25.089  1.00  0.00     0.251 C 
ATOM      4  O   UNL A   1      37.905  19.857  24.813  1.00  0.00    -0.269 OA
ATOM      5  H   UNL A   1      38.785  21.585  26.085  1.00  0.00     0.163 HD
BRANCH   3   6
ATOM      6  C   UNL A   1      35.778  20.834  24.743  1.00  0.00     0.044 A 
ATOM      7  C   UNL A   1      33.109  21.773  23.269  1.00  0.00     0.044 A 
ATOM      8  C   UNL A   1      32.303  20.199  23.367  1.00  0.00     0.026 A 
ATOM      9  C   UNL A   1      34.843  22.040  23.794  1.00  0.00    -0.015 A 
ATOM     10  C   UNL A   1      33.150  18.926  24.229  1.00  0.00     0.003 A 
ATOM     11  C   UNL A   1      35.464  23.365  23.470  1.00  0.00     0.047 C 
ATOM     12  C   UNL A   1      34.942  19.320  25.077  1.00  0.00     0.014 A 
BRANCH   7  13
ATOM     13  N   UNL A   1      32.179  22.705  23.844  1.00  0.00    -0.332 N 
ATOM     14  H   UNL A   1      31.854  22.484  24.746  1.00  0.00     0.169 HD
BRANCH  13  15
ATOM     15  C   UNL A   1      31.681  23.877  23.293  1.00  0.00     0.177 C 
ATOM     16  S   UNL A   1      30.321  24.531  24.031  1.00  0.00    -0.040 S 
BRANCH  15  17
ATOM     17  N   UNL A   1      32.161  24.560  22.098  1.00  0.00    -0.299 N 
ATOM     18  C   UNL A   1      32.511  25.767  21.240  1.00  0.00     0.257 C 
ATOM     19  O   UNL A   1      32.968  25.595  20.113  1.00  0.00    -0.269 OA
ATOM     20  H   UNL A   1      32.392  23.808  21.506  1.00  0.00     0.172 HD
BRANCH  18  21
ATOM     21  C   UNL A   1      32.256  27.166  21.720  1.00  0.00     0.041 A 
ATOM     22  C   UNL A   1      32.198  29.360  24.788  1.00  0.00     0.133 A 
ATOM     23  C   UNL A   1      30.738  29.005  23.809  1.00  0.00     0.048 A 
ATOM     24  C   UNL A   1      33.725  28.588  24.285  1.00  0.00     0.060 A 
ATOM     25  C   UNL A   1      30.757  27.911  22.346  1.00  0.00     0.018 A 
ATOM     26  C   UNL A   1      33.711  27.547  22.554  1.00  0.00     0.033 A 
ATOM     27  Br  UNL A   1      34.671  28.166  26.205  1.00  0.00    -0.047 Br
BRANCH  22  28
ATOM     28  O   UNL A   1      32.302  30.370  25.727  1.00  0.00    -0.493 OA
BRANCH  28  29
ATOM     29  C   UNL A   1      31.665  30.096  27.019  1.00  0.00     0.226 C 
ATOM     30  C   UNL A   1      31.505  28.697  27.619  1.00  0.00     0.049 C 
ENDBRANCH  28  29
ENDBRANCH  22  28
ENDBRANCH  18  21
ENDBRANCH  15  17
ENDBRANCH  13  15
ENDBRANCH   7  13
ENDBRANCH   3   6
ENDBRANCH   1   2
BRANCH   1  31
ATOM     31  C   UNL A   1      38.848  24.219  26.443  1.00  0.00     0.021 C 
BRANCH  31  32
ATOM     32  C   UNL A   1      39.509  24.101  27.804  1.00  0.00     0.002 C 
BRANCH  32  33
ATOM     33  C   UNL A   1      40.883  23.434  27.766  1.00  0.00     0.002 C 
BRANCH  33  34
ATOM     34  C   UNL A   1      41.160  22.605  26.513  1.00  0.00     0.021 C 
BRANCH  34  35
ATOM     35  C   UNL A   1      42.287  23.153  25.664  1.00  0.00     0.116 C 
BRANCH  35  36
ATOM     36  N   UNL A   1      43.025  22.082  25.023  1.00  0.00    -0.352 N 
ATOM     37  C   UNL A   1      44.324  22.068  24.561  1.00  0.00     0.251 C 
ATOM     38  H   UNL A   1      42.526  21.243  24.901  1.00  0.00     0.163 HD
ATOM     39  O   UNL A   1      44.630  21.284  23.666  1.00  0.00    -0.269 OA
BRANCH  37  40
ATOM     40  C   UNL A   1      45.392  22.780  25.326  1.00  0.00     0.039 A 
ATOM     41  C   UNL A   1      45.230  22.655  26.716  1.00  0.00     0.014 A 
ATOM     42  C   UNL A   1      45.911  23.953  24.804  1.00  0.00     0.014 A 
ATOM     43  C   UNL A   1      45.151  23.803  27.481  1.00  0.00     0.010 A 
ATOM     44  C   UNL A   1      45.623  25.099  25.478  1.00  0.00     0.010 A 
ATOM     45  C   UNL A   1      45.172  25.005  26.795  1.00  0.00    -0.014 A 
BRANCH  45  46
ATOM     46  C   UNL A   1      45.009  26.305  27.384  1.00  0.00     0.031 A 
ATOM     47  C   UNL A   1      43.697  26.887  27.046  1.00  0.00     0.074 A 
ATOM     48  C   UNL A   1      45.897  26.581  28.372  1.00  0.00     0.049 A 
ATOM     49  N   UNL A   1      43.343  28.084  27.286  1.00  0.00    -0.248 NA
ATOM     50  C   UNL A   1      42.625  26.137  26.356  1.00  0.00     0.031 C 
ATOM     51  C   UNL A   1      45.891  27.531  29.479  1.00  0.00     0.029 A 
ATOM     52  N   UNL A   1      47.216  26.099  28.396  1.00  0.00    -0.354 N 
ATOM     53  C   UNL A   1      41.963  28.101  27.255  1.00  0.00     0.074 A 
ATOM     54  C   UNL A   1      41.571  26.946  26.504  1.00  0.00     0.031 C 
ATOM     55  C   UNL A   1      47.168  27.859  29.779  1.00  0.00     0.029 A 
ATOM     56  C   UNL A   1      48.017  27.184  28.810  1.00  0.00     0.049 A 
ATOM     57  H   UNL A   1      47.520  25.191  28.172  1.00  0.00     0.167 HD
ATOM     58  C   UNL A   1      41.346  28.999  28.065  1.00  0.00     0.031 A 
ATOM     59  C   UNL A   1      48.772  27.810  27.854  1.00  0.00     0.031 A 
ATOM     60  C   UNL A   1      42.372  29.832  28.699  1.00  0.00     0.049 A 
ATOM     61  C   UNL A   1      48.153  29.156  27.515  1.00  0.00     0.074 A 
ATOM     62  C   UNL A   1      42.991  29.772  29.935  1.00  0.00     0.029 A 
ATOM     63  N   UNL A   1      43.237  30.527  27.861  1.00  0.00    -0.354 N 
ATOM     64  N   UNL A   1      46.875  29.441  27.601  1.00  0.00    -0.248 NA
ATOM     65  C   UNL A   1      48.970  30.325  27.220  1.00  0.00     0.031 C 
ATOM     66  C   UNL A   1      44.290  30.359  29.789  1.00  0.00     0.029 A 
ATOM     67  C   UNL A   1      44.455  30.765  28.473  1.00  0.00     0.049 A 
ATOM     68  H   UNL A   1      43.011  30.814  26.947  1.00  0.00     0.167 HD
ATOM     69  C   UNL A   1      46.701  30.802  27.518  1.00  0.00     0.074 A 
ATOM     70  C   UNL A   1      48.046  31.299  27.263  1.00  0.00     0.031 C 
ATOM     71  C   UNL A   1      45.506  31.451  27.718  1.00  0.00     0.031 A 
BRANCH  58  72
ATOM     72  C   UNL A   1      39.901  28.998  28.490  1.00  0.00    -0.014 A 
ATOM     73  C   UNL A   1      38.966  29.602  27.627  1.00  0.00     0.009 A 
ATOM     74  C   UNL A   1      39.389  28.498  29.701  1.00  0.00     0.009 A 
ATOM     75  C   UNL A   1      37.609  29.717  27.950  1.00  0.00     0.001 A 
ATOM     76  C   UNL A   1      38.024  28.601  30.028  1.00  0.00     0.001 A 
ATOM     77  C   UNL A   1      37.136  29.214  29.153  1.00  0.00     0.000 A 
ENDBRANCH  58  72
BRANCH  59  78
ATOM     78  C   UNL A   1      49.375  26.800  26.915  1.00  0.00    -0.014 A 
ATOM     79  C   UNL A   1      49.204  27.053  25.527  1.00  0.00     0.009 A 
ATOM     80  C   UNL A   1      50.456  26.002  27.305  1.00  0.00     0.009 A 
ATOM     81  C   UNL A   1      50.224  26.767  24.613  1.00  0.00     0.001 A 
ATOM     82  C   UNL A   1      51.436  25.648  26.362  1.00  0.00     0.001 A 
ATOM     83  C   UNL A   1      51.364  26.102  25.044  1.00  0.00     0.000 A 
ENDBRANCH  59  78
BRANCH  71  84
ATOM     84  C   UNL A   1      45.189  32.859  27.228  1.00  0.00    -0.014 A 
ATOM     85  C   UNL A   1      44.715  33.174  25.954  1.00  0.00     0.009 A 
ATOM     86  C   UNL A   1      45.249  33.945  28.138  1.00  0.00     0.009 A 
ATOM     87  C   UNL A   1      44.385  34.485  25.589  1.00  0.00     0.001 A 
ATOM     88  C   UNL A   1      44.833  35.236  27.813  1.00  0.00     0.001 A 
ATOM     89  C   UNL A   1      44.424  35.512  26.524  1.00  0.00     0.000 A 
ENDBRANCH  71  84
ENDBRANCH  45  46
ENDBRANCH  37  40
ENDBRANCH  35  36
ENDBRANCH  34  35
ENDBRANCH  33  34
ENDBRANCH  32  33
ENDBRANCH  31  32
ENDBRANCH   1  31
TORSDOF 19
ENDMDL
MODEL 2
REMARK VINA RESULT:     -11.5      3.351      5.893
REMARK SMILES CCOc1ccc(C(=O)NC(=S)Nc2cccc(C(=O)NCCCCCCNC(=O)c3ccc(-c4c5nc(c(-c6ccccc6)c6ccc([nH]6)c(-c6ccccc6)c6nc(c(-c7ccccc7)c7ccc4[nH]7)C=C6)C=C5)cc3)c2C)cc1Br
REMARK SMILES IDX 22 1 21 2 19 3 20 4 18 6 14 7 15 8 79 9 16 10 80 11 17 12
REMARK SMILES IDX 13 13 11 15 12 16 10 17 8 18 9 19 7 21 4 22 5 23 82 24 6 25
REMARK SMILES IDX 81 26 83 27 3 28 2 29 1 30 23 31 24 32 25 33 26 34 27 35
REMARK SMILES IDX 28 36 29 37 30 39 31 40 32 41 78 42 33 43 77 44 34 45 35 46
REMARK SMILES IDX 36 47 71 48 37 49 76 50 70 51 72 52 38 53 75 54 69 55 68 56
REMARK SMILES IDX 39 58 61 59 46 60 60 61 47 62 50 63 59 64 73 65 48 66 49 67
REMARK SMILES IDX 58 69 74 70 51 71 40 72 41 73 45 74 42 75 44 76 43 77 62 78
REMARK SMILES IDX 63 79 67 80 64 81 66 82 65 83 52 84 53 85 57 86 54 87 56 88
REMARK SMILES IDX 55 89
REMARK H PARENT 21 5 13 14 10 20 28 38 72 57 50 68
REMARK Flexibility Score: inf
ROOT
ATOM      1  C   UNL A   1      32.057  22.791  24.059  1.00  0.00     0.116 C 
ENDROOT
BRANCH   1   2
ATOM      2  N   UNL A   1      31.831  23.329  25.421  1.00  0.00    -0.352 N 
ATOM      3  C   UNL A   1      31.499  24.548  26.033  1.00  0.00     0.251 C 
ATOM      4  O   UNL A   1      31.234  24.513  27.235  1.00  0.00    -0.269 OA
ATOM      5  H   UNL A   1      31.949  22.623  26.096  1.00  0.00     0.163 HD
BRANCH   3   6
ATOM      6  C   UNL A   1      31.535  25.895  25.368  1.00  0.00     0.044 A 
ATOM      7  C   UNL A   1      32.860  28.384  23.875  1.00  0.00     0.044 A 
ATOM      8  C   UNL A   1      31.378  28.889  23.048  1.00  0.00     0.026 A 
ATOM      9  C   UNL A   1      32.973  26.851  24.871  1.00  0.00    -0.015 A 
ATOM     10  C   UNL A   1      29.916  27.990  23.419  1.00  0.00     0.003 A 
ATOM     11  C   UNL A   1      34.333  26.438  25.346  1.00  0.00     0.047 C 
ATOM     12  C   UNL A   1      29.988  26.483  24.764  1.00  0.00     0.014 A 
BRANCH   7  13
ATOM     13  N   UNL A   1      33.324  29.557  24.561  1.00  0.00    -0.332 N 
ATOM     14  H   UNL A   1      33.813  30.210  24.010  1.00  0.00     0.169 HD
BRANCH  13  15
ATOM     15  C   UNL A   1      33.172  29.891  25.899  1.00  0.00     0.177 C 
ATOM     16  S   UNL A   1      31.649  30.417  26.371  1.00  0.00    -0.040 S 
BRANCH  15  17
ATOM     17  N   UNL A   1      34.209  29.907  26.924  1.00  0.00    -0.299 N 
ATOM     18  C   UNL A   1      35.120  30.547  27.962  1.00  0.00     0.257 C 
ATOM     19  O   UNL A   1      35.904  29.843  28.593  1.00  0.00    -0.269 OA
ATOM     20  H   UNL A   1      34.468  28.959  26.975  1.00  0.00     0.172 HD
BRANCH  18  21
ATOM     21  C   UNL A   1      35.123  32.030  28.189  1.00  0.00     0.041 A 
ATOM     22  C   UNL A   1      33.985  34.742  30.551  1.00  0.00     0.133 A 
ATOM     23  C   UNL A   1      33.395  34.602  28.863  1.00  0.00     0.048 A 
ATOM     24  C   UNL A   1      35.130  33.500  31.121  1.00  0.00     0.060 A 
ATOM     25  C   UNL A   1      33.915  33.266  27.731  1.00  0.00     0.018 A 
ATOM     26  C   UNL A   1      35.805  32.167  29.761  1.00  0.00     0.033 A 
ATOM     27  Br  UNL A   1      34.518  33.243  33.200  1.00  0.00    -0.047 Br
BRANCH  22  28
ATOM     28  O   UNL A   1      33.841  35.857  31.356  1.00  0.00    -0.493 OA
BRANCH  28  29
ATOM     29  C   UNL A   1      32.458  36.277  31.608  1.00  0.00     0.226 C 
ATOM     30  C   UNL A   1      31.518  35.587  32.599  1.00  0.00     0.049 C 
ENDBRANCH  28  29
ENDBRANCH  22  28
ENDBRANCH  18  21
ENDBRANCH  15  17
ENDBRANCH  13  15
ENDBRANCH   7  13
ENDBRANCH   3   6
ENDBRANCH   1   2
BRANCH   1  31
ATOM     31  C   UNL A   1      33.423  23.001  23.384  1.00  0.00     0.021 C 
BRANCH  31  32
ATOM     32  C   UNL A   1      34.638  22.689  24.239  1.00  0.00     0.002 C 
BRANCH  32  33
ATOM     33  C   UNL A   1      35.968  22.874  23.512  1.00  0.00     0.002 C 
BRANCH  33  34
ATOM     34  C   UNL A   1      37.187  22.326  24.253  1.00  0.00     0.021 C 
BRANCH  34  35
ATOM     35  C   UNL A   1      36.999  22.254  25.753  1.00  0.00     0.116 C 
BRANCH  35  36
ATOM     36  N   UNL A   1      38.267  22.055  26.428  1.00  0.00    -0.352 N 
ATOM     37  C   UNL A   1      39.354  22.899  26.517  1.00  0.00     0.251 C 
ATOM     38  H   UNL A   1      38.367  21.192  26.890  1.00  0.00     0.163 HD
ATOM     39  O   UNL A   1      40.468  22.419  26.710  1.00  0.00    -0.269 OA
BRANCH  37  40
ATOM     40  C   UNL A   1      39.141  24.371  26.662  1.00  0.00     0.039 A 
ATOM     41  C   UNL A   1      39.959  25.119  25.798  1.00  0.00     0.014 A 
ATOM     42  C   UNL A   1      38.834  24.877  27.914  1.00  0.00     0.014 A 
ATOM     43  C   UNL A   1      40.790  26.081  26.337  1.00  0.00     0.010 A 
ATOM     44  C   UNL A   1      39.782  25.650  28.508  1.00  0.00     0.010 A 
ATOM     45  C   UNL A   1      40.798  26.186  27.717  1.00  0.00    -0.014 A 
BRANCH  45  46
ATOM     46  C   UNL A   1      41.653  27.052  28.483  1.00  0.00     0.031 A 
ATOM     47  C   UNL A   1      41.060  28.393  28.637  1.00  0.00     0.074 A 
ATOM     48  C   UNL A   1      42.620  26.401  29.177  1.00  0.00     0.049 A 
ATOM     49  N   UNL A   1      41.657  29.407  29.118  1.00  0.00    -0.248 NA
ATOM     50  C   UNL A   1      39.680  28.727  28.222  1.00  0.00     0.031 C 
ATOM     51  C   UNL A   1      43.424  26.763  30.340  1.00  0.00     0.029 A 
ATOM     52  N   UNL A   1      43.241  25.222  28.738  1.00  0.00    -0.354 N 
ATOM     53  C   UNL A   1      40.674  30.292  29.513  1.00  0.00     0.074 A 
ATOM     54  C   UNL A   1      39.497  29.927  28.782  1.00  0.00     0.031 C 
ATOM     55  C   UNL A   1      44.606  26.110  30.273  1.00  0.00     0.029 A 
ATOM     56  C   UNL A   1      44.615  25.379  29.015  1.00  0.00     0.049 A 
ATOM     57  H   UNL A   1      42.808  24.443  28.321  1.00  0.00     0.167 HD
ATOM     58  C   UNL A   1      40.960  31.086  30.577  1.00  0.00     0.031 A 
ATOM     59  C   UNL A   1      45.446  25.642  27.959  1.00  0.00     0.031 A 
ATOM     60  C   UNL A   1      42.356  30.856  30.963  1.00  0.00     0.049 A 
ATOM     61  C   UNL A   1      45.871  27.101  27.993  1.00  0.00     0.074 A 
ATOM     62  C   UNL A   1      42.937  30.059  31.933  1.00  0.00     0.029 A 
ATOM     63  N   UNL A   1      43.329  31.064  29.993  1.00  0.00    -0.354 N 
ATOM     64  N   UNL A   1      45.160  28.081  28.501  1.00  0.00    -0.248 NA
ATOM     65  C   UNL A   1      47.211  27.520  27.607  1.00  0.00     0.031 C 
ATOM     66  C   UNL A   1      44.248  29.713  31.470  1.00  0.00     0.029 A 
ATOM     67  C   UNL A   1      44.453  30.292  30.227  1.00  0.00     0.049 A 
ATOM     68  H   UNL A   1      43.231  31.684  29.234  1.00  0.00     0.167 HD
ATOM     69  C   UNL A   1      45.952  29.195  28.643  1.00  0.00     0.074 A 
ATOM     70  C   UNL A   1      47.219  28.787  28.051  1.00  0.00     0.031 C 
ATOM     71  C   UNL A   1      45.566  30.353  29.276  1.00  0.00     0.031 A 
BRANCH  58  72
ATOM     72  C   UNL A   1      39.985  31.864  31.420  1.00  0.00    -0.014 A 
ATOM     73  C   UNL A   1      40.040  33.270  31.353  1.00  0.00     0.009 A 
ATOM     74  C   UNL A   1      39.047  31.325  32.321  1.00  0.00     0.009 A 
ATOM     75  C   UNL A   1      39.226  34.092  32.141  1.00  0.00     0.001 A 
ATOM     76  C   UNL A   1      38.220  32.146  33.108  1.00  0.00     0.001 A 
ATOM     77  C   UNL A   1      38.313  33.530  33.020  1.00  0.00     0.000 A 
ENDBRANCH  58  72
BRANCH  59  78
ATOM     78  C   UNL A   1      45.054  24.814  26.764  1.00  0.00    -0.014 A 
ATOM     79  C   UNL A   1      44.931  23.416  26.982  1.00  0.00     0.009 A 
ATOM     80  C   UNL A   1      44.342  25.374  25.697  1.00  0.00     0.009 A 
ATOM     81  C   UNL A   1      43.927  22.674  26.349  1.00  0.00     0.001 A 
ATOM     82  C   UNL A   1      43.392  24.599  25.011  1.00  0.00     0.001 A 
ATOM     83  C   UNL A   1      43.126  23.282  25.393  1.00  0.00     0.000 A 
ENDBRANCH  59  78
BRANCH  71  84
ATOM     84  C   UNL A   1      46.228  31.712  29.083  1.00  0.00    -0.014 A 
ATOM     85  C   UNL A   1      47.028  32.353  30.031  1.00  0.00     0.009 A 
ATOM     86  C   UNL A   1      46.154  32.352  27.820  1.00  0.00     0.009 A 
ATOM     87  C   UNL A   1      47.656  33.576  29.764  1.00  0.00     0.001 A 
ATOM     88  C   UNL A   1      46.852  33.520  27.515  1.00  0.00     0.001 A 
ATOM     89  C   UNL A   1      47.585  34.148  28.501  1.00  0.00     0.000 A 
ENDBRANCH  71  84
ENDBRANCH  45  46
ENDBRANCH  37  40
ENDBRANCH  35  36
ENDBRANCH  34  35
ENDBRANCH  33  34
ENDBRANCH  32  33
ENDBRANCH  31  32
ENDBRANCH   1  31
TORSDOF 19
ENDMDL
MODEL 3
REMARK VINA RESULT:     -11.1      2.866      6.543
REMARK SMILES CCOc1ccc(C(=O)NC(=S)Nc2cccc(C(=O)NCCCCCCNC(=O)c3ccc(-c4c5nc(c(-c6ccccc6)c6ccc([nH]6)c(-c6ccccc6)c6nc(c(-c7ccccc7)c7ccc4[nH]7)C=C6)C=C5)cc3)c2C)cc1Br
REMARK SMILES IDX 22 1 21 2 19 3 20 4 18 6 14 7 15 8 79 9 16 10 80 11 17 12
REMARK SMILES IDX 13 13 11 15 12 16 10 17 8 18 9 19 7 21 4 22 5 23 82 24 6 25
REMARK SMILES IDX 81 26 83 27 3 28 2 29 1 30 23 31 24 32 25 33 26 34 27 35
REMARK SMILES IDX 28 36 29 37 30 39 31 40 32 41 78 42 33 43 77 44 34 45 35 46
REMARK SMILES IDX 36 47 71 48 37 49 76 50 70 51 72 52 38 53 75 54 69 55 68 56
REMARK SMILES IDX 39 58 61 59 46 60 60 61 47 62 50 63 59 64 73 65 48 66 49 67
REMARK SMILES IDX 58 69 74 70 51 71 40 72 41 73 45 74 42 75 44 76 43 77 62 78
REMARK SMILES IDX 63 79 67 80 64 81 66 82 65 83 52 84 53 85 57 86 54 87 56 88
REMARK SMILES IDX 55 89
REMARK H PARENT 21 5 13 14 10 20 28 38 72 57 50 68
REMARK Flexibility Score: inf
ROOT
ATOM      1  C   UNL A   1      31.372  23.277  24.208  1.00  0.00     0.116 C 
ENDROOT
BRANCH   1   2
ATOM      2  N   UNL A   1      30.247  24.239  24.144  1.00  0.00    -0.352 N 
ATOM      3  C   UNL A   1      30.037  25.604  23.889  1.00  0.00     0.251 C 
ATOM      4  O   UNL A   1      28.870  25.974  23.766  1.00  0.00    -0.269 OA
ATOM      5  H   UNL A   1      29.394  23.788  24.336  1.00  0.00     0.163 HD
BRANCH   3   6
ATOM      6  C   UNL A   1      31.108  26.658  23.852  1.00  0.00     0.044 A 
ATOM      7  C   UNL A   1      33.444  28.493  25.014  1.00  0.00     0.044 A 
ATOM      8  C   UNL A   1      34.259  28.728  23.460  1.00  0.00     0.026 A 
ATOM      9  C   UNL A   1      32.013  27.370  25.231  1.00  0.00    -0.015 A 
ATOM     10  C   UNL A   1      33.489  28.028  22.047  1.00  0.00     0.003 A 
ATOM     11  C   UNL A   1      31.550  27.110  26.632  1.00  0.00     0.047 C 
ATOM     12  C   UNL A   1      31.735  27.044  22.252  1.00  0.00     0.014 A 
BRANCH   7  13
ATOM     13  N   UNL A   1      33.224  29.818  25.525  1.00  0.00    -0.332 N 
ATOM     14  H   UNL A   1      32.718  30.424  24.937  1.00  0.00     0.169 HD
BRANCH  13  15
ATOM     15  C   UNL A   1      33.631  30.353  26.738  1.00  0.00     0.177 C 
ATOM     16  S   UNL A   1      34.481  29.327  27.761  1.00  0.00    -0.040 S 
BRANCH  15  17
ATOM     17  N   UNL A   1      33.338  31.684  27.255  1.00  0.00    -0.299 N 
ATOM     18  C   UNL A   1      33.572  32.920  28.112  1.00  0.00     0.257 C 
ATOM     19  O   UNL A   1      32.790  33.864  28.037  1.00  0.00    -0.269 OA
ATOM     20  H   UNL A   1      32.515  31.921  26.767  1.00  0.00     0.172 HD
BRANCH  18  21
ATOM     21  C   UNL A   1      34.706  32.986  29.092  1.00  0.00     0.041 A 
ATOM     22  C   UNL A   1      37.583  31.024  30.541  1.00  0.00     0.133 A 
ATOM     23  C   UNL A   1      36.184  31.577  31.518  1.00  0.00     0.048 A 
ATOM     24  C   UNL A   1      37.561  31.398  28.798  1.00  0.00     0.060 A 
ATOM     25  C   UNL A   1      34.771  32.493  30.809  1.00  0.00     0.018 A 
ATOM     26  C   UNL A   1      36.064  32.574  28.121  1.00  0.00     0.033 A 
ATOM     27  Br  UNL A   1      38.483  29.615  27.942  1.00  0.00    -0.047 Br
BRANCH  22  28
ATOM     28  O   UNL A   1      38.785  30.571  31.055  1.00  0.00    -0.493 OA
BRANCH  28  29
ATOM     29  C   UNL A   1      38.713  29.315  31.809  1.00  0.00     0.226 C 
ATOM     30  C   UNL A   1      38.543  27.936  31.167  1.00  0.00     0.049 C 
ENDBRANCH  28  29
ENDBRANCH  22  28
ENDBRANCH  18  21
ENDBRANCH  15  17
ENDBRANCH  13  15
ENDBRANCH   7  13
ENDBRANCH   3   6
ENDBRANCH   1   2
BRANCH   1  31
ATOM     31  C   UNL A   1      32.580  23.592  25.107  1.00  0.00     0.021 C 
BRANCH  31  32
ATOM     32  C   UNL A   1      33.840  24.038  24.388  1.00  0.00     0.002 C 
BRANCH  32  33
ATOM     33  C   UNL A   1      34.835  24.771  25.286  1.00  0.00     0.002 C 
BRANCH  33  34
ATOM     34  C   UNL A   1      35.774  23.863  26.080  1.00  0.00     0.021 C 
BRANCH  34  35
ATOM     35  C   UNL A   1      37.193  23.854  25.553  1.00  0.00     0.116 C 
BRANCH  35  36
ATOM     36  N   UNL A   1      38.099  23.249  26.510  1.00  0.00    -0.352 N 
ATOM     37  C   UNL A   1      39.354  23.659  26.909  1.00  0.00     0.251 C 
ATOM     38  H   UNL A   1      37.771  22.426  26.938  1.00  0.00     0.163 HD
ATOM     39  O   UNL A   1      40.142  22.826  27.347  1.00  0.00    -0.269 OA
BRANCH  37  40
ATOM     40  C   UNL A   1      39.642  25.116  27.072  1.00  0.00     0.039 A 
ATOM     41  C   UNL A   1      40.502  25.608  26.076  1.00  0.00     0.014 A 
ATOM     42  C   UNL A   1      39.716  25.638  28.352  1.00  0.00     0.014 A 
ATOM     43  C   UNL A   1      41.669  26.239  26.458  1.00  0.00     0.010 A 
ATOM     44  C   UNL A   1      40.943  26.052  28.771  1.00  0.00     0.010 A 
ATOM     45  C   UNL A   1      41.934  26.277  27.816  1.00  0.00    -0.014 A 
BRANCH  45  46
ATOM     46  C   UNL A   1      43.130  26.799  28.419  1.00  0.00     0.031 A 
ATOM     47  C   UNL A   1      43.041  28.258  28.611  1.00  0.00     0.074 A 
ATOM     48  C   UNL A   1      43.921  25.854  28.987  1.00  0.00     0.049 A 
ATOM     49  N   UNL A   1      44.004  29.010  28.965  1.00  0.00    -0.248 NA
ATOM     50  C   UNL A   1      41.803  29.037  28.390  1.00  0.00     0.031 C 
ATOM     51  C   UNL A   1      44.962  25.911  30.007  1.00  0.00     0.029 A 
ATOM     52  N   UNL A   1      44.046  24.543  28.503  1.00  0.00    -0.354 N 
ATOM     53  C   UNL A   1      43.437  30.164  29.468  1.00  0.00     0.074 A 
ATOM     54  C   UNL A   1      42.111  30.220  28.930  1.00  0.00     0.031 C 
ATOM     55  C   UNL A   1      45.840  24.906  29.791  1.00  0.00     0.029 A 
ATOM     56  C   UNL A   1      45.421  24.233  28.571  1.00  0.00     0.049 A 
ATOM     57  H   UNL A   1      43.323  23.958  28.181  1.00  0.00     0.167 HD
ATOM     58  C   UNL A   1      44.123  30.801  30.451  1.00  0.00     0.031 A 
ATOM     59  C   UNL A   1      46.124  24.223  27.397  1.00  0.00     0.031 A 
ATOM     60  C   UNL A   1      45.407  30.117  30.637  1.00  0.00     0.049 A 
ATOM     61  C   UNL A   1      47.006  25.458  27.318  1.00  0.00     0.074 A 
ATOM     62  C   UNL A   1      45.830  29.157  31.539  1.00  0.00     0.029 A 
ATOM     63  N   UNL A   1      46.238  30.007  29.529  1.00  0.00    -0.354 N 
ATOM     64  N   UNL A   1      46.741  26.610  27.890  1.00  0.00    -0.248 NA
ATOM     65  C   UNL A   1      48.336  25.417  26.727  1.00  0.00     0.031 C 
ATOM     66  C   UNL A   1      46.870  28.405  30.903  1.00  0.00     0.029 A 
ATOM     67  C   UNL A   1      47.067  28.903  29.623  1.00  0.00     0.049 A 
ATOM     68  H   UNL A   1      46.238  30.636  28.771  1.00  0.00     0.167 HD
ATOM     69  C   UNL A   1      47.868  27.398  27.877  1.00  0.00     0.074 A 
ATOM     70  C   UNL A   1      48.826  26.603  27.121  1.00  0.00     0.031 C 
ATOM     71  C   UNL A   1      47.984  28.607  28.519  1.00  0.00     0.031 A 
BRANCH  58  72
ATOM     72  C   UNL A   1      43.596  31.845  31.400  1.00  0.00    -0.014 A 
ATOM     73  C   UNL A   1      43.148  33.062  30.849  1.00  0.00     0.009 A 
ATOM     74  C   UNL A   1      43.553  31.750  32.803  1.00  0.00     0.009 A 
ATOM     75  C   UNL A   1      42.699  34.125  31.642  1.00  0.00     0.001 A 
ATOM     76  C   UNL A   1      43.094  32.811  33.605  1.00  0.00     0.001 A 
ATOM     77  C   UNL A   1      42.671  34.000  33.022  1.00  0.00     0.000 A 
ENDBRANCH  58  72
BRANCH  59  78
ATOM     78  C   UNL A   1      45.308  23.590  26.301  1.00  0.00    -0.014 A 
ATOM     79  C   UNL A   1      44.679  22.357  26.619  1.00  0.00     0.009 A 
ATOM     80  C   UNL A   1      44.753  24.362  25.274  1.00  0.00     0.009 A 
ATOM     81  C   UNL A   1      43.401  22.056  26.136  1.00  0.00     0.001 A 
ATOM     82  C   UNL A   1      43.505  24.007  24.734  1.00  0.00     0.001 A 
ATOM     83  C   UNL A   1      42.794  22.910  25.224  1.00  0.00     0.000 A 
ENDBRANCH  59  78
BRANCH  71  84
ATOM     84  C   UNL A   1      49.019  29.674  28.186  1.00  0.00    -0.014 A 
ATOM     85  C   UNL A   1      48.815  30.739  27.307  1.00  0.00     0.009 A 
ATOM     86  C   UNL A   1      50.251  29.695  28.888  1.00  0.00     0.009 A 
ATOM     87  C   UNL A   1      49.791  31.720  27.092  1.00  0.00     0.001 A 
ATOM     88  C   UNL A   1      51.189  30.718  28.751  1.00  0.00     0.001 A 
ATOM     89  C   UNL A   1      50.968  31.721  27.829  1.00  0.00     0.000 A 
ENDBRANCH  71  84
ENDBRANCH  45  46
ENDBRANCH  37  40
ENDBRANCH  35  36
ENDBRANCH  34  35
ENDBRANCH  33  34
ENDBRANCH  32  33
ENDBRANCH  31  32
ENDBRANCH   1  31
TORSDOF 19
ENDMDL
