MODEL 1
REMARK VINA RESULT:     -10.9      0.000      0.000
REMARK SMILES COCc1cccc(C(=O)N2C[C@@H](O)C[C@@H]2C(=O)NCCCCCCNC(=O)c2ccc(-c3c4nc(c(-c5ccccc5)c5ccc([nH]5)c(-c5ccccc5)c5nc(c(-c6ccccc6)c6ccc3[nH]6)C=C5)C=C4)cc2)c1
REMARK SMILES IDX 21 1 20 2 19 3 17 4 18 5 16 7 11 8 12 9 13 10 15 11 9 12
REMARK SMILES IDX 10 13 8 14 4 15 5 16 77 17 6 18 7 19 3 20 2 21 1 22 14 23
REMARK SMILES IDX 22 25 23 26 24 27 25 28 26 29 27 30 28 32 29 33 30 34 76 35
REMARK SMILES IDX 31 36 75 37 32 38 33 39 34 40 69 41 35 42 74 43 68 44 70 45
REMARK SMILES IDX 36 46 73 47 67 48 66 49 37 51 59 52 44 53 58 54 45 55 48 56
REMARK SMILES IDX 57 57 71 58 46 59 47 60 56 62 72 63 49 64 38 65 39 66 43 67
REMARK SMILES IDX 40 68 42 69 41 70 60 71 61 72 65 73 62 74 64 75 63 76 50 77
REMARK SMILES IDX 51 78 55 79 52 80 54 81 53 82
REMARK H PARENT 19 6 14 24 26 31 70 50 48 61
REMARK Flexibility Score: inf
ROOT
ATOM      1  C   UNL A   1      37.260  23.248  25.118  1.00  0.00     0.021 C 
ENDROOT
BRANCH   1   2
ATOM      2  C   UNL A   1      36.086  24.064  25.657  1.00  0.00     0.116 C 
BRANCH   2   3
ATOM      3  N   UNL A   1      35.057  24.230  24.654  1.00  0.00    -0.354 N 
ATOM      4  C   UNL A   1      33.703  24.166  24.807  1.00  0.00     0.242 C 
ATOM      5  O   UNL A   1      32.994  24.262  23.803  1.00  0.00    -0.273 OA
ATOM      6  H   UNL A   1      35.375  24.414  23.741  1.00  0.00     0.163 HD
BRANCH   4   7
ATOM      7  C   UNL A   1      33.114  24.081  26.227  1.00  0.00     0.177 C 
ATOM      8  N   UNL A   1      32.557  22.760  26.472  1.00  0.00    -0.324 N 
ATOM      9  C   UNL A   1      31.151  22.849  26.826  1.00  0.00     0.152 C 
ATOM     10  C   UNL A   1      30.700  24.120  26.119  1.00  0.00     0.136 C 
ATOM     11  C   UNL A   1      31.914  25.039  26.302  1.00  0.00     0.069 C 
BRANCH   8  12
ATOM     12  C   UNL A   1      33.374  21.651  26.386  1.00  0.00     0.254 C 
ATOM     13  O   UNL A   1      34.425  21.568  27.016  1.00  0.00    -0.269 OA
BRANCH  12  14
ATOM     14  C   UNL A   1      33.034  20.609  25.380  1.00  0.00     0.040 A 
ATOM     15  C   UNL A   1      32.576  18.269  24.846  1.00  0.00    -0.022 A 
ATOM     16  C   UNL A   1      32.307  18.649  23.525  1.00  0.00     0.006 A 
ATOM     17  C   UNL A   1      32.865  19.275  25.773  1.00  0.00     0.020 A 
ATOM     18  C   UNL A   1      32.369  19.995  23.142  1.00  0.00     0.001 A 
ATOM     19  C   UNL A   1      32.750  20.973  24.063  1.00  0.00     0.014 A 
BRANCH  15  20
ATOM     20  C   UNL A   1      32.550  16.807  25.241  1.00  0.00     0.195 C 
BRANCH  20  21
ATOM     21  O   UNL A   1      33.788  16.330  25.775  1.00  0.00    -0.380 OA
ATOM     22  C   UNL A   1      34.819  16.208  24.802  1.00  0.00     0.195 C 
ENDBRANCH  20  21
ENDBRANCH  15  20
ENDBRANCH  12  14
ENDBRANCH   8  12
BRANCH  10  23
ATOM     23  O   UNL A   1      29.518  24.677  26.669  1.00  0.00    -0.391 OA
ATOM     24  H   UNL A   1      29.611  24.747  27.631  1.00  0.00     0.211 HD
ENDBRANCH  10  23
ENDBRANCH   4   7
ENDBRANCH   2   3
ENDBRANCH   1   2
BRANCH   1  25
ATOM     25  C   UNL A   1      36.839  22.066  24.236  1.00  0.00     0.002 C 
BRANCH  25  26
ATOM     26  C   UNL A   1      36.815  20.705  24.942  1.00  0.00     0.002 C 
BRANCH  26  27
ATOM     27  C   UNL A   1      38.097  19.880  24.801  1.00  0.00     0.021 C 
BRANCH  27  28
ATOM     28  C   UNL A   1      39.179  20.218  25.819  1.00  0.00     0.116 C 
BRANCH  28  29
ATOM     29  N   UNL A   1      40.180  19.168  25.919  1.00  0.00    -0.352 N 
ATOM     30  C   UNL A   1      41.529  19.269  26.149  1.00  0.00     0.251 C 
ATOM     31  H   UNL A   1      39.839  18.251  25.804  1.00  0.00     0.163 HD
ATOM     32  O   UNL A   1      42.257  18.294  26.003  1.00  0.00    -0.269 OA
BRANCH  30  33
ATOM     33  C   UNL A   1      42.109  20.568  26.550  1.00  0.00     0.039 A 
ATOM     34  C   UNL A   1      42.655  21.395  25.567  1.00  0.00     0.014 A 
ATOM     35  C   UNL A   1      42.116  20.968  27.890  1.00  0.00     0.014 A 
ATOM     36  C   UNL A   1      43.149  22.653  25.917  1.00  0.00     0.010 A 
ATOM     37  C   UNL A   1      42.541  22.249  28.227  1.00  0.00     0.010 A 
ATOM     38  C   UNL A   1      43.060  23.106  27.244  1.00  0.00    -0.014 A 
BRANCH  38  39
ATOM     39  C   UNL A   1      43.485  24.478  27.616  1.00  0.00     0.031 A 
ATOM     40  C   UNL A   1      42.461  25.531  27.938  1.00  0.00     0.074 A 
ATOM     41  C   UNL A   1      44.794  24.793  27.602  1.00  0.00     0.049 A 
ATOM     42  N   UNL A   1      42.642  26.794  28.231  1.00  0.00    -0.248 NA
ATOM     43  C   UNL A   1      41.049  25.117  27.907  1.00  0.00     0.031 C 
ATOM     44  C   UNL A   1      45.884  23.871  27.272  1.00  0.00     0.029 A 
ATOM     45  N   UNL A   1      45.431  25.979  27.867  1.00  0.00    -0.354 N 
ATOM     46  C   UNL A   1      41.371  27.327  28.405  1.00  0.00     0.074 A 
ATOM     47  C   UNL A   1      40.427  26.264  28.137  1.00  0.00     0.031 C 
ATOM     48  C   UNL A   1      47.055  24.519  27.383  1.00  0.00     0.029 A 
ATOM     49  C   UNL A   1      46.798  25.908  27.747  1.00  0.00     0.049 A 
ATOM     50  H   UNL A   1      44.954  26.802  28.121  1.00  0.00     0.167 HD
ATOM     51  C   UNL A   1      41.021  28.582  28.773  1.00  0.00     0.031 A 
ATOM     52  C   UNL A   1      47.740  26.858  27.902  1.00  0.00     0.031 A 
ATOM     53  C   UNL A   1      41.960  29.640  29.041  1.00  0.00     0.049 A 
ATOM     54  C   UNL A   1      47.323  28.252  28.278  1.00  0.00     0.074 A 
ATOM     55  C   UNL A   1      41.704  30.930  29.471  1.00  0.00     0.029 A 
ATOM     56  N   UNL A   1      43.334  29.530  28.899  1.00  0.00    -0.354 N 
ATOM     57  N   UNL A   1      46.120  28.721  28.505  1.00  0.00    -0.248 NA
ATOM     58  C   UNL A   1      48.396  29.245  28.424  1.00  0.00     0.031 C 
ATOM     59  C   UNL A   1      42.921  31.618  29.534  1.00  0.00     0.029 A 
ATOM     60  C   UNL A   1      43.938  30.739  29.202  1.00  0.00     0.049 A 
ATOM     61  H   UNL A   1      43.810  28.713  28.623  1.00  0.00     0.167 HD
ATOM     62  C   UNL A   1      46.293  30.057  28.846  1.00  0.00     0.074 A 
ATOM     63  C   UNL A   1      47.718  30.316  28.814  1.00  0.00     0.031 C 
ATOM     64  C   UNL A   1      45.356  30.985  29.159  1.00  0.00     0.031 A 
BRANCH  51  65
ATOM     65  C   UNL A   1      39.553  28.884  28.897  1.00  0.00    -0.014 A 
ATOM     66  C   UNL A   1      38.815  29.372  27.805  1.00  0.00     0.009 A 
ATOM     67  C   UNL A   1      38.889  28.643  30.110  1.00  0.00     0.009 A 
ATOM     68  C   UNL A   1      37.452  29.646  27.938  1.00  0.00     0.001 A 
ATOM     69  C   UNL A   1      37.520  28.890  30.231  1.00  0.00     0.001 A 
ATOM     70  C   UNL A   1      36.805  29.401  29.147  1.00  0.00     0.000 A 
ENDBRANCH  51  65
BRANCH  52  71
ATOM     71  C   UNL A   1      49.175  26.523  27.710  1.00  0.00    -0.014 A 
ATOM     72  C   UNL A   1      49.954  26.084  28.791  1.00  0.00     0.009 A 
ATOM     73  C   UNL A   1      49.776  26.646  26.446  1.00  0.00     0.009 A 
ATOM     74  C   UNL A   1      51.311  25.803  28.617  1.00  0.00     0.001 A 
ATOM     75  C   UNL A   1      51.125  26.335  26.270  1.00  0.00     0.001 A 
ATOM     76  C   UNL A   1      51.895  25.923  27.357  1.00  0.00     0.000 A 
ENDBRANCH  52  71
BRANCH  64  77
ATOM     77  C   UNL A   1      45.844  32.360  29.517  1.00  0.00    -0.014 A 
ATOM     78  C   UNL A   1      46.188  32.691  30.836  1.00  0.00     0.009 A 
ATOM     79  C   UNL A   1      45.999  33.328  28.510  1.00  0.00     0.009 A 
ATOM     80  C   UNL A   1      46.646  33.973  31.146  1.00  0.00     0.001 A 
ATOM     81  C   UNL A   1      46.486  34.598  28.818  1.00  0.00     0.001 A 
ATOM     82  C   UNL A   1      46.800  34.923  30.136  1.00  0.00     0.000 A 
ENDBRANCH  64  77
ENDBRANCH  38  39
ENDBRANCH  30  33
ENDBRANCH  28  29
ENDBRANCH  27  28
ENDBRANCH  26  27
ENDBRANCH  25  26
ENDBRANCH   1  25
TORSDOF 18
ENDMDL
MODEL 2
REMARK VINA RESULT:     -10.7      1.030      5.942
REMARK SMILES COCc1cccc(C(=O)N2C[C@@H](O)C[C@@H]2C(=O)NCCCCCCNC(=O)c2ccc(-c3c4nc(c(-c5ccccc5)c5ccc([nH]5)c(-c5ccccc5)c5nc(c(-c6ccccc6)c6ccc3[nH]6)C=C5)C=C4)cc2)c1
REMARK SMILES IDX 21 1 20 2 19 3 17 4 18 5 16 7 11 8 12 9 13 10 15 11 9 12
REMARK SMILES IDX 10 13 8 14 4 15 5 16 77 17 6 18 7 19 3 20 2 21 1 22 14 23
REMARK SMILES IDX 22 25 23 26 24 27 25 28 26 29 27 30 28 32 29 33 30 34 76 35
REMARK SMILES IDX 31 36 75 37 32 38 33 39 34 40 69 41 35 42 74 43 68 44 70 45
REMARK SMILES IDX 36 46 73 47 67 48 66 49 37 51 59 52 44 53 58 54 45 55 48 56
REMARK SMILES IDX 57 57 71 58 46 59 47 60 56 62 72 63 49 64 38 65 39 66 43 67
REMARK SMILES IDX 40 68 42 69 41 70 60 71 61 72 65 73 62 74 64 75 63 76 50 77
REMARK SMILES IDX 51 78 55 79 52 80 54 81 53 82
REMARK H PARENT 19 6 14 24 26 31 70 50 48 61
REMARK Flexibility Score: inf
ROOT
ATOM      1  C   UNL A   1      37.058  22.950  25.726  1.00  0.00     0.021 C 
ENDROOT
BRANCH   1   2
ATOM      2  C   UNL A   1      36.109  24.088  25.357  1.00  0.00     0.116 C 
BRANCH   2   3
ATOM      3  N   UNL A   1      35.557  23.905  24.032  1.00  0.00    -0.354 N 
ATOM      4  C   UNL A   1      34.251  23.752  23.669  1.00  0.00     0.242 C 
ATOM      5  O   UNL A   1      33.994  23.532  22.483  1.00  0.00    -0.273 OA
ATOM      6  H   UNL A   1      36.210  23.890  23.296  1.00  0.00     0.163 HD
BRANCH   4   7
ATOM      7  C   UNL A   1      33.151  23.963  24.726  1.00  0.00     0.177 C 
ATOM      8  N   UNL A   1      32.405  22.733  24.939  1.00  0.00    -0.324 N 
ATOM      9  C   UNL A   1      30.991  22.933  24.679  1.00  0.00     0.152 C 
ATOM     10  C   UNL A   1      30.988  24.058  23.652  1.00  0.00     0.136 C 
ATOM     11  C   UNL A   1      32.125  24.955  24.154  1.00  0.00     0.069 C 
BRANCH   8  12
ATOM     12  C   UNL A   1      33.069  21.602  25.373  1.00  0.00     0.254 C 
ATOM     13  O   UNL A   1      33.793  21.614  26.364  1.00  0.00    -0.269 OA
BRANCH  12  14
ATOM     14  C   UNL A   1      33.015  20.388  24.513  1.00  0.00     0.040 A 
ATOM     15  C   UNL A   1      33.533  18.025  24.176  1.00  0.00    -0.022 A 
ATOM     16  C   UNL A   1      32.847  18.075  22.955  1.00  0.00     0.006 A 
ATOM     17  C   UNL A   1      33.541  19.174  24.972  1.00  0.00     0.020 A 
ATOM     18  C   UNL A   1      32.226  19.256  22.532  1.00  0.00     0.001 A 
ATOM     19  C   UNL A   1      32.324  20.418  23.301  1.00  0.00     0.014 A 
BRANCH  15  20
ATOM     20  C   UNL A   1      34.240  16.755  24.603  1.00  0.00     0.195 C 
BRANCH  20  21
ATOM     21  O   UNL A   1      33.655  16.124  25.746  1.00  0.00    -0.380 OA
ATOM     22  C   UNL A   1      32.714  15.110  25.416  1.00  0.00     0.195 C 
ENDBRANCH  20  21
ENDBRANCH  15  20
ENDBRANCH  12  14
ENDBRANCH   8  12
BRANCH  10  23
ATOM     23  O   UNL A   1      29.752  24.748  23.581  1.00  0.00    -0.391 OA
ATOM     24  H   UNL A   1      29.076  24.162  23.205  1.00  0.00     0.211 HD
ENDBRANCH  10  23
ENDBRANCH   4   7
ENDBRANCH   2   3
ENDBRANCH   1   2
BRANCH   1  25
ATOM     25  C   UNL A   1      37.312  21.960  24.581  1.00  0.00     0.002 C 
BRANCH  25  26
ATOM     26  C   UNL A   1      36.886  20.515  24.867  1.00  0.00     0.002 C 
BRANCH  26  27
ATOM     27  C   UNL A   1      38.039  19.529  25.068  1.00  0.00     0.021 C 
BRANCH  27  28
ATOM     28  C   UNL A   1      39.264  20.121  25.754  1.00  0.00     0.116 C 
BRANCH  28  29
ATOM     29  N   UNL A   1      40.346  19.157  25.864  1.00  0.00    -0.352 N 
ATOM     30  C   UNL A   1      41.676  19.366  26.132  1.00  0.00     0.251 C 
ATOM     31  H   UNL A   1      40.087  18.217  25.725  1.00  0.00     0.163 HD
ATOM     32  O   UNL A   1      42.487  18.458  25.991  1.00  0.00    -0.269 OA
BRANCH  30  33
ATOM     33  C   UNL A   1      42.134  20.701  26.571  1.00  0.00     0.039 A 
ATOM     34  C   UNL A   1      42.537  21.626  25.605  1.00  0.00     0.014 A 
ATOM     35  C   UNL A   1      42.167  21.040  27.926  1.00  0.00     0.014 A 
ATOM     36  C   UNL A   1      42.911  22.914  25.994  1.00  0.00     0.010 A 
ATOM     37  C   UNL A   1      42.470  22.344  28.307  1.00  0.00     0.010 A 
ATOM     38  C   UNL A   1      42.842  23.294  27.344  1.00  0.00    -0.014 A 
BRANCH  38  39
ATOM     39  C   UNL A   1      43.137  24.687  27.764  1.00  0.00     0.031 A 
ATOM     40  C   UNL A   1      44.556  25.128  27.996  1.00  0.00     0.074 A 
ATOM     41  C   UNL A   1      42.120  25.538  27.999  1.00  0.00     0.049 A 
ATOM     42  N   UNL A   1      45.001  26.286  28.416  1.00  0.00    -0.248 NA
ATOM     43  C   UNL A   1      45.611  24.133  27.743  1.00  0.00     0.031 C 
ATOM     44  C   UNL A   1      40.698  25.222  27.846  1.00  0.00     0.029 A 
ATOM     45  N   UNL A   1      42.126  26.843  28.423  1.00  0.00    -0.354 N 
ATOM     46  C   UNL A   1      46.382  26.154  28.490  1.00  0.00     0.074 A 
ATOM     47  C   UNL A   1      46.698  24.792  28.120  1.00  0.00     0.031 C 
ATOM     48  C   UNL A   1      39.971  26.311  28.143  1.00  0.00     0.029 A 
ATOM     49  C   UNL A   1      40.870  27.386  28.549  1.00  0.00     0.049 A 
ATOM     50  H   UNL A   1      42.951  27.343  28.616  1.00  0.00     0.167 HD
ATOM     51  C   UNL A   1      47.305  27.088  28.818  1.00  0.00     0.031 A 
ATOM     52  C   UNL A   1      40.484  28.610  28.956  1.00  0.00     0.031 A 
ATOM     53  C   UNL A   1      46.993  28.444  29.186  1.00  0.00     0.049 A 
ATOM     54  C   UNL A   1      41.527  29.618  29.347  1.00  0.00     0.074 A 
ATOM     55  C   UNL A   1      47.862  29.479  29.483  1.00  0.00     0.029 A 
ATOM     56  N   UNL A   1      45.709  28.952  29.310  1.00  0.00    -0.354 N 
ATOM     57  N   UNL A   1      42.833  29.498  29.346  1.00  0.00    -0.248 NA
ATOM     58  C   UNL A   1      41.043  30.932  29.791  1.00  0.00     0.031 C 
ATOM     59  C   UNL A   1      47.103  30.597  29.845  1.00  0.00     0.029 A 
ATOM     60  C   UNL A   1      45.762  30.276  29.712  1.00  0.00     0.049 A 
ATOM     61  H   UNL A   1      44.882  28.445  29.139  1.00  0.00     0.167 HD
ATOM     62  C   UNL A   1      43.326  30.728  29.762  1.00  0.00     0.074 A 
ATOM     63  C   UNL A   1      42.180  31.584  29.989  1.00  0.00     0.031 C 
ATOM     64  C   UNL A   1      44.613  31.114  29.941  1.00  0.00     0.031 A 
BRANCH  51  65
ATOM     65  C   UNL A   1      48.750  26.669  28.806  1.00  0.00    -0.014 A 
ATOM     66  C   UNL A   1      49.365  26.141  29.953  1.00  0.00     0.009 A 
ATOM     67  C   UNL A   1      49.497  26.767  27.621  1.00  0.00     0.009 A 
ATOM     68  C   UNL A   1      50.707  25.756  29.923  1.00  0.00     0.001 A 
ATOM     69  C   UNL A   1      50.830  26.354  27.586  1.00  0.00     0.001 A 
ATOM     70  C   UNL A   1      51.436  25.857  28.740  1.00  0.00     0.000 A 
ENDBRANCH  51  65
BRANCH  52  71
ATOM     71  C   UNL A   1      39.039  28.957  29.008  1.00  0.00    -0.014 A 
ATOM     72  C   UNL A   1      38.384  29.449  27.869  1.00  0.00     0.009 A 
ATOM     73  C   UNL A   1      38.309  28.804  30.198  1.00  0.00     0.009 A 
ATOM     74  C   UNL A   1      37.035  29.807  27.928  1.00  0.00     0.001 A 
ATOM     75  C   UNL A   1      36.953  29.134  30.245  1.00  0.00     0.001 A 
ATOM     76  C   UNL A   1      36.320  29.645  29.114  1.00  0.00     0.000 A 
ENDBRANCH  52  71
BRANCH  64  77
ATOM     77  C   UNL A   1      44.851  32.532  30.378  1.00  0.00    -0.014 A 
ATOM     78  C   UNL A   1      44.962  32.868  31.735  1.00  0.00     0.009 A 
ATOM     79  C   UNL A   1      45.006  33.540  29.412  1.00  0.00     0.009 A 
ATOM     80  C   UNL A   1      45.191  34.190  32.120  1.00  0.00     0.001 A 
ATOM     81  C   UNL A   1      45.264  34.856  29.798  1.00  0.00     0.001 A 
ATOM     82  C   UNL A   1      45.347  35.182  31.151  1.00  0.00     0.000 A 
ENDBRANCH  64  77
ENDBRANCH  38  39
ENDBRANCH  30  33
ENDBRANCH  28  29
ENDBRANCH  27  28
ENDBRANCH  26  27
ENDBRANCH  25  26
ENDBRANCH   1  25
TORSDOF 18
ENDMDL
MODEL 3
REMARK VINA RESULT:     -10.6      1.903      6.915
REMARK SMILES COCc1cccc(C(=O)N2C[C@@H](O)C[C@@H]2C(=O)NCCCCCCNC(=O)c2ccc(-c3c4nc(c(-c5ccccc5)c5ccc([nH]5)c(-c5ccccc5)c5nc(c(-c6ccccc6)c6ccc3[nH]6)C=C5)C=C4)cc2)c1
REMARK SMILES IDX 21 1 20 2 19 3 17 4 18 5 16 7 11 8 12 9 13 10 15 11 9 12
REMARK SMILES IDX 10 13 8 14 4 15 5 16 77 17 6 18 7 19 3 20 2 21 1 22 14 23
REMARK SMILES IDX 22 25 23 26 24 27 25 28 26 29 27 30 28 32 29 33 30 34 76 35
REMARK SMILES IDX 31 36 75 37 32 38 33 39 34 40 69 41 35 42 74 43 68 44 70 45
REMARK SMILES IDX 36 46 73 47 67 48 66 49 37 51 59 52 44 53 58 54 45 55 48 56
REMARK SMILES IDX 57 57 71 58 46 59 47 60 56 62 72 63 49 64 38 65 39 66 43 67
REMARK SMILES IDX 40 68 42 69 41 70 60 71 61 72 65 73 62 74 64 75 63 76 50 77
REMARK SMILES IDX 51 78 55 79 52 80 54 81 53 82
REMARK H PARENT 19 6 14 24 26 31 70 50 48 61
REMARK Flexibility Score: inf
ROOT
ATOM      1  C   UNL A   1      38.085  23.604  26.120  1.00  0.00     0.021 C 
ENDROOT
BRANCH   1   2
ATOM      2  C   UNL A   1      36.589  23.619  25.814  1.00  0.00     0.116 C 
BRANCH   2   3
ATOM      3  N   UNL A   1      35.825  23.032  26.892  1.00  0.00    -0.354 N 
ATOM      4  C   UNL A   1      34.533  22.594  26.878  1.00  0.00     0.242 C 
ATOM      5  O   UNL A   1      34.038  22.191  27.934  1.00  0.00    -0.273 OA
ATOM      6  H   UNL A   1      36.299  22.935  27.749  1.00  0.00     0.163 HD
BRANCH   4   7
ATOM      7  C   UNL A   1      33.782  22.523  25.536  1.00  0.00     0.177 C 
ATOM      8  N   UNL A   1      32.366  22.794  25.726  1.00  0.00    -0.324 N 
ATOM      9  C   UNL A   1      31.558  21.684  25.252  1.00  0.00     0.152 C 
ATOM     10  C   UNL A   1      32.484  20.487  25.428  1.00  0.00     0.136 C 
ATOM     11  C   UNL A   1      33.845  21.072  25.032  1.00  0.00     0.069 C 
BRANCH   8  12
ATOM     12  C   UNL A   1      31.972  24.003  26.262  1.00  0.00     0.254 C 
ATOM     13  O   UNL A   1      31.298  24.072  27.286  1.00  0.00    -0.269 OA
BRANCH  12  14
ATOM     14  C   UNL A   1      32.247  25.237  25.476  1.00  0.00     0.040 A 
ATOM     15  C   UNL A   1      31.697  26.705  23.602  1.00  0.00    -0.022 A 
ATOM     16  C   UNL A   1      32.687  27.594  24.041  1.00  0.00     0.006 A 
ATOM     17  C   UNL A   1      31.444  25.569  24.377  1.00  0.00     0.020 A 
ATOM     18  C   UNL A   1      33.425  27.326  25.199  1.00  0.00     0.001 A 
ATOM     19  C   UNL A   1      33.219  26.140  25.908  1.00  0.00     0.014 A 
BRANCH  15  20
ATOM     20  C   UNL A   1      30.934  26.981  22.323  1.00  0.00     0.195 C 
BRANCH  20  21
ATOM     21  O   UNL A   1      30.610  28.361  22.130  1.00  0.00    -0.380 OA
ATOM     22  C   UNL A   1      29.346  28.729  22.668  1.00  0.00     0.195 C 
ENDBRANCH  20  21
ENDBRANCH  15  20
ENDBRANCH  12  14
ENDBRANCH   8  12
BRANCH  10  23
ATOM     23  O   UNL A   1      32.123  19.377  24.625  1.00  0.00    -0.391 OA
ATOM     24  H   UNL A   1      31.781  18.666  25.190  1.00  0.00     0.211 HD
ENDBRANCH  10  23
ENDBRANCH   4   7
ENDBRANCH   2   3
ENDBRANCH   1   2
BRANCH   1  25
ATOM     25  C   UNL A   1      38.720  22.210  26.039  1.00  0.00     0.002 C 
BRANCH  25  26
ATOM     26  C   UNL A   1      38.040  21.243  25.061  1.00  0.00     0.002 C 
BRANCH  26  27
ATOM     27  C   UNL A   1      38.635  19.833  25.027  1.00  0.00     0.021 C 
BRANCH  27  28
ATOM     28  C   UNL A   1      39.492  19.481  26.236  1.00  0.00     0.116 C 
BRANCH  28  29
ATOM     29  N   UNL A   1      40.801  18.980  25.848  1.00  0.00    -0.352 N 
ATOM     30  C   UNL A   1      42.001  19.643  25.776  1.00  0.00     0.251 C 
ATOM     31  H   UNL A   1      40.830  18.027  25.601  1.00  0.00     0.163 HD
ATOM     32  O   UNL A   1      42.968  19.117  25.238  1.00  0.00    -0.269 OA
BRANCH  30  33
ATOM     33  C   UNL A   1      42.118  21.008  26.330  1.00  0.00     0.039 A 
ATOM     34  C   UNL A   1      41.998  21.189  27.709  1.00  0.00     0.014 A 
ATOM     35  C   UNL A   1      42.344  22.105  25.493  1.00  0.00     0.014 A 
ATOM     36  C   UNL A   1      42.170  22.462  28.257  1.00  0.00     0.010 A 
ATOM     37  C   UNL A   1      42.586  23.359  26.046  1.00  0.00     0.010 A 
ATOM     38  C   UNL A   1      42.504  23.549  27.434  1.00  0.00    -0.014 A 
BRANCH  38  39
ATOM     39  C   UNL A   1      42.791  24.887  28.009  1.00  0.00     0.031 A 
ATOM     40  C   UNL A   1      44.183  25.243  28.451  1.00  0.00     0.074 A 
ATOM     41  C   UNL A   1      41.782  25.760  28.194  1.00  0.00     0.049 A 
ATOM     42  N   UNL A   1      44.611  26.341  29.023  1.00  0.00    -0.248 NA
ATOM     43  C   UNL A   1      45.227  24.227  28.241  1.00  0.00     0.031 C 
ATOM     44  C   UNL A   1      40.380  25.521  27.840  1.00  0.00     0.029 A 
ATOM     45  N   UNL A   1      41.779  27.023  28.729  1.00  0.00    -0.354 N 
ATOM     46  C   UNL A   1      45.967  26.142  29.253  1.00  0.00     0.074 A 
ATOM     47  C   UNL A   1      46.280  24.802  28.804  1.00  0.00     0.031 C 
ATOM     48  C   UNL A   1      39.660  26.614  28.142  1.00  0.00     0.029 A 
ATOM     49  C   UNL A   1      40.536  27.610  28.749  1.00  0.00     0.049 A 
ATOM     50  H   UNL A   1      42.590  27.467  29.065  1.00  0.00     0.167 HD
ATOM     51  C   UNL A   1      46.873  27.003  29.773  1.00  0.00     0.031 A 
ATOM     52  C   UNL A   1      40.144  28.811  29.213  1.00  0.00     0.031 A 
ATOM     53  C   UNL A   1      46.563  28.335  30.219  1.00  0.00     0.049 A 
ATOM     54  C   UNL A   1      41.164  29.734  29.817  1.00  0.00     0.074 A 
ATOM     55  C   UNL A   1      47.423  29.301  30.711  1.00  0.00     0.029 A 
ATOM     56  N   UNL A   1      45.292  28.888  30.231  1.00  0.00    -0.354 N 
ATOM     57  N   UNL A   1      42.455  29.557  29.964  1.00  0.00    -0.248 NA
ATOM     58  C   UNL A   1      40.672  31.027  30.313  1.00  0.00     0.031 C 
ATOM     59  C   UNL A   1      46.663  30.418  31.075  1.00  0.00     0.029 A 
ATOM     60  C   UNL A   1      45.339  30.170  30.752  1.00  0.00     0.049 A 
ATOM     61  H   UNL A   1      44.476  28.435  29.915  1.00  0.00     0.167 HD
ATOM     62  C   UNL A   1      42.933  30.725  30.545  1.00  0.00     0.074 A 
ATOM     63  C   UNL A   1      41.797  31.609  30.706  1.00  0.00     0.031 C 
ATOM     64  C   UNL A   1      44.200  31.036  30.913  1.00  0.00     0.031 A 
BRANCH  51  65
ATOM     65  C   UNL A   1      48.293  26.522  29.899  1.00  0.00    -0.014 A 
ATOM     66  C   UNL A   1      49.235  26.760  28.885  1.00  0.00     0.009 A 
ATOM     67  C   UNL A   1      48.706  25.855  31.064  1.00  0.00     0.009 A 
ATOM     68  C   UNL A   1      50.549  26.307  29.018  1.00  0.00     0.001 A 
ATOM     69  C   UNL A   1      50.027  25.430  31.207  1.00  0.00     0.001 A 
ATOM     70  C   UNL A   1      50.946  25.648  30.181  1.00  0.00     0.000 A 
ENDBRANCH  51  65
BRANCH  52  71
ATOM     71  C   UNL A   1      38.717  29.216  29.119  1.00  0.00    -0.014 A 
ATOM     72  C   UNL A   1      38.212  29.773  27.935  1.00  0.00     0.009 A 
ATOM     73  C   UNL A   1      37.853  29.054  30.215  1.00  0.00     0.009 A 
ATOM     74  C   UNL A   1      36.880  30.186  27.859  1.00  0.00     0.001 A 
ATOM     75  C   UNL A   1      36.515  29.440  30.126  1.00  0.00     0.001 A 
ATOM     76  C   UNL A   1      36.031  30.015  28.952  1.00  0.00     0.000 A 
ENDBRANCH  52  71
BRANCH  64  77
ATOM     77  C   UNL A   1      44.429  32.400  31.500  1.00  0.00    -0.014 A 
ATOM     78  C   UNL A   1      44.376  32.616  32.885  1.00  0.00     0.009 A 
ATOM     79  C   UNL A   1      44.743  33.477  30.655  1.00  0.00     0.009 A 
ATOM     80  C   UNL A   1      44.599  33.890  33.411  1.00  0.00     0.001 A 
ATOM     81  C   UNL A   1      44.995  34.743  31.185  1.00  0.00     0.001 A 
ATOM     82  C   UNL A   1      44.914  34.951  32.561  1.00  0.00     0.000 A 
ENDBRANCH  64  77
ENDBRANCH  38  39
ENDBRANCH  30  33
ENDBRANCH  28  29
ENDBRANCH  27  28
ENDBRANCH  26  27
ENDBRANCH  25  26
ENDBRANCH   1  25
TORSDOF 18
ENDMDL
