MODEL 1
REMARK VINA RESULT:     -13.1      0.000      0.000
REMARK SMILES C[N@@H+]1CCN(C(=O)c2ccc3[nH]c4c(c3c2)CSCC4)C[C@H]1C(=O)NCCCCCCNC(=O)c1ccc(-c2c3nc(c(-c4ccccc4)c4ccc([nH]4)c(-c4ccccc4)c4nc(c(-c5ccccc5)c5ccc2[nH]5)C=C4)C=C3)cc1
REMARK SMILES IDX 28 1 27 2 26 3 25 4 23 5 24 6 22 8 1 9 2 10 3 11 4 13 21 14
REMARK SMILES IDX 5 15 6 16 7 17 8 18 9 19 16 20 10 21 15 22 11 23 14 24 12 25
REMARK SMILES IDX 13 26 17 27 20 29 18 30 19 31 29 32 30 33 31 34 32 35 33 36
REMARK SMILES IDX 34 38 35 39 36 40 82 41 37 42 81 43 38 44 39 45 40 46 75 47
REMARK SMILES IDX 41 48 80 49 74 50 76 51 42 52 79 53 73 54 72 55 43 57 65 58
REMARK SMILES IDX 50 59 64 60 51 61 54 62 63 63 77 64 52 65 53 66 62 68 78 69
REMARK SMILES IDX 55 70 44 71 45 72 49 73 46 74 48 75 47 76 66 77 67 78 71 79
REMARK SMILES IDX 68 80 70 81 69 82 56 83 57 84 61 85 58 86 60 87 59 88
REMARK H PARENT 25 7 2 12 12 28 32 37 76 56 54 67
REMARK Flexibility Score: inf
ROOT
ATOM      1  C   UNL A   1      34.734  23.295  23.430  1.00  0.00     0.002 C 
ENDROOT
BRANCH   1   2
ATOM      2  C   UNL A   1      34.064  24.515  22.792  1.00  0.00     0.021 C 
BRANCH   2   3
ATOM      3  C   UNL A   1      32.932  24.174  21.830  1.00  0.00     0.116 C 
BRANCH   3   4
ATOM      4  N   UNL A   1      32.170  25.354  21.462  1.00  0.00    -0.351 N 
ATOM      5  C   UNL A   1      31.564  26.278  22.262  1.00  0.00     0.280 C 
ATOM      6  O   UNL A   1      30.914  27.175  21.720  1.00  0.00    -0.268 OA
ATOM      7  H   UNL A   1      32.079  25.510  20.494  1.00  0.00     0.163 HD
BRANCH   5   8
ATOM      8  C   UNL A   1      31.734  26.246  23.788  1.00  0.00     0.293 C 
ATOM      9  C   UNL A   1      32.307  28.616  23.967  1.00  0.00     0.333 C 
ATOM     10  N   UNL A   1      31.407  27.556  24.430  1.00  0.00    -0.324 N 
ATOM     11  C   UNL A   1      31.511  27.413  25.900  1.00  0.00     0.284 C 
ATOM     12  H   UNL A   1      30.457  27.819  24.170  1.00  0.00     0.348 HD
ATOM     13  C   UNL A   1      30.641  26.271  26.457  1.00  0.00     0.181 C 
ATOM     14  C   UNL A   1      30.896  25.068  24.326  1.00  0.00     0.195 C 
ATOM     15  N   UNL A   1      30.906  24.996  25.790  1.00  0.00    -0.326 N 
BRANCH  15  16
ATOM     16  C   UNL A   1      30.810  23.820  26.533  1.00  0.00     0.254 C 
ATOM     17  O   UNL A   1      29.865  23.559  27.264  1.00  0.00    -0.269 OA
BRANCH  16  18
ATOM     18  C   UNL A   1      31.885  22.809  26.405  1.00  0.00     0.040 A 
ATOM     19  C   UNL A   1      33.002  22.840  27.244  1.00  0.00     0.016 A 
ATOM     20  C   UNL A   1      31.739  21.816  25.427  1.00  0.00     0.024 A 
ATOM     21  C   UNL A   1      34.047  21.929  27.072  1.00  0.00     0.027 A 
ATOM     22  C   UNL A   1      32.767  20.868  25.260  1.00  0.00     0.004 A 
ATOM     23  C   UNL A   1      33.900  20.959  26.072  1.00  0.00     0.046 A 
ATOM     24  C   UNL A   1      32.941  19.734  24.407  1.00  0.00    -0.009 A 
ATOM     25  N   UNL A   1      34.752  19.945  25.697  1.00  0.00    -0.358 N 
ATOM     26  C   UNL A   1      34.164  19.178  24.730  1.00  0.00     0.021 A 
ATOM     27  C   UNL A   1      31.965  19.198  23.409  1.00  0.00     0.107 C 
ATOM     28  H   UNL A   1      35.650  19.794  26.070  1.00  0.00     0.166 HD
ATOM     29  C   UNL A   1      34.777  17.946  24.159  1.00  0.00     0.065 C 
ATOM     30  S   UNL A   1      32.635  17.839  22.378  1.00  0.00    -0.157 SA
ATOM     31  C   UNL A   1      33.689  17.008  23.625  1.00  0.00     0.076 C 
ENDBRANCH  16  18
ENDBRANCH  15  16
ENDBRANCH   5   8
ENDBRANCH   3   4
ENDBRANCH   2   3
ENDBRANCH   1   2
BRANCH   1  32
ATOM     32  C   UNL A   1      35.988  23.597  24.257  1.00  0.00     0.002 C 
BRANCH  32  33
ATOM     33  C   UNL A   1      37.067  22.510  24.240  1.00  0.00     0.021 C 
BRANCH  33  34
ATOM     34  C   UNL A   1      37.590  22.103  25.619  1.00  0.00     0.116 C 
BRANCH  34  35
ATOM     35  N   UNL A   1      39.009  21.816  25.652  1.00  0.00    -0.352 N 
ATOM     36  C   UNL A   1      40.086  22.345  26.306  1.00  0.00     0.251 C 
ATOM     37  H   UNL A   1      39.255  21.063  25.066  1.00  0.00     0.163 HD
ATOM     38  O   UNL A   1      41.146  21.721  26.199  1.00  0.00    -0.269 OA
BRANCH  36  39
ATOM     39  C   UNL A   1      40.090  23.629  27.060  1.00  0.00     0.039 A 
ATOM     40  C   UNL A   1      39.060  24.566  27.080  1.00  0.00     0.014 A 
ATOM     41  C   UNL A   1      41.277  23.926  27.762  1.00  0.00     0.014 A 
ATOM     42  C   UNL A   1      39.249  25.806  27.684  1.00  0.00     0.010 A 
ATOM     43  C   UNL A   1      41.464  25.156  28.389  1.00  0.00     0.010 A 
ATOM     44  C   UNL A   1      40.462  26.114  28.311  1.00  0.00    -0.014 A 
BRANCH  44  45
ATOM     45  C   UNL A   1      40.561  27.404  28.989  1.00  0.00     0.031 A 
ATOM     46  C   UNL A   1      41.533  28.347  28.372  1.00  0.00     0.074 A 
ATOM     47  C   UNL A   1      39.813  27.792  30.040  1.00  0.00     0.049 A 
ATOM     48  N   UNL A   1      42.615  28.817  28.899  1.00  0.00    -0.248 NA
ATOM     49  C   UNL A   1      41.337  28.722  26.964  1.00  0.00     0.031 C 
ATOM     50  C   UNL A   1      38.634  27.140  30.612  1.00  0.00     0.029 A 
ATOM     51  N   UNL A   1      39.911  28.941  30.772  1.00  0.00    -0.354 N 
ATOM     52  C   UNL A   1      43.172  29.670  27.950  1.00  0.00     0.074 A 
ATOM     53  C   UNL A   1      42.411  29.480  26.741  1.00  0.00     0.031 C 
ATOM     54  C   UNL A   1      37.997  28.011  31.430  1.00  0.00     0.029 A 
ATOM     55  C   UNL A   1      38.796  29.221  31.551  1.00  0.00     0.049 A 
ATOM     56  H   UNL A   1      40.706  29.522  30.749  1.00  0.00     0.167 HD
ATOM     57  C   UNL A   1      44.109  30.600  28.287  1.00  0.00     0.031 A 
ATOM     58  C   UNL A   1      38.527  30.387  32.189  1.00  0.00     0.031 A 
ATOM     59  C   UNL A   1      44.716  30.306  29.558  1.00  0.00     0.049 A 
ATOM     60  C   UNL A   1      39.803  31.120  32.356  1.00  0.00     0.074 A 
ATOM     61  C   UNL A   1      45.433  29.236  30.059  1.00  0.00     0.029 A 
ATOM     62  N   UNL A   1      44.302  31.027  30.652  1.00  0.00    -0.354 N 
ATOM     63  N   UNL A   1      40.751  30.748  33.164  1.00  0.00    -0.248 NA
ATOM     64  C   UNL A   1      40.195  32.052  31.312  1.00  0.00     0.031 C 
ATOM     65  C   UNL A   1      44.983  29.094  31.403  1.00  0.00     0.029 A 
ATOM     66  C   UNL A   1      44.088  30.131  31.667  1.00  0.00     0.049 A 
ATOM     67  H   UNL A   1      44.184  32.003  30.698  1.00  0.00     0.167 HD
ATOM     68  C   UNL A   1      41.921  31.019  32.471  1.00  0.00     0.074 A 
ATOM     69  C   UNL A   1      41.521  31.913  31.386  1.00  0.00     0.031 C 
ATOM     70  C   UNL A   1      43.048  30.272  32.662  1.00  0.00     0.031 A 
BRANCH  57  71
ATOM     71  C   UNL A   1      44.215  31.959  27.641  1.00  0.00    -0.014 A 
ATOM     72  C   UNL A   1      44.514  32.151  26.280  1.00  0.00     0.009 A 
ATOM     73  C   UNL A   1      43.734  33.081  28.342  1.00  0.00     0.009 A 
ATOM     74  C   UNL A   1      44.305  33.376  25.639  1.00  0.00     0.001 A 
ATOM     75  C   UNL A   1      43.482  34.297  27.695  1.00  0.00     0.001 A 
ATOM     76  C   UNL A   1      43.760  34.441  26.340  1.00  0.00     0.000 A 
ENDBRANCH  57  71
BRANCH  58  77
ATOM     77  C   UNL A   1      37.223  31.069  32.365  1.00  0.00    -0.014 A 
ATOM     78  C   UNL A   1      36.342  31.213  31.280  1.00  0.00     0.009 A 
ATOM     79  C   UNL A   1      36.980  31.851  33.509  1.00  0.00     0.009 A 
ATOM     80  C   UNL A   1      35.298  32.144  31.309  1.00  0.00     0.001 A 
ATOM     81  C   UNL A   1      35.939  32.789  33.536  1.00  0.00     0.001 A 
ATOM     82  C   UNL A   1      35.110  32.948  32.428  1.00  0.00     0.000 A 
ENDBRANCH  58  77
BRANCH  70  83
ATOM     83  C   UNL A   1      43.110  29.307  33.825  1.00  0.00    -0.014 A 
ATOM     84  C   UNL A   1      42.472  28.064  33.680  1.00  0.00     0.009 A 
ATOM     85  C   UNL A   1      43.594  29.655  35.098  1.00  0.00     0.009 A 
ATOM     86  C   UNL A   1      42.300  27.207  34.769  1.00  0.00     0.001 A 
ATOM     87  C   UNL A   1      43.452  28.781  36.183  1.00  0.00     0.001 A 
ATOM     88  C   UNL A   1      42.792  27.565  36.020  1.00  0.00     0.000 A 
ENDBRANCH  70  83
ENDBRANCH  44  45
ENDBRANCH  36  39
ENDBRANCH  34  35
ENDBRANCH  33  34
ENDBRANCH  32  33
ENDBRANCH   1  32
TORSDOF 15
ENDMDL
MODEL 2
REMARK VINA RESULT:     -13.0      2.322      7.106
REMARK SMILES C[N@@H+]1CCN(C(=O)c2ccc3[nH]c4c(c3c2)CSCC4)C[C@H]1C(=O)NCCCCCCNC(=O)c1ccc(-c2c3nc(c(-c4ccccc4)c4ccc([nH]4)c(-c4ccccc4)c4nc(c(-c5ccccc5)c5ccc2[nH]5)C=C4)C=C3)cc1
REMARK SMILES IDX 28 1 27 2 26 3 25 4 23 5 24 6 22 8 1 9 2 10 3 11 4 13 21 14
REMARK SMILES IDX 5 15 6 16 7 17 8 18 9 19 16 20 10 21 15 22 11 23 14 24 12 25
REMARK SMILES IDX 13 26 17 27 20 29 18 30 19 31 29 32 30 33 31 34 32 35 33 36
REMARK SMILES IDX 34 38 35 39 36 40 82 41 37 42 81 43 38 44 39 45 40 46 75 47
REMARK SMILES IDX 41 48 80 49 74 50 76 51 42 52 79 53 73 54 72 55 43 57 65 58
REMARK SMILES IDX 50 59 64 60 51 61 54 62 63 63 77 64 52 65 53 66 62 68 78 69
REMARK SMILES IDX 55 70 44 71 45 72 49 73 46 74 48 75 47 76 66 77 67 78 71 79
REMARK SMILES IDX 68 80 70 81 69 82 56 83 57 84 61 85 58 86 60 87 59 88
REMARK H PARENT 25 7 2 12 12 28 32 37 76 56 54 67
REMARK Flexibility Score: inf
ROOT
ATOM      1  C   UNL A   1      34.924  29.823  27.669  1.00  0.00     0.002 C 
ENDROOT
BRANCH   1   2
ATOM      2  C   UNL A   1      34.117  28.973  26.683  1.00  0.00     0.021 C 
BRANCH   2   3
ATOM      3  C   UNL A   1      33.180  29.775  25.788  1.00  0.00     0.116 C 
BRANCH   3   4
ATOM      4  N   UNL A   1      33.414  29.495  24.383  1.00  0.00    -0.351 N 
ATOM      5  C   UNL A   1      32.875  28.524  23.591  1.00  0.00     0.280 C 
ATOM      6  O   UNL A   1      33.273  28.438  22.426  1.00  0.00    -0.268 OA
ATOM      7  H   UNL A   1      34.056  30.094  23.936  1.00  0.00     0.163 HD
BRANCH   5   8
ATOM      8  C   UNL A   1      31.759  27.603  24.106  1.00  0.00     0.293 C 
ATOM      9  C   UNL A   1      30.033  28.569  22.671  1.00  0.00     0.333 C 
ATOM     10  N   UNL A   1      30.712  27.334  23.074  1.00  0.00    -0.324 N 
ATOM     11  C   UNL A   1      29.728  26.373  23.622  1.00  0.00     0.284 C 
ATOM     12  H   UNL A   1      31.161  26.942  22.247  1.00  0.00     0.348 HD
ATOM     13  C   UNL A   1      30.376  25.071  24.130  1.00  0.00     0.181 C 
ATOM     14  C   UNL A   1      32.427  26.325  24.656  1.00  0.00     0.195 C 
ATOM     15  N   UNL A   1      31.448  25.325  25.093  1.00  0.00    -0.326 N 
BRANCH  15  16
ATOM     16  C   UNL A   1      31.645  24.413  26.129  1.00  0.00     0.254 C 
ATOM     17  O   UNL A   1      30.935  24.356  27.123  1.00  0.00    -0.269 OA
BRANCH  16  18
ATOM     18  C   UNL A   1      32.746  23.430  26.009  1.00  0.00     0.040 A 
ATOM     19  C   UNL A   1      34.025  23.721  26.491  1.00  0.00     0.016 A 
ATOM     20  C   UNL A   1      32.461  22.195  25.409  1.00  0.00     0.024 A 
ATOM     21  C   UNL A   1      35.076  22.820  26.311  1.00  0.00     0.027 A 
ATOM     22  C   UNL A   1      33.502  21.260  25.247  1.00  0.00     0.004 A 
ATOM     23  C   UNL A   1      34.784  21.601  25.685  1.00  0.00     0.046 A 
ATOM     24  C   UNL A   1      33.569  19.932  24.719  1.00  0.00    -0.009 A 
ATOM     25  N   UNL A   1      35.610  20.540  25.394  1.00  0.00    -0.358 N 
ATOM     26  C   UNL A   1      34.880  19.517  24.856  1.00  0.00     0.021 A 
ATOM     27  C   UNL A   1      32.435  19.114  24.189  1.00  0.00     0.107 C 
ATOM     28  H   UNL A   1      36.581  20.520  25.550  1.00  0.00     0.166 HD
ATOM     29  C   UNL A   1      35.449  18.185  24.504  1.00  0.00     0.065 C 
ATOM     30  S   UNL A   1      32.959  17.531  23.431  1.00  0.00    -0.157 SA
ATOM     31  C   UNL A   1      34.355  17.113  24.542  1.00  0.00     0.076 C 
ENDBRANCH  16  18
ENDBRANCH  15  16
ENDBRANCH   5   8
ENDBRANCH   3   4
ENDBRANCH   2   3
ENDBRANCH   1   2
BRANCH   1  32
ATOM     32  C   UNL A   1      34.497  31.290  27.766  1.00  0.00     0.002 C 
BRANCH  32  33
ATOM     33  C   UNL A   1      35.640  32.304  27.878  1.00  0.00     0.021 C 
BRANCH  33  34
ATOM     34  C   UNL A   1      35.371  33.473  28.828  1.00  0.00     0.116 C 
BRANCH  34  35
ATOM     35  N   UNL A   1      34.905  33.074  30.140  1.00  0.00    -0.352 N 
ATOM     36  C   UNL A   1      35.425  32.336  31.165  1.00  0.00     0.251 C 
ATOM     37  H   UNL A   1      34.003  33.415  30.340  1.00  0.00     0.163 HD
ATOM     38  O   UNL A   1      34.782  32.340  32.219  1.00  0.00    -0.269 OA
BRANCH  36  39
ATOM     39  C   UNL A   1      36.646  31.486  31.082  1.00  0.00     0.039 A 
ATOM     40  C   UNL A   1      37.957  31.949  31.002  1.00  0.00     0.014 A 
ATOM     41  C   UNL A   1      36.424  30.094  31.022  1.00  0.00     0.014 A 
ATOM     42  C   UNL A   1      39.002  31.062  30.757  1.00  0.00     0.010 A 
ATOM     43  C   UNL A   1      37.468  29.199  30.800  1.00  0.00     0.010 A 
ATOM     44  C   UNL A   1      38.754  29.691  30.623  1.00  0.00    -0.014 A 
BRANCH  44  45
ATOM     45  C   UNL A   1      39.908  28.814  30.443  1.00  0.00     0.031 A 
ATOM     46  C   UNL A   1      40.695  28.574  31.684  1.00  0.00     0.074 A 
ATOM     47  C   UNL A   1      40.241  28.189  29.297  1.00  0.00     0.049 A 
ATOM     48  N   UNL A   1      41.919  28.915  31.916  1.00  0.00    -0.248 NA
ATOM     49  C   UNL A   1      40.004  27.986  32.840  1.00  0.00     0.031 C 
ATOM     50  C   UNL A   1      39.464  28.070  28.063  1.00  0.00     0.029 A 
ATOM     51  N   UNL A   1      41.347  27.430  29.036  1.00  0.00    -0.354 N 
ATOM     52  C   UNL A   1      42.214  28.458  33.198  1.00  0.00     0.074 A 
ATOM     53  C   UNL A   1      40.968  28.002  33.760  1.00  0.00     0.031 C 
ATOM     54  C   UNL A   1      40.006  27.100  27.288  1.00  0.00     0.029 A 
ATOM     55  C   UNL A   1      41.241  26.637  27.901  1.00  0.00     0.049 A 
ATOM     56  H   UNL A   1      42.150  27.444  29.605  1.00  0.00     0.167 HD
ATOM     57  C   UNL A   1      43.499  28.325  33.631  1.00  0.00     0.031 A 
ATOM     58  C   UNL A   1      42.076  25.632  27.536  1.00  0.00     0.031 A 
ATOM     59  C   UNL A   1      44.415  29.079  32.816  1.00  0.00     0.049 A 
ATOM     60  C   UNL A   1      43.367  25.838  28.230  1.00  0.00     0.074 A 
ATOM     61  C   UNL A   1      44.541  30.417  32.494  1.00  0.00     0.029 A 
ATOM     62  N   UNL A   1      45.165  28.396  31.889  1.00  0.00    -0.354 N 
ATOM     63  N   UNL A   1      44.195  26.801  27.950  1.00  0.00    -0.248 NA
ATOM     64  C   UNL A   1      43.552  25.206  29.526  1.00  0.00     0.031 C 
ATOM     65  C   UNL A   1      44.926  30.426  31.123  1.00  0.00     0.029 A 
ATOM     66  C   UNL A   1      45.094  29.101  30.716  1.00  0.00     0.049 A 
ATOM     67  H   UNL A   1      45.660  27.559  32.039  1.00  0.00     0.167 HD
ATOM     68  C   UNL A   1      44.689  27.201  29.182  1.00  0.00     0.074 A 
ATOM     69  C   UNL A   1      44.338  26.120  30.101  1.00  0.00     0.031 C 
ATOM     70  C   UNL A   1      45.078  28.491  29.406  1.00  0.00     0.031 A 
BRANCH  57  71
ATOM     71  C   UNL A   1      43.964  27.234  34.563  1.00  0.00    -0.014 A 
ATOM     72  C   UNL A   1      44.306  27.455  35.909  1.00  0.00     0.009 A 
ATOM     73  C   UNL A   1      43.797  25.892  34.170  1.00  0.00     0.009 A 
ATOM     74  C   UNL A   1      44.431  26.406  36.825  1.00  0.00     0.001 A 
ATOM     75  C   UNL A   1      43.879  24.842  35.094  1.00  0.00     0.001 A 
ATOM     76  C   UNL A   1      44.187  25.102  36.424  1.00  0.00     0.000 A 
ENDBRANCH  57  71
BRANCH  58  77
ATOM     77  C   UNL A   1      41.744  24.333  26.904  1.00  0.00    -0.014 A 
ATOM     78  C   UNL A   1      40.751  23.506  27.454  1.00  0.00     0.009 A 
ATOM     79  C   UNL A   1      42.612  23.764  25.953  1.00  0.00     0.009 A 
ATOM     80  C   UNL A   1      40.664  22.151  27.119  1.00  0.00     0.001 A 
ATOM     81  C   UNL A   1      42.531  22.405  25.623  1.00  0.00     0.001 A 
ATOM     82  C   UNL A   1      41.568  21.595  26.220  1.00  0.00     0.000 A 
ENDBRANCH  58  77
BRANCH  70  83
ATOM     83  C   UNL A   1      45.222  29.436  28.233  1.00  0.00    -0.014 A 
ATOM     84  C   UNL A   1      46.520  29.714  27.772  1.00  0.00     0.009 A 
ATOM     85  C   UNL A   1      44.161  30.194  27.711  1.00  0.00     0.009 A 
ATOM     86  C   UNL A   1      46.755  30.729  26.841  1.00  0.00     0.001 A 
ATOM     87  C   UNL A   1      44.391  31.188  26.753  1.00  0.00     0.001 A 
ATOM     88  C   UNL A   1      45.690  31.464  26.330  1.00  0.00     0.000 A 
ENDBRANCH  70  83
ENDBRANCH  44  45
ENDBRANCH  36  39
ENDBRANCH  34  35
ENDBRANCH  33  34
ENDBRANCH  32  33
ENDBRANCH   1  32
TORSDOF 15
ENDMDL
MODEL 3
REMARK VINA RESULT:     -12.7      2.527      5.029
REMARK SMILES C[N@@H+]1CCN(C(=O)c2ccc3[nH]c4c(c3c2)CSCC4)C[C@H]1C(=O)NCCCCCCNC(=O)c1ccc(-c2c3nc(c(-c4ccccc4)c4ccc([nH]4)c(-c4ccccc4)c4nc(c(-c5ccccc5)c5ccc2[nH]5)C=C4)C=C3)cc1
REMARK SMILES IDX 28 1 27 2 26 3 25 4 23 5 24 6 22 8 1 9 2 10 3 11 4 13 21 14
REMARK SMILES IDX 5 15 6 16 7 17 8 18 9 19 16 20 10 21 15 22 11 23 14 24 12 25
REMARK SMILES IDX 13 26 17 27 20 29 18 30 19 31 29 32 30 33 31 34 32 35 33 36
REMARK SMILES IDX 34 38 35 39 36 40 82 41 37 42 81 43 38 44 39 45 40 46 75 47
REMARK SMILES IDX 41 48 80 49 74 50 76 51 42 52 79 53 73 54 72 55 43 57 65 58
REMARK SMILES IDX 50 59 64 60 51 61 54 62 63 63 77 64 52 65 53 66 62 68 78 69
REMARK SMILES IDX 55 70 44 71 45 72 49 73 46 74 48 75 47 76 66 77 67 78 71 79
REMARK SMILES IDX 68 80 70 81 69 82 56 83 57 84 61 85 58 86 60 87 59 88
REMARK H PARENT 25 7 2 12 12 28 32 37 76 56 54 67
REMARK Flexibility Score: inf
ROOT
ATOM      1  C   UNL A   1      39.922  22.757  26.923  1.00  0.00     0.002 C 
ENDROOT
BRANCH   1   2
ATOM      2  C   UNL A   1      39.159  24.011  26.487  1.00  0.00     0.021 C 
BRANCH   2   3
ATOM      3  C   UNL A   1      37.687  23.770  26.175  1.00  0.00     0.116 C 
BRANCH   3   4
ATOM      4  N   UNL A   1      37.449  23.702  24.745  1.00  0.00    -0.351 N 
ATOM      5  C   UNL A   1      36.383  23.186  24.067  1.00  0.00     0.280 C 
ATOM      6  O   UNL A   1      36.426  23.184  22.834  1.00  0.00    -0.268 OA
ATOM      7  H   UNL A   1      38.160  24.086  24.181  1.00  0.00     0.163 HD
BRANCH   5   8
ATOM      8  C   UNL A   1      35.137  22.678  24.807  1.00  0.00     0.293 C 
ATOM      9  C   UNL A   1      35.950  20.381  25.001  1.00  0.00     0.333 C 
ATOM     10  N   UNL A   1      35.439  21.544  25.733  1.00  0.00    -0.324 N 
ATOM     11  C   UNL A   1      34.207  21.176  26.467  1.00  0.00     0.284 C 
ATOM     12  H   UNL A   1      36.162  21.841  26.388  1.00  0.00     0.348 HD
ATOM     13  C   UNL A   1      33.571  22.366  27.210  1.00  0.00     0.181 C 
ATOM     14  C   UNL A   1      34.484  23.889  25.506  1.00  0.00     0.195 C 
ATOM     15  N   UNL A   1      33.330  23.507  26.326  1.00  0.00    -0.326 N 
BRANCH  15  16
ATOM     16  C   UNL A   1      32.216  24.312  26.562  1.00  0.00     0.254 C 
ATOM     17  O   UNL A   1      31.268  23.966  27.252  1.00  0.00    -0.269 OA
BRANCH  16  18
ATOM     18  C   UNL A   1      32.190  25.675  25.983  1.00  0.00     0.040 A 
ATOM     19  C   UNL A   1      33.290  26.528  26.107  1.00  0.00     0.016 A 
ATOM     20  C   UNL A   1      31.034  26.075  25.298  1.00  0.00     0.024 A 
ATOM     21  C   UNL A   1      33.233  27.838  25.622  1.00  0.00     0.027 A 
ATOM     22  C   UNL A   1      30.970  27.381  24.775  1.00  0.00     0.004 A 
ATOM     23  C   UNL A   1      32.061  28.234  24.965  1.00  0.00     0.046 A 
ATOM     24  C   UNL A   1      29.992  28.100  24.020  1.00  0.00    -0.009 A 
ATOM     25  N   UNL A   1      31.741  29.440  24.386  1.00  0.00    -0.358 N 
ATOM     26  C   UNL A   1      30.520  29.354  23.778  1.00  0.00     0.021 A 
ATOM     27  C   UNL A   1      28.681  27.583  23.519  1.00  0.00     0.107 C 
ATOM     28  H   UNL A   1      32.307  30.245  24.407  1.00  0.00     0.166 HD
ATOM     29  C   UNL A   1      29.908  30.456  22.983  1.00  0.00     0.065 C 
ATOM     30  S   UNL A   1      27.626  28.869  22.751  1.00  0.00    -0.157 SA
ATOM     31  C   UNL A   1      28.925  29.887  21.954  1.00  0.00     0.076 C 
ENDBRANCH  16  18
ENDBRANCH  15  16
ENDBRANCH   5   8
ENDBRANCH   3   4
ENDBRANCH   2   3
ENDBRANCH   1   2
BRANCH   1  32
ATOM     32  C   UNL A   1      41.160  23.014  27.787  1.00  0.00     0.002 C 
BRANCH  32  33
ATOM     33  C   UNL A   1      42.441  22.308  27.331  1.00  0.00     0.021 C 
BRANCH  33  34
ATOM     34  C   UNL A   1      42.431  21.837  25.875  1.00  0.00     0.116 C 
BRANCH  34  35
ATOM     35  N   UNL A   1      43.472  22.424  25.056  1.00  0.00    -0.352 N 
ATOM     36  C   UNL A   1      44.091  23.640  25.009  1.00  0.00     0.251 C 
ATOM     37  H   UNL A   1      43.811  21.800  24.374  1.00  0.00     0.163 HD
ATOM     38  O   UNL A   1      45.066  23.725  24.255  1.00  0.00    -0.269 OA
BRANCH  36  39
ATOM     39  C   UNL A   1      43.643  24.864  25.729  1.00  0.00     0.039 A 
ATOM     40  C   UNL A   1      44.206  25.376  26.896  1.00  0.00     0.014 A 
ATOM     41  C   UNL A   1      42.510  25.512  25.195  1.00  0.00     0.014 A 
ATOM     42  C   UNL A   1      43.594  26.429  27.569  1.00  0.00     0.010 A 
ATOM     43  C   UNL A   1      41.904  26.581  25.852  1.00  0.00     0.010 A 
ATOM     44  C   UNL A   1      42.425  27.011  27.065  1.00  0.00    -0.014 A 
BRANCH  44  45
ATOM     45  C   UNL A   1      41.881  28.160  27.785  1.00  0.00     0.031 A 
ATOM     46  C   UNL A   1      42.743  29.372  27.743  1.00  0.00     0.074 A 
ATOM     47  C   UNL A   1      40.679  28.202  28.392  1.00  0.00     0.049 A 
ATOM     48  N   UNL A   1      43.325  29.958  28.736  1.00  0.00    -0.248 NA
ATOM     49  C   UNL A   1      43.088  29.932  26.428  1.00  0.00     0.031 C 
ATOM     50  C   UNL A   1      39.583  27.235  28.316  1.00  0.00     0.029 A 
ATOM     51  N   UNL A   1      40.149  29.207  29.151  1.00  0.00    -0.354 N 
ATOM     52  C   UNL A   1      43.997  31.055  28.203  1.00  0.00     0.074 A 
ATOM     53  C   UNL A   1      43.914  30.921  26.770  1.00  0.00     0.031 C 
ATOM     54  C   UNL A   1      38.453  27.807  28.796  1.00  0.00     0.029 A 
ATOM     55  C   UNL A   1      38.776  29.116  29.342  1.00  0.00     0.049 A 
ATOM     56  H   UNL A   1      40.693  29.933  29.532  1.00  0.00     0.167 HD
ATOM     57  C   UNL A   1      44.418  32.086  28.988  1.00  0.00     0.031 A 
ATOM     58  C   UNL A   1      37.964  30.077  29.849  1.00  0.00     0.031 A 
ATOM     59  C   UNL A   1      44.467  31.711  30.377  1.00  0.00     0.049 A 
ATOM     60  C   UNL A   1      38.802  31.016  30.629  1.00  0.00     0.074 A 
ATOM     61  C   UNL A   1      45.146  30.741  31.089  1.00  0.00     0.029 A 
ATOM     62  N   UNL A   1      43.448  32.136  31.195  1.00  0.00    -0.354 N 
ATOM     63  N   UNL A   1      39.367  30.714  31.761  1.00  0.00    -0.248 NA
ATOM     64  C   UNL A   1      39.352  32.172  29.940  1.00  0.00     0.031 C 
ATOM     65  C   UNL A   1      44.212  30.285  32.062  1.00  0.00     0.029 A 
ATOM     66  C   UNL A   1      43.055  31.056  31.942  1.00  0.00     0.049 A 
ATOM     67  H   UNL A   1      43.073  33.045  31.238  1.00  0.00     0.167 HD
ATOM     68  C   UNL A   1      40.606  31.332  31.704  1.00  0.00     0.074 A 
ATOM     69  C   UNL A   1      40.500  32.296  30.610  1.00  0.00     0.031 C 
ATOM     70  C   UNL A   1      41.690  30.811  32.351  1.00  0.00     0.031 A 
BRANCH  57  71
ATOM     71  C   UNL A   1      44.437  33.527  28.543  1.00  0.00    -0.014 A 
ATOM     72  C   UNL A   1      45.560  34.148  27.968  1.00  0.00     0.009 A 
ATOM     73  C   UNL A   1      43.215  34.219  28.439  1.00  0.00     0.009 A 
ATOM     74  C   UNL A   1      45.469  35.367  27.289  1.00  0.00     0.001 A 
ATOM     75  C   UNL A   1      43.111  35.418  27.722  1.00  0.00     0.001 A 
ATOM     76  C   UNL A   1      44.238  35.986  27.139  1.00  0.00     0.000 A 
ENDBRANCH  57  71
BRANCH  58  77
ATOM     77  C   UNL A   1      36.585  30.437  29.442  1.00  0.00    -0.014 A 
ATOM     78  C   UNL A   1      36.064  29.988  28.217  1.00  0.00     0.009 A 
ATOM     79  C   UNL A   1      35.899  31.474  30.101  1.00  0.00     0.009 A 
ATOM     80  C   UNL A   1      34.940  30.590  27.640  1.00  0.00     0.001 A 
ATOM     81  C   UNL A   1      34.778  32.082  29.520  1.00  0.00     0.001 A 
ATOM     82  C   UNL A   1      34.310  31.652  28.281  1.00  0.00     0.000 A 
ENDBRANCH  58  77
BRANCH  70  83
ATOM     83  C   UNL A   1      41.489  29.695  33.353  1.00  0.00    -0.014 A 
ATOM     84  C   UNL A   1      41.492  30.032  34.717  1.00  0.00     0.009 A 
ATOM     85  C   UNL A   1      41.498  28.333  33.011  1.00  0.00     0.009 A 
ATOM     86  C   UNL A   1      41.525  29.047  35.706  1.00  0.00     0.001 A 
ATOM     87  C   UNL A   1      41.497  27.344  34.001  1.00  0.00     0.001 A 
ATOM     88  C   UNL A   1      41.525  27.702  35.347  1.00  0.00     0.000 A 
ENDBRANCH  70  83
ENDBRANCH  44  45
ENDBRANCH  36  39
ENDBRANCH  34  35
ENDBRANCH  33  34
ENDBRANCH  32  33
ENDBRANCH   1  32
TORSDOF 15
ENDMDL
