MODEL 1
REMARK VINA RESULT:     -10.5      0.000      0.000
REMARK SMILES CC1(C)[C@@H](C(=O)NCCCCCCNC(=O)c2ccc(-c3c4nc(c(-c5ccccc5)c5ccc([nH]5)c(-c5ccccc5)c5nc(c(-c6ccccc6)c6ccc3[nH]6)C=C5)C=C4)cc2)CC[C@@]1(C)C(N)=O
REMARK SMILES IDX 11 1 10 2 9 3 8 4 7 5 5 6 6 7 4 9 1 10 2 11 3 12 67 13 65 14
REMARK SMILES IDX 66 15 68 16 69 17 70 18 71 19 12 22 13 23 14 24 15 25 16 27
REMARK SMILES IDX 17 28 18 29 64 30 19 31 63 32 20 33 21 34 22 35 57 36 23 37
REMARK SMILES IDX 62 38 56 39 58 40 24 41 61 42 55 43 54 44 25 46 47 47 32 48
REMARK SMILES IDX 46 49 33 50 36 51 45 52 59 53 34 54 35 55 44 57 60 58 37 59
REMARK SMILES IDX 26 60 27 61 31 62 28 63 30 64 29 65 48 66 49 67 53 68 50 69
REMARK SMILES IDX 52 70 51 71 38 72 39 73 43 74 40 75 42 76 41 77
REMARK H PARENT 7 8 70 20 70 21 14 26 58 45 36 56
REMARK Flexibility Score: inf
ROOT
ATOM      1  C   UNL A   1      36.015  21.190  25.242  1.00  0.00     0.002 C 
ENDROOT
BRANCH   1   2
ATOM      2  C   UNL A   1      34.679  20.548  24.847  1.00  0.00     0.002 C 
BRANCH   2   3
ATOM      3  C   UNL A   1      33.667  20.408  25.990  1.00  0.00     0.021 C 
BRANCH   3   4
ATOM      4  C   UNL A   1      33.848  21.447  27.097  1.00  0.00     0.116 C 
BRANCH   4   5
ATOM      5  N   UNL A   1      32.639  22.222  27.284  1.00  0.00    -0.356 N 
ATOM      6  C   UNL A   1      32.042  23.227  26.604  1.00  0.00     0.223 C 
ATOM      7  O   UNL A   1      31.332  23.962  27.304  1.00  0.00    -0.275 OA
ATOM      8  H   UNL A   1      32.138  21.958  28.089  1.00  0.00     0.163 HD
BRANCH   6   9
ATOM      9  C   UNL A   1      32.133  23.496  25.089  1.00  0.00     0.085 C 
ATOM     10  C   UNL A   1      34.413  24.685  25.537  1.00  0.00     0.013 C 
ATOM     11  C   UNL A   1      33.115  24.666  24.707  1.00  0.00    -0.010 C 
ATOM     12  C   UNL A   1      33.607  24.440  23.243  1.00  0.00     0.013 C 
ATOM     13  C   UNL A   1      32.192  25.955  24.837  1.00  0.00     0.052 C 
ATOM     14  C   UNL A   1      30.888  23.906  24.324  1.00  0.00     0.015 C 
ATOM     15  C   UNL A   1      30.754  25.409  24.577  1.00  0.00     0.018 C 
ATOM     16  C   UNL A   1      32.482  27.047  23.781  1.00  0.00     0.022 C 
BRANCH  13  17
ATOM     17  C   UNL A   1      32.417  26.699  26.183  1.00  0.00     0.223 C 
ATOM     18  N   UNL A   1      31.402  26.865  27.066  1.00  0.00    -0.369 N 
ATOM     19  O   UNL A   1      33.497  27.216  26.476  1.00  0.00    -0.275 OA
ATOM     20  H   UNL A   1      30.519  26.471  26.879  1.00  0.00     0.159 HD
ATOM     21  H   UNL A   1      31.548  27.378  27.893  1.00  0.00     0.159 HD
ENDBRANCH  13  17
ENDBRANCH   6   9
ENDBRANCH   4   5
ENDBRANCH   3   4
ENDBRANCH   2   3
ENDBRANCH   1   2
BRANCH   1  22
ATOM     22  C   UNL A   1      37.257  20.358  24.910  1.00  0.00     0.021 C 
BRANCH  22  23
ATOM     23  C   UNL A   1      38.521  20.796  25.643  1.00  0.00     0.116 C 
BRANCH  23  24
ATOM     24  N   UNL A   1      39.506  19.727  25.703  1.00  0.00    -0.352 N 
ATOM     25  C   UNL A   1      40.847  19.791  25.993  1.00  0.00     0.251 C 
ATOM     26  H   UNL A   1      39.161  18.827  25.508  1.00  0.00     0.163 HD
ATOM     27  O   UNL A   1      41.575  18.832  25.769  1.00  0.00    -0.269 OA
BRANCH  25  28
ATOM     28  C   UNL A   1      41.413  21.034  26.555  1.00  0.00     0.039 A 
ATOM     29  C   UNL A   1      42.031  21.945  25.696  1.00  0.00     0.014 A 
ATOM     30  C   UNL A   1      41.322  21.303  27.923  1.00  0.00     0.014 A 
ATOM     31  C   UNL A   1      42.482  23.167  26.197  1.00  0.00     0.010 A 
ATOM     32  C   UNL A   1      41.710  22.548  28.409  1.00  0.00     0.010 A 
ATOM     33  C   UNL A   1      42.278  23.498  27.547  1.00  0.00    -0.014 A 
BRANCH  33  34
ATOM     34  C   UNL A   1      42.592  24.854  28.061  1.00  0.00     0.031 A 
ATOM     35  C   UNL A   1      43.976  25.193  28.534  1.00  0.00     0.074 A 
ATOM     36  C   UNL A   1      41.598  25.756  28.178  1.00  0.00     0.049 A 
ATOM     37  N   UNL A   1      44.411  26.299  29.083  1.00  0.00    -0.248 NA
ATOM     38  C   UNL A   1      45.002  24.148  28.389  1.00  0.00     0.031 C 
ATOM     39  C   UNL A   1      40.203  25.536  27.785  1.00  0.00     0.029 A 
ATOM     40  N   UNL A   1      41.605  27.037  28.670  1.00  0.00    -0.354 N 
ATOM     41  C   UNL A   1      45.754  26.081  29.358  1.00  0.00     0.074 A 
ATOM     42  C   UNL A   1      46.053  24.723  28.957  1.00  0.00     0.031 C 
ATOM     43  C   UNL A   1      39.496  26.649  28.032  1.00  0.00     0.029 A 
ATOM     44  C   UNL A   1      40.370  27.641  28.647  1.00  0.00     0.049 A 
ATOM     45  H   UNL A   1      42.416  27.480  29.009  1.00  0.00     0.167 HD
ATOM     46  C   UNL A   1      46.660  26.940  29.884  1.00  0.00     0.031 A 
ATOM     47  C   UNL A   1      39.979  28.852  29.087  1.00  0.00     0.031 A 
ATOM     48  C   UNL A   1      46.357  28.288  30.289  1.00  0.00     0.049 A 
ATOM     49  C   UNL A   1      40.994  29.765  29.715  1.00  0.00     0.074 A 
ATOM     50  C   UNL A   1      47.219  29.252  30.780  1.00  0.00     0.029 A 
ATOM     51  N   UNL A   1      45.094  28.857  30.263  1.00  0.00    -0.354 N 
ATOM     52  N   UNL A   1      42.277  29.572  29.897  1.00  0.00    -0.248 NA
ATOM     53  C   UNL A   1      40.506  31.065  30.196  1.00  0.00     0.031 C 
ATOM     54  C   UNL A   1      46.466  30.380  31.118  1.00  0.00     0.029 A 
ATOM     55  C   UNL A   1      45.145  30.144  30.771  1.00  0.00     0.049 A 
ATOM     56  H   UNL A   1      44.281  28.412  29.932  1.00  0.00     0.167 HD
ATOM     57  C   UNL A   1      42.753  30.732  30.495  1.00  0.00     0.074 A 
ATOM     58  C   UNL A   1      41.626  31.632  30.622  1.00  0.00     0.031 C 
ATOM     59  C   UNL A   1      44.013  31.024  30.905  1.00  0.00     0.031 A 
BRANCH  46  60
ATOM     60  C   UNL A   1      48.066  26.439  30.072  1.00  0.00    -0.014 A 
ATOM     61  C   UNL A   1      48.462  25.798  31.257  1.00  0.00     0.009 A 
ATOM     62  C   UNL A   1      48.997  26.567  29.029  1.00  0.00     0.009 A 
ATOM     63  C   UNL A   1      49.769  25.330  31.406  1.00  0.00     0.001 A 
ATOM     64  C   UNL A   1      50.294  26.070  29.169  1.00  0.00     0.001 A 
ATOM     65  C   UNL A   1      50.682  25.461  30.360  1.00  0.00     0.000 A 
ENDBRANCH  46  60
BRANCH  47  66
ATOM     66  C   UNL A   1      38.557  29.265  28.964  1.00  0.00    -0.014 A 
ATOM     67  C   UNL A   1      37.684  29.158  30.057  1.00  0.00     0.009 A 
ATOM     68  C   UNL A   1      38.062  29.766  27.749  1.00  0.00     0.009 A 
ATOM     69  C   UNL A   1      36.340  29.518  29.928  1.00  0.00     0.001 A 
ATOM     70  C   UNL A   1      36.726  30.157  27.632  1.00  0.00     0.001 A 
ATOM     71  C   UNL A   1      35.865  30.022  28.719  1.00  0.00     0.000 A 
ENDBRANCH  47  66
BRANCH  59  72
ATOM     72  C   UNL A   1      44.240  32.378  31.517  1.00  0.00    -0.014 A 
ATOM     73  C   UNL A   1      44.556  33.491  30.722  1.00  0.00     0.009 A 
ATOM     74  C   UNL A   1      44.089  32.552  32.902  1.00  0.00     0.009 A 
ATOM     75  C   UNL A   1      44.746  34.745  31.307  1.00  0.00     0.001 A 
ATOM     76  C   UNL A   1      44.248  33.813  33.479  1.00  0.00     0.001 A 
ATOM     77  C   UNL A   1      44.585  34.906  32.682  1.00  0.00     0.000 A 
ENDBRANCH  59  72
ENDBRANCH  33  34
ENDBRANCH  25  28
ENDBRANCH  23  24
ENDBRANCH  22  23
ENDBRANCH   1  22
TORSDOF 14
ENDMDL
MODEL 2
REMARK VINA RESULT:     -10.5      1.058      6.152
REMARK SMILES CC1(C)[C@@H](C(=O)NCCCCCCNC(=O)c2ccc(-c3c4nc(c(-c5ccccc5)c5ccc([nH]5)c(-c5ccccc5)c5nc(c(-c6ccccc6)c6ccc3[nH]6)C=C5)C=C4)cc2)CC[C@@]1(C)C(N)=O
REMARK SMILES IDX 11 1 10 2 9 3 8 4 7 5 5 6 6 7 4 9 1 10 2 11 3 12 67 13 65 14
REMARK SMILES IDX 66 15 68 16 69 17 70 18 71 19 12 22 13 23 14 24 15 25 16 27
REMARK SMILES IDX 17 28 18 29 64 30 19 31 63 32 20 33 21 34 22 35 57 36 23 37
REMARK SMILES IDX 62 38 56 39 58 40 24 41 61 42 55 43 54 44 25 46 47 47 32 48
REMARK SMILES IDX 46 49 33 50 36 51 45 52 59 53 34 54 35 55 44 57 60 58 37 59
REMARK SMILES IDX 26 60 27 61 31 62 28 63 30 64 29 65 48 66 49 67 53 68 50 69
REMARK SMILES IDX 52 70 51 71 38 72 39 73 43 74 40 75 42 76 41 77
REMARK H PARENT 7 8 70 20 70 21 14 26 58 45 36 56
REMARK Flexibility Score: inf
ROOT
ATOM      1  C   UNL A   1      37.080  21.893  24.679  1.00  0.00     0.002 C 
ENDROOT
BRANCH   1   2
ATOM      2  C   UNL A   1      35.591  21.676  24.382  1.00  0.00     0.002 C 
BRANCH   2   3
ATOM      3  C   UNL A   1      34.892  20.661  25.294  1.00  0.00     0.021 C 
BRANCH   3   4
ATOM      4  C   UNL A   1      34.120  21.307  26.446  1.00  0.00     0.116 C 
BRANCH   4   5
ATOM      5  N   UNL A   1      32.702  21.360  26.155  1.00  0.00    -0.356 N 
ATOM      6  C   UNL A   1      31.909  22.202  25.454  1.00  0.00     0.223 C 
ATOM      7  O   UNL A   1      30.732  22.229  25.838  1.00  0.00    -0.275 OA
ATOM      8  H   UNL A   1      32.201  20.615  26.558  1.00  0.00     0.163 HD
BRANCH   6   9
ATOM      9  C   UNL A   1      32.321  23.064  24.244  1.00  0.00     0.085 C 
ATOM     10  C   UNL A   1      33.512  24.673  25.919  1.00  0.00     0.013 C 
ATOM     11  C   UNL A   1      32.700  24.546  24.616  1.00  0.00    -0.010 C 
ATOM     12  C   UNL A   1      33.661  25.100  23.517  1.00  0.00     0.013 C 
ATOM     13  C   UNL A   1      31.290  25.283  24.605  1.00  0.00     0.052 C 
ATOM     14  C   UNL A   1      31.331  23.295  23.117  1.00  0.00     0.015 C 
ATOM     15  C   UNL A   1      30.436  24.433  23.614  1.00  0.00     0.018 C 
ATOM     16  C   UNL A   1      31.340  26.731  24.066  1.00  0.00     0.022 C 
BRANCH  13  17
ATOM     17  C   UNL A   1      30.715  25.460  26.038  1.00  0.00     0.223 C 
ATOM     18  N   UNL A   1      29.645  24.740  26.454  1.00  0.00    -0.369 N 
ATOM     19  O   UNL A   1      31.163  26.294  26.827  1.00  0.00    -0.275 OA
ATOM     20  H   UNL A   1      29.249  24.060  25.861  1.00  0.00     0.159 HD
ATOM     21  H   UNL A   1      29.263  24.896  27.347  1.00  0.00     0.159 HD
ENDBRANCH  13  17
ENDBRANCH   6   9
ENDBRANCH   4   5
ENDBRANCH   3   4
ENDBRANCH   2   3
ENDBRANCH   1   2
BRANCH   1  22
ATOM     22  C   UNL A   1      37.892  20.611  24.887  1.00  0.00     0.021 C 
BRANCH  22  23
ATOM     23  C   UNL A   1      38.922  20.697  26.010  1.00  0.00     0.116 C 
BRANCH  23  24
ATOM     24  N   UNL A   1      39.934  19.659  25.893  1.00  0.00    -0.352 N 
ATOM     25  C   UNL A   1      41.298  19.751  26.015  1.00  0.00     0.251 C 
ATOM     26  H   UNL A   1      39.591  18.758  25.697  1.00  0.00     0.163 HD
ATOM     27  O   UNL A   1      42.017  18.828  25.654  1.00  0.00    -0.269 OA
BRANCH  25  28
ATOM     28  C   UNL A   1      41.899  20.984  26.563  1.00  0.00     0.039 A 
ATOM     29  C   UNL A   1      42.390  21.948  25.680  1.00  0.00     0.014 A 
ATOM     30  C   UNL A   1      41.964  21.192  27.943  1.00  0.00     0.014 A 
ATOM     31  C   UNL A   1      42.870  23.159  26.180  1.00  0.00     0.010 A 
ATOM     32  C   UNL A   1      42.379  22.425  28.437  1.00  0.00     0.010 A 
ATOM     33  C   UNL A   1      42.819  23.426  27.559  1.00  0.00    -0.014 A 
BRANCH  33  34
ATOM     34  C   UNL A   1      43.162  24.768  28.094  1.00  0.00     0.031 A 
ATOM     35  C   UNL A   1      42.092  25.796  28.326  1.00  0.00     0.074 A 
ATOM     36  C   UNL A   1      44.457  25.083  28.290  1.00  0.00     0.049 A 
ATOM     37  N   UNL A   1      42.218  27.040  28.714  1.00  0.00    -0.248 NA
ATOM     38  C   UNL A   1      40.704  25.380  28.071  1.00  0.00     0.031 C 
ATOM     39  C   UNL A   1      45.592  24.182  28.068  1.00  0.00     0.029 A 
ATOM     40  N   UNL A   1      45.040  26.252  28.712  1.00  0.00    -0.354 N 
ATOM     41  C   UNL A   1      40.930  27.558  28.740  1.00  0.00     0.074 A 
ATOM     42  C   UNL A   1      40.043  26.509  28.286  1.00  0.00     0.031 C 
ATOM     43  C   UNL A   1      46.729  24.823  28.376  1.00  0.00     0.029 A 
ATOM     44  C   UNL A   1      46.413  26.193  28.765  1.00  0.00     0.049 A 
ATOM     45  H   UNL A   1      44.525  27.055  28.952  1.00  0.00     0.167 HD
ATOM     46  C   UNL A   1      40.522  28.792  29.122  1.00  0.00     0.031 A 
ATOM     47  C   UNL A   1      47.318  27.140  29.074  1.00  0.00     0.031 A 
ATOM     48  C   UNL A   1      41.408  29.837  29.566  1.00  0.00     0.049 A 
ATOM     49  C   UNL A   1      46.841  28.516  29.443  1.00  0.00     0.074 A 
ATOM     50  C   UNL A   1      41.085  31.101  30.026  1.00  0.00     0.029 A 
ATOM     51  N   UNL A   1      42.791  29.742  29.592  1.00  0.00    -0.354 N 
ATOM     52  N   UNL A   1      45.615  28.967  29.538  1.00  0.00    -0.248 NA
ATOM     53  C   UNL A   1      47.875  29.514  29.751  1.00  0.00     0.031 C 
ATOM     54  C   UNL A   1      42.275  31.796  30.263  1.00  0.00     0.029 A 
ATOM     55  C   UNL A   1      43.338  30.942  30.017  1.00  0.00     0.049 A 
ATOM     56  H   UNL A   1      43.307  28.942  29.344  1.00  0.00     0.167 HD
ATOM     57  C   UNL A   1      45.728  30.293  29.934  1.00  0.00     0.074 A 
ATOM     58  C   UNL A   1      47.142  30.566  30.085  1.00  0.00     0.031 C 
ATOM     59  C   UNL A   1      44.748  31.204  30.150  1.00  0.00     0.031 A 
BRANCH  46  60
ATOM     60  C   UNL A   1      39.049  29.089  29.057  1.00  0.00    -0.014 A 
ATOM     61  C   UNL A   1      38.218  28.920  30.177  1.00  0.00     0.009 A 
ATOM     62  C   UNL A   1      38.490  29.592  27.872  1.00  0.00     0.009 A 
ATOM     63  C   UNL A   1      36.855  29.212  30.099  1.00  0.00     0.001 A 
ATOM     64  C   UNL A   1      37.133  29.914  27.806  1.00  0.00     0.001 A 
ATOM     65  C   UNL A   1      36.315  29.715  28.916  1.00  0.00     0.000 A 
ENDBRANCH  46  60
BRANCH  47  66
ATOM     66  C   UNL A   1      48.770  26.823  29.034  1.00  0.00    -0.014 A 
ATOM     67  C   UNL A   1      49.511  27.017  27.858  1.00  0.00     0.009 A 
ATOM     68  C   UNL A   1      49.423  26.319  30.170  1.00  0.00     0.009 A 
ATOM     69  C   UNL A   1      50.869  26.688  27.815  1.00  0.00     0.001 A 
ATOM     70  C   UNL A   1      50.787  26.022  30.133  1.00  0.00     0.001 A 
ATOM     71  C   UNL A   1      51.505  26.197  28.952  1.00  0.00     0.000 A 
ENDBRANCH  47  66
BRANCH  59  72
ATOM     72  C   UNL A   1      45.171  32.579  30.587  1.00  0.00    -0.014 A 
ATOM     73  C   UNL A   1      45.398  33.601  29.653  1.00  0.00     0.009 A 
ATOM     74  C   UNL A   1      45.299  32.867  31.955  1.00  0.00     0.009 A 
ATOM     75  C   UNL A   1      45.774  34.878  30.080  1.00  0.00     0.001 A 
ATOM     76  C   UNL A   1      45.643  34.152  32.379  1.00  0.00     0.001 A 
ATOM     77  C   UNL A   1      45.888  35.153  31.441  1.00  0.00     0.000 A 
ENDBRANCH  59  72
ENDBRANCH  33  34
ENDBRANCH  25  28
ENDBRANCH  23  24
ENDBRANCH  22  23
ENDBRANCH   1  22
TORSDOF 14
ENDMDL
MODEL 3
REMARK VINA RESULT:     -10.4      1.013      6.277
REMARK SMILES CC1(C)[C@@H](C(=O)NCCCCCCNC(=O)c2ccc(-c3c4nc(c(-c5ccccc5)c5ccc([nH]5)c(-c5ccccc5)c5nc(c(-c6ccccc6)c6ccc3[nH]6)C=C5)C=C4)cc2)CC[C@@]1(C)C(N)=O
REMARK SMILES IDX 11 1 10 2 9 3 8 4 7 5 5 6 6 7 4 9 1 10 2 11 3 12 67 13 65 14
REMARK SMILES IDX 66 15 68 16 69 17 70 18 71 19 12 22 13 23 14 24 15 25 16 27
REMARK SMILES IDX 17 28 18 29 64 30 19 31 63 32 20 33 21 34 22 35 57 36 23 37
REMARK SMILES IDX 62 38 56 39 58 40 24 41 61 42 55 43 54 44 25 46 47 47 32 48
REMARK SMILES IDX 46 49 33 50 36 51 45 52 59 53 34 54 35 55 44 57 60 58 37 59
REMARK SMILES IDX 26 60 27 61 31 62 28 63 30 64 29 65 48 66 49 67 53 68 50 69
REMARK SMILES IDX 52 70 51 71 38 72 39 73 43 74 40 75 42 76 41 77
REMARK H PARENT 7 8 70 20 70 21 14 26 58 45 36 56
REMARK Flexibility Score: inf
ROOT
ATOM      1  C   UNL A   1      35.983  21.186  25.371  1.00  0.00     0.002 C 
ENDROOT
BRANCH   1   2
ATOM      2  C   UNL A   1      34.715  20.466  24.892  1.00  0.00     0.002 C 
BRANCH   2   3
ATOM      3  C   UNL A   1      33.416  20.938  25.554  1.00  0.00     0.021 C 
BRANCH   3   4
ATOM      4  C   UNL A   1      32.639  21.955  24.718  1.00  0.00     0.116 C 
BRANCH   4   5
ATOM      5  N   UNL A   1      31.841  22.820  25.563  1.00  0.00    -0.356 N 
ATOM      6  C   UNL A   1      32.111  23.876  26.363  1.00  0.00     0.223 C 
ATOM      7  O   UNL A   1      31.305  24.028  27.291  1.00  0.00    -0.275 OA
ATOM      8  H   UNL A   1      30.885  22.586  25.553  1.00  0.00     0.163 HD
BRANCH   6   9
ATOM      9  C   UNL A   1      33.263  24.887  26.198  1.00  0.00     0.085 C 
ATOM     10  C   UNL A   1      31.478  26.789  26.292  1.00  0.00     0.013 C 
ATOM     11  C   UNL A   1      32.803  26.299  25.676  1.00  0.00    -0.010 C 
ATOM     12  C   UNL A   1      33.849  27.361  26.140  1.00  0.00     0.013 C 
ATOM     13  C   UNL A   1      32.803  26.108  24.097  1.00  0.00     0.052 C 
ATOM     14  C   UNL A   1      34.396  24.581  25.235  1.00  0.00     0.015 C 
ATOM     15  C   UNL A   1      33.856  24.981  23.860  1.00  0.00     0.018 C 
ATOM     16  C   UNL A   1      33.261  27.357  23.310  1.00  0.00     0.022 C 
BRANCH  13  17
ATOM     17  C   UNL A   1      31.375  25.846  23.543  1.00  0.00     0.223 C 
ATOM     18  N   UNL A   1      30.585  26.872  23.140  1.00  0.00    -0.369 N 
ATOM     19  O   UNL A   1      30.882  24.718  23.501  1.00  0.00    -0.275 OA
ATOM     20  H   UNL A   1      30.931  27.794  23.154  1.00  0.00     0.159 HD
ATOM     21  H   UNL A   1      29.666  26.695  22.835  1.00  0.00     0.159 HD
ENDBRANCH  13  17
ENDBRANCH   6   9
ENDBRANCH   4   5
ENDBRANCH   3   4
ENDBRANCH   2   3
ENDBRANCH   1   2
BRANCH   1  22
ATOM     22  C   UNL A   1      37.290  20.669  24.763  1.00  0.00     0.021 C 
BRANCH  22  23
ATOM     23  C   UNL A   1      38.539  21.028  25.563  1.00  0.00     0.116 C 
BRANCH  23  24
ATOM     24  N   UNL A   1      39.443  19.895  25.686  1.00  0.00    -0.352 N 
ATOM     25  C   UNL A   1      40.769  19.871  26.042  1.00  0.00     0.251 C 
ATOM     26  H   UNL A   1      39.047  19.018  25.486  1.00  0.00     0.163 HD
ATOM     27  O   UNL A   1      41.439  18.862  25.869  1.00  0.00    -0.269 OA
BRANCH  25  28
ATOM     28  C   UNL A   1      41.391  21.082  26.616  1.00  0.00     0.039 A 
ATOM     29  C   UNL A   1      41.975  22.015  25.756  1.00  0.00     0.014 A 
ATOM     30  C   UNL A   1      41.389  21.299  27.996  1.00  0.00     0.014 A 
ATOM     31  C   UNL A   1      42.479  23.209  26.274  1.00  0.00     0.010 A 
ATOM     32  C   UNL A   1      41.829  22.517  28.504  1.00  0.00     0.010 A 
ATOM     33  C   UNL A   1      42.362  23.490  27.645  1.00  0.00    -0.014 A 
BRANCH  33  34
ATOM     34  C   UNL A   1      42.733  24.820  28.190  1.00  0.00     0.031 A 
ATOM     35  C   UNL A   1      41.693  25.885  28.386  1.00  0.00     0.074 A 
ATOM     36  C   UNL A   1      44.031  25.091  28.429  1.00  0.00     0.049 A 
ATOM     37  N   UNL A   1      41.848  27.125  28.777  1.00  0.00    -0.248 NA
ATOM     38  C   UNL A   1      40.300  25.517  28.086  1.00  0.00     0.031 C 
ATOM     39  C   UNL A   1      45.141  24.150  28.244  1.00  0.00     0.029 A 
ATOM     40  N   UNL A   1      44.641  26.240  28.868  1.00  0.00    -0.354 N 
ATOM     41  C   UNL A   1      40.579  27.687  28.761  1.00  0.00     0.074 A 
ATOM     42  C   UNL A   1      39.671  26.668  28.279  1.00  0.00     0.031 C 
ATOM     43  C   UNL A   1      46.289  24.753  28.588  1.00  0.00     0.029 A 
ATOM     44  C   UNL A   1      46.008  26.134  28.966  1.00  0.00     0.049 A 
ATOM     45  H   UNL A   1      44.146  27.061  29.090  1.00  0.00     0.167 HD
ATOM     46  C   UNL A   1      40.202  28.935  29.128  1.00  0.00     0.031 A 
ATOM     47  C   UNL A   1      46.935  27.050  29.303  1.00  0.00     0.031 A 
ATOM     48  C   UNL A   1      41.109  29.949  29.599  1.00  0.00     0.049 A 
ATOM     49  C   UNL A   1      46.494  28.442  29.655  1.00  0.00     0.074 A 
ATOM     50  C   UNL A   1      40.815  31.225  30.048  1.00  0.00     0.029 A 
ATOM     51  N   UNL A   1      42.486  29.808  29.670  1.00  0.00    -0.354 N 
ATOM     52  N   UNL A   1      45.281  28.935  29.709  1.00  0.00    -0.248 NA
ATOM     53  C   UNL A   1      47.551  29.404  29.995  1.00  0.00     0.031 C 
ATOM     54  C   UNL A   1      42.019  31.880  30.322  1.00  0.00     0.029 A 
ATOM     55  C   UNL A   1      43.060  30.989  30.112  1.00  0.00     0.049 A 
ATOM     56  H   UNL A   1      42.982  28.990  29.440  1.00  0.00     0.167 HD
ATOM     57  C   UNL A   1      45.428  30.258  30.107  1.00  0.00     0.074 A 
ATOM     58  C   UNL A   1      46.844  30.482  30.305  1.00  0.00     0.031 C 
ATOM     59  C   UNL A   1      44.472  31.203  30.291  1.00  0.00     0.031 A 
BRANCH  46  60
ATOM     60  C   UNL A   1      38.742  29.283  29.015  1.00  0.00    -0.014 A 
ATOM     61  C   UNL A   1      38.191  29.738  27.806  1.00  0.00     0.009 A 
ATOM     62  C   UNL A   1      37.896  29.107  30.121  1.00  0.00     0.009 A 
ATOM     63  C   UNL A   1      36.831  30.044  27.719  1.00  0.00     0.001 A 
ATOM     64  C   UNL A   1      36.531  29.384  30.022  1.00  0.00     0.001 A 
ATOM     65  C   UNL A   1      36.001  29.860  28.825  1.00  0.00     0.000 A 
ENDBRANCH  46  60
BRANCH  47  66
ATOM     66  C   UNL A   1      48.375  26.682  29.310  1.00  0.00    -0.014 A 
ATOM     67  C   UNL A   1      49.153  26.818  28.150  1.00  0.00     0.009 A 
ATOM     68  C   UNL A   1      48.980  26.189  30.477  1.00  0.00     0.009 A 
ATOM     69  C   UNL A   1      50.499  26.443  28.152  1.00  0.00     0.001 A 
ATOM     70  C   UNL A   1      50.334  25.846  30.485  1.00  0.00     0.001 A 
ATOM     71  C   UNL A   1      51.089  25.963  29.320  1.00  0.00     0.000 A 
ENDBRANCH  47  66
BRANCH  59  72
ATOM     72  C   UNL A   1      44.928  32.563  30.740  1.00  0.00    -0.014 A 
ATOM     73  C   UNL A   1      45.080  32.865  32.102  1.00  0.00     0.009 A 
ATOM     74  C   UNL A   1      45.256  33.540  29.787  1.00  0.00     0.009 A 
ATOM     75  C   UNL A   1      45.522  34.129  32.501  1.00  0.00     0.001 A 
ATOM     76  C   UNL A   1      45.728  34.791  30.187  1.00  0.00     0.001 A 
ATOM     77  C   UNL A   1      45.852  35.086  31.543  1.00  0.00     0.000 A 
ENDBRANCH  59  72
ENDBRANCH  33  34
ENDBRANCH  25  28
ENDBRANCH  23  24
ENDBRANCH  22  23
ENDBRANCH   1  22
TORSDOF 14
ENDMDL
