MODEL 1
REMARK VINA RESULT:      -8.9      0.000      0.000
REMARK SMILES CCOc1cc2c(cc1C(=O)NCCCCCCNC(=O)c1ccc(-c3c4nc(c(-c5ccccc5)c5ccc([nH]5)c(-c5ccccc5)c5nc(c(-c6ccccc6)c6ccc3[nH]6)C=C5)C=C4)cc1)CCC2
REMARK SMILES IDX 15 1 14 2 13 3 12 4 10 5 11 6 9 8 4 9 5 10 6 11 8 12 7 13
REMARK SMILES IDX 72 14 70 15 71 16 3 17 2 18 1 19 16 20 17 21 18 22 19 23
REMARK SMILES IDX 20 24 21 26 22 27 23 28 69 29 24 30 68 31 25 32 26 33 27 34
REMARK SMILES IDX 62 35 28 36 67 37 61 38 63 39 29 40 66 41 60 42 59 43 30 45
REMARK SMILES IDX 52 46 37 47 51 48 38 49 41 50 50 51 64 52 39 53 40 54 49 56
REMARK SMILES IDX 65 57 42 58 31 59 32 60 36 61 33 62 35 63 34 64 53 65 54 66
REMARK SMILES IDX 58 67 55 68 57 69 56 70 43 71 44 72 48 73 45 74 47 75 46 76
REMARK H PARENT 12 7 19 25 63 44 41 55
REMARK Flexibility Score: inf
ROOT
ATOM      1  C   UNL A   1      45.453  22.373  24.756  1.00  0.00     0.002 C 
ENDROOT
BRANCH   1   2
ATOM      2  C   UNL A   1      46.487  23.370  24.246  1.00  0.00     0.021 C 
BRANCH   2   3
ATOM      3  C   UNL A   1      47.040  24.386  25.231  1.00  0.00     0.116 C 
BRANCH   3   4
ATOM      4  N   UNL A   1      47.910  25.399  24.724  1.00  0.00    -0.352 N 
ATOM      5  C   UNL A   1      47.786  26.766  24.837  1.00  0.00     0.255 C 
ATOM      6  O   UNL A   1      48.707  27.423  24.340  1.00  0.00    -0.269 OA
ATOM      7  H   UNL A   1      48.699  25.079  24.232  1.00  0.00     0.163 HD
BRANCH   5   8
ATOM      8  C   UNL A   1      46.609  27.510  25.434  1.00  0.00     0.082 A 
ATOM      9  C   UNL A   1      46.564  28.749  26.132  1.00  0.00     0.132 A 
ATOM     10  C   UNL A   1      45.326  29.322  26.488  1.00  0.00     0.051 A 
ATOM     11  C   UNL A   1      44.149  28.663  26.199  1.00  0.00    -0.041 A 
ATOM     12  C   UNL A   1      45.370  26.867  25.157  1.00  0.00     0.021 A 
ATOM     13  C   UNL A   1      44.167  27.449  25.529  1.00  0.00    -0.044 A 
ATOM     14  C   UNL A   1      42.752  29.088  26.519  1.00  0.00     0.036 C 
ATOM     15  C   UNL A   1      42.774  26.954  25.296  1.00  0.00     0.036 C 
ATOM     16  C   UNL A   1      41.963  28.244  25.512  1.00  0.00     0.010 C 
BRANCH   9  17
ATOM     17  O   UNL A   1      47.663  29.539  26.381  1.00  0.00    -0.493 OA
BRANCH  17  18
ATOM     18  C   UNL A   1      47.333  30.831  26.940  1.00  0.00     0.226 C 
ATOM     19  C   UNL A   1      48.494  31.800  27.065  1.00  0.00     0.049 C 
ENDBRANCH  17  18
ENDBRANCH   9  17
ENDBRANCH   5   8
ENDBRANCH   3   4
ENDBRANCH   2   3
ENDBRANCH   1   2
BRANCH   1  20
ATOM     20  C   UNL A   1      45.883  20.909  24.865  1.00  0.00     0.002 C 
BRANCH  20  21
ATOM     21  C   UNL A   1      44.834  19.845  24.531  1.00  0.00     0.021 C 
BRANCH  21  22
ATOM     22  C   UNL A   1      44.187  19.133  25.715  1.00  0.00     0.116 C 
BRANCH  22  23
ATOM     23  N   UNL A   1      42.778  18.848  25.507  1.00  0.00    -0.352 N 
ATOM     24  C   UNL A   1      41.665  19.566  25.875  1.00  0.00     0.251 C 
ATOM     25  H   UNL A   1      42.590  18.010  25.027  1.00  0.00     0.163 HD
ATOM     26  O   UNL A   1      40.548  19.085  25.737  1.00  0.00    -0.269 OA
BRANCH  24  27
ATOM     27  C   UNL A   1      41.812  20.913  26.469  1.00  0.00     0.039 A 
ATOM     28  C   UNL A   1      41.774  21.043  27.861  1.00  0.00     0.014 A 
ATOM     29  C   UNL A   1      41.980  22.044  25.666  1.00  0.00     0.014 A 
ATOM     30  C   UNL A   1      41.985  22.292  28.449  1.00  0.00     0.010 A 
ATOM     31  C   UNL A   1      42.257  23.277  26.254  1.00  0.00     0.010 A 
ATOM     32  C   UNL A   1      42.274  23.411  27.652  1.00  0.00    -0.014 A 
BRANCH  32  33
ATOM     33  C   UNL A   1      42.638  24.719  28.257  1.00  0.00     0.031 A 
ATOM     34  C   UNL A   1      41.588  25.771  28.484  1.00  0.00     0.074 A 
ATOM     35  C   UNL A   1      43.932  24.990  28.519  1.00  0.00     0.049 A 
ATOM     36  N   UNL A   1      41.732  27.003  28.903  1.00  0.00    -0.248 NA
ATOM     37  C   UNL A   1      40.195  25.399  28.183  1.00  0.00     0.031 C 
ATOM     38  C   UNL A   1      45.051  24.066  28.318  1.00  0.00     0.029 A 
ATOM     39  N   UNL A   1      44.529  26.131  28.997  1.00  0.00    -0.354 N 
ATOM     40  C   UNL A   1      40.458  27.559  28.891  1.00  0.00     0.074 A 
ATOM     41  C   UNL A   1      39.558  26.542  28.396  1.00  0.00     0.031 C 
ATOM     42  C   UNL A   1      46.193  24.670  28.685  1.00  0.00     0.029 A 
ATOM     43  C   UNL A   1      45.898  26.038  29.094  1.00  0.00     0.049 A 
ATOM     44  H   UNL A   1      44.025  26.940  29.245  1.00  0.00     0.167 HD
ATOM     45  C   UNL A   1      40.075  28.803  29.266  1.00  0.00     0.031 A 
ATOM     46  C   UNL A   1      46.816  26.957  29.451  1.00  0.00     0.031 A 
ATOM     47  C   UNL A   1      40.971  29.808  29.773  1.00  0.00     0.049 A 
ATOM     48  C   UNL A   1      46.360  28.342  29.825  1.00  0.00     0.074 A 
ATOM     49  C   UNL A   1      40.663  31.071  30.251  1.00  0.00     0.029 A 
ATOM     50  N   UNL A   1      42.347  29.674  29.856  1.00  0.00    -0.354 N 
ATOM     51  N   UNL A   1      45.142  28.822  29.892  1.00  0.00    -0.248 NA
ATOM     52  C   UNL A   1      47.408  29.311  30.176  1.00  0.00     0.031 C 
ATOM     53  C   UNL A   1      41.859  31.726  30.555  1.00  0.00     0.029 A 
ATOM     54  C   UNL A   1      42.907  30.848  30.333  1.00  0.00     0.049 A 
ATOM     55  H   UNL A   1      42.852  28.865  29.612  1.00  0.00     0.167 HD
ATOM     56  C   UNL A   1      45.277  30.137  30.321  1.00  0.00     0.074 A 
ATOM     57  C   UNL A   1      46.692  30.372  30.519  1.00  0.00     0.031 C 
ATOM     58  C   UNL A   1      44.315  31.067  30.531  1.00  0.00     0.031 A 
BRANCH  45  59
ATOM     59  C   UNL A   1      38.623  29.165  29.126  1.00  0.00    -0.014 A 
ATOM     60  C   UNL A   1      37.741  29.096  30.215  1.00  0.00     0.009 A 
ATOM     61  C   UNL A   1      38.148  29.659  27.899  1.00  0.00     0.009 A 
ATOM     62  C   UNL A   1      36.408  29.491  30.072  1.00  0.00     0.001 A 
ATOM     63  C   UNL A   1      36.825  30.079  27.767  1.00  0.00     0.001 A 
ATOM     64  C   UNL A   1      35.954  29.989  28.851  1.00  0.00     0.000 A 
ENDBRANCH  45  59
BRANCH  46  65
ATOM     65  C   UNL A   1      48.265  26.619  29.454  1.00  0.00    -0.014 A 
ATOM     66  C   UNL A   1      48.871  26.080  30.600  1.00  0.00     0.009 A 
ATOM     67  C   UNL A   1      49.061  26.877  28.326  1.00  0.00     0.009 A 
ATOM     68  C   UNL A   1      50.247  25.846  30.630  1.00  0.00     0.001 A 
ATOM     69  C   UNL A   1      50.431  26.609  28.347  1.00  0.00     0.001 A 
ATOM     70  C   UNL A   1      51.026  26.108  29.504  1.00  0.00     0.000 A 
ENDBRANCH  46  65
BRANCH  58  71
ATOM     71  C   UNL A   1      44.753  32.414  31.035  1.00  0.00    -0.014 A 
ATOM     72  C   UNL A   1      45.050  33.464  30.151  1.00  0.00     0.009 A 
ATOM     73  C   UNL A   1      44.824  32.649  32.417  1.00  0.00     0.009 A 
ATOM     74  C   UNL A   1      45.439  34.711  30.643  1.00  0.00     0.001 A 
ATOM     75  C   UNL A   1      45.181  33.906  32.906  1.00  0.00     0.001 A 
ATOM     76  C   UNL A   1      45.497  34.933  32.018  1.00  0.00     0.000 A 
ENDBRANCH  58  71
ENDBRANCH  32  33
ENDBRANCH  24  27
ENDBRANCH  22  23
ENDBRANCH  21  22
ENDBRANCH  20  21
ENDBRANCH   1  20
TORSDOF 15
ENDMDL
MODEL 2
REMARK VINA RESULT:      -8.2      5.679     11.611
REMARK SMILES CCOc1cc2c(cc1C(=O)NCCCCCCNC(=O)c1ccc(-c3c4nc(c(-c5ccccc5)c5ccc([nH]5)c(-c5ccccc5)c5nc(c(-c6ccccc6)c6ccc3[nH]6)C=C5)C=C4)cc1)CCC2
REMARK SMILES IDX 15 1 14 2 13 3 12 4 10 5 11 6 9 8 4 9 5 10 6 11 8 12 7 13
REMARK SMILES IDX 72 14 70 15 71 16 3 17 2 18 1 19 16 20 17 21 18 22 19 23
REMARK SMILES IDX 20 24 21 26 22 27 23 28 69 29 24 30 68 31 25 32 26 33 27 34
REMARK SMILES IDX 62 35 28 36 67 37 61 38 63 39 29 40 66 41 60 42 59 43 30 45
REMARK SMILES IDX 52 46 37 47 51 48 38 49 41 50 50 51 64 52 39 53 40 54 49 56
REMARK SMILES IDX 65 57 42 58 31 59 32 60 36 61 33 62 35 63 34 64 53 65 54 66
REMARK SMILES IDX 58 67 55 68 57 69 56 70 43 71 44 72 48 73 45 74 47 75 46 76
REMARK H PARENT 12 7 19 25 63 44 41 55
REMARK Flexibility Score: inf
ROOT
ATOM      1  C   UNL A   1      31.738  27.996  26.464  1.00  0.00     0.002 C 
ENDROOT
BRANCH   1   2
ATOM      2  C   UNL A   1      33.080  27.511  25.929  1.00  0.00     0.021 C 
BRANCH   2   3
ATOM      3  C   UNL A   1      33.697  28.271  24.767  1.00  0.00     0.116 C 
BRANCH   3   4
ATOM      4  N   UNL A   1      33.848  27.581  23.526  1.00  0.00    -0.352 N 
ATOM      5  C   UNL A   1      32.874  27.242  22.613  1.00  0.00     0.255 C 
ATOM      6  O   UNL A   1      33.280  26.678  21.591  1.00  0.00    -0.269 OA
ATOM      7  H   UNL A   1      34.766  27.314  23.293  1.00  0.00     0.163 HD
BRANCH   5   8
ATOM      8  C   UNL A   1      31.381  27.425  22.790  1.00  0.00     0.082 A 
ATOM      9  C   UNL A   1      30.422  26.592  23.432  1.00  0.00     0.132 A 
ATOM     10  C   UNL A   1      29.091  27.030  23.592  1.00  0.00     0.051 A 
ATOM     11  C   UNL A   1      28.699  28.252  23.088  1.00  0.00    -0.041 A 
ATOM     12  C   UNL A   1      30.930  28.678  22.286  1.00  0.00     0.021 A 
ATOM     13  C   UNL A   1      29.611  29.077  22.448  1.00  0.00    -0.044 A 
ATOM     14  C   UNL A   1      27.339  28.872  23.129  1.00  0.00     0.036 C 
ATOM     15  C   UNL A   1      28.961  30.359  22.029  1.00  0.00     0.036 C 
ATOM     16  C   UNL A   1      27.694  30.346  22.903  1.00  0.00     0.010 C 
BRANCH   9  17
ATOM     17  O   UNL A   1      30.724  25.405  24.060  1.00  0.00    -0.493 OA
BRANCH  17  18
ATOM     18  C   UNL A   1      30.881  24.293  23.150  1.00  0.00     0.226 C 
ATOM     19  C   UNL A   1      31.549  23.064  23.737  1.00  0.00     0.049 C 
ENDBRANCH  17  18
ENDBRANCH   9  17
ENDBRANCH   5   8
ENDBRANCH   3   4
ENDBRANCH   2   3
ENDBRANCH   1   2
BRANCH   1  20
ATOM     20  C   UNL A   1      31.747  29.226  27.374  1.00  0.00     0.002 C 
BRANCH  20  21
ATOM     21  C   UNL A   1      31.648  30.597  26.701  1.00  0.00     0.021 C 
BRANCH  21  22
ATOM     22  C   UNL A   1      32.843  31.529  26.880  1.00  0.00     0.116 C 
BRANCH  22  23
ATOM     23  N   UNL A   1      32.464  32.864  27.307  1.00  0.00    -0.352 N 
ATOM     24  C   UNL A   1      33.093  33.730  28.170  1.00  0.00     0.251 C 
ATOM     25  H   UNL A   1      31.626  33.203  26.918  1.00  0.00     0.163 HD
ATOM     26  O   UNL A   1      32.538  34.765  28.518  1.00  0.00    -0.269 OA
BRANCH  24  27
ATOM     27  C   UNL A   1      34.433  33.404  28.705  1.00  0.00     0.039 A 
ATOM     28  C   UNL A   1      34.522  32.683  29.900  1.00  0.00     0.014 A 
ATOM     29  C   UNL A   1      35.596  33.807  28.044  1.00  0.00     0.014 A 
ATOM     30  C   UNL A   1      35.773  32.298  30.388  1.00  0.00     0.010 A 
ATOM     31  C   UNL A   1      36.838  33.365  28.495  1.00  0.00     0.010 A 
ATOM     32  C   UNL A   1      36.938  32.596  29.665  1.00  0.00    -0.014 A 
BRANCH  32  33
ATOM     33  C   UNL A   1      38.266  32.079  30.089  1.00  0.00     0.031 A 
ATOM     34  C   UNL A   1      38.778  30.768  29.559  1.00  0.00     0.074 A 
ATOM     35  C   UNL A   1      38.971  32.752  31.021  1.00  0.00     0.049 A 
ATOM     36  N   UNL A   1      39.860  30.111  29.892  1.00  0.00    -0.248 NA
ATOM     37  C   UNL A   1      37.958  30.097  28.538  1.00  0.00     0.031 C 
ATOM     38  C   UNL A   1      38.574  34.021  31.635  1.00  0.00     0.029 A 
ATOM     39  N   UNL A   1      40.166  32.452  31.629  1.00  0.00    -0.354 N 
ATOM     40  C   UNL A   1      39.838  28.940  29.143  1.00  0.00     0.074 A 
ATOM     41  C   UNL A   1      38.622  28.963  28.361  1.00  0.00     0.031 C 
ATOM     42  C   UNL A   1      39.513  34.398  32.517  1.00  0.00     0.029 A 
ATOM     43  C   UNL A   1      40.551  33.375  32.573  1.00  0.00     0.049 A 
ATOM     44  H   UNL A   1      40.696  31.652  31.410  1.00  0.00     0.167 HD
ATOM     45  C   UNL A   1      40.753  27.943  29.106  1.00  0.00     0.031 A 
ATOM     46  C   UNL A   1      41.608  33.387  33.408  1.00  0.00     0.031 A 
ATOM     47  C   UNL A   1      41.970  27.931  29.873  1.00  0.00     0.049 A 
ATOM     48  C   UNL A   1      42.586  32.243  33.368  1.00  0.00     0.074 A 
ATOM     49  C   UNL A   1      42.995  27.000  29.843  1.00  0.00     0.029 A 
ATOM     50  N   UNL A   1      42.321  28.883  30.816  1.00  0.00    -0.354 N 
ATOM     51  N   UNL A   1      42.594  31.188  32.591  1.00  0.00    -0.248 NA
ATOM     52  C   UNL A   1      43.704  32.295  34.322  1.00  0.00     0.031 C 
ATOM     53  C   UNL A   1      43.931  27.350  30.819  1.00  0.00     0.029 A 
ATOM     54  C   UNL A   1      43.526  28.536  31.408  1.00  0.00     0.049 A 
ATOM     55  H   UNL A   1      41.795  29.685  31.033  1.00  0.00     0.167 HD
ATOM     56  C   UNL A   1      43.731  30.469  32.940  1.00  0.00     0.074 A 
ATOM     57  C   UNL A   1      44.398  31.218  33.984  1.00  0.00     0.031 C 
ATOM     58  C   UNL A   1      44.181  29.293  32.442  1.00  0.00     0.031 A 
BRANCH  45  59
ATOM     59  C   UNL A   1      40.471  26.760  28.220  1.00  0.00    -0.014 A 
ATOM     60  C   UNL A   1      39.647  25.706  28.644  1.00  0.00     0.009 A 
ATOM     61  C   UNL A   1      40.977  26.741  26.910  1.00  0.00     0.009 A 
ATOM     62  C   UNL A   1      39.357  24.646  27.781  1.00  0.00     0.001 A 
ATOM     63  C   UNL A   1      40.663  25.696  26.042  1.00  0.00     0.001 A 
ATOM     64  C   UNL A   1      39.858  24.646  26.480  1.00  0.00     0.000 A 
ENDBRANCH  45  59
BRANCH  46  65
ATOM     65  C   UNL A   1      41.798  34.502  34.374  1.00  0.00    -0.014 A 
ATOM     66  C   UNL A   1      41.236  34.438  35.659  1.00  0.00     0.009 A 
ATOM     67  C   UNL A   1      42.504  35.658  34.002  1.00  0.00     0.009 A 
ATOM     68  C   UNL A   1      41.340  35.522  36.533  1.00  0.00     0.001 A 
ATOM     69  C   UNL A   1      42.637  36.726  34.891  1.00  0.00     0.001 A 
ATOM     70  C   UNL A   1      42.042  36.664  36.149  1.00  0.00     0.000 A 
ENDBRANCH  46  65
BRANCH  58  71
ATOM     71  C   UNL A   1      45.474  28.758  32.991  1.00  0.00    -0.014 A 
ATOM     72  C   UNL A   1      45.498  27.908  34.108  1.00  0.00     0.009 A 
ATOM     73  C   UNL A   1      46.683  29.074  32.352  1.00  0.00     0.009 A 
ATOM     74  C   UNL A   1      46.709  27.411  34.591  1.00  0.00     0.001 A 
ATOM     75  C   UNL A   1      47.890  28.549  32.817  1.00  0.00     0.001 A 
ATOM     76  C   UNL A   1      47.902  27.725  33.941  1.00  0.00     0.000 A 
ENDBRANCH  58  71
ENDBRANCH  32  33
ENDBRANCH  24  27
ENDBRANCH  22  23
ENDBRANCH  21  22
ENDBRANCH  20  21
ENDBRANCH   1  20
TORSDOF 15
ENDMDL
MODEL 3
REMARK VINA RESULT:      -8.2      6.041     12.038
REMARK SMILES CCOc1cc2c(cc1C(=O)NCCCCCCNC(=O)c1ccc(-c3c4nc(c(-c5ccccc5)c5ccc([nH]5)c(-c5ccccc5)c5nc(c(-c6ccccc6)c6ccc3[nH]6)C=C5)C=C4)cc1)CCC2
REMARK SMILES IDX 15 1 14 2 13 3 12 4 10 5 11 6 9 8 4 9 5 10 6 11 8 12 7 13
REMARK SMILES IDX 72 14 70 15 71 16 3 17 2 18 1 19 16 20 17 21 18 22 19 23
REMARK SMILES IDX 20 24 21 26 22 27 23 28 69 29 24 30 68 31 25 32 26 33 27 34
REMARK SMILES IDX 62 35 28 36 67 37 61 38 63 39 29 40 66 41 60 42 59 43 30 45
REMARK SMILES IDX 52 46 37 47 51 48 38 49 41 50 50 51 64 52 39 53 40 54 49 56
REMARK SMILES IDX 65 57 42 58 31 59 32 60 36 61 33 62 35 63 34 64 53 65 54 66
REMARK SMILES IDX 58 67 55 68 57 69 56 70 43 71 44 72 48 73 45 74 47 75 46 76
REMARK H PARENT 12 7 19 25 63 44 41 55
REMARK Flexibility Score: inf
ROOT
ATOM      1  C   UNL A   1      32.214  29.310  27.213  1.00  0.00     0.002 C 
ENDROOT
BRANCH   1   2
ATOM      2  C   UNL A   1      31.533  27.949  27.300  1.00  0.00     0.021 C 
BRANCH   2   3
ATOM      3  C   UNL A   1      32.298  26.740  26.789  1.00  0.00     0.116 C 
BRANCH   3   4
ATOM      4  N   UNL A   1      31.566  25.745  26.071  1.00  0.00    -0.352 N 
ATOM      5  C   UNL A   1      30.944  25.859  24.848  1.00  0.00     0.255 C 
ATOM      6  O   UNL A   1      30.411  24.827  24.427  1.00  0.00    -0.269 OA
ATOM      7  H   UNL A   1      31.500  24.865  26.506  1.00  0.00     0.163 HD
BRANCH   5   8
ATOM      8  C   UNL A   1      30.794  27.130  24.037  1.00  0.00     0.082 A 
ATOM      9  C   UNL A   1      31.768  27.890  23.331  1.00  0.00     0.132 A 
ATOM     10  C   UNL A   1      31.376  28.980  22.527  1.00  0.00     0.051 A 
ATOM     11  C   UNL A   1      30.049  29.345  22.454  1.00  0.00    -0.041 A 
ATOM     12  C   UNL A   1      29.436  27.543  23.931  1.00  0.00     0.021 A 
ATOM     13  C   UNL A   1      29.081  28.627  23.141  1.00  0.00    -0.044 A 
ATOM     14  C   UNL A   1      29.445  30.478  21.689  1.00  0.00     0.036 C 
ATOM     15  C   UNL A   1      27.718  29.186  22.872  1.00  0.00     0.036 C 
ATOM     16  C   UNL A   1      27.986  30.016  21.605  1.00  0.00     0.010 C 
BRANCH   9  17
ATOM     17  O   UNL A   1      33.101  27.557  23.251  1.00  0.00    -0.493 OA
BRANCH  17  18
ATOM     18  C   UNL A   1      33.500  27.077  21.946  1.00  0.00     0.226 C 
ATOM     19  C   UNL A   1      32.939  25.723  21.555  1.00  0.00     0.049 C 
ENDBRANCH  17  18
ENDBRANCH   9  17
ENDBRANCH   5   8
ENDBRANCH   3   4
ENDBRANCH   2   3
ENDBRANCH   1   2
BRANCH   1  20
ATOM     20  C   UNL A   1      31.727  30.271  26.127  1.00  0.00     0.002 C 
BRANCH  20  21
ATOM     21  C   UNL A   1      31.499  31.730  26.533  1.00  0.00     0.021 C 
BRANCH  21  22
ATOM     22  C   UNL A   1      32.669  32.438  27.208  1.00  0.00     0.116 C 
BRANCH  22  23
ATOM     23  N   UNL A   1      32.371  33.813  27.569  1.00  0.00    -0.352 N 
ATOM     24  C   UNL A   1      33.006  34.655  28.450  1.00  0.00     0.251 C 
ATOM     25  H   UNL A   1      31.592  34.203  27.111  1.00  0.00     0.163 HD
ATOM     26  O   UNL A   1      32.514  35.741  28.729  1.00  0.00    -0.269 OA
BRANCH  24  27
ATOM     27  C   UNL A   1      34.275  34.242  29.090  1.00  0.00     0.039 A 
ATOM     28  C   UNL A   1      34.225  33.597  30.329  1.00  0.00     0.014 A 
ATOM     29  C   UNL A   1      35.508  34.492  28.481  1.00  0.00     0.014 A 
ATOM     30  C   UNL A   1      35.402  33.131  30.918  1.00  0.00     0.010 A 
ATOM     31  C   UNL A   1      36.673  33.969  29.037  1.00  0.00     0.010 A 
ATOM     32  C   UNL A   1      36.631  33.272  30.255  1.00  0.00    -0.014 A 
BRANCH  32  33
ATOM     33  C   UNL A   1      37.876  32.664  30.794  1.00  0.00     0.031 A 
ATOM     34  C   UNL A   1      38.446  31.419  30.173  1.00  0.00     0.074 A 
ATOM     35  C   UNL A   1      38.442  33.187  31.901  1.00  0.00     0.049 A 
ATOM     36  N   UNL A   1      39.460  30.691  30.568  1.00  0.00    -0.248 NA
ATOM     37  C   UNL A   1      37.780  30.913  28.963  1.00  0.00     0.031 C 
ATOM     38  C   UNL A   1      37.972  34.376  32.616  1.00  0.00     0.029 A 
ATOM     39  N   UNL A   1      39.530  32.774  32.630  1.00  0.00    -0.354 N 
ATOM     40  C   UNL A   1      39.537  29.631  29.673  1.00  0.00     0.074 A 
ATOM     41  C   UNL A   1      38.450  29.792  28.733  1.00  0.00     0.031 C 
ATOM     42  C   UNL A   1      38.774  34.605  33.667  1.00  0.00     0.029 A 
ATOM     43  C   UNL A   1      39.781  33.553  33.736  1.00  0.00     0.049 A 
ATOM     44  H   UNL A   1      40.079  31.994  32.385  1.00  0.00     0.167 HD
ATOM     45  C   UNL A   1      40.437  28.620  29.636  1.00  0.00     0.031 A 
ATOM     46  C   UNL A   1      40.704  33.423  34.709  1.00  0.00     0.031 A 
ATOM     47  C   UNL A   1      41.527  28.470  30.563  1.00  0.00     0.049 A 
ATOM     48  C   UNL A   1      41.665  32.266  34.658  1.00  0.00     0.074 A 
ATOM     49  C   UNL A   1      42.535  27.521  30.557  1.00  0.00     0.029 A 
ATOM     50  N   UNL A   1      41.745  29.279  31.666  1.00  0.00    -0.354 N 
ATOM     51  N   UNL A   1      41.777  31.322  33.755  1.00  0.00    -0.248 NA
ATOM     52  C   UNL A   1      42.629  32.157  35.763  1.00  0.00     0.031 C 
ATOM     53  C   UNL A   1      43.320  27.711  31.697  1.00  0.00     0.029 A 
ATOM     54  C   UNL A   1      42.845  28.822  32.374  1.00  0.00     0.049 A 
ATOM     55  H   UNL A   1      41.201  30.061  31.910  1.00  0.00     0.167 HD
ATOM     56  C   UNL A   1      42.841  30.529  34.166  1.00  0.00     0.074 A 
ATOM     57  C   UNL A   1      43.354  31.114  35.387  1.00  0.00     0.031 C 
ATOM     58  C   UNL A   1      43.347  29.416  33.585  1.00  0.00     0.031 A 
BRANCH  45  59
ATOM     59  C   UNL A   1      40.277  27.573  28.568  1.00  0.00    -0.014 A 
ATOM     60  C   UNL A   1      40.878  27.713  27.307  1.00  0.00     0.009 A 
ATOM     61  C   UNL A   1      39.576  26.391  28.858  1.00  0.00     0.009 A 
ATOM     62  C   UNL A   1      40.760  26.700  26.352  1.00  0.00     0.001 A 
ATOM     63  C   UNL A   1      39.483  25.370  27.912  1.00  0.00     0.001 A 
ATOM     64  C   UNL A   1      40.070  25.527  26.657  1.00  0.00     0.000 A 
ENDBRANCH  45  59
BRANCH  46  65
ATOM     65  C   UNL A   1      40.760  34.395  35.833  1.00  0.00    -0.014 A 
ATOM     66  C   UNL A   1      40.007  34.184  36.999  1.00  0.00     0.009 A 
ATOM     67  C   UNL A   1      41.532  35.564  35.729  1.00  0.00     0.009 A 
ATOM     68  C   UNL A   1      39.992  35.141  38.016  1.00  0.00     0.001 A 
ATOM     69  C   UNL A   1      41.544  36.502  36.764  1.00  0.00     0.001 A 
ATOM     70  C   UNL A   1      40.763  36.297  37.899  1.00  0.00     0.000 A 
ENDBRANCH  46  65
BRANCH  58  71
ATOM     71  C   UNL A   1      44.539  28.775  34.239  1.00  0.00    -0.014 A 
ATOM     72  C   UNL A   1      45.845  29.030  33.791  1.00  0.00     0.009 A 
ATOM     73  C   UNL A   1      44.355  27.938  35.352  1.00  0.00     0.009 A 
ATOM     74  C   UNL A   1      46.938  28.436  34.425  1.00  0.00     0.001 A 
ATOM     75  C   UNL A   1      45.451  27.372  36.003  1.00  0.00     0.001 A 
ATOM     76  C   UNL A   1      46.741  27.614  35.533  1.00  0.00     0.000 A 
ENDBRANCH  58  71
ENDBRANCH  32  33
ENDBRANCH  24  27
ENDBRANCH  22  23
ENDBRANCH  21  22
ENDBRANCH  20  21
ENDBRANCH   1  20
TORSDOF 15
ENDMDL
