MODEL 1
REMARK VINA RESULT:     -10.2      0.000      0.000
REMARK SMILES CN(Cc1ccc(Cl)cc1Cl)S(=O)(=O)CCCC(=O)NCCCCCCNC(=O)c1ccc(-c2c3nc(c(-c4ccccc4)c4ccc([nH]4)c(-c4ccccc4)c4nc(c(-c5ccccc5)c5ccc2[nH]5)C=C4)C=C3)cc1
REMARK SMILES IDX 21 1 20 2 18 3 19 4 17 6 16 7 15 8 12 9 13 10 14 11 2 12
REMARK SMILES IDX 1 13 3 14 4 15 5 16 10 17 6 18 9 19 11 20 7 21 8 22 22 23
REMARK SMILES IDX 23 24 24 25 25 26 26 27 27 28 28 29 29 31 30 32 31 33 77 34
REMARK SMILES IDX 32 35 76 36 33 37 34 38 35 39 70 40 36 41 75 42 69 43 71 44
REMARK SMILES IDX 37 45 74 46 68 47 67 48 38 50 60 51 45 52 59 53 46 54 49 55
REMARK SMILES IDX 58 56 72 57 47 58 48 59 57 61 73 62 50 63 39 64 40 65 44 66
REMARK SMILES IDX 41 67 43 68 42 69 61 70 62 71 66 72 63 73 65 74 64 75 51 76
REMARK SMILES IDX 52 77 56 78 53 79 55 80 54 81
REMARK H PARENT 20 5 27 30 71 49 49 60
REMARK Flexibility Score: inf
ROOT
ATOM      1  C   UNL A   1      35.109  23.359  23.961  1.00  0.00     0.116 C 
ENDROOT
BRANCH   1   2
ATOM      2  N   UNL A   1      34.079  23.060  22.997  1.00  0.00    -0.356 N 
ATOM      3  C   UNL A   1      33.117  22.106  22.981  1.00  0.00     0.220 C 
ATOM      4  O   UNL A   1      32.227  22.225  22.135  1.00  0.00    -0.275 OA
ATOM      5  H   UNL A   1      34.072  23.657  22.214  1.00  0.00     0.163 HD
BRANCH   3   6
ATOM      6  C   UNL A   1      33.063  20.965  23.986  1.00  0.00     0.101 C 
BRANCH   6   7
ATOM      7  C   UNL A   1      32.435  21.208  25.352  1.00  0.00     0.027 C 
BRANCH   7   8
ATOM      8  C   UNL A   1      31.343  22.247  25.533  1.00  0.00     0.155 C 
BRANCH   8   9
ATOM      9  S   UNL A   1      31.257  23.323  26.975  1.00  0.00     0.214 S 
ATOM     10  O   UNL A   1      32.166  22.767  27.947  1.00  0.00    -0.212 OA
ATOM     11  O   UNL A   1      29.839  23.429  27.288  1.00  0.00    -0.212 OA
BRANCH   9  12
ATOM     12  N   UNL A   1      31.778  24.879  26.598  1.00  0.00    -0.201 NA
ATOM     13  C   UNL A   1      33.180  24.987  26.128  1.00  0.00     0.124 C 
BRANCH  12  14
ATOM     14  C   UNL A   1      30.872  25.917  26.008  1.00  0.00     0.138 C 
BRANCH  14  15
ATOM     15  C   UNL A   1      31.172  27.389  26.203  1.00  0.00    -0.014 A 
ATOM     16  C   UNL A   1      31.433  27.928  27.470  1.00  0.00     0.008 A 
ATOM     17  C   UNL A   1      31.171  28.281  25.109  1.00  0.00     0.047 A 
ATOM     18  C   UNL A   1      31.839  29.258  27.618  1.00  0.00     0.021 A 
ATOM     19  C   UNL A   1      31.625  29.595  25.244  1.00  0.00     0.041 A 
ATOM     20  Cl  UNL A   1      30.535  27.832  23.562  1.00  0.00    -0.084 Cl
ATOM     21  C   UNL A   1      31.987  30.068  26.498  1.00  0.00     0.042 A 
ATOM     22  Cl  UNL A   1      32.605  31.663  26.669  1.00  0.00    -0.084 Cl
ENDBRANCH  14  15
ENDBRANCH  12  14
ENDBRANCH   9  12
ENDBRANCH   8   9
ENDBRANCH   7   8
ENDBRANCH   6   7
ENDBRANCH   3   6
ENDBRANCH   1   2
BRANCH   1  23
ATOM     23  C   UNL A   1      36.315  22.430  23.846  1.00  0.00     0.021 C 
BRANCH  23  24
ATOM     24  C   UNL A   1      36.565  21.631  25.129  1.00  0.00     0.002 C 
BRANCH  24  25
ATOM     25  C   UNL A   1      36.420  20.110  24.979  1.00  0.00     0.002 C 
BRANCH  25  26
ATOM     26  C   UNL A   1      37.734  19.329  24.937  1.00  0.00     0.021 C 
BRANCH  26  27
ATOM     27  C   UNL A   1      38.936  20.134  25.410  1.00  0.00     0.116 C 
BRANCH  27  28
ATOM     28  N   UNL A   1      40.047  19.253  25.746  1.00  0.00    -0.352 N 
ATOM     29  C   UNL A   1      41.344  19.555  26.070  1.00  0.00     0.251 C 
ATOM     30  H   UNL A   1      39.833  18.292  25.738  1.00  0.00     0.163 HD
ATOM     31  O   UNL A   1      42.214  18.697  25.937  1.00  0.00    -0.269 OA
BRANCH  29  32
ATOM     32  C   UNL A   1      41.700  20.886  26.608  1.00  0.00     0.039 A 
ATOM     33  C   UNL A   1      41.553  21.128  27.977  1.00  0.00     0.014 A 
ATOM     34  C   UNL A   1      42.093  21.925  25.759  1.00  0.00     0.014 A 
ATOM     35  C   UNL A   1      41.820  22.400  28.488  1.00  0.00     0.010 A 
ATOM     36  C   UNL A   1      42.471  23.153  26.284  1.00  0.00     0.010 A 
ATOM     37  C   UNL A   1      42.300  23.418  27.649  1.00  0.00    -0.014 A 
BRANCH  37  38
ATOM     38  C   UNL A   1      42.596  24.774  28.169  1.00  0.00     0.031 A 
ATOM     39  C   UNL A   1      44.005  25.154  28.548  1.00  0.00     0.074 A 
ATOM     40  C   UNL A   1      41.587  25.647  28.352  1.00  0.00     0.049 A 
ATOM     41  N   UNL A   1      44.455  26.282  29.037  1.00  0.00    -0.248 NA
ATOM     42  C   UNL A   1      45.041  24.118  28.391  1.00  0.00     0.031 C 
ATOM     43  C   UNL A   1      40.173  25.377  28.076  1.00  0.00     0.029 A 
ATOM     44  N   UNL A   1      41.596  26.940  28.805  1.00  0.00    -0.354 N 
ATOM     45  C   UNL A   1      45.809  26.077  29.277  1.00  0.00     0.074 A 
ATOM     46  C   UNL A   1      46.096  24.703  28.936  1.00  0.00     0.031 C 
ATOM     47  C   UNL A   1      39.461  26.490  28.308  1.00  0.00     0.029 A 
ATOM     48  C   UNL A   1      40.358  27.533  28.792  1.00  0.00     0.049 A 
ATOM     49  H   UNL A   1      42.411  27.399  29.110  1.00  0.00     0.167 HD
ATOM     50  C   UNL A   1      46.737  26.959  29.720  1.00  0.00     0.031 A 
ATOM     51  C   UNL A   1      39.990  28.784  29.122  1.00  0.00     0.031 A 
ATOM     52  C   UNL A   1      46.450  28.334  30.034  1.00  0.00     0.049 A 
ATOM     53  C   UNL A   1      41.039  29.750  29.592  1.00  0.00     0.074 A 
ATOM     54  C   UNL A   1      47.326  29.336  30.411  1.00  0.00     0.029 A 
ATOM     55  N   UNL A   1      45.183  28.897  30.006  1.00  0.00    -0.354 N 
ATOM     56  N   UNL A   1      42.329  29.566  29.733  1.00  0.00    -0.248 NA
ATOM     57  C   UNL A   1      40.579  31.101  29.935  1.00  0.00     0.031 C 
ATOM     58  C   UNL A   1      46.580  30.491  30.670  1.00  0.00     0.029 A 
ATOM     59  C   UNL A   1      45.248  30.226  30.391  1.00  0.00     0.049 A 
ATOM     60  H   UNL A   1      44.359  28.422  29.752  1.00  0.00     0.167 HD
ATOM     61  C   UNL A   1      42.840  30.785  30.159  1.00  0.00     0.074 A 
ATOM     62  C   UNL A   1      41.721  31.705  30.226  1.00  0.00     0.031 C 
ATOM     63  C   UNL A   1      44.118  31.117  30.469  1.00  0.00     0.031 A 
BRANCH  50  64
ATOM     64  C   UNL A   1      48.144  26.452  29.905  1.00  0.00    -0.014 A 
ATOM     65  C   UNL A   1      49.094  26.522  28.873  1.00  0.00     0.009 A 
ATOM     66  C   UNL A   1      48.529  25.905  31.139  1.00  0.00     0.009 A 
ATOM     67  C   UNL A   1      50.380  26.008  29.055  1.00  0.00     0.001 A 
ATOM     68  C   UNL A   1      49.826  25.423  31.330  1.00  0.00     0.001 A 
ATOM     69  C   UNL A   1      50.747  25.463  30.284  1.00  0.00     0.000 A 
ENDBRANCH  50  64
BRANCH  51  70
ATOM     70  C   UNL A   1      38.572  29.205  28.974  1.00  0.00    -0.014 A 
ATOM     71  C   UNL A   1      38.109  29.706  27.747  1.00  0.00     0.009 A 
ATOM     72  C   UNL A   1      37.672  29.099  30.046  1.00  0.00     0.009 A 
ATOM     73  C   UNL A   1      36.781  30.115  27.604  1.00  0.00     0.001 A 
ATOM     74  C   UNL A   1      36.338  29.480  29.891  1.00  0.00     0.001 A 
ATOM     75  C   UNL A   1      35.895  29.996  28.675  1.00  0.00     0.000 A 
ENDBRANCH  51  70
BRANCH  63  76
ATOM     76  C   UNL A   1      44.366  32.540  30.886  1.00  0.00    -0.014 A 
ATOM     77  C   UNL A   1      44.324  32.922  32.237  1.00  0.00     0.009 A 
ATOM     78  C   UNL A   1      44.649  33.510  29.913  1.00  0.00     0.009 A 
ATOM     79  C   UNL A   1      44.511  34.257  32.598  1.00  0.00     0.001 A 
ATOM     80  C   UNL A   1      44.870  34.838  30.281  1.00  0.00     0.001 A 
ATOM     81  C   UNL A   1      44.787  35.213  31.621  1.00  0.00     0.000 A 
ENDBRANCH  63  76
ENDBRANCH  37  38
ENDBRANCH  29  32
ENDBRANCH  27  28
ENDBRANCH  26  27
ENDBRANCH  25  26
ENDBRANCH  24  25
ENDBRANCH  23  24
ENDBRANCH   1  23
TORSDOF 19
ENDMDL
MODEL 2
REMARK VINA RESULT:     -10.2      1.536      2.440
REMARK SMILES CN(Cc1ccc(Cl)cc1Cl)S(=O)(=O)CCCC(=O)NCCCCCCNC(=O)c1ccc(-c2c3nc(c(-c4ccccc4)c4ccc([nH]4)c(-c4ccccc4)c4nc(c(-c5ccccc5)c5ccc2[nH]5)C=C4)C=C3)cc1
REMARK SMILES IDX 21 1 20 2 18 3 19 4 17 6 16 7 15 8 12 9 13 10 14 11 2 12
REMARK SMILES IDX 1 13 3 14 4 15 5 16 10 17 6 18 9 19 11 20 7 21 8 22 22 23
REMARK SMILES IDX 23 24 24 25 25 26 26 27 27 28 28 29 29 31 30 32 31 33 77 34
REMARK SMILES IDX 32 35 76 36 33 37 34 38 35 39 70 40 36 41 75 42 69 43 71 44
REMARK SMILES IDX 37 45 74 46 68 47 67 48 38 50 60 51 45 52 59 53 46 54 49 55
REMARK SMILES IDX 58 56 72 57 47 58 48 59 57 61 73 62 50 63 39 64 40 65 44 66
REMARK SMILES IDX 41 67 43 68 42 69 61 70 62 71 66 72 63 73 65 74 64 75 51 76
REMARK SMILES IDX 52 77 56 78 53 79 55 80 54 81
REMARK H PARENT 20 5 27 30 71 49 49 60
REMARK Flexibility Score: inf
ROOT
ATOM      1  C   UNL A   1      33.487  20.840  26.149  1.00  0.00     0.116 C 
ENDROOT
BRANCH   1   2
ATOM      2  N   UNL A   1      32.510  21.899  26.175  1.00  0.00    -0.356 N 
ATOM      3  C   UNL A   1      32.650  23.247  26.155  1.00  0.00     0.220 C 
ATOM      4  O   UNL A   1      31.628  23.912  25.960  1.00  0.00    -0.275 OA
ATOM      5  H   UNL A   1      31.576  21.589  26.212  1.00  0.00     0.163 HD
BRANCH   3   6
ATOM      6  C   UNL A   1      33.995  23.945  26.291  1.00  0.00     0.101 C 
BRANCH   6   7
ATOM      7  C   UNL A   1      34.535  24.752  25.118  1.00  0.00     0.027 C 
BRANCH   7   8
ATOM      8  C   UNL A   1      34.060  24.482  23.702  1.00  0.00     0.155 C 
BRANCH   8   9
ATOM      9  S   UNL A   1      33.042  25.647  22.781  1.00  0.00     0.214 S 
ATOM     10  O   UNL A   1      31.731  25.051  22.689  1.00  0.00    -0.212 OA
ATOM     11  O   UNL A   1      33.793  25.934  21.567  1.00  0.00    -0.212 OA
BRANCH   9  12
ATOM     12  N   UNL A   1      32.898  27.107  23.607  1.00  0.00    -0.201 NA
ATOM     13  C   UNL A   1      33.587  28.264  22.987  1.00  0.00     0.124 C 
BRANCH  12  14
ATOM     14  C   UNL A   1      31.664  27.490  24.368  1.00  0.00     0.138 C 
BRANCH  14  15
ATOM     15  C   UNL A   1      30.754  28.581  23.844  1.00  0.00    -0.014 A 
ATOM     16  C   UNL A   1      29.947  28.391  22.713  1.00  0.00     0.008 A 
ATOM     17  C   UNL A   1      30.706  29.846  24.466  1.00  0.00     0.047 A 
ATOM     18  C   UNL A   1      29.015  29.357  22.323  1.00  0.00     0.021 A 
ATOM     19  C   UNL A   1      29.743  30.794  24.112  1.00  0.00     0.041 A 
ATOM     20  Cl  UNL A   1      31.882  30.335  25.640  1.00  0.00    -0.084 Cl
ATOM     21  C   UNL A   1      28.879  30.529  23.057  1.00  0.00     0.042 A 
ATOM     22  Cl  UNL A   1      27.649  31.659  22.651  1.00  0.00    -0.084 Cl
ENDBRANCH  14  15
ENDBRANCH  12  14
ENDBRANCH   9  12
ENDBRANCH   8   9
ENDBRANCH   7   8
ENDBRANCH   6   7
ENDBRANCH   3   6
ENDBRANCH   1   2
BRANCH   1  23
ATOM     23  C   UNL A   1      33.623  20.192  24.773  1.00  0.00     0.021 C 
BRANCH  23  24
ATOM     24  C   UNL A   1      34.930  19.409  24.620  1.00  0.00     0.002 C 
BRANCH  24  25
ATOM     25  C   UNL A   1      36.205  20.225  24.877  1.00  0.00     0.002 C 
BRANCH  25  26
ATOM     26  C   UNL A   1      37.494  19.409  24.975  1.00  0.00     0.021 C 
BRANCH  26  27
ATOM     27  C   UNL A   1      38.662  20.183  25.568  1.00  0.00     0.116 C 
BRANCH  27  28
ATOM     28  N   UNL A   1      39.801  19.304  25.794  1.00  0.00    -0.352 N 
ATOM     29  C   UNL A   1      41.118  19.609  26.024  1.00  0.00     0.251 C 
ATOM     30  H   UNL A   1      39.594  18.342  25.780  1.00  0.00     0.163 HD
ATOM     31  O   UNL A   1      41.981  18.763  25.803  1.00  0.00    -0.269 OA
BRANCH  29  32
ATOM     32  C   UNL A   1      41.505  20.930  26.566  1.00  0.00     0.039 A 
ATOM     33  C   UNL A   1      41.431  21.148  27.945  1.00  0.00     0.014 A 
ATOM     34  C   UNL A   1      41.856  21.982  25.717  1.00  0.00     0.014 A 
ATOM     35  C   UNL A   1      41.728  22.410  28.464  1.00  0.00     0.010 A 
ATOM     36  C   UNL A   1      42.265  23.200  26.243  1.00  0.00     0.010 A 
ATOM     37  C   UNL A   1      42.167  23.441  27.619  1.00  0.00    -0.014 A 
BRANCH  37  38
ATOM     38  C   UNL A   1      42.493  24.788  28.147  1.00  0.00     0.031 A 
ATOM     39  C   UNL A   1      43.915  25.142  28.501  1.00  0.00     0.074 A 
ATOM     40  C   UNL A   1      41.501  25.673  28.358  1.00  0.00     0.049 A 
ATOM     41  N   UNL A   1      44.391  26.258  28.992  1.00  0.00    -0.248 NA
ATOM     42  C   UNL A   1      44.932  24.093  28.314  1.00  0.00     0.031 C 
ATOM     43  C   UNL A   1      40.078  25.427  28.108  1.00  0.00     0.029 A 
ATOM     44  N   UNL A   1      41.539  26.962  28.823  1.00  0.00    -0.354 N 
ATOM     45  C   UNL A   1      45.747  26.031  29.204  1.00  0.00     0.074 A 
ATOM     46  C   UNL A   1      46.006  24.656  28.843  1.00  0.00     0.031 C 
ATOM     47  C   UNL A   1      39.388  26.549  28.365  1.00  0.00     0.029 A 
ATOM     48  C   UNL A   1      40.310  27.574  28.841  1.00  0.00     0.049 A 
ATOM     49  H   UNL A   1      42.367  27.405  29.117  1.00  0.00     0.167 HD
ATOM     50  C   UNL A   1      46.697  26.894  29.637  1.00  0.00     0.031 A 
ATOM     51  C   UNL A   1      39.967  28.826  29.191  1.00  0.00     0.031 A 
ATOM     52  C   UNL A   1      46.436  28.270  29.970  1.00  0.00     0.049 A 
ATOM     53  C   UNL A   1      41.040  29.772  29.650  1.00  0.00     0.074 A 
ATOM     54  C   UNL A   1      47.335  29.255  30.340  1.00  0.00     0.029 A 
ATOM     55  N   UNL A   1      45.178  28.852  29.973  1.00  0.00    -0.354 N 
ATOM     56  N   UNL A   1      42.330  29.567  29.763  1.00  0.00    -0.248 NA
ATOM     57  C   UNL A   1      40.607  31.126  30.014  1.00  0.00     0.031 C 
ATOM     58  C   UNL A   1      46.612  30.418  30.625  1.00  0.00     0.029 A 
ATOM     59  C   UNL A   1      45.271  30.176  30.370  1.00  0.00     0.049 A 
ATOM     60  H   UNL A   1      44.342  28.392  29.730  1.00  0.00     0.167 HD
ATOM     61  C   UNL A   1      42.868  30.774  30.191  1.00  0.00     0.074 A 
ATOM     62  C   UNL A   1      41.765  31.709  30.290  1.00  0.00     0.031 C 
ATOM     63  C   UNL A   1      44.156  31.083  30.479  1.00  0.00     0.031 A 
BRANCH  50  64
ATOM     64  C   UNL A   1      48.099  26.365  29.789  1.00  0.00    -0.014 A 
ATOM     65  C   UNL A   1      48.527  25.743  30.974  1.00  0.00     0.009 A 
ATOM     66  C   UNL A   1      49.005  26.480  28.723  1.00  0.00     0.009 A 
ATOM     67  C   UNL A   1      49.845  25.297  31.105  1.00  0.00     0.001 A 
ATOM     68  C   UNL A   1      50.311  26.001  28.845  1.00  0.00     0.001 A 
ATOM     69  C   UNL A   1      50.735  25.422  30.041  1.00  0.00     0.000 A 
ENDBRANCH  50  64
BRANCH  51  70
ATOM     70  C   UNL A   1      38.554  29.270  29.075  1.00  0.00    -0.014 A 
ATOM     71  C   UNL A   1      38.044  29.685  27.834  1.00  0.00     0.009 A 
ATOM     72  C   UNL A   1      37.704  29.271  30.192  1.00  0.00     0.009 A 
ATOM     73  C   UNL A   1      36.720  30.115  27.720  1.00  0.00     0.001 A 
ATOM     74  C   UNL A   1      36.372  29.673  30.069  1.00  0.00     0.001 A 
ATOM     75  C   UNL A   1      35.883  30.103  28.837  1.00  0.00     0.000 A 
ENDBRANCH  51  70
BRANCH  63  76
ATOM     76  C   UNL A   1      44.434  32.498  30.905  1.00  0.00    -0.014 A 
ATOM     77  C   UNL A   1      44.417  32.868  32.260  1.00  0.00     0.009 A 
ATOM     78  C   UNL A   1      44.720  33.472  29.937  1.00  0.00     0.009 A 
ATOM     79  C   UNL A   1      44.632  34.197  32.630  1.00  0.00     0.001 A 
ATOM     80  C   UNL A   1      44.969  34.792  30.313  1.00  0.00     0.001 A 
ATOM     81  C   UNL A   1      44.910  35.156  31.658  1.00  0.00     0.000 A 
ENDBRANCH  63  76
ENDBRANCH  37  38
ENDBRANCH  29  32
ENDBRANCH  27  28
ENDBRANCH  26  27
ENDBRANCH  25  26
ENDBRANCH  24  25
ENDBRANCH  23  24
ENDBRANCH   1  23
TORSDOF 19
ENDMDL
MODEL 3
REMARK VINA RESULT:     -10.1      1.455      6.285
REMARK SMILES CN(Cc1ccc(Cl)cc1Cl)S(=O)(=O)CCCC(=O)NCCCCCCNC(=O)c1ccc(-c2c3nc(c(-c4ccccc4)c4ccc([nH]4)c(-c4ccccc4)c4nc(c(-c5ccccc5)c5ccc2[nH]5)C=C4)C=C3)cc1
REMARK SMILES IDX 21 1 20 2 18 3 19 4 17 6 16 7 15 8 12 9 13 10 14 11 2 12
REMARK SMILES IDX 1 13 3 14 4 15 5 16 10 17 6 18 9 19 11 20 7 21 8 22 22 23
REMARK SMILES IDX 23 24 24 25 25 26 26 27 27 28 28 29 29 31 30 32 31 33 77 34
REMARK SMILES IDX 32 35 76 36 33 37 34 38 35 39 70 40 36 41 75 42 69 43 71 44
REMARK SMILES IDX 37 45 74 46 68 47 67 48 38 50 60 51 45 52 59 53 46 54 49 55
REMARK SMILES IDX 58 56 72 57 47 58 48 59 57 61 73 62 50 63 39 64 40 65 44 66
REMARK SMILES IDX 41 67 43 68 42 69 61 70 62 71 66 72 63 73 65 74 64 75 51 76
REMARK SMILES IDX 52 77 56 78 53 79 55 80 54 81
REMARK H PARENT 20 5 27 30 71 49 49 60
REMARK Flexibility Score: inf
ROOT
ATOM      1  C   UNL A   1      33.749  20.776  26.375  1.00  0.00     0.116 C 
ENDROOT
BRANCH   1   2
ATOM      2  N   UNL A   1      32.602  21.623  26.594  1.00  0.00    -0.356 N 
ATOM      3  C   UNL A   1      32.466  22.971  26.568  1.00  0.00     0.220 C 
ATOM      4  O   UNL A   1      31.315  23.416  26.572  1.00  0.00    -0.275 OA
ATOM      5  H   UNL A   1      31.771  21.135  26.796  1.00  0.00     0.163 HD
BRANCH   3   6
ATOM      6  C   UNL A   1      33.648  23.923  26.467  1.00  0.00     0.101 C 
BRANCH   6   7
ATOM      7  C   UNL A   1      34.421  24.011  25.157  1.00  0.00     0.027 C 
BRANCH   7   8
ATOM      8  C   UNL A   1      33.822  23.491  23.864  1.00  0.00     0.155 C 
BRANCH   8   9
ATOM      9  S   UNL A   1      32.773  24.500  22.805  1.00  0.00     0.214 S 
ATOM     10  O   UNL A   1      31.417  24.075  23.058  1.00  0.00    -0.212 OA
ATOM     11  O   UNL A   1      33.335  24.366  21.468  1.00  0.00    -0.212 OA
BRANCH   9  12
ATOM     12  N   UNL A   1      32.895  26.129  23.210  1.00  0.00    -0.201 NA
ATOM     13  C   UNL A   1      33.260  27.040  22.098  1.00  0.00     0.124 C 
BRANCH  12  14
ATOM     14  C   UNL A   1      32.023  26.776  24.244  1.00  0.00     0.138 C 
BRANCH  14  15
ATOM     15  C   UNL A   1      31.068  27.884  23.850  1.00  0.00    -0.014 A 
ATOM     16  C   UNL A   1      29.978  27.652  23.001  1.00  0.00     0.008 A 
ATOM     17  C   UNL A   1      31.261  29.204  24.309  1.00  0.00     0.047 A 
ATOM     18  C   UNL A   1      29.030  28.651  22.756  1.00  0.00     0.021 A 
ATOM     19  C   UNL A   1      30.292  30.191  24.108  1.00  0.00     0.041 A 
ATOM     20  Cl  UNL A   1      32.735  29.705  25.068  1.00  0.00    -0.084 Cl
ATOM     21  C   UNL A   1      29.163  29.897  23.356  1.00  0.00     0.042 A 
ATOM     22  Cl  UNL A   1      27.935  31.082  23.154  1.00  0.00    -0.084 Cl
ENDBRANCH  14  15
ENDBRANCH  12  14
ENDBRANCH   9  12
ENDBRANCH   8   9
ENDBRANCH   7   8
ENDBRANCH   6   7
ENDBRANCH   3   6
ENDBRANCH   1   2
BRANCH   1  23
ATOM     23  C   UNL A   1      33.637  19.944  25.100  1.00  0.00     0.021 C 
BRANCH  23  24
ATOM     24  C   UNL A   1      34.993  19.417  24.623  1.00  0.00     0.002 C 
BRANCH  24  25
ATOM     25  C   UNL A   1      36.193  20.303  24.985  1.00  0.00     0.002 C 
BRANCH  25  26
ATOM     26  C   UNL A   1      37.564  19.651  24.806  1.00  0.00     0.021 C 
BRANCH  26  27
ATOM     27  C   UNL A   1      38.666  20.318  25.615  1.00  0.00     0.116 C 
BRANCH  27  28
ATOM     28  N   UNL A   1      39.764  19.390  25.853  1.00  0.00    -0.352 N 
ATOM     29  C   UNL A   1      41.096  19.636  26.064  1.00  0.00     0.251 C 
ATOM     30  H   UNL A   1      39.511  18.439  25.863  1.00  0.00     0.163 HD
ATOM     31  O   UNL A   1      41.915  18.744  25.856  1.00  0.00    -0.269 OA
BRANCH  29  32
ATOM     32  C   UNL A   1      41.552  20.949  26.570  1.00  0.00     0.039 A 
ATOM     33  C   UNL A   1      41.497  21.206  27.943  1.00  0.00     0.014 A 
ATOM     34  C   UNL A   1      41.950  21.961  25.693  1.00  0.00     0.014 A 
ATOM     35  C   UNL A   1      41.859  22.464  28.429  1.00  0.00     0.010 A 
ATOM     36  C   UNL A   1      42.422  23.170  26.186  1.00  0.00     0.010 A 
ATOM     37  C   UNL A   1      42.344  23.450  27.556  1.00  0.00    -0.014 A 
BRANCH  37  38
ATOM     38  C   UNL A   1      42.741  24.792  28.048  1.00  0.00     0.031 A 
ATOM     39  C   UNL A   1      41.695  25.846  28.309  1.00  0.00     0.074 A 
ATOM     40  C   UNL A   1      44.047  25.078  28.208  1.00  0.00     0.049 A 
ATOM     41  N   UNL A   1      41.848  27.079  28.722  1.00  0.00    -0.248 NA
ATOM     42  C   UNL A   1      40.294  25.480  28.036  1.00  0.00     0.031 C 
ATOM     43  C   UNL A   1      45.155  24.160  27.933  1.00  0.00     0.029 A 
ATOM     44  N   UNL A   1      44.662  26.220  28.648  1.00  0.00    -0.354 N 
ATOM     45  C   UNL A   1      40.576  27.639  28.722  1.00  0.00     0.074 A 
ATOM     46  C   UNL A   1      39.671  26.634  28.215  1.00  0.00     0.031 C 
ATOM     47  C   UNL A   1      46.310  24.754  28.269  1.00  0.00     0.029 A 
ATOM     48  C   UNL A   1      46.028  26.107  28.737  1.00  0.00     0.049 A 
ATOM     49  H   UNL A   1      44.173  27.043  28.879  1.00  0.00     0.167 HD
ATOM     50  C   UNL A   1      40.190  28.872  29.130  1.00  0.00     0.031 A 
ATOM     51  C   UNL A   1      46.948  26.992  29.159  1.00  0.00     0.031 A 
ATOM     52  C   UNL A   1      41.093  29.860  29.658  1.00  0.00     0.049 A 
ATOM     53  C   UNL A   1      46.495  28.346  29.624  1.00  0.00     0.074 A 
ATOM     54  C   UNL A   1      40.800  31.109  30.176  1.00  0.00     0.029 A 
ATOM     55  N   UNL A   1      42.469  29.706  29.733  1.00  0.00    -0.354 N 
ATOM     56  N   UNL A   1      45.279  28.831  29.698  1.00  0.00    -0.248 NA
ATOM     57  C   UNL A   1      47.543  29.267  30.077  1.00  0.00     0.031 C 
ATOM     58  C   UNL A   1      42.007  31.735  30.510  1.00  0.00     0.029 A 
ATOM     59  C   UNL A   1      43.044  30.850  30.259  1.00  0.00     0.049 A 
ATOM     60  H   UNL A   1      42.963  28.902  29.452  1.00  0.00     0.167 HD
ATOM     61  C   UNL A   1      45.413  30.107  30.228  1.00  0.00     0.074 A 
ATOM     62  C   UNL A   1      46.827  30.307  30.480  1.00  0.00     0.031 C 
ATOM     63  C   UNL A   1      44.456  31.034  30.483  1.00  0.00     0.031 A 
BRANCH  50  64
ATOM     64  C   UNL A   1      38.729  29.220  29.001  1.00  0.00    -0.014 A 
ATOM     65  C   UNL A   1      37.833  29.045  30.068  1.00  0.00     0.009 A 
ATOM     66  C   UNL A   1      38.243  29.743  27.792  1.00  0.00     0.009 A 
ATOM     67  C   UNL A   1      36.476  29.336  29.911  1.00  0.00     0.001 A 
ATOM     68  C   UNL A   1      36.892  30.066  27.649  1.00  0.00     0.001 A 
ATOM     69  C   UNL A   1      36.006  29.850  28.704  1.00  0.00     0.000 A 
ENDBRANCH  50  64
BRANCH  51  70
ATOM     70  C   UNL A   1      48.383  26.606  29.205  1.00  0.00    -0.014 A 
ATOM     71  C   UNL A   1      49.222  26.877  28.113  1.00  0.00     0.009 A 
ATOM     72  C   UNL A   1      48.925  25.980  30.339  1.00  0.00     0.009 A 
ATOM     73  C   UNL A   1      50.569  26.507  28.145  1.00  0.00     0.001 A 
ATOM     74  C   UNL A   1      50.278  25.638  30.380  1.00  0.00     0.001 A 
ATOM     75  C   UNL A   1      51.097  25.894  29.281  1.00  0.00     0.000 A 
ENDBRANCH  51  70
BRANCH  63  76
ATOM     76  C   UNL A   1      44.915  32.333  31.083  1.00  0.00    -0.014 A 
ATOM     77  C   UNL A   1      45.260  33.428  30.275  1.00  0.00     0.009 A 
ATOM     78  C   UNL A   1      44.999  32.464  32.478  1.00  0.00     0.009 A 
ATOM     79  C   UNL A   1      45.728  34.611  30.852  1.00  0.00     0.001 A 
ATOM     80  C   UNL A   1      45.434  33.658  33.052  1.00  0.00     0.001 A 
ATOM     81  C   UNL A   1      45.812  34.725  32.239  1.00  0.00     0.000 A 
ENDBRANCH  63  76
ENDBRANCH  37  38
ENDBRANCH  29  32
ENDBRANCH  27  28
ENDBRANCH  26  27
ENDBRANCH  25  26
ENDBRANCH  24  25
ENDBRANCH  23  24
ENDBRANCH   1  23
TORSDOF 19
ENDMDL
