MODEL 1
REMARK VINA RESULT:     -12.2      0.000      0.000
REMARK SMILES Cc1cccc(S(=O)(=O)Nc2cc(C(=O)NCCCCCCNC(=O)c3ccc(-c4c5nc(c(-c6ccccc6)c6ccc([nH]6)c(-c6ccccc6)c6nc(c(-c7ccccc7)c7ccc4[nH]7)C=C6)C=C5)cc3)ccc2N2CCC[C@H](C[NH+]3CCCC3)C2)c1
REMARK SMILES IDX 19 1 18 2 17 3 16 4 14 5 15 6 13 8 11 9 12 10 76 11 75 12
REMARK SMILES IDX 74 13 10 14 7 16 8 17 9 18 6 19 1 20 2 21 3 22 89 23 4 24
REMARK SMILES IDX 5 25 77 26 78 27 88 28 79 29 81 30 80 31 82 32 83 33 84 34
REMARK SMILES IDX 87 35 85 37 86 38 20 39 21 40 22 41 23 42 24 43 25 45 26 46
REMARK SMILES IDX 27 47 73 48 28 49 72 50 29 51 30 52 31 53 66 54 32 55 71 56
REMARK SMILES IDX 65 57 67 58 33 59 70 60 64 61 63 62 34 64 56 65 41 66 55 67
REMARK SMILES IDX 42 68 45 69 54 70 68 71 43 72 44 73 53 75 69 76 46 77 35 78
REMARK SMILES IDX 36 79 40 80 37 81 39 82 38 83 57 84 58 85 62 86 59 87 61 88
REMARK SMILES IDX 60 89 47 90 48 91 52 92 49 93 51 94 50 95
REMARK H PARENT 16 7 10 15 83 36 23 44 67 63 45 74
REMARK Flexibility Score: inf
ROOT
ATOM      1  C   UNL A   1      36.132  21.033  24.547  1.00  0.00     0.002 C 
ENDROOT
BRANCH   1   2
ATOM      2  C   UNL A   1      34.920  20.114  24.754  1.00  0.00     0.021 C 
BRANCH   2   3
ATOM      3  C   UNL A   1      33.580  20.842  24.662  1.00  0.00     0.116 C 
BRANCH   3   4
ATOM      4  N   UNL A   1      32.922  20.561  23.400  1.00  0.00    -0.352 N 
ATOM      5  C   UNL A   1      32.262  21.354  22.497  1.00  0.00     0.251 C 
ATOM      6  O   UNL A   1      31.852  20.826  21.463  1.00  0.00    -0.269 OA
ATOM      7  H   UNL A   1      32.958  19.612  23.139  1.00  0.00     0.163 HD
BRANCH   5   8
ATOM      8  C   UNL A   1      32.089  22.823  22.671  1.00  0.00     0.042 A 
ATOM      9  C   UNL A   1      31.156  24.779  23.732  1.00  0.00     0.073 A 
ATOM     10  C   UNL A   1      31.110  23.408  23.470  1.00  0.00     0.042 A 
ATOM     11  C   UNL A   1      32.042  25.635  23.044  1.00  0.00     0.061 A 
ATOM     12  C   UNL A   1      32.947  25.045  22.158  1.00  0.00     0.029 A 
ATOM     13  C   UNL A   1      32.995  23.657  21.998  1.00  0.00     0.016 A 
BRANCH   9  14
ATOM     14  N   UNL A   1      30.286  25.314  24.729  1.00  0.00    -0.277 N 
ATOM     15  H   UNL A   1      29.497  25.831  24.447  1.00  0.00     0.180 HD
BRANCH  14  16
ATOM     16  S   UNL A   1      30.573  25.090  26.387  1.00  0.00     0.261 S 
ATOM     17  O   UNL A   1      29.514  24.196  26.823  1.00  0.00    -0.201 OA
ATOM     18  O   UNL A   1      30.675  26.420  26.953  1.00  0.00    -0.201 OA
BRANCH  16  19
ATOM     19  C   UNL A   1      32.104  24.261  26.794  1.00  0.00     0.088 A 
ATOM     20  C   UNL A   1      35.800  24.098  25.895  1.00  0.00     0.044 C 
ATOM     21  C   UNL A   1      34.483  23.828  26.570  1.00  0.00    -0.050 A 
ATOM     22  C   UNL A   1      34.357  22.701  27.392  1.00  0.00     0.003 A 
ATOM     23  C   UNL A   1      33.364  24.648  26.337  1.00  0.00     0.025 A 
ATOM     24  C   UNL A   1      33.122  22.370  27.942  1.00  0.00     0.002 A 
ATOM     25  C   UNL A   1      31.997  23.130  27.623  1.00  0.00     0.022 A 
ENDBRANCH  16  19
ENDBRANCH  14  16
ENDBRANCH   9  14
BRANCH  11  26
ATOM     26  N   UNL A   1      32.012  27.012  23.165  1.00  0.00    -0.369 N 
ATOM     27  C   UNL A   1      32.521  27.604  24.400  1.00  0.00     0.116 C 
ATOM     28  C   UNL A   1      31.644  27.901  22.066  1.00  0.00     0.126 C 
ATOM     29  C   UNL A   1      31.540  28.657  24.907  1.00  0.00     0.022 C 
ATOM     30  C   UNL A   1      30.632  28.965  22.543  1.00  0.00     0.064 C 
ATOM     31  C   UNL A   1      31.188  29.654  23.803  1.00  0.00     0.013 C 
BRANCH  30  32
ATOM     32  C   UNL A   1      29.231  28.315  22.699  1.00  0.00     0.267 C 
BRANCH  32  33
ATOM     33  N   UNL A   1      28.019  29.121  22.526  1.00  0.00    -0.335 N 
ATOM     34  C   UNL A   1      27.990  29.981  21.346  1.00  0.00     0.262 C 
ATOM     35  C   UNL A   1      27.596  29.916  23.675  1.00  0.00     0.262 C 
ATOM     36  H   UNL A   1      27.348  28.363  22.400  1.00  0.00     0.348 HD
ATOM     37  C   UNL A   1      28.273  31.376  21.867  1.00  0.00     0.067 C 
ATOM     38  C   UNL A   1      27.651  31.379  23.251  1.00  0.00     0.067 C 
ENDBRANCH  32  33
ENDBRANCH  30  32
ENDBRANCH  11  26
ENDBRANCH   5   8
ENDBRANCH   3   4
ENDBRANCH   2   3
ENDBRANCH   1   2
BRANCH   1  39
ATOM     39  C   UNL A   1      37.356  20.740  25.435  1.00  0.00     0.002 C 
BRANCH  39  40
ATOM     40  C   UNL A   1      38.420  21.840  25.486  1.00  0.00     0.021 C 
BRANCH  40  41
ATOM     41  C   UNL A   1      39.541  21.559  26.477  1.00  0.00     0.116 C 
BRANCH  41  42
ATOM     42  N   UNL A   1      40.491  20.557  26.011  1.00  0.00    -0.352 N 
ATOM     43  C   UNL A   1      41.879  20.566  26.031  1.00  0.00     0.251 C 
ATOM     44  H   UNL A   1      40.086  19.749  25.621  1.00  0.00     0.163 HD
ATOM     45  O   UNL A   1      42.504  19.652  25.546  1.00  0.00    -0.269 OA
BRANCH  43  46
ATOM     46  C   UNL A   1      42.582  21.640  26.783  1.00  0.00     0.039 A 
ATOM     47  C   UNL A   1      42.448  21.632  28.177  1.00  0.00     0.014 A 
ATOM     48  C   UNL A   1      43.145  22.735  26.136  1.00  0.00     0.014 A 
ATOM     49  C   UNL A   1      42.625  22.818  28.882  1.00  0.00     0.010 A 
ATOM     50  C   UNL A   1      43.229  23.933  26.816  1.00  0.00     0.010 A 
ATOM     51  C   UNL A   1      42.890  23.986  28.172  1.00  0.00    -0.014 A 
BRANCH  51  52
ATOM     52  C   UNL A   1      42.689  25.315  28.733  1.00  0.00     0.031 A 
ATOM     53  C   UNL A   1      41.533  26.133  28.335  1.00  0.00     0.074 A 
ATOM     54  C   UNL A   1      43.540  25.772  29.677  1.00  0.00     0.049 A 
ATOM     55  N   UNL A   1      41.483  27.416  28.461  1.00  0.00    -0.248 NA
ATOM     56  C   UNL A   1      40.353  25.566  27.698  1.00  0.00     0.031 C 
ATOM     57  C   UNL A   1      43.366  26.919  30.563  1.00  0.00     0.029 A 
ATOM     58  N   UNL A   1      44.871  25.396  29.853  1.00  0.00    -0.354 N 
ATOM     59  C   UNL A   1      40.188  27.801  28.217  1.00  0.00     0.074 A 
ATOM     60  C   UNL A   1      39.550  26.632  27.651  1.00  0.00     0.031 C 
ATOM     61  C   UNL A   1      44.573  27.318  30.994  1.00  0.00     0.029 A 
ATOM     62  C   UNL A   1      45.567  26.549  30.264  1.00  0.00     0.049 A 
ATOM     63  H   UNL A   1      45.251  24.498  29.716  1.00  0.00     0.167 HD
ATOM     64  C   UNL A   1      39.762  29.020  28.650  1.00  0.00     0.031 A 
ATOM     65  C   UNL A   1      46.550  27.082  29.480  1.00  0.00     0.031 A 
ATOM     66  C   UNL A   1      40.849  29.820  29.220  1.00  0.00     0.049 A 
ATOM     67  C   UNL A   1      46.288  28.503  29.011  1.00  0.00     0.074 A 
ATOM     68  C   UNL A   1      41.216  30.189  30.504  1.00  0.00     0.029 A 
ATOM     69  N   UNL A   1      41.926  30.148  28.411  1.00  0.00    -0.354 N 
ATOM     70  N   UNL A   1      45.180  29.161  29.210  1.00  0.00    -0.248 NA
ATOM     71  C   UNL A   1      47.228  29.247  28.170  1.00  0.00     0.031 C 
ATOM     72  C   UNL A   1      42.519  30.762  30.450  1.00  0.00     0.029 A 
ATOM     73  C   UNL A   1      42.936  30.748  29.133  1.00  0.00     0.049 A 
ATOM     74  H   UNL A   1      41.965  29.972  27.443  1.00  0.00     0.167 HD
ATOM     75  C   UNL A   1      45.209  30.332  28.499  1.00  0.00     0.074 A 
ATOM     76  C   UNL A   1      46.516  30.346  27.869  1.00  0.00     0.031 C 
ATOM     77  C   UNL A   1      44.136  31.174  28.431  1.00  0.00     0.031 A 
BRANCH  64  78
ATOM     78  C   UNL A   1      38.303  29.391  28.775  1.00  0.00    -0.014 A 
ATOM     79  C   UNL A   1      37.616  29.898  27.656  1.00  0.00     0.009 A 
ATOM     80  C   UNL A   1      37.561  29.321  29.966  1.00  0.00     0.009 A 
ATOM     81  C   UNL A   1      36.311  30.400  27.747  1.00  0.00     0.001 A 
ATOM     82  C   UNL A   1      36.270  29.857  30.077  1.00  0.00     0.001 A 
ATOM     83  C   UNL A   1      35.649  30.409  28.967  1.00  0.00     0.000 A 
ENDBRANCH  64  78
BRANCH  65  84
ATOM     84  C   UNL A   1      47.282  26.064  28.671  1.00  0.00    -0.014 A 
ATOM     85  C   UNL A   1      46.829  25.781  27.366  1.00  0.00     0.009 A 
ATOM     86  C   UNL A   1      48.570  25.647  29.037  1.00  0.00     0.009 A 
ATOM     87  C   UNL A   1      47.682  25.204  26.422  1.00  0.00     0.001 A 
ATOM     88  C   UNL A   1      49.414  25.049  28.093  1.00  0.00     0.001 A 
ATOM     89  C   UNL A   1      48.984  24.863  26.780  1.00  0.00     0.000 A 
ENDBRANCH  65  84
BRANCH  77  90
ATOM     90  C   UNL A   1      44.100  32.457  27.642  1.00  0.00    -0.014 A 
ATOM     91  C   UNL A   1      44.168  32.504  26.243  1.00  0.00     0.009 A 
ATOM     92  C   UNL A   1      44.103  33.696  28.319  1.00  0.00     0.009 A 
ATOM     93  C   UNL A   1      44.165  33.728  25.557  1.00  0.00     0.001 A 
ATOM     94  C   UNL A   1      44.124  34.917  27.642  1.00  0.00     0.001 A 
ATOM     95  C   UNL A   1      44.139  34.932  26.256  1.00  0.00     0.000 A 
ENDBRANCH  77  90
ENDBRANCH  51  52
ENDBRANCH  43  46
ENDBRANCH  41  42
ENDBRANCH  40  41
ENDBRANCH  39  40
ENDBRANCH   1  39
TORSDOF 19
ENDMDL
MODEL 2
REMARK VINA RESULT:     -12.2      1.778      2.661
REMARK SMILES Cc1cccc(S(=O)(=O)Nc2cc(C(=O)NCCCCCCNC(=O)c3ccc(-c4c5nc(c(-c6ccccc6)c6ccc([nH]6)c(-c6ccccc6)c6nc(c(-c7ccccc7)c7ccc4[nH]7)C=C6)C=C5)cc3)ccc2N2CCC[C@H](C[NH+]3CCCC3)C2)c1
REMARK SMILES IDX 19 1 18 2 17 3 16 4 14 5 15 6 13 8 11 9 12 10 76 11 75 12
REMARK SMILES IDX 74 13 10 14 7 16 8 17 9 18 6 19 1 20 2 21 3 22 89 23 4 24
REMARK SMILES IDX 5 25 77 26 78 27 88 28 79 29 81 30 80 31 82 32 83 33 84 34
REMARK SMILES IDX 87 35 85 37 86 38 20 39 21 40 22 41 23 42 24 43 25 45 26 46
REMARK SMILES IDX 27 47 73 48 28 49 72 50 29 51 30 52 31 53 66 54 32 55 71 56
REMARK SMILES IDX 65 57 67 58 33 59 70 60 64 61 63 62 34 64 56 65 41 66 55 67
REMARK SMILES IDX 42 68 45 69 54 70 68 71 43 72 44 73 53 75 69 76 46 77 35 78
REMARK SMILES IDX 36 79 40 80 37 81 39 82 38 83 57 84 58 85 62 86 59 87 61 88
REMARK SMILES IDX 60 89 47 90 48 91 52 92 49 93 51 94 50 95
REMARK H PARENT 16 7 10 15 83 36 23 44 67 63 45 74
REMARK Flexibility Score: inf
ROOT
ATOM      1  C   UNL A   1      35.301  20.832  24.589  1.00  0.00     0.002 C 
ENDROOT
BRANCH   1   2
ATOM      2  C   UNL A   1      34.240  19.780  24.939  1.00  0.00     0.021 C 
BRANCH   2   3
ATOM      3  C   UNL A   1      32.806  20.283  24.776  1.00  0.00     0.116 C 
BRANCH   3   4
ATOM      4  N   UNL A   1      32.360  20.143  23.402  1.00  0.00    -0.352 N 
ATOM      5  C   UNL A   1      32.066  21.055  22.422  1.00  0.00     0.251 C 
ATOM      6  O   UNL A   1      31.762  20.622  21.310  1.00  0.00    -0.269 OA
ATOM      7  H   UNL A   1      32.248  19.207  23.117  1.00  0.00     0.163 HD
BRANCH   5   8
ATOM      8  C   UNL A   1      32.171  22.528  22.615  1.00  0.00     0.042 A 
ATOM      9  C   UNL A   1      31.547  24.625  23.634  1.00  0.00     0.073 A 
ATOM     10  C   UNL A   1      31.256  23.292  23.334  1.00  0.00     0.042 A 
ATOM     11  C   UNL A   1      32.646  25.291  23.052  1.00  0.00     0.061 A 
ATOM     12  C   UNL A   1      33.498  24.537  22.239  1.00  0.00     0.029 A 
ATOM     13  C   UNL A   1      33.285  23.168  22.051  1.00  0.00     0.016 A 
BRANCH   9  14
ATOM     14  N   UNL A   1      30.709  25.317  24.558  1.00  0.00    -0.277 N 
ATOM     15  H   UNL A   1      30.025  25.936  24.213  1.00  0.00     0.180 HD
BRANCH  14  16
ATOM     16  S   UNL A   1      30.858  25.109  26.237  1.00  0.00     0.261 S 
ATOM     17  O   UNL A   1      29.719  24.283  26.604  1.00  0.00    -0.201 OA
ATOM     18  O   UNL A   1      30.993  26.441  26.789  1.00  0.00    -0.201 OA
BRANCH  16  19
ATOM     19  C   UNL A   1      32.303  24.203  26.771  1.00  0.00     0.088 A 
ATOM     20  C   UNL A   1      36.058  23.883  26.226  1.00  0.00     0.044 C 
ATOM     21  C   UNL A   1      34.672  23.664  26.766  1.00  0.00    -0.050 A 
ATOM     22  C   UNL A   1      34.417  22.531  27.549  1.00  0.00     0.003 A 
ATOM     23  C   UNL A   1      33.617  24.539  26.445  1.00  0.00     0.025 A 
ATOM     24  C   UNL A   1      33.121  22.248  27.972  1.00  0.00     0.002 A 
ATOM     25  C   UNL A   1      32.067  23.065  27.562  1.00  0.00     0.022 A 
ENDBRANCH  16  19
ENDBRANCH  14  16
ENDBRANCH   9  14
BRANCH  11  26
ATOM     26  N   UNL A   1      32.879  26.645  23.204  1.00  0.00    -0.369 N 
ATOM     27  C   UNL A   1      33.851  27.066  24.210  1.00  0.00     0.116 C 
ATOM     28  C   UNL A   1      32.319  27.655  22.309  1.00  0.00     0.126 C 
ATOM     29  C   UNL A   1      33.272  28.210  25.036  1.00  0.00     0.022 C 
ATOM     30  C   UNL A   1      31.702  28.816  23.118  1.00  0.00     0.064 C 
ATOM     31  C   UNL A   1      32.743  29.325  24.134  1.00  0.00     0.013 C 
BRANCH  30  32
ATOM     32  C   UNL A   1      30.345  28.366  23.720  1.00  0.00     0.267 C 
BRANCH  32  33
ATOM     33  N   UNL A   1      29.167  28.223  22.861  1.00  0.00    -0.335 N 
ATOM     34  C   UNL A   1      28.709  29.443  22.201  1.00  0.00     0.262 C 
ATOM     35  C   UNL A   1      28.005  27.565  23.451  1.00  0.00     0.262 C 
ATOM     36  H   UNL A   1      29.564  27.596  22.159  1.00  0.00     0.348 HD
ATOM     37  C   UNL A   1      27.493  29.886  22.989  1.00  0.00     0.067 C 
ATOM     38  C   UNL A   1      26.870  28.584  23.457  1.00  0.00     0.067 C 
ENDBRANCH  32  33
ENDBRANCH  30  32
ENDBRANCH  11  26
ENDBRANCH   5   8
ENDBRANCH   3   4
ENDBRANCH   2   3
ENDBRANCH   1   2
BRANCH   1  39
ATOM     39  C   UNL A   1      36.767  20.375  24.716  1.00  0.00     0.002 C 
BRANCH  39  40
ATOM     40  C   UNL A   1      37.815  21.492  24.722  1.00  0.00     0.021 C 
BRANCH  40  41
ATOM     41  C   UNL A   1      38.415  21.758  26.095  1.00  0.00     0.116 C 
BRANCH  41  42
ATOM     42  N   UNL A   1      39.872  21.800  26.094  1.00  0.00    -0.352 N 
ATOM     43  C   UNL A   1      40.734  22.879  26.229  1.00  0.00     0.251 C 
ATOM     44  H   UNL A   1      40.312  20.927  25.980  1.00  0.00     0.163 HD
ATOM     45  O   UNL A   1      41.930  22.721  26.152  1.00  0.00    -0.269 OA
BRANCH  43  46
ATOM     46  C   UNL A   1      40.175  24.204  26.614  1.00  0.00     0.039 A 
ATOM     47  C   UNL A   1      40.738  25.332  26.006  1.00  0.00     0.014 A 
ATOM     48  C   UNL A   1      39.308  24.344  27.691  1.00  0.00     0.014 A 
ATOM     49  C   UNL A   1      40.647  26.564  26.645  1.00  0.00     0.010 A 
ATOM     50  C   UNL A   1      39.294  25.541  28.377  1.00  0.00     0.010 A 
ATOM     51  C   UNL A   1      40.031  26.627  27.893  1.00  0.00    -0.014 A 
BRANCH  51  52
ATOM     52  C   UNL A   1      40.232  27.732  28.819  1.00  0.00     0.031 A 
ATOM     53  C   UNL A   1      39.243  28.816  28.924  1.00  0.00     0.074 A 
ATOM     54  C   UNL A   1      41.308  27.726  29.635  1.00  0.00     0.049 A 
ATOM     55  N   UNL A   1      39.507  29.988  29.396  1.00  0.00    -0.248 NA
ATOM     56  C   UNL A   1      37.876  28.681  28.440  1.00  0.00     0.031 C 
ATOM     57  C   UNL A   1      41.549  28.557  30.811  1.00  0.00     0.029 A 
ATOM     58  N   UNL A   1      42.529  27.095  29.401  1.00  0.00    -0.354 N 
ATOM     59  C   UNL A   1      38.312  30.642  29.561  1.00  0.00     0.074 A 
ATOM     60  C   UNL A   1      37.341  29.830  28.862  1.00  0.00     0.031 C 
ATOM     61  C   UNL A   1      42.869  28.594  31.051  1.00  0.00     0.029 A 
ATOM     62  C   UNL A   1      43.528  27.930  29.938  1.00  0.00     0.049 A 
ATOM     63  H   UNL A   1      42.667  26.232  28.947  1.00  0.00     0.167 HD
ATOM     64  C   UNL A   1      38.252  31.723  30.388  1.00  0.00     0.031 A 
ATOM     65  C   UNL A   1      44.463  28.505  29.125  1.00  0.00     0.031 A 
ATOM     66  C   UNL A   1      39.571  32.113  30.892  1.00  0.00     0.049 A 
ATOM     67  C   UNL A   1      44.457  30.023  29.125  1.00  0.00     0.074 A 
ATOM     68  C   UNL A   1      40.219  32.001  32.112  1.00  0.00     0.029 A 
ATOM     69  N   UNL A   1      40.546  32.486  29.981  1.00  0.00    -0.354 N 
ATOM     70  N   UNL A   1      43.576  30.766  29.736  1.00  0.00    -0.248 NA
ATOM     71  C   UNL A   1      45.390  30.820  28.325  1.00  0.00     0.031 C 
ATOM     72  C   UNL A   1      41.591  32.333  31.922  1.00  0.00     0.029 A 
ATOM     73  C   UNL A   1      41.771  32.655  30.591  1.00  0.00     0.049 A 
ATOM     74  H   UNL A   1      40.384  32.613  29.018  1.00  0.00     0.167 HD
ATOM     75  C   UNL A   1      43.753  32.077  29.376  1.00  0.00     0.074 A 
ATOM     76  C   UNL A   1      44.907  32.062  28.496  1.00  0.00     0.031 C 
ATOM     77  C   UNL A   1      42.904  33.067  29.778  1.00  0.00     0.031 A 
BRANCH  64  78
ATOM     78  C   UNL A   1      36.957  32.278  30.932  1.00  0.00    -0.014 A 
ATOM     79  C   UNL A   1      36.493  33.528  30.481  1.00  0.00     0.009 A 
ATOM     80  C   UNL A   1      36.175  31.658  31.922  1.00  0.00     0.009 A 
ATOM     81  C   UNL A   1      35.384  34.163  31.057  1.00  0.00     0.001 A 
ATOM     82  C   UNL A   1      35.089  32.302  32.531  1.00  0.00     0.001 A 
ATOM     83  C   UNL A   1      34.701  33.563  32.106  1.00  0.00     0.000 A 
ENDBRANCH  64  78
BRANCH  65  84
ATOM     84  C   UNL A   1      44.801  27.676  27.931  1.00  0.00    -0.014 A 
ATOM     85  C   UNL A   1      44.171  27.969  26.703  1.00  0.00     0.009 A 
ATOM     86  C   UNL A   1      45.944  26.865  27.920  1.00  0.00     0.009 A 
ATOM     87  C   UNL A   1      44.738  27.559  25.494  1.00  0.00     0.001 A 
ATOM     88  C   UNL A   1      46.496  26.438  26.706  1.00  0.00     0.001 A 
ATOM     89  C   UNL A   1      45.915  26.816  25.496  1.00  0.00     0.000 A 
ENDBRANCH  65  84
BRANCH  77  90
ATOM     90  C   UNL A   1      43.031  34.517  29.389  1.00  0.00    -0.014 A 
ATOM     91  C   UNL A   1      42.712  35.005  28.115  1.00  0.00     0.009 A 
ATOM     92  C   UNL A   1      43.595  35.438  30.299  1.00  0.00     0.009 A 
ATOM     93  C   UNL A   1      42.880  36.360  27.794  1.00  0.00     0.001 A 
ATOM     94  C   UNL A   1      43.788  36.783  29.976  1.00  0.00     0.001 A 
ATOM     95  C   UNL A   1      43.414  37.248  28.724  1.00  0.00     0.000 A 
ENDBRANCH  77  90
ENDBRANCH  51  52
ENDBRANCH  43  46
ENDBRANCH  41  42
ENDBRANCH  40  41
ENDBRANCH  39  40
ENDBRANCH   1  39
TORSDOF 19
ENDMDL
MODEL 3
REMARK VINA RESULT:     -12.2      1.419      2.356
REMARK SMILES Cc1cccc(S(=O)(=O)Nc2cc(C(=O)NCCCCCCNC(=O)c3ccc(-c4c5nc(c(-c6ccccc6)c6ccc([nH]6)c(-c6ccccc6)c6nc(c(-c7ccccc7)c7ccc4[nH]7)C=C6)C=C5)cc3)ccc2N2CCC[C@H](C[NH+]3CCCC3)C2)c1
REMARK SMILES IDX 19 1 18 2 17 3 16 4 14 5 15 6 13 8 11 9 12 10 76 11 75 12
REMARK SMILES IDX 74 13 10 14 7 16 8 17 9 18 6 19 1 20 2 21 3 22 89 23 4 24
REMARK SMILES IDX 5 25 77 26 78 27 88 28 79 29 81 30 80 31 82 32 83 33 84 34
REMARK SMILES IDX 87 35 85 37 86 38 20 39 21 40 22 41 23 42 24 43 25 45 26 46
REMARK SMILES IDX 27 47 73 48 28 49 72 50 29 51 30 52 31 53 66 54 32 55 71 56
REMARK SMILES IDX 65 57 67 58 33 59 70 60 64 61 63 62 34 64 56 65 41 66 55 67
REMARK SMILES IDX 42 68 45 69 54 70 68 71 43 72 44 73 53 75 69 76 46 77 35 78
REMARK SMILES IDX 36 79 40 80 37 81 39 82 38 83 57 84 58 85 62 86 59 87 61 88
REMARK SMILES IDX 60 89 47 90 48 91 52 92 49 93 51 94 50 95
REMARK H PARENT 16 7 10 15 83 36 23 44 67 63 45 74
REMARK Flexibility Score: inf
ROOT
ATOM      1  C   UNL A   1      34.882  23.281  26.659  1.00  0.00     0.002 C 
ENDROOT
BRANCH   1   2
ATOM      2  C   UNL A   1      34.977  21.750  26.698  1.00  0.00     0.021 C 
BRANCH   2   3
ATOM      3  C   UNL A   1      33.666  21.068  27.088  1.00  0.00     0.116 C 
BRANCH   3   4
ATOM      4  N   UNL A   1      33.203  20.191  26.029  1.00  0.00    -0.352 N 
ATOM      5  C   UNL A   1      32.718  20.428  24.769  1.00  0.00     0.251 C 
ATOM      6  O   UNL A   1      32.455  19.454  24.063  1.00  0.00    -0.269 OA
ATOM      7  H   UNL A   1      33.246  19.235  26.262  1.00  0.00     0.163 HD
BRANCH   5   8
ATOM      8  C   UNL A   1      32.572  21.793  24.192  1.00  0.00     0.042 A 
ATOM      9  C   UNL A   1      31.641  24.019  24.113  1.00  0.00     0.073 A 
ATOM     10  C   UNL A   1      31.575  22.696  24.554  1.00  0.00     0.042 A 
ATOM     11  C   UNL A   1      32.573  24.427  23.136  1.00  0.00     0.061 A 
ATOM     12  C   UNL A   1      33.501  23.478  22.696  1.00  0.00     0.029 A 
ATOM     13  C   UNL A   1      33.524  22.190  23.240  1.00  0.00     0.016 A 
BRANCH   9  14
ATOM     14  N   UNL A   1      30.744  24.974  24.677  1.00  0.00    -0.277 N 
ATOM     15  H   UNL A   1      30.013  25.330  24.121  1.00  0.00     0.180 HD
BRANCH  14  16
ATOM     16  S   UNL A   1      30.899  25.518  26.278  1.00  0.00     0.261 S 
ATOM     17  O   UNL A   1      31.573  24.432  26.969  1.00  0.00    -0.201 OA
ATOM     18  O   UNL A   1      29.570  25.921  26.688  1.00  0.00    -0.201 OA
BRANCH  16  19
ATOM     19  C   UNL A   1      31.943  26.953  26.501  1.00  0.00     0.088 A 
ATOM     20  C   UNL A   1      31.871  30.753  26.715  1.00  0.00     0.044 C 
ATOM     21  C   UNL A   1      32.370  29.335  26.712  1.00  0.00    -0.050 A 
ATOM     22  C   UNL A   1      33.747  29.096  26.627  1.00  0.00     0.003 A 
ATOM     23  C   UNL A   1      31.475  28.248  26.725  1.00  0.00     0.025 A 
ATOM     24  C   UNL A   1      34.228  27.795  26.514  1.00  0.00     0.002 A 
ATOM     25  C   UNL A   1      33.329  26.732  26.424  1.00  0.00     0.022 A 
ENDBRANCH  16  19
ENDBRANCH  14  16
ENDBRANCH   9  14
BRANCH  11  26
ATOM     26  N   UNL A   1      32.571  25.686  22.565  1.00  0.00    -0.369 N 
ATOM     27  C   UNL A   1      33.748  26.530  22.758  1.00  0.00     0.116 C 
ATOM     28  C   UNL A   1      31.523  26.147  21.657  1.00  0.00     0.126 C 
ATOM     29  C   UNL A   1      33.311  27.935  23.161  1.00  0.00     0.022 C 
ATOM     30  C   UNL A   1      31.042  27.560  22.055  1.00  0.00     0.064 C 
ATOM     31  C   UNL A   1      32.267  28.485  22.189  1.00  0.00     0.013 C 
BRANCH  30  32
ATOM     32  C   UNL A   1      30.136  27.465  23.311  1.00  0.00     0.267 C 
BRANCH  32  33
ATOM     33  N   UNL A   1      29.225  28.562  23.650  1.00  0.00    -0.335 N 
ATOM     34  C   UNL A   1      27.999  28.637  22.862  1.00  0.00     0.262 C 
ATOM     35  C   UNL A   1      29.809  29.899  23.708  1.00  0.00     0.262 C 
ATOM     36  H   UNL A   1      28.990  28.277  24.602  1.00  0.00     0.348 HD
ATOM     37  C   UNL A   1      28.231  29.764  21.876  1.00  0.00     0.067 C 
ATOM     38  C   UNL A   1      29.115  30.735  22.638  1.00  0.00     0.067 C 
ENDBRANCH  32  33
ENDBRANCH  30  32
ENDBRANCH  11  26
ENDBRANCH   5   8
ENDBRANCH   3   4
ENDBRANCH   2   3
ENDBRANCH   1   2
BRANCH   1  39
ATOM     39  C   UNL A   1      36.081  24.013  26.027  1.00  0.00     0.002 C 
BRANCH  39  40
ATOM     40  C   UNL A   1      37.054  23.134  25.235  1.00  0.00     0.021 C 
BRANCH  40  41
ATOM     41  C   UNL A   1      38.411  22.971  25.905  1.00  0.00     0.116 C 
BRANCH  41  42
ATOM     42  N   UNL A   1      38.894  21.596  25.912  1.00  0.00    -0.352 N 
ATOM     43  C   UNL A   1      40.157  21.095  26.200  1.00  0.00     0.251 C 
ATOM     44  H   UNL A   1      38.221  20.918  25.677  1.00  0.00     0.163 HD
ATOM     45  O   UNL A   1      40.382  19.911  26.103  1.00  0.00    -0.269 OA
BRANCH  43  46
ATOM     46  C   UNL A   1      41.184  22.011  26.766  1.00  0.00     0.039 A 
ATOM     47  C   UNL A   1      41.404  21.943  28.147  1.00  0.00     0.014 A 
ATOM     48  C   UNL A   1      41.729  23.048  26.017  1.00  0.00     0.014 A 
ATOM     49  C   UNL A   1      41.933  23.048  28.805  1.00  0.00     0.010 A 
ATOM     50  C   UNL A   1      42.165  24.180  26.674  1.00  0.00     0.010 A 
ATOM     51  C   UNL A   1      42.190  24.205  28.072  1.00  0.00    -0.014 A 
BRANCH  51  52
ATOM     52  C   UNL A   1      42.343  25.514  28.690  1.00  0.00     0.031 A 
ATOM     53  C   UNL A   1      41.219  26.461  28.737  1.00  0.00     0.074 A 
ATOM     54  C   UNL A   1      43.514  25.834  29.283  1.00  0.00     0.049 A 
ATOM     55  N   UNL A   1      41.357  27.735  28.894  1.00  0.00    -0.248 NA
ATOM     56  C   UNL A   1      39.836  26.047  28.546  1.00  0.00     0.031 C 
ATOM     57  C   UNL A   1      43.787  26.943  30.192  1.00  0.00     0.029 A 
ATOM     58  N   UNL A   1      44.773  25.322  28.974  1.00  0.00    -0.354 N 
ATOM     59  C   UNL A   1      40.109  28.256  29.127  1.00  0.00     0.074 A 
ATOM     60  C   UNL A   1      39.190  27.188  28.801  1.00  0.00     0.031 C 
ATOM     61  C   UNL A   1      45.105  27.198  30.178  1.00  0.00     0.029 A 
ATOM     62  C   UNL A   1      45.692  26.377  29.133  1.00  0.00     0.049 A 
ATOM     63  H   UNL A   1      44.980  24.399  28.697  1.00  0.00     0.167 HD
ATOM     64  C   UNL A   1      39.998  29.487  29.701  1.00  0.00     0.031 A 
ATOM     65  C   UNL A   1      46.393  26.854  28.063  1.00  0.00     0.031 A 
ATOM     66  C   UNL A   1      41.296  30.144  29.867  1.00  0.00     0.049 A 
ATOM     67  C   UNL A   1      46.144  28.316  27.740  1.00  0.00     0.074 A 
ATOM     68  C   UNL A   1      42.124  30.406  30.946  1.00  0.00     0.029 A 
ATOM     69  N   UNL A   1      42.054  30.409  28.737  1.00  0.00    -0.354 N 
ATOM     70  N   UNL A   1      45.253  29.067  28.326  1.00  0.00    -0.248 NA
ATOM     71  C   UNL A   1      46.809  29.009  26.635  1.00  0.00     0.031 C 
ATOM     72  C   UNL A   1      43.383  30.850  30.448  1.00  0.00     0.029 A 
ATOM     73  C   UNL A   1      43.312  30.868  29.068  1.00  0.00     0.049 A 
ATOM     74  H   UNL A   1      41.735  30.283  27.814  1.00  0.00     0.167 HD
ATOM     75  C   UNL A   1      45.163  30.267  27.670  1.00  0.00     0.074 A 
ATOM     76  C   UNL A   1      46.162  30.188  26.621  1.00  0.00     0.031 C 
ATOM     77  C   UNL A   1      44.233  31.212  27.997  1.00  0.00     0.031 A 
BRANCH  64  78
ATOM     78  C   UNL A   1      38.723  29.991  30.337  1.00  0.00    -0.014 A 
ATOM     79  C   UNL A   1      38.249  29.386  31.516  1.00  0.00     0.009 A 
ATOM     80  C   UNL A   1      37.916  31.011  29.807  1.00  0.00     0.009 A 
ATOM     81  C   UNL A   1      37.000  29.705  32.066  1.00  0.00     0.001 A 
ATOM     82  C   UNL A   1      36.648  31.309  30.327  1.00  0.00     0.001 A 
ATOM     83  C   UNL A   1      36.184  30.645  31.452  1.00  0.00     0.000 A 
ENDBRANCH  64  78
BRANCH  65  84
ATOM     84  C   UNL A   1      46.682  25.814  27.032  1.00  0.00    -0.014 A 
ATOM     85  C   UNL A   1      45.611  25.293  26.276  1.00  0.00     0.009 A 
ATOM     86  C   UNL A   1      47.990  25.601  26.573  1.00  0.00     0.009 A 
ATOM     87  C   UNL A   1      45.838  24.680  25.041  1.00  0.00     0.001 A 
ATOM     88  C   UNL A   1      48.213  24.966  25.345  1.00  0.00     0.001 A 
ATOM     89  C   UNL A   1      47.139  24.542  24.565  1.00  0.00     0.000 A 
ENDBRANCH  65  84
BRANCH  77  90
ATOM     90  C   UNL A   1      44.067  32.533  27.291  1.00  0.00    -0.014 A 
ATOM     91  C   UNL A   1      43.811  33.738  27.959  1.00  0.00     0.009 A 
ATOM     92  C   UNL A   1      44.060  32.576  25.880  1.00  0.00     0.009 A 
ATOM     93  C   UNL A   1      43.631  34.936  27.252  1.00  0.00     0.001 A 
ATOM     94  C   UNL A   1      43.857  33.761  25.170  1.00  0.00     0.001 A 
ATOM     95  C   UNL A   1      43.658  34.948  25.860  1.00  0.00     0.000 A 
ENDBRANCH  77  90
ENDBRANCH  51  52
ENDBRANCH  43  46
ENDBRANCH  41  42
ENDBRANCH  40  41
ENDBRANCH  39  40
ENDBRANCH   1  39
TORSDOF 19
ENDMDL
