MODEL 1
REMARK VINA RESULT:     -10.5      0.000      0.000
REMARK SMILES C[C@@H](C(=O)NCCCCCCNC(=O)c1ccc(-c2c3nc(c(-c4ccccc4)c4ccc([nH]4)c(-c4ccccc4)c4nc(c(-c5ccccc5)c5ccc2[nH]5)C=C4)C=C3)cc1)c1ccc(-c2cccc(OC(=O)NCCC3CCCCC3)c2)c(F)c1
REMARK SMILES IDX 6 1 5 2 3 3 4 4 2 6 1 7 63 8 64 9 87 10 65 11 85 12 66 13
REMARK SMILES IDX 86 14 67 15 68 16 84 17 69 18 71 19 70 20 72 21 73 22 74 23
REMARK SMILES IDX 75 24 76 26 77 27 78 28 79 29 83 30 80 31 82 32 81 33 7 34
REMARK SMILES IDX 8 35 9 36 10 37 11 38 12 39 13 40 14 42 15 43 16 44 62 45
REMARK SMILES IDX 17 46 61 47 18 48 19 49 20 50 55 51 21 52 60 53 54 54 56 55
REMARK SMILES IDX 22 56 59 57 53 58 52 59 23 61 45 62 30 63 44 64 31 65 34 66
REMARK SMILES IDX 43 67 57 68 32 69 33 70 42 72 58 73 35 74 24 75 25 76 29 77
REMARK SMILES IDX 26 78 28 79 27 80 46 81 47 82 51 83 48 84 50 85 49 86 36 87
REMARK SMILES IDX 37 88 41 89 38 90 40 91 39 92
REMARK H PARENT 5 5 75 25 12 41 56 60 34 71
REMARK Flexibility Score: inf
ROOT
ATOM      1  C   UNL A   1      34.003  32.005  27.619  1.00  0.00     0.116 C 
ENDROOT
BRANCH   1   2
ATOM      2  N   UNL A   1      33.261  30.813  27.967  1.00  0.00    -0.356 N 
ATOM      3  C   UNL A   1      32.370  30.112  27.204  1.00  0.00     0.227 C 
ATOM      4  O   UNL A   1      31.541  29.431  27.809  1.00  0.00    -0.274 OA
ATOM      5  H   UNL A   1      33.419  30.460  28.872  1.00  0.00     0.163 HD
BRANCH   3   6
ATOM      6  C   UNL A   1      32.468  30.191  25.668  1.00  0.00     0.105 C 
ATOM      7  C   UNL A   1      31.108  30.646  25.115  1.00  0.00     0.023 C 
BRANCH   6   8
ATOM      8  C   UNL A   1      32.960  28.900  25.003  1.00  0.00    -0.033 A 
ATOM      9  C   UNL A   1      32.687  28.627  23.652  1.00  0.00     0.005 A 
ATOM     10  C   UNL A   1      33.716  27.950  25.709  1.00  0.00     0.044 A 
ATOM     11  C   UNL A   1      33.028  27.401  23.073  1.00  0.00     0.012 A 
ATOM     12  C   UNL A   1      34.043  26.724  25.131  1.00  0.00     0.131 A 
ATOM     13  C   UNL A   1      33.674  26.409  23.819  1.00  0.00     0.018 A 
ATOM     14  F   UNL A   1      34.696  25.824  25.884  1.00  0.00    -0.206 F 
BRANCH  13  15
ATOM     15  C   UNL A   1      33.841  25.061  23.267  1.00  0.00    -0.012 A 
ATOM     16  C   UNL A   1      32.931  24.513  22.352  1.00  0.00     0.009 A 
ATOM     17  C   UNL A   1      34.898  24.256  23.728  1.00  0.00     0.056 A 
ATOM     18  C   UNL A   1      33.070  23.194  21.913  1.00  0.00     0.004 A 
ATOM     19  C   UNL A   1      35.019  22.933  23.315  1.00  0.00     0.133 A 
ATOM     20  C   UNL A   1      34.111  22.401  22.399  1.00  0.00     0.047 A 
BRANCH  19  21
ATOM     21  O   UNL A   1      36.022  22.044  23.775  1.00  0.00    -0.410 OA
BRANCH  21  22
ATOM     22  C   UNL A   1      36.341  21.832  25.115  1.00  0.00     0.412 C 
ATOM     23  O   UNL A   1      37.175  22.443  25.777  1.00  0.00    -0.224 OA
ATOM     24  N   UNL A   1      35.604  20.853  25.710  1.00  0.00    -0.321 N 
ATOM     25  H   UNL A   1      35.800  20.680  26.660  1.00  0.00     0.167 HD
BRANCH  24  26
ATOM     26  C   UNL A   1      34.568  20.035  25.119  1.00  0.00     0.119 C 
BRANCH  26  27
ATOM     27  C   UNL A   1      33.197  20.345  25.722  1.00  0.00     0.025 C 
BRANCH  27  28
ATOM     28  C   UNL A   1      32.775  21.828  25.627  1.00  0.00    -0.009 C 
ATOM     29  C   UNL A   1      31.354  21.989  25.060  1.00  0.00     0.003 C 
ATOM     30  C   UNL A   1      32.886  22.492  27.010  1.00  0.00     0.003 C 
ATOM     31  C   UNL A   1      30.899  23.447  25.053  1.00  0.00     0.000 C 
ATOM     32  C   UNL A   1      32.441  23.952  26.976  1.00  0.00     0.000 C 
ATOM     33  C   UNL A   1      31.025  24.088  26.430  1.00  0.00     0.000 C 
ENDBRANCH  27  28
ENDBRANCH  26  27
ENDBRANCH  24  26
ENDBRANCH  21  22
ENDBRANCH  19  21
ENDBRANCH  13  15
ENDBRANCH   6   8
ENDBRANCH   3   6
ENDBRANCH   1   2
BRANCH   1  34
ATOM     34  C   UNL A   1      35.141  32.216  28.623  1.00  0.00     0.021 C 
BRANCH  34  35
ATOM     35  C   UNL A   1      35.540  33.686  28.808  1.00  0.00     0.002 C 
BRANCH  35  36
ATOM     36  C   UNL A   1      34.719  34.676  27.979  1.00  0.00     0.002 C 
BRANCH  36  37
ATOM     37  C   UNL A   1      33.921  35.681  28.809  1.00  0.00     0.021 C 
BRANCH  37  38
ATOM     38  C   UNL A   1      32.959  35.035  29.796  1.00  0.00     0.116 C 
BRANCH  38  39
ATOM     39  N   UNL A   1      32.530  35.971  30.824  1.00  0.00    -0.352 N 
ATOM     40  C   UNL A   1      32.909  36.023  32.142  1.00  0.00     0.251 C 
ATOM     41  H   UNL A   1      31.883  36.655  30.538  1.00  0.00     0.163 HD
ATOM     42  O   UNL A   1      32.310  36.727  32.945  1.00  0.00    -0.269 OA
BRANCH  40  43
ATOM     43  C   UNL A   1      34.050  35.196  32.583  1.00  0.00     0.039 A 
ATOM     44  C   UNL A   1      33.816  33.922  33.102  1.00  0.00     0.014 A 
ATOM     45  C   UNL A   1      35.354  35.681  32.445  1.00  0.00     0.014 A 
ATOM     46  C   UNL A   1      34.898  33.106  33.434  1.00  0.00     0.010 A 
ATOM     47  C   UNL A   1      36.427  34.837  32.695  1.00  0.00     0.010 A 
ATOM     48  C   UNL A   1      36.211  33.547  33.205  1.00  0.00    -0.014 A 
BRANCH  48  49
ATOM     49  C   UNL A   1      37.389  32.706  33.522  1.00  0.00     0.031 A 
ATOM     50  C   UNL A   1      38.150  32.952  34.795  1.00  0.00     0.074 A 
ATOM     51  C   UNL A   1      37.832  31.797  32.633  1.00  0.00     0.049 A 
ATOM     52  N   UNL A   1      39.285  32.438  35.194  1.00  0.00    -0.248 NA
ATOM     53  C   UNL A   1      37.574  33.937  35.725  1.00  0.00     0.031 C 
ATOM     54  C   UNL A   1      37.198  31.481  31.353  1.00  0.00     0.029 A 
ATOM     55  N   UNL A   1      38.940  30.987  32.667  1.00  0.00    -0.354 N 
ATOM     56  C   UNL A   1      39.571  33.061  36.403  1.00  0.00     0.074 A 
ATOM     57  C   UNL A   1      38.522  34.027  36.642  1.00  0.00     0.031 C 
ATOM     58  C   UNL A   1      37.918  30.535  30.730  1.00  0.00     0.029 A 
ATOM     59  C   UNL A   1      39.091  30.216  31.540  1.00  0.00     0.049 A 
ATOM     60  H   UNL A   1      39.567  30.962  33.425  1.00  0.00     0.167 HD
ATOM     61  C   UNL A   1      40.606  32.838  37.247  1.00  0.00     0.031 A 
ATOM     62  C   UNL A   1      40.074  29.365  31.189  1.00  0.00     0.031 A 
ATOM     63  C   UNL A   1      41.644  31.873  37.006  1.00  0.00     0.049 A 
ATOM     64  C   UNL A   1      41.230  29.150  32.126  1.00  0.00     0.074 A 
ATOM     65  C   UNL A   1      42.710  31.532  37.820  1.00  0.00     0.029 A 
ATOM     66  N   UNL A   1      41.750  31.099  35.860  1.00  0.00    -0.354 N 
ATOM     67  N   UNL A   1      41.463  29.705  33.292  1.00  0.00    -0.248 NA
ATOM     68  C   UNL A   1      42.254  28.183  31.705  1.00  0.00     0.031 C 
ATOM     69  C   UNL A   1      43.496  30.598  37.138  1.00  0.00     0.029 A 
ATOM     70  C   UNL A   1      42.879  30.301  35.933  1.00  0.00     0.049 A 
ATOM     71  H   UNL A   1      41.118  31.116  35.106  1.00  0.00     0.167 HD
ATOM     72  C   UNL A   1      42.636  29.127  33.760  1.00  0.00     0.074 A 
ATOM     73  C   UNL A   1      43.066  28.179  32.753  1.00  0.00     0.031 C 
ATOM     74  C   UNL A   1      43.291  29.356  34.925  1.00  0.00     0.031 A 
BRANCH  61  75
ATOM     75  C   UNL A   1      40.671  33.680  38.493  1.00  0.00    -0.014 A 
ATOM     76  C   UNL A   1      41.339  34.915  38.512  1.00  0.00     0.009 A 
ATOM     77  C   UNL A   1      40.056  33.226  39.670  1.00  0.00     0.009 A 
ATOM     78  C   UNL A   1      41.439  35.649  39.695  1.00  0.00     0.001 A 
ATOM     79  C   UNL A   1      40.124  33.981  40.842  1.00  0.00     0.001 A 
ATOM     80  C   UNL A   1      40.829  35.183  40.859  1.00  0.00     0.000 A 
ENDBRANCH  61  75
BRANCH  62  81
ATOM     81  C   UNL A   1      39.995  28.645  29.891  1.00  0.00    -0.014 A 
ATOM     82  C   UNL A   1      40.523  29.220  28.725  1.00  0.00     0.009 A 
ATOM     83  C   UNL A   1      39.412  27.370  29.813  1.00  0.00     0.009 A 
ATOM     84  C   UNL A   1      40.452  28.542  27.506  1.00  0.00     0.001 A 
ATOM     85  C   UNL A   1      39.371  26.681  28.600  1.00  0.00     0.001 A 
ATOM     86  C   UNL A   1      39.884  27.270  27.446  1.00  0.00     0.000 A 
ENDBRANCH  62  81
BRANCH  74  87
ATOM     87  C   UNL A   1      44.515  28.530  35.211  1.00  0.00    -0.014 A 
ATOM     88  C   UNL A   1      44.428  27.259  35.797  1.00  0.00     0.009 A 
ATOM     89  C   UNL A   1      45.774  29.011  34.814  1.00  0.00     0.009 A 
ATOM     90  C   UNL A   1      45.581  26.496  35.999  1.00  0.00     0.001 A 
ATOM     91  C   UNL A   1      46.919  28.234  34.987  1.00  0.00     0.001 A 
ATOM     92  C   UNL A   1      46.823  26.980  35.586  1.00  0.00     0.000 A 
ENDBRANCH  74  87
ENDBRANCH  48  49
ENDBRANCH  40  43
ENDBRANCH  38  39
ENDBRANCH  37  38
ENDBRANCH  36  37
ENDBRANCH  35  36
ENDBRANCH  34  35
ENDBRANCH   1  34
TORSDOF 20
ENDMDL
MODEL 2
REMARK VINA RESULT:     -10.4      2.412      3.808
REMARK SMILES C[C@@H](C(=O)NCCCCCCNC(=O)c1ccc(-c2c3nc(c(-c4ccccc4)c4ccc([nH]4)c(-c4ccccc4)c4nc(c(-c5ccccc5)c5ccc2[nH]5)C=C4)C=C3)cc1)c1ccc(-c2cccc(OC(=O)NCCC3CCCCC3)c2)c(F)c1
REMARK SMILES IDX 6 1 5 2 3 3 4 4 2 6 1 7 63 8 64 9 87 10 65 11 85 12 66 13
REMARK SMILES IDX 86 14 67 15 68 16 84 17 69 18 71 19 70 20 72 21 73 22 74 23
REMARK SMILES IDX 75 24 76 26 77 27 78 28 79 29 83 30 80 31 82 32 81 33 7 34
REMARK SMILES IDX 8 35 9 36 10 37 11 38 12 39 13 40 14 42 15 43 16 44 62 45
REMARK SMILES IDX 17 46 61 47 18 48 19 49 20 50 55 51 21 52 60 53 54 54 56 55
REMARK SMILES IDX 22 56 59 57 53 58 52 59 23 61 45 62 30 63 44 64 31 65 34 66
REMARK SMILES IDX 43 67 57 68 32 69 33 70 42 72 58 73 35 74 24 75 25 76 29 77
REMARK SMILES IDX 26 78 28 79 27 80 46 81 47 82 51 83 48 84 50 85 49 86 36 87
REMARK SMILES IDX 37 88 41 89 38 90 40 91 39 92
REMARK H PARENT 5 5 75 25 12 41 56 60 34 71
REMARK Flexibility Score: inf
ROOT
ATOM      1  C   UNL A   1      34.014  30.742  27.323  1.00  0.00     0.116 C 
ENDROOT
BRANCH   1   2
ATOM      2  N   UNL A   1      33.085  29.725  27.765  1.00  0.00    -0.356 N 
ATOM      3  C   UNL A   1      32.307  28.895  27.008  1.00  0.00     0.227 C 
ATOM      4  O   UNL A   1      31.296  28.443  27.545  1.00  0.00    -0.274 OA
ATOM      5  H   UNL A   1      33.002  29.617  28.740  1.00  0.00     0.163 HD
BRANCH   3   6
ATOM      6  C   UNL A   1      32.744  28.559  25.569  1.00  0.00     0.105 C 
ATOM      7  C   UNL A   1      31.660  29.059  24.600  1.00  0.00     0.023 C 
BRANCH   6   8
ATOM      8  C   UNL A   1      33.084  27.081  25.344  1.00  0.00    -0.033 A 
ATOM      9  C   UNL A   1      32.886  26.125  26.355  1.00  0.00     0.005 A 
ATOM     10  C   UNL A   1      33.588  26.620  24.117  1.00  0.00     0.044 A 
ATOM     11  C   UNL A   1      33.304  24.801  26.198  1.00  0.00     0.012 A 
ATOM     12  C   UNL A   1      34.015  25.302  23.969  1.00  0.00     0.131 A 
ATOM     13  C   UNL A   1      33.919  24.377  25.014  1.00  0.00     0.018 A 
ATOM     14  F   UNL A   1      34.564  24.942  22.797  1.00  0.00    -0.206 F 
BRANCH  13  15
ATOM     15  C   UNL A   1      34.537  23.049  24.937  1.00  0.00    -0.012 A 
ATOM     16  C   UNL A   1      33.776  21.883  24.778  1.00  0.00     0.009 A 
ATOM     17  C   UNL A   1      35.927  22.928  25.112  1.00  0.00     0.056 A 
ATOM     18  C   UNL A   1      34.387  20.627  24.797  1.00  0.00     0.004 A 
ATOM     19  C   UNL A   1      36.531  21.676  25.163  1.00  0.00     0.133 A 
ATOM     20  C   UNL A   1      35.765  20.522  24.996  1.00  0.00     0.047 A 
BRANCH  19  21
ATOM     21  O   UNL A   1      37.915  21.469  25.391  1.00  0.00    -0.410 OA
BRANCH  21  22
ATOM     22  C   UNL A   1      38.738  22.330  26.112  1.00  0.00     0.412 C 
ATOM     23  O   UNL A   1      38.469  23.471  26.477  1.00  0.00    -0.224 OA
ATOM     24  N   UNL A   1      39.945  21.792  26.443  1.00  0.00    -0.321 N 
ATOM     25  H   UNL A   1      40.551  22.372  26.959  1.00  0.00     0.167 HD
BRANCH  24  26
ATOM     26  C   UNL A   1      40.447  20.472  26.131  1.00  0.00     0.119 C 
BRANCH  26  27
ATOM     27  C   UNL A   1      41.495  20.016  27.147  1.00  0.00     0.025 C 
BRANCH  27  28
ATOM     28  C   UNL A   1      42.940  19.972  26.601  1.00  0.00    -0.009 C 
ATOM     29  C   UNL A   1      43.147  18.819  25.605  1.00  0.00     0.003 C 
ATOM     30  C   UNL A   1      43.293  21.321  25.952  1.00  0.00     0.003 C 
ATOM     31  C   UNL A   1      44.547  18.830  24.994  1.00  0.00     0.000 C 
ATOM     32  C   UNL A   1      44.701  21.314  25.362  1.00  0.00     0.000 C 
ATOM     33  C   UNL A   1      44.880  20.177  24.364  1.00  0.00     0.000 C 
ENDBRANCH  27  28
ENDBRANCH  26  27
ENDBRANCH  24  26
ENDBRANCH  21  22
ENDBRANCH  19  21
ENDBRANCH  13  15
ENDBRANCH   6   8
ENDBRANCH   3   6
ENDBRANCH   1   2
BRANCH   1  34
ATOM     34  C   UNL A   1      34.207  31.782  28.432  1.00  0.00     0.021 C 
BRANCH  34  35
ATOM     35  C   UNL A   1      35.028  33.003  27.999  1.00  0.00     0.002 C 
BRANCH  35  36
ATOM     36  C   UNL A   1      34.218  34.293  27.848  1.00  0.00     0.002 C 
BRANCH  36  37
ATOM     37  C   UNL A   1      33.384  34.658  29.076  1.00  0.00     0.021 C 
BRANCH  37  38
ATOM     38  C   UNL A   1      33.460  36.131  29.453  1.00  0.00     0.116 C 
BRANCH  38  39
ATOM     39  N   UNL A   1      32.539  36.461  30.530  1.00  0.00    -0.352 N 
ATOM     40  C   UNL A   1      32.510  35.966  31.810  1.00  0.00     0.251 C 
ATOM     41  H   UNL A   1      31.846  37.126  30.312  1.00  0.00     0.163 HD
ATOM     42  O   UNL A   1      31.553  36.171  32.545  1.00  0.00    -0.269 OA
BRANCH  40  43
ATOM     43  C   UNL A   1      33.654  35.161  32.283  1.00  0.00     0.039 A 
ATOM     44  C   UNL A   1      33.435  33.864  32.749  1.00  0.00     0.014 A 
ATOM     45  C   UNL A   1      34.947  35.689  32.226  1.00  0.00     0.014 A 
ATOM     46  C   UNL A   1      34.525  33.071  33.111  1.00  0.00     0.010 A 
ATOM     47  C   UNL A   1      36.033  34.872  32.504  1.00  0.00     0.010 A 
ATOM     48  C   UNL A   1      35.832  33.560  32.963  1.00  0.00    -0.014 A 
BRANCH  48  49
ATOM     49  C   UNL A   1      37.020  32.745  33.314  1.00  0.00     0.031 A 
ATOM     50  C   UNL A   1      37.744  33.014  34.603  1.00  0.00     0.074 A 
ATOM     51  C   UNL A   1      37.504  31.841  32.442  1.00  0.00     0.049 A 
ATOM     52  N   UNL A   1      38.880  32.527  35.033  1.00  0.00    -0.248 NA
ATOM     53  C   UNL A   1      37.124  33.992  35.513  1.00  0.00     0.031 C 
ATOM     54  C   UNL A   1      36.907  31.504  31.148  1.00  0.00     0.029 A 
ATOM     55  N   UNL A   1      38.627  31.055  32.507  1.00  0.00    -0.354 N 
ATOM     56  C   UNL A   1      39.123  33.161  36.245  1.00  0.00     0.074 A 
ATOM     57  C   UNL A   1      38.048  34.106  36.453  1.00  0.00     0.031 C 
ATOM     58  C   UNL A   1      37.663  30.570  30.548  1.00  0.00     0.029 A 
ATOM     59  C   UNL A   1      38.822  30.281  31.389  1.00  0.00     0.049 A 
ATOM     60  H   UNL A   1      39.235  31.046  33.280  1.00  0.00     0.167 HD
ATOM     61  C   UNL A   1      40.141  32.965  37.115  1.00  0.00     0.031 A 
ATOM     62  C   UNL A   1      39.830  29.448  31.067  1.00  0.00     0.031 A 
ATOM     63  C   UNL A   1      41.205  32.021  36.905  1.00  0.00     0.049 A 
ATOM     64  C   UNL A   1      40.967  29.263  32.033  1.00  0.00     0.074 A 
ATOM     65  C   UNL A   1      42.257  31.706  37.747  1.00  0.00     0.029 A 
ATOM     66  N   UNL A   1      41.355  31.243  35.767  1.00  0.00    -0.354 N 
ATOM     67  N   UNL A   1      41.159  29.829  33.201  1.00  0.00    -0.248 NA
ATOM     68  C   UNL A   1      42.021  28.315  31.643  1.00  0.00     0.031 C 
ATOM     69  C   UNL A   1      43.079  30.785  37.090  1.00  0.00     0.029 A 
ATOM     70  C   UNL A   1      42.498  30.469  35.872  1.00  0.00     0.049 A 
ATOM     71  H   UNL A   1      40.741  31.243  34.997  1.00  0.00     0.167 HD
ATOM     72  C   UNL A   1      42.333  29.278  33.702  1.00  0.00     0.074 A 
ATOM     73  C   UNL A   1      42.807  28.334  32.711  1.00  0.00     0.031 C 
ATOM     74  C   UNL A   1      42.954  29.528  34.881  1.00  0.00     0.031 A 
BRANCH  61  75
ATOM     75  C   UNL A   1      40.158  33.815  38.357  1.00  0.00    -0.014 A 
ATOM     76  C   UNL A   1      39.511  33.408  39.535  1.00  0.00     0.009 A 
ATOM     77  C   UNL A   1      40.832  35.046  38.347  1.00  0.00     0.009 A 
ATOM     78  C   UNL A   1      39.488  34.240  40.656  1.00  0.00     0.001 A 
ATOM     79  C   UNL A   1      40.841  35.859  39.482  1.00  0.00     0.001 A 
ATOM     80  C   UNL A   1      40.156  35.464  40.629  1.00  0.00     0.000 A 
ENDBRANCH  61  75
BRANCH  62  81
ATOM     81  C   UNL A   1      39.798  28.720  29.772  1.00  0.00    -0.014 A 
ATOM     82  C   UNL A   1      40.311  29.314  28.609  1.00  0.00     0.009 A 
ATOM     83  C   UNL A   1      39.275  27.419  29.694  1.00  0.00     0.009 A 
ATOM     84  C   UNL A   1      40.285  28.627  27.393  1.00  0.00     0.001 A 
ATOM     85  C   UNL A   1      39.278  26.724  28.484  1.00  0.00     0.001 A 
ATOM     86  C   UNL A   1      39.776  27.331  27.332  1.00  0.00     0.000 A 
ENDBRANCH  62  81
BRANCH  74  87
ATOM     87  C   UNL A   1      44.188  28.729  35.202  1.00  0.00    -0.014 A 
ATOM     88  C   UNL A   1      44.119  27.501  35.875  1.00  0.00     0.009 A 
ATOM     89  C   UNL A   1      45.437  29.187  34.749  1.00  0.00     0.009 A 
ATOM     90  C   UNL A   1      45.279  26.759  36.109  1.00  0.00     0.001 A 
ATOM     91  C   UNL A   1      46.589  28.429  34.956  1.00  0.00     0.001 A 
ATOM     92  C   UNL A   1      46.510  27.219  35.642  1.00  0.00     0.000 A 
ENDBRANCH  74  87
ENDBRANCH  48  49
ENDBRANCH  40  43
ENDBRANCH  38  39
ENDBRANCH  37  38
ENDBRANCH  36  37
ENDBRANCH  35  36
ENDBRANCH  34  35
ENDBRANCH   1  34
TORSDOF 20
ENDMDL
MODEL 3
REMARK VINA RESULT:     -10.1      4.716      8.361
REMARK SMILES C[C@@H](C(=O)NCCCCCCNC(=O)c1ccc(-c2c3nc(c(-c4ccccc4)c4ccc([nH]4)c(-c4ccccc4)c4nc(c(-c5ccccc5)c5ccc2[nH]5)C=C4)C=C3)cc1)c1ccc(-c2cccc(OC(=O)NCCC3CCCCC3)c2)c(F)c1
REMARK SMILES IDX 6 1 5 2 3 3 4 4 2 6 1 7 63 8 64 9 87 10 65 11 85 12 66 13
REMARK SMILES IDX 86 14 67 15 68 16 84 17 69 18 71 19 70 20 72 21 73 22 74 23
REMARK SMILES IDX 75 24 76 26 77 27 78 28 79 29 83 30 80 31 82 32 81 33 7 34
REMARK SMILES IDX 8 35 9 36 10 37 11 38 12 39 13 40 14 42 15 43 16 44 62 45
REMARK SMILES IDX 17 46 61 47 18 48 19 49 20 50 55 51 21 52 60 53 54 54 56 55
REMARK SMILES IDX 22 56 59 57 53 58 52 59 23 61 45 62 30 63 44 64 31 65 34 66
REMARK SMILES IDX 43 67 57 68 32 69 33 70 42 72 58 73 35 74 24 75 25 76 29 77
REMARK SMILES IDX 26 78 28 79 27 80 46 81 47 82 51 83 48 84 50 85 49 86 36 87
REMARK SMILES IDX 37 88 41 89 38 90 40 91 39 92
REMARK H PARENT 5 5 75 25 12 41 56 60 34 71
REMARK Flexibility Score: inf
ROOT
ATOM      1  C   UNL A   1      38.512  30.218  34.300  1.00  0.00     0.116 C 
ENDROOT
BRANCH   1   2
ATOM      2  N   UNL A   1      37.280  30.519  33.601  1.00  0.00    -0.356 N 
ATOM      3  C   UNL A   1      37.052  31.473  32.651  1.00  0.00     0.227 C 
ATOM      4  O   UNL A   1      35.890  31.857  32.521  1.00  0.00    -0.274 OA
ATOM      5  H   UNL A   1      36.505  29.963  33.844  1.00  0.00     0.163 HD
BRANCH   3   6
ATOM      6  C   UNL A   1      38.230  31.981  31.797  1.00  0.00     0.105 C 
ATOM      7  C   UNL A   1      37.815  33.302  31.129  1.00  0.00     0.023 C 
BRANCH   6   8
ATOM      8  C   UNL A   1      38.757  30.960  30.780  1.00  0.00    -0.033 A 
ATOM      9  C   UNL A   1      39.886  30.171  31.058  1.00  0.00     0.005 A 
ATOM     10  C   UNL A   1      38.125  30.761  29.543  1.00  0.00     0.044 A 
ATOM     11  C   UNL A   1      40.440  29.327  30.092  1.00  0.00     0.012 A 
ATOM     12  C   UNL A   1      38.689  29.928  28.577  1.00  0.00     0.131 A 
ATOM     13  C   UNL A   1      39.875  29.226  28.816  1.00  0.00     0.018 A 
ATOM     14  F   UNL A   1      38.082  29.842  27.383  1.00  0.00    -0.206 F 
BRANCH  13  15
ATOM     15  C   UNL A   1      40.578  28.503  27.752  1.00  0.00    -0.012 A 
ATOM     16  C   UNL A   1      41.540  29.122  26.941  1.00  0.00     0.009 A 
ATOM     17  C   UNL A   1      40.222  27.171  27.477  1.00  0.00     0.056 A 
ATOM     18  C   UNL A   1      42.127  28.429  25.879  1.00  0.00     0.004 A 
ATOM     19  C   UNL A   1      40.783  26.491  26.400  1.00  0.00     0.133 A 
ATOM     20  C   UNL A   1      41.745  27.115  25.604  1.00  0.00     0.047 A 
BRANCH  19  21
ATOM     21  O   UNL A   1      40.437  25.169  26.025  1.00  0.00    -0.410 OA
BRANCH  21  22
ATOM     22  C   UNL A   1      39.618  24.322  26.768  1.00  0.00     0.412 C 
ATOM     23  O   UNL A   1      38.413  24.449  26.963  1.00  0.00    -0.224 OA
ATOM     24  N   UNL A   1      40.267  23.242  27.287  1.00  0.00    -0.321 N 
ATOM     25  H   UNL A   1      39.717  22.618  27.814  1.00  0.00     0.167 HD
BRANCH  24  26
ATOM     26  C   UNL A   1      41.666  22.899  27.159  1.00  0.00     0.119 C 
BRANCH  26  27
ATOM     27  C   UNL A   1      41.934  22.105  25.880  1.00  0.00     0.025 C 
BRANCH  27  28
ATOM     28  C   UNL A   1      43.004  20.999  26.024  1.00  0.00    -0.009 C 
ATOM     29  C   UNL A   1      42.414  19.593  25.820  1.00  0.00     0.003 C 
ATOM     30  C   UNL A   1      44.153  21.254  25.034  1.00  0.00     0.003 C 
ATOM     31  C   UNL A   1      43.486  18.506  25.868  1.00  0.00     0.000 C 
ATOM     32  C   UNL A   1      45.220  20.164  25.110  1.00  0.00     0.000 C 
ATOM     33  C   UNL A   1      44.619  18.782  24.887  1.00  0.00     0.000 C 
ENDBRANCH  27  28
ENDBRANCH  26  27
ENDBRANCH  24  26
ENDBRANCH  21  22
ENDBRANCH  19  21
ENDBRANCH  13  15
ENDBRANCH   6   8
ENDBRANCH   3   6
ENDBRANCH   1   2
BRANCH   1  34
ATOM     34  C   UNL A   1      38.479  30.847  35.697  1.00  0.00     0.021 C 
BRANCH  34  35
ATOM     35  C   UNL A   1      39.195  32.202  35.782  1.00  0.00     0.002 C 
BRANCH  35  36
ATOM     36  C   UNL A   1      40.052  32.389  37.036  1.00  0.00     0.002 C 
BRANCH  36  37
ATOM     37  C   UNL A   1      39.847  33.730  37.741  1.00  0.00     0.021 C 
BRANCH  37  38
ATOM     38  C   UNL A   1      38.994  34.714  36.953  1.00  0.00     0.116 C 
BRANCH  38  39
ATOM     39  N   UNL A   1      39.649  36.005  36.811  1.00  0.00    -0.352 N 
ATOM     40  C   UNL A   1      40.767  36.317  36.079  1.00  0.00     0.251 C 
ATOM     41  H   UNL A   1      39.238  36.751  37.304  1.00  0.00     0.163 HD
ATOM     42  O   UNL A   1      41.334  37.395  36.219  1.00  0.00    -0.269 OA
BRANCH  40  43
ATOM     43  C   UNL A   1      41.291  35.320  35.125  1.00  0.00     0.039 A 
ATOM     44  C   UNL A   1      42.529  34.722  35.367  1.00  0.00     0.014 A 
ATOM     45  C   UNL A   1      40.529  34.956  34.011  1.00  0.00     0.014 A 
ATOM     46  C   UNL A   1      42.983  33.714  34.515  1.00  0.00     0.010 A 
ATOM     47  C   UNL A   1      40.942  33.896  33.216  1.00  0.00     0.010 A 
ATOM     48  C   UNL A   1      42.179  33.274  33.451  1.00  0.00    -0.014 A 
BRANCH  48  49
ATOM     49  C   UNL A   1      42.611  32.192  32.535  1.00  0.00     0.031 A 
ATOM     50  C   UNL A   1      42.696  30.781  33.049  1.00  0.00     0.074 A 
ATOM     51  C   UNL A   1      43.017  32.483  31.286  1.00  0.00     0.049 A 
ATOM     52  N   UNL A   1      43.186  29.716  32.469  1.00  0.00    -0.248 NA
ATOM     53  C   UNL A   1      42.196  30.548  34.414  1.00  0.00     0.031 C 
ATOM     54  C   UNL A   1      43.006  33.814  30.677  1.00  0.00     0.029 A 
ATOM     55  N   UNL A   1      43.542  31.673  30.310  1.00  0.00    -0.354 N 
ATOM     56  C   UNL A   1      43.082  28.698  33.408  1.00  0.00     0.074 A 
ATOM     57  C   UNL A   1      42.535  29.285  34.611  1.00  0.00     0.031 C 
ATOM     58  C   UNL A   1      43.488  33.726  29.426  1.00  0.00     0.029 A 
ATOM     59  C   UNL A   1      43.890  32.346  29.165  1.00  0.00     0.049 A 
ATOM     60  H   UNL A   1      43.660  30.702  30.421  1.00  0.00     0.167 HD
ATOM     61  C   UNL A   1      43.398  27.389  33.277  1.00  0.00     0.031 A 
ATOM     62  C   UNL A   1      44.483  31.907  28.039  1.00  0.00     0.031 A 
ATOM     63  C   UNL A   1      43.938  26.810  32.077  1.00  0.00     0.049 A 
ATOM     64  C   UNL A   1      44.854  30.455  27.921  1.00  0.00     0.074 A 
ATOM     65  C   UNL A   1      44.245  25.485  31.821  1.00  0.00     0.029 A 
ATOM     66  N   UNL A   1      44.258  27.525  30.932  1.00  0.00    -0.354 N 
ATOM     67  N   UNL A   1      44.701  29.490  28.796  1.00  0.00    -0.248 NA
ATOM     68  C   UNL A   1      45.467  30.027  26.655  1.00  0.00     0.031 C 
ATOM     69  C   UNL A   1      44.811  25.409  30.544  1.00  0.00     0.029 A 
ATOM     70  C   UNL A   1      44.785  26.673  29.977  1.00  0.00     0.049 A 
ATOM     71  H   UNL A   1      44.131  28.494  30.817  1.00  0.00     0.167 HD
ATOM     72  C   UNL A   1      45.163  28.336  28.175  1.00  0.00     0.074 A 
ATOM     73  C   UNL A   1      45.600  28.722  26.848  1.00  0.00     0.031 C 
ATOM     74  C   UNL A   1      45.210  27.070  28.658  1.00  0.00     0.031 A 
BRANCH  61  75
ATOM     75  C   UNL A   1      43.191  26.507  34.480  1.00  0.00    -0.014 A 
ATOM     76  C   UNL A   1      44.248  26.190  35.350  1.00  0.00     0.009 A 
ATOM     77  C   UNL A   1      41.917  25.982  34.744  1.00  0.00     0.009 A 
ATOM     78  C   UNL A   1      44.045  25.321  36.423  1.00  0.00     0.001 A 
ATOM     79  C   UNL A   1      41.709  25.144  35.841  1.00  0.00     0.001 A 
ATOM     80  C   UNL A   1      42.775  24.801  36.670  1.00  0.00     0.000 A 
ENDBRANCH  61  75
BRANCH  62  81
ATOM     81  C   UNL A   1      44.754  32.860  26.930  1.00  0.00    -0.014 A 
ATOM     82  C   UNL A   1      43.825  33.026  25.892  1.00  0.00     0.009 A 
ATOM     83  C   UNL A   1      45.931  33.626  26.915  1.00  0.00     0.009 A 
ATOM     84  C   UNL A   1      44.078  33.926  24.853  1.00  0.00     0.001 A 
ATOM     85  C   UNL A   1      46.166  34.546  25.892  1.00  0.00     0.001 A 
ATOM     86  C   UNL A   1      45.243  34.690  24.858  1.00  0.00     0.000 A 
ENDBRANCH  62  81
BRANCH  74  87
ATOM     87  C   UNL A   1      45.699  25.989  27.734  1.00  0.00    -0.014 A 
ATOM     88  C   UNL A   1      47.013  25.503  27.794  1.00  0.00     0.009 A 
ATOM     89  C   UNL A   1      44.795  25.395  26.836  1.00  0.00     0.009 A 
ATOM     90  C   UNL A   1      47.418  24.461  26.957  1.00  0.00     0.001 A 
ATOM     91  C   UNL A   1      45.193  24.332  26.025  1.00  0.00     0.001 A 
ATOM     92  C   UNL A   1      46.506  23.871  26.081  1.00  0.00     0.000 A 
ENDBRANCH  74  87
ENDBRANCH  48  49
ENDBRANCH  40  43
ENDBRANCH  38  39
ENDBRANCH  37  38
ENDBRANCH  36  37
ENDBRANCH  35  36
ENDBRANCH  34  35
ENDBRANCH   1  34
TORSDOF 20
ENDMDL
