MODEL 1
REMARK VINA RESULT:     -11.0      0.000      0.000
REMARK SMILES CC[C@@H](NS(=O)(=O)c1cc(C)ccc1C)C(=O)NCCCCCCNC(=O)c1ccc(-c2c3nc(c(-c4ccccc4)c4ccc([nH]4)c(-c4ccccc4)c4nc(c(-c5ccccc5)c5ccc2[nH]5)C=C4)C=C3)cc1
REMARK SMILES IDX 21 1 20 2 19 3 18 4 16 5 17 6 3 8 2 9 1 10 4 11 5 13 6 14
REMARK SMILES IDX 7 15 8 16 9 17 14 18 10 19 13 20 15 21 11 22 12 23 22 24
REMARK SMILES IDX 23 25 24 26 25 27 26 28 27 30 28 31 29 32 75 33 30 34 74 35
REMARK SMILES IDX 31 36 32 37 33 38 68 39 34 40 73 41 67 42 69 43 35 44 72 45
REMARK SMILES IDX 66 46 65 47 36 49 58 50 43 51 57 52 44 53 47 54 56 55 70 56
REMARK SMILES IDX 45 57 46 58 55 60 71 61 48 62 37 63 38 64 42 65 39 66 41 67
REMARK SMILES IDX 40 68 59 69 60 70 64 71 61 72 63 73 62 74 49 75 50 76 54 77
REMARK SMILES IDX 51 78 53 79 52 80
REMARK H PARENT 18 7 4 12 25 29 69 48 47 59
REMARK Flexibility Score: inf
ROOT
ATOM      1  C   UNL A   1      31.446  27.920  25.194  1.00  0.00     0.002 C 
ENDROOT
BRANCH   1   2
ATOM      2  C   UNL A   1      30.301  27.113  24.568  1.00  0.00     0.021 C 
BRANCH   2   3
ATOM      3  C   UNL A   1      30.555  25.616  24.429  1.00  0.00     0.116 C 
BRANCH   3   4
ATOM      4  N   UNL A   1      30.116  24.858  25.588  1.00  0.00    -0.355 N 
ATOM      5  C   UNL A   1      30.761  23.909  26.334  1.00  0.00     0.238 C 
ATOM      6  O   UNL A   1      30.183  23.479  27.335  1.00  0.00    -0.273 OA
ATOM      7  H   UNL A   1      29.200  25.061  25.887  1.00  0.00     0.163 HD
BRANCH   5   8
ATOM      8  C   UNL A   1      32.146  23.379  25.940  1.00  0.00     0.158 C 
BRANCH   8   9
ATOM      9  C   UNL A   1      33.247  24.229  26.601  1.00  0.00     0.027 C 
ATOM     10  C   UNL A   1      33.901  25.264  25.700  1.00  0.00     0.006 C 
ENDBRANCH   8   9
BRANCH   8  11
ATOM     11  N   UNL A   1      32.227  21.932  26.254  1.00  0.00    -0.199 NA
ATOM     12  H   UNL A   1      31.286  21.618  26.489  1.00  0.00     0.142 HD
BRANCH  11  13
ATOM     13  S   UNL A   1      32.824  20.894  25.047  1.00  0.00     0.241 S 
ATOM     14  O   UNL A   1      33.111  19.635  25.670  1.00  0.00    -0.207 OA
ATOM     15  O   UNL A   1      31.858  20.979  23.958  1.00  0.00    -0.207 OA
BRANCH  13  16
ATOM     16  C   UNL A   1      34.338  21.639  24.468  1.00  0.00     0.085 A 
ATOM     17  C   UNL A   1      35.535  21.230  25.086  1.00  0.00     0.025 A 
ATOM     18  C   UNL A   1      34.371  22.566  23.413  1.00  0.00    -0.031 A 
ATOM     19  C   UNL A   1      36.764  21.773  24.692  1.00  0.00    -0.050 A 
ATOM     20  C   UNL A   1      35.598  23.182  23.106  1.00  0.00     0.005 A 
ATOM     21  C   UNL A   1      33.216  22.825  22.491  1.00  0.00     0.046 C 
ATOM     22  C   UNL A   1      38.058  21.265  25.257  1.00  0.00     0.044 C 
ATOM     23  C   UNL A   1      36.778  22.801  23.748  1.00  0.00     0.004 A 
ENDBRANCH  13  16
ENDBRANCH  11  13
ENDBRANCH   8  11
ENDBRANCH   5   8
ENDBRANCH   3   4
ENDBRANCH   2   3
ENDBRANCH   1   2
BRANCH   1  24
ATOM     24  C   UNL A   1      31.544  27.983  26.726  1.00  0.00     0.002 C 
BRANCH  24  25
ATOM     25  C   UNL A   1      32.691  28.726  27.437  1.00  0.00     0.021 C 
BRANCH  25  26
ATOM     26  C   UNL A   1      33.484  29.847  26.747  1.00  0.00     0.116 C 
BRANCH  26  27
ATOM     27  N   UNL A   1      33.715  31.039  27.564  1.00  0.00    -0.352 N 
ATOM     28  C   UNL A   1      34.731  31.428  28.419  1.00  0.00     0.251 C 
ATOM     29  H   UNL A   1      32.994  31.706  27.489  1.00  0.00     0.163 HD
ATOM     30  O   UNL A   1      34.528  32.358  29.197  1.00  0.00    -0.269 OA
BRANCH  28  31
ATOM     31  C   UNL A   1      36.059  30.771  28.410  1.00  0.00     0.039 A 
ATOM     32  C   UNL A   1      36.292  29.527  27.808  1.00  0.00     0.014 A 
ATOM     33  C   UNL A   1      37.103  31.375  29.084  1.00  0.00     0.014 A 
ATOM     34  C   UNL A   1      37.540  28.914  27.981  1.00  0.00     0.010 A 
ATOM     35  C   UNL A   1      38.382  30.929  29.007  1.00  0.00     0.010 A 
ATOM     36  C   UNL A   1      38.559  29.620  28.635  1.00  0.00    -0.014 A 
BRANCH  36  37
ATOM     37  C   UNL A   1      39.848  29.067  29.003  1.00  0.00     0.031 A 
ATOM     38  C   UNL A   1      40.080  28.956  30.445  1.00  0.00     0.074 A 
ATOM     39  C   UNL A   1      40.651  28.406  28.139  1.00  0.00     0.049 A 
ATOM     40  N   UNL A   1      40.911  29.645  31.145  1.00  0.00    -0.248 NA
ATOM     41  C   UNL A   1      39.228  28.040  31.215  1.00  0.00     0.031 C 
ATOM     42  C   UNL A   1      40.401  28.060  26.731  1.00  0.00     0.029 A 
ATOM     43  N   UNL A   1      41.835  27.785  28.393  1.00  0.00    -0.354 N 
ATOM     44  C   UNL A   1      40.832  29.121  32.424  1.00  0.00     0.074 A 
ATOM     45  C   UNL A   1      39.667  28.269  32.452  1.00  0.00     0.031 C 
ATOM     46  C   UNL A   1      41.291  27.127  26.326  1.00  0.00     0.029 A 
ATOM     47  C   UNL A   1      42.276  26.950  27.377  1.00  0.00     0.049 A 
ATOM     48  H   UNL A   1      42.337  27.917  29.230  1.00  0.00     0.167 HD
ATOM     49  C   UNL A   1      41.873  29.225  33.288  1.00  0.00     0.031 A 
ATOM     50  C   UNL A   1      43.379  26.167  27.394  1.00  0.00     0.031 A 
ATOM     51  C   UNL A   1      42.889  30.130  32.813  1.00  0.00     0.049 A 
ATOM     52  C   UNL A   1      44.290  26.713  28.423  1.00  0.00     0.074 A 
ATOM     53  C   UNL A   1      42.931  31.470  32.486  1.00  0.00     0.029 A 
ATOM     54  N   UNL A   1      43.988  29.555  32.218  1.00  0.00    -0.354 N 
ATOM     55  N   UNL A   1      44.870  27.874  28.326  1.00  0.00    -0.248 NA
ATOM     56  C   UNL A   1      44.294  26.132  29.757  1.00  0.00     0.031 C 
ATOM     57  C   UNL A   1      43.822  31.562  31.375  1.00  0.00     0.029 A 
ATOM     58  C   UNL A   1      44.302  30.280  31.095  1.00  0.00     0.049 A 
ATOM     59  H   UNL A   1      44.467  28.758  32.541  1.00  0.00     0.167 HD
ATOM     60  C   UNL A   1      44.913  28.360  29.622  1.00  0.00     0.074 A 
ATOM     61  C   UNL A   1      44.706  27.188  30.464  1.00  0.00     0.031 C 
ATOM     62  C   UNL A   1      44.820  29.700  29.871  1.00  0.00     0.031 A 
BRANCH  49  63
ATOM     63  C   UNL A   1      42.143  28.208  34.355  1.00  0.00    -0.014 A 
ATOM     64  C   UNL A   1      42.703  26.975  33.992  1.00  0.00     0.009 A 
ATOM     65  C   UNL A   1      41.643  28.326  35.668  1.00  0.00     0.009 A 
ATOM     66  C   UNL A   1      42.746  25.909  34.897  1.00  0.00     0.001 A 
ATOM     67  C   UNL A   1      41.726  27.280  36.586  1.00  0.00     0.001 A 
ATOM     68  C   UNL A   1      42.262  26.063  36.193  1.00  0.00     0.000 A 
ENDBRANCH  49  63
BRANCH  50  69
ATOM     69  C   UNL A   1      43.643  24.903  26.683  1.00  0.00    -0.014 A 
ATOM     70  C   UNL A   1      43.090  23.694  27.129  1.00  0.00     0.009 A 
ATOM     71  C   UNL A   1      44.233  24.927  25.406  1.00  0.00     0.009 A 
ATOM     72  C   UNL A   1      43.089  22.560  26.308  1.00  0.00     0.001 A 
ATOM     73  C   UNL A   1      44.232  23.794  24.586  1.00  0.00     0.001 A 
ATOM     74  C   UNL A   1      43.646  22.614  25.031  1.00  0.00     0.000 A 
ENDBRANCH  50  69
BRANCH  62  75
ATOM     75  C   UNL A   1      45.003  30.632  28.693  1.00  0.00    -0.014 A 
ATOM     76  C   UNL A   1      43.951  30.987  27.830  1.00  0.00     0.009 A 
ATOM     77  C   UNL A   1      46.246  31.254  28.510  1.00  0.00     0.009 A 
ATOM     78  C   UNL A   1      44.147  31.902  26.791  1.00  0.00     0.001 A 
ATOM     79  C   UNL A   1      46.438  32.186  27.485  1.00  0.00     0.001 A 
ATOM     80  C   UNL A   1      45.391  32.503  26.621  1.00  0.00     0.000 A 
ENDBRANCH  62  75
ENDBRANCH  36  37
ENDBRANCH  28  31
ENDBRANCH  26  27
ENDBRANCH  25  26
ENDBRANCH  24  25
ENDBRANCH   1  24
TORSDOF 17
ENDMDL
MODEL 2
REMARK VINA RESULT:     -10.8      1.337      2.152
REMARK SMILES CC[C@@H](NS(=O)(=O)c1cc(C)ccc1C)C(=O)NCCCCCCNC(=O)c1ccc(-c2c3nc(c(-c4ccccc4)c4ccc([nH]4)c(-c4ccccc4)c4nc(c(-c5ccccc5)c5ccc2[nH]5)C=C4)C=C3)cc1
REMARK SMILES IDX 21 1 20 2 19 3 18 4 16 5 17 6 3 8 2 9 1 10 4 11 5 13 6 14
REMARK SMILES IDX 7 15 8 16 9 17 14 18 10 19 13 20 15 21 11 22 12 23 22 24
REMARK SMILES IDX 23 25 24 26 25 27 26 28 27 30 28 31 29 32 75 33 30 34 74 35
REMARK SMILES IDX 31 36 32 37 33 38 68 39 34 40 73 41 67 42 69 43 35 44 72 45
REMARK SMILES IDX 66 46 65 47 36 49 58 50 43 51 57 52 44 53 47 54 56 55 70 56
REMARK SMILES IDX 45 57 46 58 55 60 71 61 48 62 37 63 38 64 42 65 39 66 41 67
REMARK SMILES IDX 40 68 59 69 60 70 64 71 61 72 63 73 62 74 49 75 50 76 54 77
REMARK SMILES IDX 51 78 53 79 52 80
REMARK H PARENT 18 7 4 12 25 29 69 48 47 59
REMARK Flexibility Score: inf
ROOT
ATOM      1  C   UNL A   1      33.255  27.842  26.902  1.00  0.00     0.002 C 
ENDROOT
BRANCH   1   2
ATOM      2  C   UNL A   1      33.861  27.699  25.500  1.00  0.00     0.021 C 
BRANCH   2   3
ATOM      3  C   UNL A   1      32.928  28.047  24.345  1.00  0.00     0.116 C 
BRANCH   3   4
ATOM      4  N   UNL A   1      32.723  26.937  23.430  1.00  0.00    -0.355 N 
ATOM      5  C   UNL A   1      31.933  25.824  23.535  1.00  0.00     0.238 C 
ATOM      6  O   UNL A   1      31.877  25.070  22.561  1.00  0.00    -0.273 OA
ATOM      7  H   UNL A   1      33.240  26.995  22.595  1.00  0.00     0.163 HD
BRANCH   5   8
ATOM      8  C   UNL A   1      31.152  25.508  24.818  1.00  0.00     0.158 C 
BRANCH   8   9
ATOM      9  C   UNL A   1      30.007  26.520  25.006  1.00  0.00     0.027 C 
ATOM     10  C   UNL A   1      28.806  26.323  24.094  1.00  0.00     0.006 C 
ENDBRANCH   8   9
BRANCH   8  11
ATOM     11  N   UNL A   1      30.712  24.092  24.789  1.00  0.00    -0.199 NA
ATOM     12  H   UNL A   1      31.141  23.656  23.973  1.00  0.00     0.142 HD
BRANCH  11  13
ATOM     13  S   UNL A   1      31.080  23.123  26.136  1.00  0.00     0.241 S 
ATOM     14  O   UNL A   1      31.477  24.001  27.198  1.00  0.00    -0.207 OA
ATOM     15  O   UNL A   1      29.932  22.239  26.297  1.00  0.00    -0.207 OA
BRANCH  13  16
ATOM     16  C   UNL A   1      32.462  22.108  25.646  1.00  0.00     0.085 A 
ATOM     17  C   UNL A   1      32.173  20.828  25.137  1.00  0.00     0.025 A 
ATOM     18  C   UNL A   1      33.792  22.555  25.714  1.00  0.00    -0.031 A 
ATOM     19  C   UNL A   1      33.204  19.968  24.736  1.00  0.00    -0.050 A 
ATOM     20  C   UNL A   1      34.818  21.640  25.413  1.00  0.00     0.005 A 
ATOM     21  C   UNL A   1      34.183  23.987  25.935  1.00  0.00     0.046 C 
ATOM     22  C   UNL A   1      32.910  18.649  24.084  1.00  0.00     0.044 C 
ATOM     23  C   UNL A   1      34.527  20.358  24.945  1.00  0.00     0.004 A 
ENDBRANCH  13  16
ENDBRANCH  11  13
ENDBRANCH   8  11
ENDBRANCH   5   8
ENDBRANCH   3   4
ENDBRANCH   2   3
ENDBRANCH   1   2
BRANCH   1  24
ATOM     24  C   UNL A   1      32.058  28.786  27.089  1.00  0.00     0.002 C 
BRANCH  24  25
ATOM     25  C   UNL A   1      32.225  30.317  27.105  1.00  0.00     0.021 C 
BRANCH  25  26
ATOM     26  C   UNL A   1      33.605  30.985  27.005  1.00  0.00     0.116 C 
BRANCH  26  27
ATOM     27  N   UNL A   1      33.923  31.922  28.084  1.00  0.00    -0.352 N 
ATOM     28  C   UNL A   1      34.904  31.957  29.059  1.00  0.00     0.251 C 
ATOM     29  H   UNL A   1      33.307  32.690  28.124  1.00  0.00     0.163 HD
ATOM     30  O   UNL A   1      34.762  32.715  30.016  1.00  0.00    -0.269 OA
BRANCH  28  31
ATOM     31  C   UNL A   1      36.127  31.125  28.973  1.00  0.00     0.039 A 
ATOM     32  C   UNL A   1      36.110  29.783  28.571  1.00  0.00     0.014 A 
ATOM     33  C   UNL A   1      37.331  31.672  29.370  1.00  0.00     0.014 A 
ATOM     34  C   UNL A   1      37.291  29.034  28.666  1.00  0.00     0.010 A 
ATOM     35  C   UNL A   1      38.520  31.043  29.187  1.00  0.00     0.010 A 
ATOM     36  C   UNL A   1      38.480  29.681  29.030  1.00  0.00    -0.014 A 
BRANCH  36  37
ATOM     37  C   UNL A   1      39.739  29.015  29.297  1.00  0.00     0.031 A 
ATOM     38  C   UNL A   1      40.064  28.861  30.718  1.00  0.00     0.074 A 
ATOM     39  C   UNL A   1      40.418  28.302  28.371  1.00  0.00     0.049 A 
ATOM     40  N   UNL A   1      41.000  29.466  31.362  1.00  0.00    -0.248 NA
ATOM     41  C   UNL A   1      39.194  28.008  31.538  1.00  0.00     0.031 C 
ATOM     42  C   UNL A   1      40.039  28.001  26.981  1.00  0.00     0.029 A 
ATOM     43  N   UNL A   1      41.560  27.579  28.532  1.00  0.00    -0.354 N 
ATOM     44  C   UNL A   1      40.968  28.931  32.637  1.00  0.00     0.074 A 
ATOM     45  C   UNL A   1      39.739  28.180  32.742  1.00  0.00     0.031 C 
ATOM     46  C   UNL A   1      40.815  27.002  26.503  1.00  0.00     0.029 A 
ATOM     47  C   UNL A   1      41.854  26.726  27.478  1.00  0.00     0.049 A 
ATOM     48  H   UNL A   1      42.131  27.654  29.331  1.00  0.00     0.167 HD
ATOM     49  C   UNL A   1      42.073  28.931  33.425  1.00  0.00     0.031 A 
ATOM     50  C   UNL A   1      42.884  25.852  27.407  1.00  0.00     0.031 A 
ATOM     51  C   UNL A   1      43.126  29.755  32.886  1.00  0.00     0.049 A 
ATOM     52  C   UNL A   1      43.910  26.302  28.372  1.00  0.00     0.074 A 
ATOM     53  C   UNL A   1      43.259  31.091  32.570  1.00  0.00     0.029 A 
ATOM     54  N   UNL A   1      44.126  29.098  32.206  1.00  0.00    -0.354 N 
ATOM     55  N   UNL A   1      44.579  27.411  28.244  1.00  0.00    -0.248 NA
ATOM     56  C   UNL A   1      43.960  25.701  29.697  1.00  0.00     0.031 C 
ATOM     57  C   UNL A   1      44.073  31.125  31.397  1.00  0.00     0.029 A 
ATOM     58  C   UNL A   1      44.420  29.812  31.071  1.00  0.00     0.049 A 
ATOM     59  H   UNL A   1      44.557  28.258  32.486  1.00  0.00     0.167 HD
ATOM     60  C   UNL A   1      44.756  27.871  29.538  1.00  0.00     0.074 A 
ATOM     61  C   UNL A   1      44.511  26.707  30.382  1.00  0.00     0.031 C 
ATOM     62  C   UNL A   1      44.796  29.210  29.806  1.00  0.00     0.031 A 
BRANCH  49  63
ATOM     63  C   UNL A   1      42.330  27.879  34.459  1.00  0.00    -0.014 A 
ATOM     64  C   UNL A   1      42.855  26.643  34.055  1.00  0.00     0.009 A 
ATOM     65  C   UNL A   1      41.851  27.973  35.781  1.00  0.00     0.009 A 
ATOM     66  C   UNL A   1      42.882  25.551  34.928  1.00  0.00     0.001 A 
ATOM     67  C   UNL A   1      41.919  26.900  36.669  1.00  0.00     0.001 A 
ATOM     68  C   UNL A   1      42.418  25.681  36.235  1.00  0.00     0.000 A 
ENDBRANCH  49  63
BRANCH  50  69
ATOM     69  C   UNL A   1      42.987  24.581  26.667  1.00  0.00    -0.014 A 
ATOM     70  C   UNL A   1      44.153  24.248  25.961  1.00  0.00     0.009 A 
ATOM     71  C   UNL A   1      42.029  23.572  26.870  1.00  0.00     0.009 A 
ATOM     72  C   UNL A   1      44.371  22.940  25.512  1.00  0.00     0.001 A 
ATOM     73  C   UNL A   1      42.246  22.265  26.421  1.00  0.00     0.001 A 
ATOM     74  C   UNL A   1      43.425  21.945  25.756  1.00  0.00     0.000 A 
ENDBRANCH  50  69
BRANCH  62  75
ATOM     75  C   UNL A   1      44.974  30.141  28.628  1.00  0.00    -0.014 A 
ATOM     76  C   UNL A   1      43.893  30.751  27.967  1.00  0.00     0.009 A 
ATOM     77  C   UNL A   1      46.273  30.500  28.239  1.00  0.00     0.009 A 
ATOM     78  C   UNL A   1      44.102  31.656  26.922  1.00  0.00     0.001 A 
ATOM     79  C   UNL A   1      46.484  31.422  27.209  1.00  0.00     0.001 A 
ATOM     80  C   UNL A   1      45.399  31.993  26.546  1.00  0.00     0.000 A 
ENDBRANCH  62  75
ENDBRANCH  36  37
ENDBRANCH  28  31
ENDBRANCH  26  27
ENDBRANCH  25  26
ENDBRANCH  24  25
ENDBRANCH   1  24
TORSDOF 17
ENDMDL
MODEL 3
REMARK VINA RESULT:     -10.8      2.957      7.305
REMARK SMILES CC[C@@H](NS(=O)(=O)c1cc(C)ccc1C)C(=O)NCCCCCCNC(=O)c1ccc(-c2c3nc(c(-c4ccccc4)c4ccc([nH]4)c(-c4ccccc4)c4nc(c(-c5ccccc5)c5ccc2[nH]5)C=C4)C=C3)cc1
REMARK SMILES IDX 21 1 20 2 19 3 18 4 16 5 17 6 3 8 2 9 1 10 4 11 5 13 6 14
REMARK SMILES IDX 7 15 8 16 9 17 14 18 10 19 13 20 15 21 11 22 12 23 22 24
REMARK SMILES IDX 23 25 24 26 25 27 26 28 27 30 28 31 29 32 75 33 30 34 74 35
REMARK SMILES IDX 31 36 32 37 33 38 68 39 34 40 73 41 67 42 69 43 35 44 72 45
REMARK SMILES IDX 66 46 65 47 36 49 58 50 43 51 57 52 44 53 47 54 56 55 70 56
REMARK SMILES IDX 45 57 46 58 55 60 71 61 48 62 37 63 38 64 42 65 39 66 41 67
REMARK SMILES IDX 40 68 59 69 60 70 64 71 61 72 63 73 62 74 49 75 50 76 54 77
REMARK SMILES IDX 51 78 53 79 52 80
REMARK H PARENT 18 7 4 12 25 29 69 48 47 59
REMARK Flexibility Score: inf
ROOT
ATOM      1  C   UNL A   1      35.334  23.154  25.891  1.00  0.00     0.002 C 
ENDROOT
BRANCH   1   2
ATOM      2  C   UNL A   1      34.227  24.207  25.749  1.00  0.00     0.021 C 
BRANCH   2   3
ATOM      3  C   UNL A   1      34.467  25.269  24.681  1.00  0.00     0.116 C 
BRANCH   3   4
ATOM      4  N   UNL A   1      34.006  24.862  23.365  1.00  0.00    -0.355 N 
ATOM      5  C   UNL A   1      33.322  25.554  22.402  1.00  0.00     0.238 C 
ATOM      6  O   UNL A   1      33.129  24.989  21.323  1.00  0.00    -0.273 OA
ATOM      7  H   UNL A   1      34.222  23.932  23.126  1.00  0.00     0.163 HD
BRANCH   5   8
ATOM      8  C   UNL A   1      32.797  26.974  22.650  1.00  0.00     0.158 C 
BRANCH   8   9
ATOM      9  C   UNL A   1      33.775  28.011  22.065  1.00  0.00     0.027 C 
ATOM     10  C   UNL A   1      34.449  28.917  23.082  1.00  0.00     0.006 C 
ENDBRANCH   8   9
BRANCH   8  11
ATOM     11  N   UNL A   1      31.413  27.084  22.129  1.00  0.00    -0.199 NA
ATOM     12  H   UNL A   1      31.003  26.151  22.153  1.00  0.00     0.142 HD
BRANCH  11  13
ATOM     13  S   UNL A   1      30.346  28.131  22.939  1.00  0.00     0.241 S 
ATOM     14  O   UNL A   1      30.410  29.402  22.277  1.00  0.00    -0.207 OA
ATOM     15  O   UNL A   1      29.086  27.402  23.023  1.00  0.00    -0.207 OA
BRANCH  13  16
ATOM     16  C   UNL A   1      30.978  28.285  24.600  1.00  0.00     0.085 A 
ATOM     17  C   UNL A   1      31.371  29.569  25.023  1.00  0.00     0.025 A 
ATOM     18  C   UNL A   1      31.056  27.197  25.485  1.00  0.00    -0.031 A 
ATOM     19  C   UNL A   1      31.884  29.770  26.311  1.00  0.00    -0.050 A 
ATOM     20  C   UNL A   1      31.675  27.396  26.732  1.00  0.00     0.005 A 
ATOM     21  C   UNL A   1      30.382  25.877  25.248  1.00  0.00     0.046 C 
ATOM     22  C   UNL A   1      32.196  31.147  26.819  1.00  0.00     0.044 C 
ATOM     23  C   UNL A   1      32.098  28.664  27.134  1.00  0.00     0.004 A 
ENDBRANCH  13  16
ENDBRANCH  11  13
ENDBRANCH   8  11
ENDBRANCH   5   8
ENDBRANCH   3   4
ENDBRANCH   2   3
ENDBRANCH   1   2
BRANCH   1  24
ATOM     24  C   UNL A   1      35.026  21.709  25.476  1.00  0.00     0.002 C 
BRANCH  24  25
ATOM     25  C   UNL A   1      36.119  20.769  24.932  1.00  0.00     0.021 C 
BRANCH  25  26
ATOM     26  C   UNL A   1      37.614  21.090  25.081  1.00  0.00     0.116 C 
BRANCH  26  27
ATOM     27  N   UNL A   1      38.482  19.931  25.295  1.00  0.00    -0.352 N 
ATOM     28  C   UNL A   1      39.781  19.781  25.748  1.00  0.00     0.251 C 
ATOM     29  H   UNL A   1      38.049  19.076  25.067  1.00  0.00     0.163 HD
ATOM     30  O   UNL A   1      40.357  18.713  25.555  1.00  0.00    -0.269 OA
BRANCH  28  31
ATOM     31  C   UNL A   1      40.488  20.861  26.475  1.00  0.00     0.039 A 
ATOM     32  C   UNL A   1      40.882  20.749  27.816  1.00  0.00     0.014 A 
ATOM     33  C   UNL A   1      40.712  22.061  25.829  1.00  0.00     0.014 A 
ATOM     34  C   UNL A   1      41.407  21.875  28.463  1.00  0.00     0.010 A 
ATOM     35  C   UNL A   1      41.478  23.048  26.357  1.00  0.00     0.010 A 
ATOM     36  C   UNL A   1      41.648  23.037  27.718  1.00  0.00    -0.014 A 
BRANCH  36  37
ATOM     37  C   UNL A   1      42.059  24.311  28.275  1.00  0.00     0.031 A 
ATOM     38  C   UNL A   1      41.113  25.409  28.063  1.00  0.00     0.074 A 
ATOM     39  C   UNL A   1      43.049  24.443  29.186  1.00  0.00     0.049 A 
ATOM     40  N   UNL A   1      41.282  26.432  27.300  1.00  0.00    -0.248 NA
ATOM     41  C   UNL A   1      39.791  25.316  28.696  1.00  0.00     0.031 C 
ATOM     42  C   UNL A   1      43.851  23.392  29.832  1.00  0.00     0.029 A 
ATOM     43  N   UNL A   1      43.462  25.570  29.828  1.00  0.00    -0.354 N 
ATOM     44  C   UNL A   1      40.163  27.222  27.499  1.00  0.00     0.074 A 
ATOM     45  C   UNL A   1      39.207  26.415  28.219  1.00  0.00     0.031 C 
ATOM     46  C   UNL A   1      44.493  23.904  30.907  1.00  0.00     0.029 A 
ATOM     47  C   UNL A   1      44.295  25.341  30.913  1.00  0.00     0.049 A 
ATOM     48  H   UNL A   1      43.191  26.474  29.546  1.00  0.00     0.167 HD
ATOM     49  C   UNL A   1      40.205  28.562  27.283  1.00  0.00     0.031 A 
ATOM     50  C   UNL A   1      44.795  26.270  31.760  1.00  0.00     0.031 A 
ATOM     51  C   UNL A   1      41.410  28.968  26.605  1.00  0.00     0.049 A 
ATOM     52  C   UNL A   1      44.736  27.575  31.066  1.00  0.00     0.074 A 
ATOM     53  C   UNL A   1      41.993  28.678  25.388  1.00  0.00     0.029 A 
ATOM     54  N   UNL A   1      42.408  29.489  27.395  1.00  0.00    -0.354 N 
ATOM     55  N   UNL A   1      45.447  27.861  30.014  1.00  0.00    -0.248 NA
ATOM     56  C   UNL A   1      43.616  28.469  31.314  1.00  0.00     0.031 C 
ATOM     57  C   UNL A   1      43.399  28.656  25.636  1.00  0.00     0.029 A 
ATOM     58  C   UNL A   1      43.607  28.961  26.984  1.00  0.00     0.049 A 
ATOM     59  H   UNL A   1      42.283  30.132  28.130  1.00  0.00     0.167 HD
ATOM     60  C   UNL A   1      44.630  28.669  29.242  1.00  0.00     0.074 A 
ATOM     61  C   UNL A   1      43.601  29.141  30.160  1.00  0.00     0.031 C 
ATOM     62  C   UNL A   1      44.702  28.638  27.878  1.00  0.00     0.031 A 
BRANCH  49  63
ATOM     63  C   UNL A   1      39.347  29.530  28.039  1.00  0.00    -0.014 A 
ATOM     64  C   UNL A   1      39.746  29.934  29.321  1.00  0.00     0.009 A 
ATOM     65  C   UNL A   1      38.041  29.871  27.633  1.00  0.00     0.009 A 
ATOM     66  C   UNL A   1      38.872  30.632  30.161  1.00  0.00     0.001 A 
ATOM     67  C   UNL A   1      37.183  30.607  28.450  1.00  0.00     0.001 A 
ATOM     68  C   UNL A   1      37.594  30.972  29.724  1.00  0.00     0.000 A 
ENDBRANCH  49  63
BRANCH  50  69
ATOM     69  C   UNL A   1      45.189  26.135  33.174  1.00  0.00    -0.014 A 
ATOM     70  C   UNL A   1      44.246  26.265  34.204  1.00  0.00     0.009 A 
ATOM     71  C   UNL A   1      46.456  25.617  33.501  1.00  0.00     0.009 A 
ATOM     72  C   UNL A   1      44.546  25.850  35.507  1.00  0.00     0.001 A 
ATOM     73  C   UNL A   1      46.755  25.203  34.803  1.00  0.00     0.001 A 
ATOM     74  C   UNL A   1      45.794  25.305  35.803  1.00  0.00     0.000 A 
ENDBRANCH  50  69
BRANCH  62  75
ATOM     75  C   UNL A   1      45.908  27.957  27.269  1.00  0.00    -0.014 A 
ATOM     76  C   UNL A   1      45.959  26.574  27.022  1.00  0.00     0.009 A 
ATOM     77  C   UNL A   1      46.982  28.746  26.832  1.00  0.00     0.009 A 
ATOM     78  C   UNL A   1      47.067  25.991  26.398  1.00  0.00     0.001 A 
ATOM     79  C   UNL A   1      48.081  28.168  26.189  1.00  0.00     0.001 A 
ATOM     80  C   UNL A   1      48.127  26.791  25.980  1.00  0.00     0.000 A 
ENDBRANCH  62  75
ENDBRANCH  36  37
ENDBRANCH  28  31
ENDBRANCH  26  27
ENDBRANCH  25  26
ENDBRANCH  24  25
ENDBRANCH   1  24
TORSDOF 17
ENDMDL
