MODEL 1
REMARK VINA RESULT:     -10.5      0.000      0.000
REMARK SMILES CCN(CC)C(=O)COc1cc(C)ccc1C(=O)NCCCCCCNC(=O)c1ccc(-c2c3nc(c(-c4ccccc4)c4ccc([nH]4)c(-c4ccccc4)c4nc(c(-c5ccccc5)c5ccc2[nH]5)C=C4)C=C3)cc1
REMARK SMILES IDX 21 1 20 2 19 3 17 4 18 5 16 7 10 8 11 9 12 10 15 11 13 12
REMARK SMILES IDX 14 13 9 14 8 15 6 16 3 17 7 18 2 19 1 20 4 21 5 22 22 23
REMARK SMILES IDX 23 24 24 25 25 26 26 27 27 28 28 30 29 31 30 32 76 33 31 34
REMARK SMILES IDX 75 35 32 36 33 37 34 38 69 39 35 40 74 41 68 42 70 43 36 44
REMARK SMILES IDX 73 45 67 46 66 47 37 49 59 50 44 51 58 52 45 53 48 54 57 55
REMARK SMILES IDX 71 56 46 57 47 58 56 60 72 61 49 62 38 63 39 64 43 65 40 66
REMARK SMILES IDX 42 67 41 68 60 69 61 70 65 71 62 72 64 73 63 74 50 75 51 76
REMARK SMILES IDX 55 77 52 78 54 79 53 80
REMARK H PARENT 19 6 26 29 70 48 48 59
REMARK Flexibility Score: inf
ROOT
ATOM      1  C   UNL A   1      32.161  28.919  23.249  1.00  0.00     0.021 C 
ENDROOT
BRANCH   1   2
ATOM      2  C   UNL A   1      33.563  28.559  22.742  1.00  0.00     0.116 C 
BRANCH   2   3
ATOM      3  N   UNL A   1      33.484  27.498  21.766  1.00  0.00    -0.352 N 
ATOM      4  C   UNL A   1      33.137  26.176  21.828  1.00  0.00     0.255 C 
ATOM      5  O   UNL A   1      33.235  25.558  20.761  1.00  0.00    -0.269 OA
ATOM      6  H   UNL A   1      33.736  27.788  20.859  1.00  0.00     0.163 HD
BRANCH   4   7
ATOM      7  C   UNL A   1      32.591  25.441  23.015  1.00  0.00     0.081 A 
ATOM      8  C   UNL A   1      33.290  24.868  24.094  1.00  0.00     0.133 A 
ATOM      9  C   UNL A   1      32.567  24.159  25.075  1.00  0.00     0.050 A 
ATOM     10  C   UNL A   1      31.181  23.975  24.998  1.00  0.00    -0.047 A 
ATOM     11  C   UNL A   1      31.194  25.224  22.939  1.00  0.00     0.018 A 
ATOM     12  C   UNL A   1      30.451  23.185  26.044  1.00  0.00     0.044 C 
ATOM     13  C   UNL A   1      30.499  24.499  23.907  1.00  0.00     0.004 A 
BRANCH   8  14
ATOM     14  O   UNL A   1      34.638  25.050  24.201  1.00  0.00    -0.483 OA
BRANCH  14  15
ATOM     15  C   UNL A   1      35.286  24.758  25.425  1.00  0.00     0.329 C 
BRANCH  15  16
ATOM     16  C   UNL A   1      36.380  23.677  25.569  1.00  0.00     0.260 C 
ATOM     17  N   UNL A   1      36.039  22.332  25.671  1.00  0.00    -0.340 N 
ATOM     18  O   UNL A   1      37.564  24.035  25.593  1.00  0.00    -0.271 OA
BRANCH  17  19
ATOM     19  C   UNL A   1      37.130  21.355  25.654  1.00  0.00     0.116 C 
ATOM     20  C   UNL A   1      36.752  20.118  24.850  1.00  0.00     0.027 C 
ENDBRANCH  17  19
BRANCH  17  21
ATOM     21  C   UNL A   1      34.680  21.804  25.790  1.00  0.00     0.116 C 
ATOM     22  C   UNL A   1      34.300  21.549  27.239  1.00  0.00     0.027 C 
ENDBRANCH  17  21
ENDBRANCH  15  16
ENDBRANCH  14  15
ENDBRANCH   8  14
ENDBRANCH   4   7
ENDBRANCH   2   3
ENDBRANCH   1   2
BRANCH   1  23
ATOM     23  C   UNL A   1      32.010  28.927  24.778  1.00  0.00     0.002 C 
BRANCH  23  24
ATOM     24  C   UNL A   1      33.295  28.695  25.590  1.00  0.00     0.002 C 
BRANCH  24  25
ATOM     25  C   UNL A   1      33.905  29.936  26.247  1.00  0.00     0.021 C 
BRANCH  25  26
ATOM     26  C   UNL A   1      33.685  30.009  27.752  1.00  0.00     0.116 C 
BRANCH  26  27
ATOM     27  N   UNL A   1      34.411  31.093  28.401  1.00  0.00    -0.352 N 
ATOM     28  C   UNL A   1      35.684  31.124  28.944  1.00  0.00     0.251 C 
ATOM     29  H   UNL A   1      33.915  31.941  28.464  1.00  0.00     0.163 HD
ATOM     30  O   UNL A   1      36.069  32.128  29.518  1.00  0.00    -0.269 OA
BRANCH  28  31
ATOM     31  C   UNL A   1      36.631  30.004  28.698  1.00  0.00     0.039 A 
ATOM     32  C   UNL A   1      36.864  29.116  29.758  1.00  0.00     0.014 A 
ATOM     33  C   UNL A   1      37.427  29.947  27.559  1.00  0.00     0.014 A 
ATOM     34  C   UNL A   1      38.044  28.378  29.787  1.00  0.00     0.010 A 
ATOM     35  C   UNL A   1      38.645  29.308  27.632  1.00  0.00     0.010 A 
ATOM     36  C   UNL A   1      38.981  28.585  28.778  1.00  0.00    -0.014 A 
BRANCH  36  37
ATOM     37  C   UNL A   1      40.375  28.187  28.891  1.00  0.00     0.031 A 
ATOM     38  C   UNL A   1      40.828  26.902  28.334  1.00  0.00     0.074 A 
ATOM     39  C   UNL A   1      41.266  29.027  29.465  1.00  0.00     0.049 A 
ATOM     40  N   UNL A   1      41.803  26.208  28.818  1.00  0.00    -0.248 NA
ATOM     41  C   UNL A   1      40.166  26.265  27.202  1.00  0.00     0.031 C 
ATOM     42  C   UNL A   1      42.721  28.911  29.448  1.00  0.00     0.029 A 
ATOM     43  N   UNL A   1      41.020  30.057  30.374  1.00  0.00    -0.354 N 
ATOM     44  C   UNL A   1      42.095  25.230  27.895  1.00  0.00     0.074 A 
ATOM     45  C   UNL A   1      40.983  25.233  26.973  1.00  0.00     0.031 C 
ATOM     46  C   UNL A   1      43.216  29.588  30.497  1.00  0.00     0.029 A 
ATOM     47  C   UNL A   1      42.083  30.042  31.289  1.00  0.00     0.049 A 
ATOM     48  H   UNL A   1      40.251  30.672  30.374  1.00  0.00     0.167 HD
ATOM     49  C   UNL A   1      43.324  24.639  27.906  1.00  0.00     0.031 A 
ATOM     50  C   UNL A   1      41.931  29.855  32.631  1.00  0.00     0.031 A 
ATOM     51  C   UNL A   1      44.163  25.150  28.987  1.00  0.00     0.049 A 
ATOM     52  C   UNL A   1      42.723  28.675  33.149  1.00  0.00     0.074 A 
ATOM     53  C   UNL A   1      45.181  26.090  29.007  1.00  0.00     0.029 A 
ATOM     54  N   UNL A   1      43.811  24.918  30.310  1.00  0.00    -0.354 N 
ATOM     55  N   UNL A   1      43.161  27.714  32.387  1.00  0.00    -0.248 NA
ATOM     56  C   UNL A   1      43.029  28.450  34.560  1.00  0.00     0.031 C 
ATOM     57  C   UNL A   1      45.410  26.460  30.354  1.00  0.00     0.029 A 
ATOM     58  C   UNL A   1      44.547  25.729  31.151  1.00  0.00     0.049 A 
ATOM     59  H   UNL A   1      43.134  24.267  30.606  1.00  0.00     0.167 HD
ATOM     60  C   UNL A   1      43.801  26.775  33.153  1.00  0.00     0.074 A 
ATOM     61  C   UNL A   1      43.686  27.277  34.509  1.00  0.00     0.031 C 
ATOM     62  C   UNL A   1      44.366  25.667  32.594  1.00  0.00     0.031 A 
BRANCH  49  63
ATOM     63  C   UNL A   1      43.881  23.851  26.742  1.00  0.00    -0.014 A 
ATOM     64  C   UNL A   1      45.017  23.042  26.935  1.00  0.00     0.009 A 
ATOM     65  C   UNL A   1      43.379  23.897  25.431  1.00  0.00     0.009 A 
ATOM     66  C   UNL A   1      45.676  22.413  25.872  1.00  0.00     0.001 A 
ATOM     67  C   UNL A   1      44.053  23.302  24.354  1.00  0.00     0.001 A 
ATOM     68  C   UNL A   1      45.211  22.570  24.574  1.00  0.00     0.000 A 
ENDBRANCH  49  63
BRANCH  50  69
ATOM     69  C   UNL A   1      40.606  30.263  33.166  1.00  0.00    -0.014 A 
ATOM     70  C   UNL A   1      40.322  31.637  33.278  1.00  0.00     0.009 A 
ATOM     71  C   UNL A   1      39.539  29.351  33.192  1.00  0.00     0.009 A 
ATOM     72  C   UNL A   1      39.001  32.092  33.307  1.00  0.00     0.001 A 
ATOM     73  C   UNL A   1      38.219  29.812  33.222  1.00  0.00     0.001 A 
ATOM     74  C   UNL A   1      37.950  31.181  33.247  1.00  0.00     0.000 A 
ENDBRANCH  50  69
BRANCH  62  75
ATOM     75  C   UNL A   1      44.886  24.453  33.323  1.00  0.00    -0.014 A 
ATOM     76  C   UNL A   1      46.170  24.346  33.871  1.00  0.00     0.009 A 
ATOM     77  C   UNL A   1      43.989  23.393  33.605  1.00  0.00     0.009 A 
ATOM     78  C   UNL A   1      46.548  23.227  34.628  1.00  0.00     0.001 A 
ATOM     79  C   UNL A   1      44.347  22.300  34.395  1.00  0.00     0.001 A 
ATOM     80  C   UNL A   1      45.634  22.212  34.899  1.00  0.00     0.000 A 
ENDBRANCH  62  75
ENDBRANCH  36  37
ENDBRANCH  28  31
ENDBRANCH  26  27
ENDBRANCH  25  26
ENDBRANCH  24  25
ENDBRANCH  23  24
ENDBRANCH   1  23
TORSDOF 18
ENDMDL
MODEL 2
REMARK VINA RESULT:     -10.4      1.595      3.459
REMARK SMILES CCN(CC)C(=O)COc1cc(C)ccc1C(=O)NCCCCCCNC(=O)c1ccc(-c2c3nc(c(-c4ccccc4)c4ccc([nH]4)c(-c4ccccc4)c4nc(c(-c5ccccc5)c5ccc2[nH]5)C=C4)C=C3)cc1
REMARK SMILES IDX 21 1 20 2 19 3 17 4 18 5 16 7 10 8 11 9 12 10 15 11 13 12
REMARK SMILES IDX 14 13 9 14 8 15 6 16 3 17 7 18 2 19 1 20 4 21 5 22 22 23
REMARK SMILES IDX 23 24 24 25 25 26 26 27 27 28 28 30 29 31 30 32 76 33 31 34
REMARK SMILES IDX 75 35 32 36 33 37 34 38 69 39 35 40 74 41 68 42 70 43 36 44
REMARK SMILES IDX 73 45 67 46 66 47 37 49 59 50 44 51 58 52 45 53 48 54 57 55
REMARK SMILES IDX 71 56 46 57 47 58 56 60 72 61 49 62 38 63 39 64 43 65 40 66
REMARK SMILES IDX 42 67 41 68 60 69 61 70 65 71 62 72 64 73 63 74 50 75 51 76
REMARK SMILES IDX 55 77 52 78 54 79 53 80
REMARK H PARENT 19 6 26 29 70 48 48 59
REMARK Flexibility Score: inf
ROOT
ATOM      1  C   UNL A   1      31.356  27.431  26.781  1.00  0.00     0.021 C 
ENDROOT
BRANCH   1   2
ATOM      2  C   UNL A   1      32.116  26.139  26.453  1.00  0.00     0.116 C 
BRANCH   2   3
ATOM      3  N   UNL A   1      31.377  24.992  26.926  1.00  0.00    -0.352 N 
ATOM      4  C   UNL A   1      31.550  23.639  26.810  1.00  0.00     0.255 C 
ATOM      5  O   UNL A   1      30.662  22.952  27.328  1.00  0.00    -0.269 OA
ATOM      6  H   UNL A   1      30.576  25.235  27.444  1.00  0.00     0.163 HD
BRANCH   4   7
ATOM      7  C   UNL A   1      32.718  22.928  26.197  1.00  0.00     0.081 A 
ATOM      8  C   UNL A   1      32.941  22.601  24.847  1.00  0.00     0.133 A 
ATOM      9  C   UNL A   1      34.092  21.862  24.505  1.00  0.00     0.050 A 
ATOM     10  C   UNL A   1      35.006  21.412  25.465  1.00  0.00    -0.047 A 
ATOM     11  C   UNL A   1      33.639  22.443  27.158  1.00  0.00     0.018 A 
ATOM     12  C   UNL A   1      36.202  20.598  25.067  1.00  0.00     0.044 C 
ATOM     13  C   UNL A   1      34.760  21.693  26.803  1.00  0.00     0.004 A 
BRANCH   8  14
ATOM     14  O   UNL A   1      32.074  23.046  23.890  1.00  0.00    -0.483 OA
BRANCH  14  15
ATOM     15  C   UNL A   1      32.345  24.260  23.215  1.00  0.00     0.329 C 
BRANCH  15  16
ATOM     16  C   UNL A   1      31.312  25.400  23.073  1.00  0.00     0.260 C 
ATOM     17  N   UNL A   1      31.698  26.652  22.606  1.00  0.00    -0.340 N 
ATOM     18  O   UNL A   1      30.137  25.172  23.385  1.00  0.00    -0.271 OA
BRANCH  17  19
ATOM     19  C   UNL A   1      30.641  27.635  22.356  1.00  0.00     0.116 C 
ATOM     20  C   UNL A   1      30.291  28.405  23.622  1.00  0.00     0.027 C 
ENDBRANCH  17  19
BRANCH  17  21
ATOM     21  C   UNL A   1      33.072  27.075  22.335  1.00  0.00     0.116 C 
ATOM     22  C   UNL A   1      33.649  27.882  23.487  1.00  0.00     0.027 C 
ENDBRANCH  17  21
ENDBRANCH  15  16
ENDBRANCH  14  15
ENDBRANCH   8  14
ENDBRANCH   4   7
ENDBRANCH   2   3
ENDBRANCH   1   2
BRANCH   1  23
ATOM     23  C   UNL A   1      32.215  28.547  27.394  1.00  0.00     0.002 C 
BRANCH  23  24
ATOM     24  C   UNL A   1      32.005  29.960  26.823  1.00  0.00     0.002 C 
BRANCH  24  25
ATOM     25  C   UNL A   1      33.212  30.899  26.899  1.00  0.00     0.021 C 
BRANCH  25  26
ATOM     26  C   UNL A   1      34.408  30.308  27.633  1.00  0.00     0.116 C 
BRANCH  26  27
ATOM     27  N   UNL A   1      35.256  31.305  28.274  1.00  0.00    -0.352 N 
ATOM     28  C   UNL A   1      36.522  31.192  28.820  1.00  0.00     0.251 C 
ATOM     29  H   UNL A   1      34.864  32.207  28.326  1.00  0.00     0.163 HD
ATOM     30  O   UNL A   1      37.023  32.148  29.386  1.00  0.00    -0.269 OA
BRANCH  28  31
ATOM     31  C   UNL A   1      37.331  29.965  28.588  1.00  0.00     0.039 A 
ATOM     32  C   UNL A   1      37.430  29.051  29.648  1.00  0.00     0.014 A 
ATOM     33  C   UNL A   1      38.140  29.815  27.467  1.00  0.00     0.014 A 
ATOM     34  C   UNL A   1      38.511  28.176  29.699  1.00  0.00     0.010 A 
ATOM     35  C   UNL A   1      39.269  29.031  27.562  1.00  0.00     0.010 A 
ATOM     36  C   UNL A   1      39.488  28.269  28.711  1.00  0.00    -0.014 A 
BRANCH  36  37
ATOM     37  C   UNL A   1      40.820  27.704  28.853  1.00  0.00     0.031 A 
ATOM     38  C   UNL A   1      41.077  26.304  28.474  1.00  0.00     0.074 A 
ATOM     39  C   UNL A   1      41.836  28.485  29.284  1.00  0.00     0.049 A 
ATOM     40  N   UNL A   1      41.969  25.557  29.032  1.00  0.00    -0.248 NA
ATOM     41  C   UNL A   1      40.293  25.614  27.457  1.00  0.00     0.031 C 
ATOM     42  C   UNL A   1      43.261  28.169  29.256  1.00  0.00     0.029 A 
ATOM     43  N   UNL A   1      41.764  29.653  30.044  1.00  0.00    -0.354 N 
ATOM     44  C   UNL A   1      42.093  24.431  28.251  1.00  0.00     0.074 A 
ATOM     45  C   UNL A   1      40.957  24.459  27.360  1.00  0.00     0.031 C 
ATOM     46  C   UNL A   1      43.881  28.909  30.189  1.00  0.00     0.029 A 
ATOM     47  C   UNL A   1      42.850  29.620  30.931  1.00  0.00     0.049 A 
ATOM     48  H   UNL A   1      41.084  30.362  29.972  1.00  0.00     0.167 HD
ATOM     49  C   UNL A   1      43.232  23.684  28.322  1.00  0.00     0.031 A 
ATOM     50  C   UNL A   1      42.726  29.640  32.289  1.00  0.00     0.031 A 
ATOM     51  C   UNL A   1      44.172  24.219  29.303  1.00  0.00     0.049 A 
ATOM     52  C   UNL A   1      43.374  28.446  32.952  1.00  0.00     0.074 A 
ATOM     53  C   UNL A   1      45.306  25.004  29.170  1.00  0.00     0.029 A 
ATOM     54  N   UNL A   1      43.844  24.221  30.652  1.00  0.00    -0.354 N 
ATOM     55  N   UNL A   1      43.651  27.338  32.325  1.00  0.00    -0.248 NA
ATOM     56  C   UNL A   1      43.701  28.377  34.375  1.00  0.00     0.031 C 
ATOM     57  C   UNL A   1      45.634  25.521  30.447  1.00  0.00     0.029 A 
ATOM     58  C   UNL A   1      44.713  25.031  31.356  1.00  0.00     0.049 A 
ATOM     59  H   UNL A   1      43.097  23.716  31.050  1.00  0.00     0.167 HD
ATOM     60  C   UNL A   1      44.189  26.435  33.204  1.00  0.00     0.074 A 
ATOM     61  C   UNL A   1      44.194  27.129  34.478  1.00  0.00     0.031 C 
ATOM     62  C   UNL A   1      44.580  25.193  32.796  1.00  0.00     0.031 A 
BRANCH  49  63
ATOM     63  C   UNL A   1      43.634  22.675  27.270  1.00  0.00    -0.014 A 
ATOM     64  C   UNL A   1      44.861  22.830  26.596  1.00  0.00     0.009 A 
ATOM     65  C   UNL A   1      42.843  21.590  26.857  1.00  0.00     0.009 A 
ATOM     66  C   UNL A   1      45.222  22.028  25.507  1.00  0.00     0.001 A 
ATOM     67  C   UNL A   1      43.178  20.805  25.744  1.00  0.00     0.001 A 
ATOM     68  C   UNL A   1      44.363  21.034  25.059  1.00  0.00     0.000 A 
ENDBRANCH  49  63
BRANCH  50  69
ATOM     69  C   UNL A   1      41.488  30.296  32.786  1.00  0.00    -0.014 A 
ATOM     70  C   UNL A   1      40.385  29.485  33.113  1.00  0.00     0.009 A 
ATOM     71  C   UNL A   1      41.530  31.608  33.282  1.00  0.00     0.009 A 
ATOM     72  C   UNL A   1      39.404  29.939  33.999  1.00  0.00     0.001 A 
ATOM     73  C   UNL A   1      40.545  32.057  34.169  1.00  0.00     0.001 A 
ATOM     74  C   UNL A   1      39.501  31.213  34.551  1.00  0.00     0.000 A 
ENDBRANCH  50  69
BRANCH  62  75
ATOM     75  C   UNL A   1      44.962  24.031  33.680  1.00  0.00    -0.014 A 
ATOM     76  C   UNL A   1      44.107  22.976  34.016  1.00  0.00     0.009 A 
ATOM     77  C   UNL A   1      46.311  23.909  34.094  1.00  0.00     0.009 A 
ATOM     78  C   UNL A   1      44.565  21.875  34.756  1.00  0.00     0.001 A 
ATOM     79  C   UNL A   1      46.781  22.795  34.791  1.00  0.00     0.001 A 
ATOM     80  C   UNL A   1      45.902  21.780  35.132  1.00  0.00     0.000 A 
ENDBRANCH  62  75
ENDBRANCH  36  37
ENDBRANCH  28  31
ENDBRANCH  26  27
ENDBRANCH  25  26
ENDBRANCH  24  25
ENDBRANCH  23  24
ENDBRANCH   1  23
TORSDOF 18
ENDMDL
MODEL 3
REMARK VINA RESULT:     -10.4      2.248      4.168
REMARK SMILES CCN(CC)C(=O)COc1cc(C)ccc1C(=O)NCCCCCCNC(=O)c1ccc(-c2c3nc(c(-c4ccccc4)c4ccc([nH]4)c(-c4ccccc4)c4nc(c(-c5ccccc5)c5ccc2[nH]5)C=C4)C=C3)cc1
REMARK SMILES IDX 21 1 20 2 19 3 17 4 18 5 16 7 10 8 11 9 12 10 15 11 13 12
REMARK SMILES IDX 14 13 9 14 8 15 6 16 3 17 7 18 2 19 1 20 4 21 5 22 22 23
REMARK SMILES IDX 23 24 24 25 25 26 26 27 27 28 28 30 29 31 30 32 76 33 31 34
REMARK SMILES IDX 75 35 32 36 33 37 34 38 69 39 35 40 74 41 68 42 70 43 36 44
REMARK SMILES IDX 73 45 67 46 66 47 37 49 59 50 44 51 58 52 45 53 48 54 57 55
REMARK SMILES IDX 71 56 46 57 47 58 56 60 72 61 49 62 38 63 39 64 43 65 40 66
REMARK SMILES IDX 42 67 41 68 60 69 61 70 65 71 62 72 64 73 63 74 50 75 51 76
REMARK SMILES IDX 55 77 52 78 54 79 53 80
REMARK H PARENT 19 6 26 29 70 48 48 59
REMARK Flexibility Score: inf
ROOT
ATOM      1  C   UNL A   1      31.784  28.152  27.267  1.00  0.00     0.021 C 
ENDROOT
BRANCH   1   2
ATOM      2  C   UNL A   1      31.896  27.020  26.238  1.00  0.00     0.116 C 
BRANCH   2   3
ATOM      3  N   UNL A   1      31.594  25.750  26.858  1.00  0.00    -0.352 N 
ATOM      4  C   UNL A   1      32.005  24.465  26.633  1.00  0.00     0.255 C 
ATOM      5  O   UNL A   1      31.481  23.613  27.362  1.00  0.00    -0.269 OA
ATOM      6  H   UNL A   1      30.955  25.827  27.603  1.00  0.00     0.163 HD
BRANCH   4   7
ATOM      7  C   UNL A   1      33.055  24.008  25.666  1.00  0.00     0.081 A 
ATOM      8  C   UNL A   1      32.901  23.255  24.488  1.00  0.00     0.133 A 
ATOM      9  C   UNL A   1      34.049  22.880  23.762  1.00  0.00     0.050 A 
ATOM     10  C   UNL A   1      35.343  23.202  24.189  1.00  0.00    -0.047 A 
ATOM     11  C   UNL A   1      34.372  24.303  26.097  1.00  0.00     0.018 A 
ATOM     12  C   UNL A   1      36.544  22.756  23.408  1.00  0.00     0.044 C 
ATOM     13  C   UNL A   1      35.498  23.903  25.378  1.00  0.00     0.004 A 
BRANCH   8  14
ATOM     14  O   UNL A   1      31.648  22.946  24.041  1.00  0.00    -0.483 OA
BRANCH  14  15
ATOM     15  C   UNL A   1      31.055  23.737  23.028  1.00  0.00     0.329 C 
BRANCH  15  16
ATOM     16  C   UNL A   1      30.777  25.249  23.185  1.00  0.00     0.260 C 
ATOM     17  N   UNL A   1      31.576  26.187  22.539  1.00  0.00    -0.340 N 
ATOM     18  O   UNL A   1      29.832  25.603  23.900  1.00  0.00    -0.271 OA
BRANCH  17  19
ATOM     19  C   UNL A   1      31.163  27.590  22.613  1.00  0.00     0.116 C 
ATOM     20  C   UNL A   1      32.359  28.508  22.830  1.00  0.00     0.027 C 
ENDBRANCH  17  19
BRANCH  17  21
ATOM     21  C   UNL A   1      32.793  25.895  21.784  1.00  0.00     0.116 C 
ATOM     22  C   UNL A   1      32.492  25.602  20.323  1.00  0.00     0.027 C 
ENDBRANCH  17  21
ENDBRANCH  15  16
ENDBRANCH  14  15
ENDBRANCH   8  14
ENDBRANCH   4   7
ENDBRANCH   2   3
ENDBRANCH   1   2
BRANCH   1  23
ATOM     23  C   UNL A   1      31.455  29.531  26.676  1.00  0.00     0.002 C 
BRANCH  23  24
ATOM     24  C   UNL A   1      32.517  30.627  26.873  1.00  0.00     0.002 C 
BRANCH  24  25
ATOM     25  C   UNL A   1      33.964  30.144  26.998  1.00  0.00     0.021 C 
BRANCH  25  26
ATOM     26  C   UNL A   1      34.862  31.083  27.792  1.00  0.00     0.116 C 
BRANCH  26  27
ATOM     27  N   UNL A   1      34.169  32.249  28.325  1.00  0.00    -0.352 N 
ATOM     28  C   UNL A   1      34.517  33.112  29.349  1.00  0.00     0.251 C 
ATOM     29  H   UNL A   1      33.313  32.456  27.884  1.00  0.00     0.163 HD
ATOM     30  O   UNL A   1      33.741  33.988  29.689  1.00  0.00    -0.269 OA
BRANCH  28  31
ATOM     31  C   UNL A   1      35.887  33.074  29.927  1.00  0.00     0.039 A 
ATOM     32  C   UNL A   1      36.911  33.689  29.193  1.00  0.00     0.014 A 
ATOM     33  C   UNL A   1      36.203  32.281  31.026  1.00  0.00     0.014 A 
ATOM     34  C   UNL A   1      38.230  33.291  29.390  1.00  0.00     0.010 A 
ATOM     35  C   UNL A   1      37.488  31.802  31.151  1.00  0.00     0.010 A 
ATOM     36  C   UNL A   1      38.484  32.254  30.284  1.00  0.00    -0.014 A 
BRANCH  36  37
ATOM     37  C   UNL A   1      39.726  31.498  30.295  1.00  0.00     0.031 A 
ATOM     38  C   UNL A   1      39.822  30.216  29.579  1.00  0.00     0.074 A 
ATOM     39  C   UNL A   1      40.811  32.005  30.923  1.00  0.00     0.049 A 
ATOM     40  N   UNL A   1      40.587  29.241  29.942  1.00  0.00    -0.248 NA
ATOM     41  C   UNL A   1      39.005  29.911  28.410  1.00  0.00     0.031 C 
ATOM     42  C   UNL A   1      42.185  31.520  30.834  1.00  0.00     0.029 A 
ATOM     43  N   UNL A   1      40.852  32.947  31.952  1.00  0.00    -0.354 N 
ATOM     44  C   UNL A   1      40.604  28.338  28.903  1.00  0.00     0.074 A 
ATOM     45  C   UNL A   1      39.522  28.738  28.033  1.00  0.00     0.031 C 
ATOM     46  C   UNL A   1      42.850  31.915  31.931  1.00  0.00     0.029 A 
ATOM     47  C   UNL A   1      41.883  32.550  32.815  1.00  0.00     0.049 A 
ATOM     48  H   UNL A   1      40.270  33.736  32.052  1.00  0.00     0.167 HD
ATOM     49  C   UNL A   1      41.636  27.453  28.797  1.00  0.00     0.031 A 
ATOM     50  C   UNL A   1      41.701  32.249  34.133  1.00  0.00     0.031 A 
ATOM     51  C   UNL A   1      42.589  27.597  29.894  1.00  0.00     0.049 A 
ATOM     52  C   UNL A   1      42.162  30.852  34.481  1.00  0.00     0.074 A 
ATOM     53  C   UNL A   1      43.818  28.232  29.978  1.00  0.00     0.029 A 
ATOM     54  N   UNL A   1      42.203  27.307  31.195  1.00  0.00    -0.354 N 
ATOM     55  N   UNL A   1      42.326  29.908  33.599  1.00  0.00    -0.248 NA
ATOM     56  C   UNL A   1      42.413  30.389  35.844  1.00  0.00     0.031 C 
ATOM     57  C   UNL A   1      44.150  28.367  31.348  1.00  0.00     0.029 A 
ATOM     58  C   UNL A   1      43.133  27.794  32.092  1.00  0.00     0.049 A 
ATOM     59  H   UNL A   1      41.381  26.823  31.444  1.00  0.00     0.167 HD
ATOM     60  C   UNL A   1      42.707  28.751  34.227  1.00  0.00     0.074 A 
ATOM     61  C   UNL A   1      42.740  29.100  35.635  1.00  0.00     0.031 C 
ATOM     62  C   UNL A   1      42.956  27.609  33.525  1.00  0.00     0.031 A 
BRANCH  49  63
ATOM     63  C   UNL A   1      41.956  26.693  27.530  1.00  0.00    -0.014 A 
ATOM     64  C   UNL A   1      41.662  25.317  27.456  1.00  0.00     0.009 A 
ATOM     65  C   UNL A   1      42.587  27.244  26.403  1.00  0.00     0.009 A 
ATOM     66  C   UNL A   1      42.074  24.522  26.379  1.00  0.00     0.001 A 
ATOM     67  C   UNL A   1      43.036  26.450  25.338  1.00  0.00     0.001 A 
ATOM     68  C   UNL A   1      42.791  25.084  25.333  1.00  0.00     0.000 A 
ENDBRANCH  49  63
BRANCH  50  69
ATOM     69  C   UNL A   1      40.534  32.918  34.764  1.00  0.00    -0.014 A 
ATOM     70  C   UNL A   1      40.513  34.325  34.811  1.00  0.00     0.009 A 
ATOM     71  C   UNL A   1      39.331  32.220  34.951  1.00  0.00     0.009 A 
ATOM     72  C   UNL A   1      39.304  35.016  34.937  1.00  0.00     0.001 A 
ATOM     73  C   UNL A   1      38.124  32.918  35.077  1.00  0.00     0.001 A 
ATOM     74  C   UNL A   1      38.108  34.312  35.038  1.00  0.00     0.000 A 
ENDBRANCH  50  69
BRANCH  62  75
ATOM     75  C   UNL A   1      43.149  26.224  34.091  1.00  0.00    -0.014 A 
ATOM     76  C   UNL A   1      42.257  25.594  34.967  1.00  0.00     0.009 A 
ATOM     77  C   UNL A   1      44.224  25.437  33.610  1.00  0.00     0.009 A 
ATOM     78  C   UNL A   1      42.449  24.263  35.369  1.00  0.00     0.001 A 
ATOM     79  C   UNL A   1      44.393  24.100  33.971  1.00  0.00     0.001 A 
ATOM     80  C   UNL A   1      43.508  23.515  34.862  1.00  0.00     0.000 A 
ENDBRANCH  62  75
ENDBRANCH  36  37
ENDBRANCH  28  31
ENDBRANCH  26  27
ENDBRANCH  25  26
ENDBRANCH  24  25
ENDBRANCH  23  24
ENDBRANCH   1  23
TORSDOF 18
ENDMDL
