MODEL 1
REMARK VINA RESULT:      -9.3      0.000      0.000
REMARK SMILES O=C(COc1ccc(N2C[C@@H](C(=O)NCCCCCCNC(=O)c3ccc(-c4c5nc(c(-c6ccccc6)c6ccc([nH]6)c(-c6ccccc6)c6nc(c(-c7ccccc7)c7ccc4[nH]7)C=C6)C=C5)cc3)CC2=O)cc1)Nc1ccc(Cl)cc1Cl
REMARK SMILES IDX 16 1 15 2 14 3 12 4 13 5 11 7 9 8 10 9 73 10 72 11 74 12
REMARK SMILES IDX 8 13 5 14 6 15 76 16 7 17 75 18 4 19 3 20 2 21 1 22 77 23
REMARK SMILES IDX 78 25 79 26 84 27 80 28 83 29 85 30 81 31 82 32 17 33 18 34
REMARK SMILES IDX 19 35 20 36 21 37 22 38 23 40 24 41 25 42 71 43 26 44 70 45
REMARK SMILES IDX 27 46 28 47 29 48 64 49 30 50 69 51 63 52 65 53 31 54 68 55
REMARK SMILES IDX 62 56 61 57 32 59 54 60 39 61 53 62 40 63 43 64 52 65 66 66
REMARK SMILES IDX 41 67 42 68 51 70 67 71 44 72 33 73 34 74 38 75 35 76 37 77
REMARK SMILES IDX 36 78 55 79 56 80 60 81 57 82 59 83 58 84 45 85 46 86 50 87
REMARK SMILES IDX 47 88 49 89 48 90
REMARK H PARENT 14 6 77 24 21 39 65 58 43 69
REMARK Flexibility Score: inf
ROOT
ATOM      1  C   UNL A   1      37.713  33.082  32.777  1.00  0.00     0.021 C 
ENDROOT
BRANCH   1   2
ATOM      2  C   UNL A   1      38.626  32.150  33.574  1.00  0.00     0.116 C 
BRANCH   2   3
ATOM      3  N   UNL A   1      38.185  30.769  33.474  1.00  0.00    -0.356 N 
ATOM      4  C   UNL A   1      38.851  29.590  33.544  1.00  0.00     0.225 C 
ATOM      5  O   UNL A   1      38.194  28.559  33.380  1.00  0.00    -0.275 OA
ATOM      6  H   UNL A   1      37.216  30.671  33.328  1.00  0.00     0.163 HD
BRANCH   4   7
ATOM      7  C   UNL A   1      40.330  29.493  33.853  1.00  0.00     0.107 C 
ATOM      8  N   UNL A   1      41.677  27.715  34.604  1.00  0.00    -0.312 N 
ATOM      9  C   UNL A   1      40.911  28.144  33.465  1.00  0.00     0.139 C 
ATOM     10  C   UNL A   1      41.559  28.572  35.694  1.00  0.00     0.227 C 
ATOM     11  C   UNL A   1      40.700  29.742  35.307  1.00  0.00     0.116 C 
ATOM     12  O   UNL A   1      42.061  28.456  36.806  1.00  0.00    -0.274 OA
BRANCH   8  13
ATOM     13  C   UNL A   1      42.344  26.471  34.634  1.00  0.00     0.044 A 
ATOM     14  C   UNL A   1      43.677  23.998  34.823  1.00  0.00     0.120 A 
ATOM     15  C   UNL A   1      44.234  25.040  34.083  1.00  0.00     0.048 A 
ATOM     16  C   UNL A   1      42.449  24.191  35.448  1.00  0.00     0.048 A 
ATOM     17  C   UNL A   1      43.553  26.263  33.957  1.00  0.00     0.030 A 
ATOM     18  C   UNL A   1      41.799  25.420  35.367  1.00  0.00     0.030 A 
BRANCH  14  19
ATOM     19  O   UNL A   1      44.442  22.883  35.047  1.00  0.00    -0.484 OA
BRANCH  19  20
ATOM     20  C   UNL A   1      45.102  22.856  36.312  1.00  0.00     0.329 C 
BRANCH  20  21
ATOM     21  C   UNL A   1      46.584  22.461  36.305  1.00  0.00     0.262 C 
ATOM     22  O   UNL A   1      47.451  23.269  36.627  1.00  0.00    -0.271 OA
ATOM     23  N   UNL A   1      46.799  21.183  35.797  1.00  0.00    -0.322 N 
ATOM     24  H   UNL A   1      46.014  20.608  35.649  1.00  0.00     0.170 HD
BRANCH  23  25
ATOM     25  C   UNL A   1      48.075  20.659  35.476  1.00  0.00     0.060 A 
ATOM     26  C   UNL A   1      48.357  20.544  34.104  1.00  0.00     0.029 A 
ATOM     27  C   UNL A   1      49.071  20.297  36.402  1.00  0.00     0.066 A 
ATOM     28  C   UNL A   1      49.633  20.177  33.665  1.00  0.00     0.023 A 
ATOM     29  C   UNL A   1      50.349  19.935  35.959  1.00  0.00     0.043 A 
ATOM     30  Cl  UNL A   1      48.762  20.086  38.092  1.00  0.00    -0.082 Cl
ATOM     31  C   UNL A   1      50.628  19.894  34.596  1.00  0.00     0.042 A 
ATOM     32  Cl  UNL A   1      52.204  19.466  34.056  1.00  0.00    -0.084 Cl
ENDBRANCH  23  25
ENDBRANCH  20  21
ENDBRANCH  19  20
ENDBRANCH  14  19
ENDBRANCH   8  13
ENDBRANCH   4   7
ENDBRANCH   2   3
ENDBRANCH   1   2
BRANCH   1  33
ATOM     33  C   UNL A   1      36.933  32.391  31.649  1.00  0.00     0.002 C 
BRANCH  33  34
ATOM     34  C   UNL A   1      35.412  32.374  31.824  1.00  0.00     0.002 C 
BRANCH  34  35
ATOM     35  C   UNL A   1      34.633  33.196  30.797  1.00  0.00     0.021 C 
BRANCH  35  36
ATOM     36  C   UNL A   1      35.031  32.939  29.348  1.00  0.00     0.116 C 
BRANCH  36  37
ATOM     37  N   UNL A   1      34.147  31.984  28.694  1.00  0.00    -0.352 N 
ATOM     38  C   UNL A   1      34.453  30.767  28.137  1.00  0.00     0.251 C 
ATOM     39  H   UNL A   1      33.201  32.249  28.644  1.00  0.00     0.163 HD
ATOM     40  O   UNL A   1      33.628  30.166  27.459  1.00  0.00    -0.269 OA
BRANCH  38  41
ATOM     41  C   UNL A   1      35.799  30.194  28.343  1.00  0.00     0.039 A 
ATOM     42  C   UNL A   1      36.765  30.348  27.347  1.00  0.00     0.014 A 
ATOM     43  C   UNL A   1      36.110  29.528  29.533  1.00  0.00     0.014 A 
ATOM     44  C   UNL A   1      38.068  29.897  27.573  1.00  0.00     0.010 A 
ATOM     45  C   UNL A   1      37.422  29.147  29.785  1.00  0.00     0.010 A 
ATOM     46  C   UNL A   1      38.416  29.329  28.809  1.00  0.00    -0.014 A 
BRANCH  46  47
ATOM     47  C   UNL A   1      39.810  28.924  29.117  1.00  0.00     0.031 A 
ATOM     48  C   UNL A   1      40.309  27.569  28.694  1.00  0.00     0.074 A 
ATOM     49  C   UNL A   1      40.593  29.731  29.861  1.00  0.00     0.049 A 
ATOM     50  N   UNL A   1      41.443  26.981  28.978  1.00  0.00    -0.248 NA
ATOM     51  C   UNL A   1      39.401  26.757  27.868  1.00  0.00     0.031 C 
ATOM     52  C   UNL A   1      40.217  31.054  30.363  1.00  0.00     0.029 A 
ATOM     53  N   UNL A   1      41.865  29.543  30.346  1.00  0.00    -0.354 N 
ATOM     54  C   UNL A   1      41.372  25.723  28.393  1.00  0.00     0.074 A 
ATOM     55  C   UNL A   1      40.072  25.618  27.768  1.00  0.00     0.031 C 
ATOM     56  C   UNL A   1      41.235  31.561  31.077  1.00  0.00     0.029 A 
ATOM     57  C   UNL A   1      42.316  30.582  31.127  1.00  0.00     0.049 A 
ATOM     58  H   UNL A   1      42.403  28.743  30.152  1.00  0.00     0.167 HD
ATOM     59  C   UNL A   1      42.309  24.747  28.371  1.00  0.00     0.031 A 
ATOM     60  C   UNL A   1      43.458  30.719  31.827  1.00  0.00     0.031 A 
ATOM     61  C   UNL A   1      43.609  24.863  28.977  1.00  0.00     0.049 A 
ATOM     62  C   UNL A   1      44.476  29.610  31.797  1.00  0.00     0.074 A 
ATOM     63  C   UNL A   1      44.656  23.958  28.940  1.00  0.00     0.029 A 
ATOM     64  N   UNL A   1      44.035  25.941  29.735  1.00  0.00    -0.354 N 
ATOM     65  N   UNL A   1      44.428  28.463  31.166  1.00  0.00    -0.248 NA
ATOM     66  C   UNL A   1      45.710  29.821  32.569  1.00  0.00     0.031 C 
ATOM     67  C   UNL A   1      45.691  24.459  29.733  1.00  0.00     0.029 A 
ATOM     68  C   UNL A   1      45.317  25.708  30.203  1.00  0.00     0.049 A 
ATOM     69  H   UNL A   1      43.506  26.752  29.915  1.00  0.00     0.167 HD
ATOM     70  C   UNL A   1      45.636  27.830  31.438  1.00  0.00     0.074 A 
ATOM     71  C   UNL A   1      46.400  28.728  32.279  1.00  0.00     0.031 C 
ATOM     72  C   UNL A   1      46.071  26.615  31.027  1.00  0.00     0.031 A 
BRANCH  59  73
ATOM     73  C   UNL A   1      41.964  23.455  27.687  1.00  0.00    -0.014 A 
ATOM     74  C   UNL A   1      42.326  23.212  26.352  1.00  0.00     0.009 A 
ATOM     75  C   UNL A   1      41.325  22.436  28.412  1.00  0.00     0.009 A 
ATOM     76  C   UNL A   1      42.029  21.985  25.752  1.00  0.00     0.001 A 
ATOM     77  C   UNL A   1      41.058  21.201  27.819  1.00  0.00     0.001 A 
ATOM     78  C   UNL A   1      41.404  20.980  26.487  1.00  0.00     0.000 A 
ENDBRANCH  59  73
BRANCH  60  79
ATOM     79  C   UNL A   1      43.702  31.945  32.634  1.00  0.00    -0.014 A 
ATOM     80  C   UNL A   1      44.356  33.053  32.074  1.00  0.00     0.009 A 
ATOM     81  C   UNL A   1      43.311  32.001  33.981  1.00  0.00     0.009 A 
ATOM     82  C   UNL A   1      44.647  34.175  32.855  1.00  0.00     0.001 A 
ATOM     83  C   UNL A   1      43.572  33.137  34.751  1.00  0.00     0.001 A 
ATOM     84  C   UNL A   1      44.252  34.217  34.191  1.00  0.00     0.000 A 
ENDBRANCH  60  79
BRANCH  72  85
ATOM     85  C   UNL A   1      47.457  26.197  31.432  1.00  0.00    -0.014 A 
ATOM     86  C   UNL A   1      48.570  26.465  30.621  1.00  0.00     0.009 A 
ATOM     87  C   UNL A   1      47.656  25.590  32.682  1.00  0.00     0.009 A 
ATOM     88  C   UNL A   1      49.853  26.110  31.046  1.00  0.00     0.001 A 
ATOM     89  C   UNL A   1      48.941  25.266  33.118  1.00  0.00     0.001 A 
ATOM     90  C   UNL A   1      50.037  25.520  32.296  1.00  0.00     0.000 A 
ENDBRANCH  72  85
ENDBRANCH  46  47
ENDBRANCH  38  41
ENDBRANCH  36  37
ENDBRANCH  35  36
ENDBRANCH  34  35
ENDBRANCH  33  34
ENDBRANCH   1  33
TORSDOF 18
ENDMDL
MODEL 2
REMARK VINA RESULT:      -9.1      0.946      5.682
REMARK SMILES O=C(COc1ccc(N2C[C@@H](C(=O)NCCCCCCNC(=O)c3ccc(-c4c5nc(c(-c6ccccc6)c6ccc([nH]6)c(-c6ccccc6)c6nc(c(-c7ccccc7)c7ccc4[nH]7)C=C6)C=C5)cc3)CC2=O)cc1)Nc1ccc(Cl)cc1Cl
REMARK SMILES IDX 16 1 15 2 14 3 12 4 13 5 11 7 9 8 10 9 73 10 72 11 74 12
REMARK SMILES IDX 8 13 5 14 6 15 76 16 7 17 75 18 4 19 3 20 2 21 1 22 77 23
REMARK SMILES IDX 78 25 79 26 84 27 80 28 83 29 85 30 81 31 82 32 17 33 18 34
REMARK SMILES IDX 19 35 20 36 21 37 22 38 23 40 24 41 25 42 71 43 26 44 70 45
REMARK SMILES IDX 27 46 28 47 29 48 64 49 30 50 69 51 63 52 65 53 31 54 68 55
REMARK SMILES IDX 62 56 61 57 32 59 54 60 39 61 53 62 40 63 43 64 52 65 66 66
REMARK SMILES IDX 41 67 42 68 51 70 67 71 44 72 33 73 34 74 38 75 35 76 37 77
REMARK SMILES IDX 36 78 55 79 56 80 60 81 57 82 59 83 58 84 45 85 46 86 50 87
REMARK SMILES IDX 47 88 49 89 48 90
REMARK H PARENT 14 6 77 24 21 39 65 58 43 69
REMARK Flexibility Score: inf
ROOT
ATOM      1  C   UNL A   1      37.407  33.046  31.483  1.00  0.00     0.021 C 
ENDROOT
BRANCH   1   2
ATOM      2  C   UNL A   1      38.415  32.263  32.326  1.00  0.00     0.116 C 
BRANCH   2   3
ATOM      3  N   UNL A   1      37.865  30.986  32.748  1.00  0.00    -0.356 N 
ATOM      4  C   UNL A   1      38.445  29.852  33.215  1.00  0.00     0.225 C 
ATOM      5  O   UNL A   1      37.704  28.897  33.458  1.00  0.00    -0.275 OA
ATOM      6  H   UNL A   1      36.884  30.933  32.684  1.00  0.00     0.163 HD
BRANCH   4   7
ATOM      7  C   UNL A   1      39.931  29.732  33.482  1.00  0.00     0.107 C 
ATOM      8  N   UNL A   1      41.224  28.058  34.513  1.00  0.00    -0.312 N 
ATOM      9  C   UNL A   1      40.427  28.304  33.342  1.00  0.00     0.139 C 
ATOM     10  C   UNL A   1      41.199  29.113  35.421  1.00  0.00     0.227 C 
ATOM     11  C   UNL A   1      40.380  30.234  34.846  1.00  0.00     0.116 C 
ATOM     12  O   UNL A   1      41.745  29.184  36.515  1.00  0.00    -0.274 OA
BRANCH   8  13
ATOM     13  C   UNL A   1      41.831  26.808  34.759  1.00  0.00     0.044 A 
ATOM     14  C   UNL A   1      43.056  24.298  35.123  1.00  0.00     0.120 A 
ATOM     15  C   UNL A   1      41.786  24.541  35.644  1.00  0.00     0.048 A 
ATOM     16  C   UNL A   1      43.715  25.316  34.441  1.00  0.00     0.048 A 
ATOM     17  C   UNL A   1      41.188  25.804  35.495  1.00  0.00     0.030 A 
ATOM     18  C   UNL A   1      43.102  26.551  34.247  1.00  0.00     0.030 A 
BRANCH  14  19
ATOM     19  O   UNL A   1      43.533  23.014  35.155  1.00  0.00    -0.484 OA
BRANCH  19  20
ATOM     20  C   UNL A   1      44.411  22.675  34.082  1.00  0.00     0.329 C 
BRANCH  20  21
ATOM     21  C   UNL A   1      45.891  22.486  34.439  1.00  0.00     0.262 C 
ATOM     22  O   UNL A   1      46.675  23.429  34.383  1.00  0.00    -0.271 OA
ATOM     23  N   UNL A   1      46.218  21.159  34.696  1.00  0.00    -0.322 N 
ATOM     24  H   UNL A   1      45.482  20.512  34.788  1.00  0.00     0.170 HD
BRANCH  23  25
ATOM     25  C   UNL A   1      47.543  20.678  34.833  1.00  0.00     0.060 A 
ATOM     26  C   UNL A   1      48.133  20.182  33.658  1.00  0.00     0.029 A 
ATOM     27  C   UNL A   1      48.308  20.702  36.015  1.00  0.00     0.066 A 
ATOM     28  C   UNL A   1      49.483  19.816  33.637  1.00  0.00     0.023 A 
ATOM     29  C   UNL A   1      49.660  20.338  35.988  1.00  0.00     0.043 A 
ATOM     30  Cl  UNL A   1      47.624  20.980  37.580  1.00  0.00    -0.082 Cl
ATOM     31  C   UNL A   1      50.244  19.915  34.798  1.00  0.00     0.042 A 
ATOM     32  Cl  UNL A   1      51.909  19.486  34.765  1.00  0.00    -0.084 Cl
ENDBRANCH  23  25
ENDBRANCH  20  21
ENDBRANCH  19  20
ENDBRANCH  14  19
ENDBRANCH   8  13
ENDBRANCH   4   7
ENDBRANCH   2   3
ENDBRANCH   1   2
BRANCH   1  33
ATOM     33  C   UNL A   1      37.494  32.772  29.976  1.00  0.00     0.002 C 
BRANCH  33  34
ATOM     34  C   UNL A   1      36.796  33.803  29.084  1.00  0.00     0.002 C 
BRANCH  34  35
ATOM     35  C   UNL A   1      35.595  33.273  28.301  1.00  0.00     0.021 C 
BRANCH  35  36
ATOM     36  C   UNL A   1      34.640  32.407  29.116  1.00  0.00     0.116 C 
BRANCH  36  37
ATOM     37  N   UNL A   1      34.065  31.327  28.327  1.00  0.00    -0.352 N 
ATOM     38  C   UNL A   1      34.682  30.217  27.805  1.00  0.00     0.251 C 
ATOM     39  H   UNL A   1      33.102  31.404  28.142  1.00  0.00     0.163 HD
ATOM     40  O   UNL A   1      34.097  29.495  27.006  1.00  0.00    -0.269 OA
BRANCH  38  41
ATOM     41  C   UNL A   1      36.072  29.908  28.199  1.00  0.00     0.039 A 
ATOM     42  C   UNL A   1      36.321  29.400  29.476  1.00  0.00     0.014 A 
ATOM     43  C   UNL A   1      37.122  30.098  27.296  1.00  0.00     0.014 A 
ATOM     44  C   UNL A   1      37.618  29.013  29.823  1.00  0.00     0.010 A 
ATOM     45  C   UNL A   1      38.397  29.645  27.617  1.00  0.00     0.010 A 
ATOM     46  C   UNL A   1      38.657  29.095  28.883  1.00  0.00    -0.014 A 
BRANCH  46  47
ATOM     47  C   UNL A   1      40.026  28.607  29.188  1.00  0.00     0.031 A 
ATOM     48  C   UNL A   1      41.039  29.542  29.793  1.00  0.00     0.074 A 
ATOM     49  C   UNL A   1      40.387  27.359  28.831  1.00  0.00     0.049 A 
ATOM     50  N   UNL A   1      42.313  29.346  30.013  1.00  0.00    -0.248 NA
ATOM     51  C   UNL A   1      40.560  30.881  30.173  1.00  0.00     0.031 C 
ATOM     52  C   UNL A   1      39.510  26.366  28.206  1.00  0.00     0.029 A 
ATOM     53  N   UNL A   1      41.599  26.717  28.922  1.00  0.00    -0.354 N 
ATOM     54  C   UNL A   1      42.795  30.544  30.526  1.00  0.00     0.074 A 
ATOM     55  C   UNL A   1      41.685  31.471  30.554  1.00  0.00     0.031 C 
ATOM     56  C   UNL A   1      40.208  25.242  27.976  1.00  0.00     0.029 A 
ATOM     57  C   UNL A   1      41.592  25.449  28.390  1.00  0.00     0.049 A 
ATOM     58  H   UNL A   1      42.395  27.127  29.329  1.00  0.00     0.167 HD
ATOM     59  C   UNL A   1      44.047  30.842  30.946  1.00  0.00     0.031 A 
ATOM     60  C   UNL A   1      42.593  24.562  28.229  1.00  0.00     0.031 A 
ATOM     61  C   UNL A   1      45.143  29.912  30.935  1.00  0.00     0.049 A 
ATOM     62  C   UNL A   1      43.979  24.927  28.690  1.00  0.00     0.074 A 
ATOM     63  C   UNL A   1      46.430  30.096  31.413  1.00  0.00     0.029 A 
ATOM     64  N   UNL A   1      45.088  28.629  30.414  1.00  0.00    -0.354 N 
ATOM     65  N   UNL A   1      44.397  26.033  29.254  1.00  0.00    -0.248 NA
ATOM     66  C   UNL A   1      45.030  23.915  28.500  1.00  0.00     0.031 C 
ATOM     67  C   UNL A   1      47.171  28.950  31.119  1.00  0.00     0.029 A 
ATOM     68  C   UNL A   1      46.328  28.024  30.525  1.00  0.00     0.049 A 
ATOM     69  H   UNL A   1      44.287  28.211  30.023  1.00  0.00     0.167 HD
ATOM     70  C   UNL A   1      45.748  25.839  29.516  1.00  0.00     0.074 A 
ATOM     71  C   UNL A   1      46.076  24.503  29.062  1.00  0.00     0.031 C 
ATOM     72  C   UNL A   1      46.637  26.690  30.082  1.00  0.00     0.031 A 
BRANCH  59  73
ATOM     73  C   UNL A   1      44.311  32.238  31.436  1.00  0.00    -0.014 A 
ATOM     74  C   UNL A   1      44.707  33.260  30.559  1.00  0.00     0.009 A 
ATOM     75  C   UNL A   1      44.093  32.550  32.787  1.00  0.00     0.009 A 
ATOM     76  C   UNL A   1      44.906  34.559  31.033  1.00  0.00     0.001 A 
ATOM     77  C   UNL A   1      44.263  33.855  33.252  1.00  0.00     0.001 A 
ATOM     78  C   UNL A   1      44.677  34.857  32.376  1.00  0.00     0.000 A 
ENDBRANCH  59  73
BRANCH  60  79
ATOM     79  C   UNL A   1      42.334  23.246  27.585  1.00  0.00    -0.014 A 
ATOM     80  C   UNL A   1      42.820  22.971  26.298  1.00  0.00     0.009 A 
ATOM     81  C   UNL A   1      41.571  22.269  28.243  1.00  0.00     0.009 A 
ATOM     82  C   UNL A   1      42.515  21.761  25.668  1.00  0.00     0.001 A 
ATOM     83  C   UNL A   1      41.296  21.047  27.626  1.00  0.00     0.001 A 
ATOM     84  C   UNL A   1      41.756  20.800  26.333  1.00  0.00     0.000 A 
ENDBRANCH  60  79
BRANCH  72  85
ATOM     85  C   UNL A   1      48.039  26.194  30.295  1.00  0.00    -0.014 A 
ATOM     86  C   UNL A   1      48.459  25.693  31.536  1.00  0.00     0.009 A 
ATOM     87  C   UNL A   1      48.931  26.162  29.211  1.00  0.00     0.009 A 
ATOM     88  C   UNL A   1      49.754  25.192  31.692  1.00  0.00     0.001 A 
ATOM     89  C   UNL A   1      50.213  25.632  29.361  1.00  0.00     0.001 A 
ATOM     90  C   UNL A   1      50.625  25.154  30.604  1.00  0.00     0.000 A 
ENDBRANCH  72  85
ENDBRANCH  46  47
ENDBRANCH  38  41
ENDBRANCH  36  37
ENDBRANCH  35  36
ENDBRANCH  34  35
ENDBRANCH  33  34
ENDBRANCH   1  33
TORSDOF 18
ENDMDL
MODEL 3
REMARK VINA RESULT:      -8.6      7.183     12.985
REMARK SMILES O=C(COc1ccc(N2C[C@@H](C(=O)NCCCCCCNC(=O)c3ccc(-c4c5nc(c(-c6ccccc6)c6ccc([nH]6)c(-c6ccccc6)c6nc(c(-c7ccccc7)c7ccc4[nH]7)C=C6)C=C5)cc3)CC2=O)cc1)Nc1ccc(Cl)cc1Cl
REMARK SMILES IDX 16 1 15 2 14 3 12 4 13 5 11 7 9 8 10 9 73 10 72 11 74 12
REMARK SMILES IDX 8 13 5 14 6 15 76 16 7 17 75 18 4 19 3 20 2 21 1 22 77 23
REMARK SMILES IDX 78 25 79 26 84 27 80 28 83 29 85 30 81 31 82 32 17 33 18 34
REMARK SMILES IDX 19 35 20 36 21 37 22 38 23 40 24 41 25 42 71 43 26 44 70 45
REMARK SMILES IDX 27 46 28 47 29 48 64 49 30 50 69 51 63 52 65 53 31 54 68 55
REMARK SMILES IDX 62 56 61 57 32 59 54 60 39 61 53 62 40 63 43 64 52 65 66 66
REMARK SMILES IDX 41 67 42 68 51 70 67 71 44 72 33 73 34 74 38 75 35 76 37 77
REMARK SMILES IDX 36 78 55 79 56 80 60 81 57 82 59 83 58 84 45 85 46 86 50 87
REMARK SMILES IDX 47 88 49 89 48 90
REMARK H PARENT 14 6 77 24 21 39 65 58 43 69
REMARK Flexibility Score: inf
ROOT
ATOM      1  C   UNL A   1      37.131  22.101  24.990  1.00  0.00     0.021 C 
ENDROOT
BRANCH   1   2
ATOM      2  C   UNL A   1      36.030  21.339  25.730  1.00  0.00     0.116 C 
BRANCH   2   3
ATOM      3  N   UNL A   1      35.835  20.016  25.163  1.00  0.00    -0.356 N 
ATOM      4  C   UNL A   1      34.719  19.326  24.818  1.00  0.00     0.225 C 
ATOM      5  O   UNL A   1      34.874  18.181  24.388  1.00  0.00    -0.275 OA
ATOM      6  H   UNL A   1      36.673  19.526  24.997  1.00  0.00     0.163 HD
BRANCH   4   7
ATOM      7  C   UNL A   1      33.326  19.913  24.899  1.00  0.00     0.107 C 
ATOM      8  N   UNL A   1      32.500  22.088  24.538  1.00  0.00    -0.312 N 
ATOM      9  C   UNL A   1      33.086  20.975  23.841  1.00  0.00     0.139 C 
ATOM     10  C   UNL A   1      32.444  21.897  25.917  1.00  0.00     0.227 C 
ATOM     11  C   UNL A   1      32.965  20.526  26.243  1.00  0.00     0.116 C 
ATOM     12  O   UNL A   1      32.034  22.673  26.772  1.00  0.00    -0.274 OA
BRANCH   8  13
ATOM     13  C   UNL A   1      32.168  23.294  23.885  1.00  0.00     0.044 A 
ATOM     14  C   UNL A   1      31.402  25.641  22.531  1.00  0.00     0.120 A 
ATOM     15  C   UNL A   1      32.658  25.081  22.307  1.00  0.00     0.048 A 
ATOM     16  C   UNL A   1      30.543  25.037  23.444  1.00  0.00     0.048 A 
ATOM     17  C   UNL A   1      33.057  23.930  23.009  1.00  0.00     0.030 A 
ATOM     18  C   UNL A   1      30.916  23.867  24.100  1.00  0.00     0.030 A 
BRANCH  14  19
ATOM     19  O   UNL A   1      30.997  26.667  21.717  1.00  0.00    -0.484 OA
BRANCH  19  20
ATOM     20  C   UNL A   1      30.430  27.784  22.400  1.00  0.00     0.329 C 
BRANCH  20  21
ATOM     21  C   UNL A   1      31.411  28.719  23.120  1.00  0.00     0.262 C 
ATOM     22  O   UNL A   1      32.356  29.222  22.518  1.00  0.00    -0.271 OA
ATOM     23  N   UNL A   1      31.166  28.808  24.487  1.00  0.00    -0.322 N 
ATOM     24  H   UNL A   1      30.330  28.420  24.831  1.00  0.00     0.170 HD
BRANCH  23  25
ATOM     25  C   UNL A   1      32.045  29.421  25.414  1.00  0.00     0.060 A 
ATOM     26  C   UNL A   1      31.675  30.707  25.842  1.00  0.00     0.029 A 
ATOM     27  C   UNL A   1      33.204  28.836  25.956  1.00  0.00     0.066 A 
ATOM     28  C   UNL A   1      32.382  31.351  26.861  1.00  0.00     0.023 A 
ATOM     29  C   UNL A   1      33.908  29.483  26.980  1.00  0.00     0.043 A 
ATOM     30  Cl  UNL A   1      33.947  27.417  25.299  1.00  0.00    -0.082 Cl
ATOM     31  C   UNL A   1      33.484  30.727  27.439  1.00  0.00     0.042 A 
ATOM     32  Cl  UNL A   1      34.340  31.509  28.709  1.00  0.00    -0.084 Cl
ENDBRANCH  23  25
ENDBRANCH  20  21
ENDBRANCH  19  20
ENDBRANCH  14  19
ENDBRANCH   8  13
ENDBRANCH   4   7
ENDBRANCH   2   3
ENDBRANCH   1   2
BRANCH   1  33
ATOM     33  C   UNL A   1      38.287  22.570  25.884  1.00  0.00     0.002 C 
BRANCH  33  34
ATOM     34  C   UNL A   1      38.203  24.027  26.347  1.00  0.00     0.002 C 
BRANCH  34  35
ATOM     35  C   UNL A   1      39.550  24.731  26.513  1.00  0.00     0.021 C 
BRANCH  35  36
ATOM     36  C   UNL A   1      40.303  24.366  27.787  1.00  0.00     0.116 C 
BRANCH  36  37
ATOM     37  N   UNL A   1      41.157  23.201  27.609  1.00  0.00    -0.352 N 
ATOM     38  C   UNL A   1      42.461  23.143  27.182  1.00  0.00     0.251 C 
ATOM     39  H   UNL A   1      40.742  22.335  27.824  1.00  0.00     0.163 HD
ATOM     40  O   UNL A   1      42.981  22.068  26.907  1.00  0.00    -0.269 OA
BRANCH  38  41
ATOM     41  C   UNL A   1      43.229  24.397  27.034  1.00  0.00     0.039 A 
ATOM     42  C   UNL A   1      43.824  24.968  28.161  1.00  0.00     0.014 A 
ATOM     43  C   UNL A   1      43.382  24.989  25.777  1.00  0.00     0.014 A 
ATOM     44  C   UNL A   1      44.634  26.097  28.016  1.00  0.00     0.010 A 
ATOM     45  C   UNL A   1      44.247  26.067  25.624  1.00  0.00     0.010 A 
ATOM     46  C   UNL A   1      44.883  26.631  26.742  1.00  0.00    -0.014 A 
BRANCH  46  47
ATOM     47  C   UNL A   1      45.812  27.772  26.542  1.00  0.00     0.031 A 
ATOM     48  C   UNL A   1      47.287  27.521  26.389  1.00  0.00     0.074 A 
ATOM     49  C   UNL A   1      45.342  29.034  26.598  1.00  0.00     0.049 A 
ATOM     50  N   UNL A   1      48.270  28.384  26.333  1.00  0.00    -0.248 NA
ATOM     51  C   UNL A   1      47.717  26.115  26.318  1.00  0.00     0.031 C 
ATOM     52  C   UNL A   1      43.939  29.413  26.776  1.00  0.00     0.029 A 
ATOM     53  N   UNL A   1      46.003  30.238  26.532  1.00  0.00    -0.354 N 
ATOM     54  C   UNL A   1      49.431  27.627  26.253  1.00  0.00     0.074 A 
ATOM     55  C   UNL A   1      49.037  26.236  26.301  1.00  0.00     0.031 C 
ATOM     56  C   UNL A   1      43.843  30.752  26.799  1.00  0.00     0.029 A 
ATOM     57  C   UNL A   1      45.179  31.328  26.688  1.00  0.00     0.049 A 
ATOM     58  H   UNL A   1      46.973  30.312  26.387  1.00  0.00     0.167 HD
ATOM     59  C   UNL A   1      50.711  28.052  26.140  1.00  0.00     0.031 A 
ATOM     60  C   UNL A   1      45.469  32.641  26.760  1.00  0.00     0.031 A 
ATOM     61  C   UNL A   1      51.099  29.435  26.073  1.00  0.00     0.049 A 
ATOM     62  C   UNL A   1      46.904  33.084  26.648  1.00  0.00     0.074 A 
ATOM     63  C   UNL A   1      52.364  29.964  25.879  1.00  0.00     0.029 A 
ATOM     64  N   UNL A   1      50.232  30.507  26.207  1.00  0.00    -0.354 N 
ATOM     65  N   UNL A   1      47.982  32.357  26.484  1.00  0.00    -0.248 NA
ATOM     66  C   UNL A   1      47.159  34.530  26.721  1.00  0.00     0.031 C 
ATOM     67  C   UNL A   1      52.271  31.355  25.964  1.00  0.00     0.029 A 
ATOM     68  C   UNL A   1      50.939  31.695  26.138  1.00  0.00     0.049 A 
ATOM     69  H   UNL A   1      49.257  30.435  26.334  1.00  0.00     0.167 HD
ATOM     70  C   UNL A   1      49.037  33.258  26.402  1.00  0.00     0.074 A 
ATOM     71  C   UNL A   1      48.468  34.584  26.519  1.00  0.00     0.031 C 
ATOM     72  C   UNL A   1      50.359  33.008  26.242  1.00  0.00     0.031 A 
BRANCH  59  73
ATOM     73  C   UNL A   1      51.797  27.013  26.100  1.00  0.00    -0.014 A 
ATOM     74  C   UNL A   1      52.448  26.588  27.269  1.00  0.00     0.009 A 
ATOM     75  C   UNL A   1      52.124  26.400  24.880  1.00  0.00     0.009 A 
ATOM     76  C   UNL A   1      53.425  25.591  27.211  1.00  0.00     0.001 A 
ATOM     77  C   UNL A   1      53.079  25.383  24.830  1.00  0.00     0.001 A 
ATOM     78  C   UNL A   1      53.733  24.985  25.994  1.00  0.00     0.000 A 
ENDBRANCH  59  73
BRANCH  60  79
ATOM     79  C   UNL A   1      44.386  33.639  26.968  1.00  0.00    -0.014 A 
ATOM     80  C   UNL A   1      43.795  34.293  25.876  1.00  0.00     0.009 A 
ATOM     81  C   UNL A   1      43.958  33.968  28.264  1.00  0.00     0.009 A 
ATOM     82  C   UNL A   1      42.828  35.281  26.078  1.00  0.00     0.001 A 
ATOM     83  C   UNL A   1      42.967  34.931  28.463  1.00  0.00     0.001 A 
ATOM     84  C   UNL A   1      42.413  35.598  27.371  1.00  0.00     0.000 A 
ENDBRANCH  60  79
BRANCH  72  85
ATOM     85  C   UNL A   1      51.284  34.187  26.132  1.00  0.00    -0.014 A 
ATOM     86  C   UNL A   1      51.565  34.785  24.894  1.00  0.00     0.009 A 
ATOM     87  C   UNL A   1      51.822  34.751  27.299  1.00  0.00     0.009 A 
ATOM     88  C   UNL A   1      52.388  35.911  24.827  1.00  0.00     0.001 A 
ATOM     89  C   UNL A   1      52.618  35.896  27.232  1.00  0.00     0.001 A 
ATOM     90  C   UNL A   1      52.906  36.470  25.996  1.00  0.00     0.000 A 
ENDBRANCH  72  85
ENDBRANCH  46  47
ENDBRANCH  38  41
ENDBRANCH  36  37
ENDBRANCH  35  36
ENDBRANCH  34  35
ENDBRANCH  33  34
ENDBRANCH   1  33
TORSDOF 18
ENDMDL
