MODEL 1
REMARK VINA RESULT:      -8.6      0.000      0.000
REMARK SMILES O=C(Cc1cccnc1Cl)NCCCCCCNC(=O)c1ccc(-c2c3nc(c(-c4ccccc4)c4ccc([nH]4)c(-c4ccccc4)c4nc(c(-c5ccccc5)c5ccc2[nH]5)C=C4)C=C3)cc1
REMARK SMILES IDX 15 1 14 2 13 3 12 4 11 5 1 6 2 7 3 9 4 10 5 11 9 12 6 13
REMARK SMILES IDX 8 14 10 15 7 16 16 17 17 18 18 19 19 20 20 22 21 23 22 24
REMARK SMILES IDX 68 25 23 26 67 27 24 28 25 29 26 30 61 31 27 32 66 33 60 34
REMARK SMILES IDX 62 35 28 36 65 37 59 38 58 39 29 41 51 42 36 43 50 44 37 45
REMARK SMILES IDX 40 46 49 47 63 48 38 49 39 50 48 52 64 53 41 54 30 55 31 56
REMARK SMILES IDX 35 57 32 58 34 59 33 60 52 61 53 62 57 63 54 64 56 65 55 66
REMARK SMILES IDX 42 67 43 68 47 69 44 70 46 71 45 72
REMARK H PARENT 11 8 18 21 62 40 40 51
REMARK Flexibility Score: inf
ROOT
ATOM      1  C   UNL A   1      45.342  20.575  23.821  1.00  0.00     0.002 C 
ENDROOT
BRANCH   1   2
ATOM      2  C   UNL A   1      45.690  21.644  24.861  1.00  0.00     0.002 C 
BRANCH   2   3
ATOM      3  C   UNL A   1      45.587  23.096  24.375  1.00  0.00     0.021 C 
BRANCH   3   4
ATOM      4  C   UNL A   1      46.722  24.007  24.845  1.00  0.00     0.116 C 
BRANCH   4   5
ATOM      5  N   UNL A   1      46.225  25.110  25.642  1.00  0.00    -0.356 N 
ATOM      6  O   UNL A   1      46.681  26.746  24.102  1.00  0.00    -0.275 OA
ATOM      7  C   UNL A   1      46.240  26.415  25.198  1.00  0.00     0.224 C 
ATOM      8  H   UNL A   1      45.862  24.919  26.537  1.00  0.00     0.163 HD
BRANCH   7   9
ATOM      9  C   UNL A   1      45.777  27.443  26.215  1.00  0.00     0.138 C 
BRANCH   9  10
ATOM     10  C   UNL A   1      44.332  27.853  26.088  1.00  0.00    -0.001 A 
ATOM     11  C   UNL A   1      43.438  27.062  25.351  1.00  0.00     0.009 A 
ATOM     12  C   UNL A   1      43.817  29.008  26.672  1.00  0.00     0.132 A 
ATOM     13  C   UNL A   1      42.106  27.446  25.232  1.00  0.00     0.020 A 
ATOM     14  N   UNL A   1      42.529  29.404  26.567  1.00  0.00    -0.244 NA
ATOM     15  Cl  UNL A   1      44.768  30.078  27.622  1.00  0.00    -0.062 Cl
ATOM     16  C   UNL A   1      41.702  28.614  25.854  1.00  0.00     0.113 A 
ENDBRANCH   9  10
ENDBRANCH   7   9
ENDBRANCH   4   5
ENDBRANCH   3   4
ENDBRANCH   2   3
ENDBRANCH   1   2
BRANCH   1  17
ATOM     17  C   UNL A   1      44.950  19.210  24.392  1.00  0.00     0.021 C 
BRANCH  17  18
ATOM     18  C   UNL A   1      44.163  19.260  25.698  1.00  0.00     0.116 C 
BRANCH  18  19
ATOM     19  N   UNL A   1      42.755  18.944  25.514  1.00  0.00    -0.352 N 
ATOM     20  C   UNL A   1      41.644  19.647  25.914  1.00  0.00     0.251 C 
ATOM     21  H   UNL A   1      42.570  18.106  25.034  1.00  0.00     0.163 HD
ATOM     22  O   UNL A   1      40.528  19.142  25.816  1.00  0.00    -0.269 OA
BRANCH  20  23
ATOM     23  C   UNL A   1      41.790  21.002  26.487  1.00  0.00     0.039 A 
ATOM     24  C   UNL A   1      41.623  21.176  27.864  1.00  0.00     0.014 A 
ATOM     25  C   UNL A   1      42.089  22.099  25.675  1.00  0.00     0.014 A 
ATOM     26  C   UNL A   1      41.823  22.435  28.434  1.00  0.00     0.010 A 
ATOM     27  C   UNL A   1      42.361  23.336  26.252  1.00  0.00     0.010 A 
ATOM     28  C   UNL A   1      42.232  23.518  27.638  1.00  0.00    -0.014 A 
BRANCH  28  29
ATOM     29  C   UNL A   1      42.541  24.841  28.238  1.00  0.00     0.031 A 
ATOM     30  C   UNL A   1      43.926  25.145  28.739  1.00  0.00     0.074 A 
ATOM     31  C   UNL A   1      41.559  25.752  28.387  1.00  0.00     0.049 A 
ATOM     32  N   UNL A   1      44.368  26.220  29.342  1.00  0.00    -0.248 NA
ATOM     33  C   UNL A   1      44.942  24.094  28.562  1.00  0.00     0.031 C 
ATOM     34  C   UNL A   1      40.166  25.572  27.973  1.00  0.00     0.029 A 
ATOM     35  N   UNL A   1      41.582  27.010  28.933  1.00  0.00    -0.354 N 
ATOM     36  C   UNL A   1      45.706  25.971  29.623  1.00  0.00     0.074 A 
ATOM     37  C   UNL A   1      45.989  24.625  29.176  1.00  0.00     0.031 C 
ATOM     38  C   UNL A   1      39.476  26.690  28.250  1.00  0.00     0.029 A 
ATOM     39  C   UNL A   1      40.365  27.647  28.903  1.00  0.00     0.049 A 
ATOM     40  H   UNL A   1      42.394  27.419  29.311  1.00  0.00     0.167 HD
ATOM     41  C   UNL A   1      46.624  26.795  30.184  1.00  0.00     0.031 A 
ATOM     42  C   UNL A   1      40.000  28.862  29.356  1.00  0.00     0.031 A 
ATOM     43  C   UNL A   1      46.345  28.134  30.631  1.00  0.00     0.049 A 
ATOM     44  C   UNL A   1      41.028  29.743  30.010  1.00  0.00     0.074 A 
ATOM     45  C   UNL A   1      47.218  29.060  31.174  1.00  0.00     0.029 A 
ATOM     46  N   UNL A   1      45.097  28.736  30.592  1.00  0.00    -0.354 N 
ATOM     47  N   UNL A   1      42.302  29.514  30.214  1.00  0.00    -0.248 NA
ATOM     48  C   UNL A   1      40.566  31.054  30.487  1.00  0.00     0.031 C 
ATOM     49  C   UNL A   1      46.487  30.203  31.516  1.00  0.00     0.029 A 
ATOM     50  C   UNL A   1      45.171  30.013  31.124  1.00  0.00     0.049 A 
ATOM     51  H   UNL A   1      44.279  28.318  30.239  1.00  0.00     0.167 HD
ATOM     52  C   UNL A   1      42.801  30.663  30.815  1.00  0.00     0.074 A 
ATOM     53  C   UNL A   1      41.695  31.592  30.926  1.00  0.00     0.031 C 
ATOM     54  C   UNL A   1      44.063  30.926  31.232  1.00  0.00     0.031 A 
BRANCH  41  55
ATOM     55  C   UNL A   1      48.020  26.262  30.353  1.00  0.00    -0.014 A 
ATOM     56  C   UNL A   1      48.450  25.721  31.576  1.00  0.00     0.009 A 
ATOM     57  C   UNL A   1      48.910  26.269  29.268  1.00  0.00     0.009 A 
ATOM     58  C   UNL A   1      49.751  25.234  31.719  1.00  0.00     0.001 A 
ATOM     59  C   UNL A   1      50.200  25.753  29.403  1.00  0.00     0.001 A 
ATOM     60  C   UNL A   1      50.623  25.246  30.631  1.00  0.00     0.000 A 
ENDBRANCH  41  55
BRANCH  42  61
ATOM     61  C   UNL A   1      38.596  29.327  29.194  1.00  0.00    -0.014 A 
ATOM     62  C   UNL A   1      37.682  29.206  30.253  1.00  0.00     0.009 A 
ATOM     63  C   UNL A   1      38.161  29.885  27.983  1.00  0.00     0.009 A 
ATOM     64  C   UNL A   1      36.355  29.611  30.091  1.00  0.00     0.001 A 
ATOM     65  C   UNL A   1      36.842  30.318  27.835  1.00  0.00     0.001 A 
ATOM     66  C   UNL A   1      35.937  30.171  28.885  1.00  0.00     0.000 A 
ENDBRANCH  42  61
BRANCH  54  67
ATOM     67  C   UNL A   1      44.327  32.287  31.815  1.00  0.00    -0.014 A 
ATOM     68  C   UNL A   1      44.220  32.528  33.194  1.00  0.00     0.009 A 
ATOM     69  C   UNL A   1      44.731  33.335  30.972  1.00  0.00     0.009 A 
ATOM     70  C   UNL A   1      44.478  33.800  33.710  1.00  0.00     0.001 A 
ATOM     71  C   UNL A   1      45.019  34.596  31.495  1.00  0.00     0.001 A 
ATOM     72  C   UNL A   1      44.883  34.830  32.862  1.00  0.00     0.000 A 
ENDBRANCH  54  67
ENDBRANCH  28  29
ENDBRANCH  20  23
ENDBRANCH  18  19
ENDBRANCH  17  18
ENDBRANCH   1  17
TORSDOF 14
ENDMDL
MODEL 2
REMARK VINA RESULT:      -7.8      5.720     11.291
REMARK SMILES O=C(Cc1cccnc1Cl)NCCCCCCNC(=O)c1ccc(-c2c3nc(c(-c4ccccc4)c4ccc([nH]4)c(-c4ccccc4)c4nc(c(-c5ccccc5)c5ccc2[nH]5)C=C4)C=C3)cc1
REMARK SMILES IDX 15 1 14 2 13 3 12 4 11 5 1 6 2 7 3 9 4 10 5 11 9 12 6 13
REMARK SMILES IDX 8 14 10 15 7 16 16 17 17 18 18 19 19 20 20 22 21 23 22 24
REMARK SMILES IDX 68 25 23 26 67 27 24 28 25 29 26 30 61 31 27 32 66 33 60 34
REMARK SMILES IDX 62 35 28 36 65 37 59 38 58 39 29 41 51 42 36 43 50 44 37 45
REMARK SMILES IDX 40 46 49 47 63 48 38 49 39 50 48 52 64 53 41 54 30 55 31 56
REMARK SMILES IDX 35 57 32 58 34 59 33 60 52 61 53 62 57 63 54 64 56 65 55 66
REMARK SMILES IDX 42 67 43 68 47 69 44 70 46 71 45 72
REMARK H PARENT 11 8 18 21 62 40 40 51
REMARK Flexibility Score: inf
ROOT
ATOM      1  C   UNL A   1      31.544  30.622  25.745  1.00  0.00     0.002 C 
ENDROOT
BRANCH   1   2
ATOM      2  C   UNL A   1      32.661  29.659  26.159  1.00  0.00     0.002 C 
BRANCH   2   3
ATOM      3  C   UNL A   1      32.347  28.762  27.365  1.00  0.00     0.021 C 
BRANCH   3   4
ATOM      4  C   UNL A   1      32.053  27.303  27.014  1.00  0.00     0.116 C 
BRANCH   4   5
ATOM      5  N   UNL A   1      31.479  27.179  25.690  1.00  0.00    -0.356 N 
ATOM      6  O   UNL A   1      29.806  25.728  26.288  1.00  0.00    -0.275 OA
ATOM      7  C   UNL A   1      30.379  26.390  25.428  1.00  0.00     0.224 C 
ATOM      8  H   UNL A   1      31.890  27.678  24.948  1.00  0.00     0.163 HD
BRANCH   7   9
ATOM      9  C   UNL A   1      29.988  26.303  23.963  1.00  0.00     0.138 C 
BRANCH   9  10
ATOM     10  C   UNL A   1      29.274  27.517  23.425  1.00  0.00    -0.001 A 
ATOM     11  C   UNL A   1      27.882  27.630  23.553  1.00  0.00     0.009 A 
ATOM     12  C   UNL A   1      29.935  28.563  22.784  1.00  0.00     0.132 A 
ATOM     13  C   UNL A   1      27.226  28.750  23.052  1.00  0.00     0.020 A 
ATOM     14  N   UNL A   1      29.320  29.658  22.286  1.00  0.00    -0.244 NA
ATOM     15  Cl  UNL A   1      31.638  28.594  22.559  1.00  0.00    -0.062 Cl
ATOM     16  C   UNL A   1      27.982  29.730  22.433  1.00  0.00     0.113 A 
ENDBRANCH   9  10
ENDBRANCH   7   9
ENDBRANCH   4   5
ENDBRANCH   3   4
ENDBRANCH   2   3
ENDBRANCH   1   2
BRANCH   1  17
ATOM     17  C   UNL A   1      31.352  31.833  26.662  1.00  0.00     0.021 C 
BRANCH  17  18
ATOM     18  C   UNL A   1      32.643  32.463  27.175  1.00  0.00     0.116 C 
BRANCH  18  19
ATOM     19  N   UNL A   1      32.453  33.832  27.631  1.00  0.00    -0.352 N 
ATOM     20  C   UNL A   1      33.184  34.559  28.538  1.00  0.00     0.251 C 
ATOM     21  H   UNL A   1      31.689  34.307  27.231  1.00  0.00     0.163 HD
ATOM     22  O   UNL A   1      32.776  35.652  28.924  1.00  0.00    -0.269 OA
BRANCH  20  23
ATOM     23  C   UNL A   1      34.452  34.018  29.074  1.00  0.00     0.039 A 
ATOM     24  C   UNL A   1      34.423  33.274  30.256  1.00  0.00     0.014 A 
ATOM     25  C   UNL A   1      35.665  34.241  28.416  1.00  0.00     0.014 A 
ATOM     26  C   UNL A   1      35.599  32.697  30.741  1.00  0.00     0.010 A 
ATOM     27  C   UNL A   1      36.821  33.605  28.858  1.00  0.00     0.010 A 
ATOM     28  C   UNL A   1      36.801  32.825  30.025  1.00  0.00    -0.014 A 
BRANCH  28  29
ATOM     29  C   UNL A   1      38.042  32.142  30.474  1.00  0.00     0.031 A 
ATOM     30  C   UNL A   1      38.916  32.769  31.526  1.00  0.00     0.074 A 
ATOM     31  C   UNL A   1      38.415  30.985  29.893  1.00  0.00     0.049 A 
ATOM     32  N   UNL A   1      40.062  32.350  32.002  1.00  0.00    -0.248 NA
ATOM     33  C   UNL A   1      38.456  34.043  32.100  1.00  0.00     0.031 C 
ATOM     34  C   UNL A   1      37.674  30.288  28.839  1.00  0.00     0.029 A 
ATOM     35  N   UNL A   1      39.515  30.193  30.104  1.00  0.00    -0.354 N 
ATOM     36  C   UNL A   1      40.462  33.311  32.922  1.00  0.00     0.074 A 
ATOM     37  C   UNL A   1      39.466  34.361  32.896  1.00  0.00     0.031 C 
ATOM     38  C   UNL A   1      38.323  29.157  28.520  1.00  0.00     0.029 A 
ATOM     39  C   UNL A   1      39.547  29.072  29.310  1.00  0.00     0.049 A 
ATOM     40  H   UNL A   1      40.214  30.406  30.762  1.00  0.00     0.167 HD
ATOM     41  C   UNL A   1      41.548  33.314  33.731  1.00  0.00     0.031 A 
ATOM     42  C   UNL A   1      40.463  28.088  29.219  1.00  0.00     0.031 A 
ATOM     43  C   UNL A   1      42.541  32.273  33.757  1.00  0.00     0.049 A 
ATOM     44  C   UNL A   1      41.681  28.134  30.101  1.00  0.00     0.074 A 
ATOM     45  C   UNL A   1      43.656  32.165  34.571  1.00  0.00     0.029 A 
ATOM     46  N   UNL A   1      42.542  31.161  32.929  1.00  0.00    -0.354 N 
ATOM     47  N   UNL A   1      42.013  29.021  31.006  1.00  0.00    -0.248 NA
ATOM     48  C   UNL A   1      42.644  27.034  29.951  1.00  0.00     0.031 C 
ATOM     49  C   UNL A   1      44.362  31.017  34.196  1.00  0.00     0.029 A 
ATOM     50  C   UNL A   1      43.651  30.375  33.195  1.00  0.00     0.049 A 
ATOM     51  H   UNL A   1      41.857  30.960  32.252  1.00  0.00     0.167 HD
ATOM     52  C   UNL A   1      43.207  28.571  31.556  1.00  0.00     0.074 A 
ATOM     53  C   UNL A   1      43.530  27.324  30.894  1.00  0.00     0.031 C 
ATOM     54  C   UNL A   1      43.964  29.138  32.526  1.00  0.00     0.031 A 
BRANCH  41  55
ATOM     55  C   UNL A   1      41.723  34.491  34.651  1.00  0.00    -0.014 A 
ATOM     56  C   UNL A   1      41.224  34.469  35.964  1.00  0.00     0.009 A 
ATOM     57  C   UNL A   1      42.426  35.624  34.214  1.00  0.00     0.009 A 
ATOM     58  C   UNL A   1      41.390  35.570  36.805  1.00  0.00     0.001 A 
ATOM     59  C   UNL A   1      42.619  36.712  35.068  1.00  0.00     0.001 A 
ATOM     60  C   UNL A   1      42.092  36.689  36.358  1.00  0.00     0.000 A 
ENDBRANCH  41  55
BRANCH  42  61
ATOM     61  C   UNL A   1      40.259  26.965  28.267  1.00  0.00    -0.014 A 
ATOM     62  C   UNL A   1      40.773  27.037  26.963  1.00  0.00     0.009 A 
ATOM     63  C   UNL A   1      39.544  25.820  28.652  1.00  0.00     0.009 A 
ATOM     64  C   UNL A   1      40.552  25.997  26.056  1.00  0.00     0.001 A 
ATOM     65  C   UNL A   1      39.353  24.768  27.753  1.00  0.00     0.001 A 
ATOM     66  C   UNL A   1      39.847  24.862  26.453  1.00  0.00     0.000 A 
ENDBRANCH  42  61
BRANCH  54  67
ATOM     67  C   UNL A   1      45.199  28.397  32.959  1.00  0.00    -0.014 A 
ATOM     68  C   UNL A   1      45.155  27.428  33.974  1.00  0.00     0.009 A 
ATOM     69  C   UNL A   1      46.419  28.645  32.309  1.00  0.00     0.009 A 
ATOM     70  C   UNL A   1      46.315  26.749  34.352  1.00  0.00     0.001 A 
ATOM     71  C   UNL A   1      47.569  27.942  32.668  1.00  0.00     0.001 A 
ATOM     72  C   UNL A   1      47.519  27.002  33.695  1.00  0.00     0.000 A 
ENDBRANCH  54  67
ENDBRANCH  28  29
ENDBRANCH  20  23
ENDBRANCH  18  19
ENDBRANCH  17  18
ENDBRANCH   1  17
TORSDOF 14
ENDMDL
MODEL 3
REMARK VINA RESULT:      -7.8      4.630      8.917
REMARK SMILES O=C(Cc1cccnc1Cl)NCCCCCCNC(=O)c1ccc(-c2c3nc(c(-c4ccccc4)c4ccc([nH]4)c(-c4ccccc4)c4nc(c(-c5ccccc5)c5ccc2[nH]5)C=C4)C=C3)cc1
REMARK SMILES IDX 15 1 14 2 13 3 12 4 11 5 1 6 2 7 3 9 4 10 5 11 9 12 6 13
REMARK SMILES IDX 8 14 10 15 7 16 16 17 17 18 18 19 19 20 20 22 21 23 22 24
REMARK SMILES IDX 68 25 23 26 67 27 24 28 25 29 26 30 61 31 27 32 66 33 60 34
REMARK SMILES IDX 62 35 28 36 65 37 59 38 58 39 29 41 51 42 36 43 50 44 37 45
REMARK SMILES IDX 40 46 49 47 63 48 38 49 39 50 48 52 64 53 41 54 30 55 31 56
REMARK SMILES IDX 35 57 32 58 34 59 33 60 52 61 53 62 57 63 54 64 56 65 55 66
REMARK SMILES IDX 42 67 43 68 47 69 44 70 46 71 45 72
REMARK H PARENT 11 8 18 21 62 40 40 51
REMARK Flexibility Score: inf
ROOT
ATOM      1  C   UNL A   1      36.518  20.641  25.015  1.00  0.00     0.002 C 
ENDROOT
BRANCH   1   2
ATOM      2  C   UNL A   1      36.566  21.971  25.773  1.00  0.00     0.002 C 
BRANCH   2   3
ATOM      3  C   UNL A   1      36.804  23.216  24.908  1.00  0.00     0.021 C 
BRANCH   3   4
ATOM      4  C   UNL A   1      35.594  24.143  24.780  1.00  0.00     0.116 C 
BRANCH   4   5
ATOM      5  N   UNL A   1      34.350  23.400  24.790  1.00  0.00    -0.356 N 
ATOM      6  O   UNL A   1      34.173  23.193  22.513  1.00  0.00    -0.275 OA
ATOM      7  C   UNL A   1      33.730  22.972  23.635  1.00  0.00     0.224 C 
ATOM      8  H   UNL A   1      33.932  23.191  25.656  1.00  0.00     0.163 HD
BRANCH   7   9
ATOM      9  C   UNL A   1      32.382  22.303  23.843  1.00  0.00     0.138 C 
BRANCH   9  10
ATOM     10  C   UNL A   1      32.432  20.800  23.949  1.00  0.00    -0.001 A 
ATOM     11  C   UNL A   1      32.725  20.190  25.177  1.00  0.00     0.009 A 
ATOM     12  C   UNL A   1      32.202  19.956  22.864  1.00  0.00     0.132 A 
ATOM     13  C   UNL A   1      32.774  18.803  25.269  1.00  0.00     0.020 A 
ATOM     14  N   UNL A   1      32.248  18.607  22.929  1.00  0.00    -0.244 NA
ATOM     15  Cl  UNL A   1      31.812  20.536  21.295  1.00  0.00    -0.062 Cl
ATOM     16  C   UNL A   1      32.529  18.060  24.128  1.00  0.00     0.113 A 
ENDBRANCH   9  10
ENDBRANCH   7   9
ENDBRANCH   4   5
ENDBRANCH   3   4
ENDBRANCH   2   3
ENDBRANCH   1   2
BRANCH   1  17
ATOM     17  C   UNL A   1      37.878  19.995  24.740  1.00  0.00     0.021 C 
BRANCH  17  18
ATOM     18  C   UNL A   1      38.951  20.286  25.784  1.00  0.00     0.116 C 
BRANCH  18  19
ATOM     19  N   UNL A   1      39.945  19.226  25.873  1.00  0.00    -0.352 N 
ATOM     20  C   UNL A   1      41.294  19.314  26.118  1.00  0.00     0.251 C 
ATOM     21  H   UNL A   1      39.602  18.315  25.737  1.00  0.00     0.163 HD
ATOM     22  O   UNL A   1      42.008  18.322  25.993  1.00  0.00    -0.269 OA
BRANCH  20  23
ATOM     23  C   UNL A   1      41.895  20.607  26.510  1.00  0.00     0.039 A 
ATOM     24  C   UNL A   1      42.340  21.476  25.511  1.00  0.00     0.014 A 
ATOM     25  C   UNL A   1      42.020  20.965  27.856  1.00  0.00     0.014 A 
ATOM     26  C   UNL A   1      42.848  22.730  25.858  1.00  0.00     0.010 A 
ATOM     27  C   UNL A   1      42.455  22.242  28.196  1.00  0.00     0.010 A 
ATOM     28  C   UNL A   1      42.873  23.140  27.201  1.00  0.00    -0.014 A 
BRANCH  28  29
ATOM     29  C   UNL A   1      43.322  24.503  27.582  1.00  0.00     0.031 A 
ATOM     30  C   UNL A   1      42.316  25.559  27.953  1.00  0.00     0.074 A 
ATOM     31  C   UNL A   1      44.633  24.812  27.537  1.00  0.00     0.049 A 
ATOM     32  N   UNL A   1      42.515  26.817  28.258  1.00  0.00    -0.248 NA
ATOM     33  C   UNL A   1      40.901  25.155  27.959  1.00  0.00     0.031 C 
ATOM     34  C   UNL A   1      45.709  23.891  27.164  1.00  0.00     0.029 A 
ATOM     35  N   UNL A   1      45.284  25.990  27.804  1.00  0.00    -0.354 N 
ATOM     36  C   UNL A   1      41.253  27.354  28.481  1.00  0.00     0.074 A 
ATOM     37  C   UNL A   1      40.294  26.303  28.223  1.00  0.00     0.031 C 
ATOM     38  C   UNL A   1      46.886  24.529  27.257  1.00  0.00     0.029 A 
ATOM     39  C   UNL A   1      46.647  25.914  27.650  1.00  0.00     0.049 A 
ATOM     40  H   UNL A   1      44.819  26.812  28.081  1.00  0.00     0.167 HD
ATOM     41  C   UNL A   1      40.921  28.604  28.884  1.00  0.00     0.031 A 
ATOM     42  C   UNL A   1      47.600  26.854  27.800  1.00  0.00     0.031 A 
ATOM     43  C   UNL A   1      41.873  29.653  29.140  1.00  0.00     0.049 A 
ATOM     44  C   UNL A   1      47.202  28.245  28.211  1.00  0.00     0.074 A 
ATOM     45  C   UNL A   1      41.637  30.939  29.592  1.00  0.00     0.029 A 
ATOM     46  N   UNL A   1      43.243  29.537  28.961  1.00  0.00    -0.354 N 
ATOM     47  N   UNL A   1      46.010  28.719  28.475  1.00  0.00    -0.248 NA
ATOM     48  C   UNL A   1      48.287  29.226  28.353  1.00  0.00     0.031 C 
ATOM     49  C   UNL A   1      42.858  31.620  29.632  1.00  0.00     0.029 A 
ATOM     50  C   UNL A   1      43.862  30.737  29.269  1.00  0.00     0.049 A 
ATOM     51  H   UNL A   1      43.706  28.723  28.659  1.00  0.00     0.167 HD
ATOM     52  C   UNL A   1      46.203  30.045  28.844  1.00  0.00     0.074 A 
ATOM     53  C   UNL A   1      47.629  30.292  28.786  1.00  0.00     0.031 C 
ATOM     54  C   UNL A   1      45.282  30.971  29.204  1.00  0.00     0.031 A 
BRANCH  41  55
ATOM     55  C   UNL A   1      39.459  28.907  29.066  1.00  0.00    -0.014 A 
ATOM     56  C   UNL A   1      38.678  29.388  28.002  1.00  0.00     0.009 A 
ATOM     57  C   UNL A   1      38.845  28.679  30.307  1.00  0.00     0.009 A 
ATOM     58  C   UNL A   1      37.323  29.669  28.187  1.00  0.00     0.001 A 
ATOM     59  C   UNL A   1      37.482  28.930  30.482  1.00  0.00     0.001 A 
ATOM     60  C   UNL A   1      36.725  29.435  29.426  1.00  0.00     0.000 A 
ENDBRANCH  41  55
BRANCH  42  61
ATOM     61  C   UNL A   1      49.029  26.510  27.574  1.00  0.00    -0.014 A 
ATOM     62  C   UNL A   1      49.835  26.090  28.643  1.00  0.00     0.009 A 
ATOM     63  C   UNL A   1      49.595  26.607  26.294  1.00  0.00     0.009 A 
ATOM     64  C   UNL A   1      51.186  25.799  28.439  1.00  0.00     0.001 A 
ATOM     65  C   UNL A   1      50.938  26.285  26.087  1.00  0.00     0.001 A 
ATOM     66  C   UNL A   1      51.735  25.892  27.160  1.00  0.00     0.000 A 
ENDBRANCH  42  61
BRANCH  54  67
ATOM     67  C   UNL A   1      45.789  32.331  29.599  1.00  0.00    -0.014 A 
ATOM     68  C   UNL A   1      45.908  33.371  28.663  1.00  0.00     0.009 A 
ATOM     69  C   UNL A   1      46.115  32.586  30.941  1.00  0.00     0.009 A 
ATOM     70  C   UNL A   1      46.375  34.626  29.058  1.00  0.00     0.001 A 
ATOM     71  C   UNL A   1      46.551  33.850  31.338  1.00  0.00     0.001 A 
ATOM     72  C   UNL A   1      46.690  34.866  30.394  1.00  0.00     0.000 A 
ENDBRANCH  54  67
ENDBRANCH  28  29
ENDBRANCH  20  23
ENDBRANCH  18  19
ENDBRANCH  17  18
ENDBRANCH   1  17
TORSDOF 14
ENDMDL
