MODEL 1
REMARK VINA RESULT:     -12.1      0.000      0.000
REMARK SMILES O=C(CSc1nnnn1-c1ccc(C(=O)NCCCCCCNC(=O)c2ccc(-c3c4nc(c(-c5ccccc5)c5ccc([nH]5)c(-c5ccccc5)c5nc(c(-c6ccccc6)c6ccc3[nH]6)C=C5)C=C4)cc2)cc1)Nc1nc(-c2ccccc2)cs1
REMARK SMILES IDX 17 1 16 2 14 3 15 4 13 6 10 7 11 8 75 9 12 10 74 11 9 12
REMARK SMILES IDX 5 13 6 14 7 15 8 16 4 17 3 18 2 19 1 20 76 21 77 23 78 24
REMARK SMILES IDX 87 25 79 26 86 27 80 28 81 29 85 30 82 31 84 32 83 33 18 34
REMARK SMILES IDX 19 35 20 36 21 37 22 38 23 39 24 40 25 42 26 43 27 44 73 45
REMARK SMILES IDX 28 46 72 47 29 48 30 49 31 50 66 51 32 52 71 53 65 54 67 55
REMARK SMILES IDX 33 56 70 57 64 58 63 59 34 61 56 62 41 63 55 64 42 65 45 66
REMARK SMILES IDX 54 67 68 68 43 69 44 70 53 72 69 73 46 74 35 75 36 76 40 77
REMARK SMILES IDX 37 78 39 79 38 80 57 81 58 82 62 83 59 84 61 85 60 86 47 87
REMARK SMILES IDX 48 88 52 89 49 90 51 91 50 92
REMARK H PARENT 16 5 76 22 23 41 67 60 45 71
REMARK Flexibility Score: inf
ROOT
ATOM      1  C   UNL A   1      33.639  30.297  27.036  1.00  0.00     0.116 C 
ENDROOT
BRANCH   1   2
ATOM      2  N   UNL A   1      32.514  29.604  27.639  1.00  0.00    -0.352 N 
ATOM      3  C   UNL A   1      31.938  28.381  27.406  1.00  0.00     0.251 C 
ATOM      4  O   UNL A   1      30.971  28.063  28.098  1.00  0.00    -0.269 OA
ATOM      5  H   UNL A   1      32.079  30.113  28.360  1.00  0.00     0.163 HD
BRANCH   3   6
ATOM      6  C   UNL A   1      32.478  27.402  26.423  1.00  0.00     0.039 A 
ATOM      7  C   UNL A   1      33.598  25.392  24.838  1.00  0.00     0.069 A 
ATOM      8  C   UNL A   1      32.566  25.066  25.716  1.00  0.00     0.029 A 
ATOM      9  C   UNL A   1      33.981  26.722  24.648  1.00  0.00     0.029 A 
ATOM     10  C   UNL A   1      32.033  26.071  26.529  1.00  0.00     0.016 A 
ATOM     11  C   UNL A   1      33.382  27.726  25.410  1.00  0.00     0.016 A 
BRANCH   7  12
ATOM     12  N   UNL A   1      34.218  24.391  24.079  1.00  0.00    -0.187 N 
ATOM     13  C   UNL A   1      35.520  23.928  24.108  1.00  0.00     0.214 A 
ATOM     14  N   UNL A   1      35.754  23.267  22.995  1.00  0.00    -0.101 NA
ATOM     15  N   UNL A   1      34.563  23.250  22.310  1.00  0.00    -0.022 NA
ATOM     16  N   UNL A   1      33.607  23.869  22.993  1.00  0.00    -0.039 NA
BRANCH  13  17
ATOM     17  S   UNL A   1      36.466  23.698  25.549  1.00  0.00    -0.074 SA
BRANCH  17  18
ATOM     18  C   UNL A   1      36.607  21.920  25.777  1.00  0.00     0.178 C 
BRANCH  18  19
ATOM     19  C   UNL A   1      38.010  21.375  25.648  1.00  0.00     0.236 C 
ATOM     20  O   UNL A   1      38.214  20.431  24.886  1.00  0.00    -0.274 OA
ATOM     21  N   UNL A   1      38.948  22.037  26.406  1.00  0.00    -0.301 N 
ATOM     22  H   UNL A   1      38.657  22.731  27.041  1.00  0.00     0.172 HD
BRANCH  21  23
ATOM     23  C   UNL A   1      40.277  21.749  26.292  1.00  0.00     0.189 A 
ATOM     24  N   UNL A   1      41.233  22.514  25.841  1.00  0.00    -0.220 NA
ATOM     25  S   UNL A   1      40.725  20.190  26.820  1.00  0.00    -0.105 S 
ATOM     26  C   UNL A   1      42.414  21.807  25.842  1.00  0.00     0.084 A 
ATOM     27  C   UNL A   1      42.332  20.506  26.298  1.00  0.00     0.097 A 
BRANCH  26  28
ATOM     28  C   UNL A   1      43.648  22.432  25.429  1.00  0.00     0.001 A 
ATOM     29  C   UNL A   1      44.752  21.626  25.127  1.00  0.00     0.010 A 
ATOM     30  C   UNL A   1      43.754  23.824  25.349  1.00  0.00     0.010 A 
ATOM     31  C   UNL A   1      45.946  22.205  24.709  1.00  0.00     0.001 A 
ATOM     32  C   UNL A   1      44.955  24.403  24.939  1.00  0.00     0.001 A 
ATOM     33  C   UNL A   1      46.040  23.590  24.607  1.00  0.00     0.000 A 
ENDBRANCH  26  28
ENDBRANCH  21  23
ENDBRANCH  18  19
ENDBRANCH  17  18
ENDBRANCH  13  17
ENDBRANCH   7  12
ENDBRANCH   3   6
ENDBRANCH   1   2
BRANCH   1  34
ATOM     34  C   UNL A   1      33.493  31.809  27.234  1.00  0.00     0.021 C 
BRANCH  34  35
ATOM     35  C   UNL A   1      34.330  32.354  28.400  1.00  0.00     0.002 C 
BRANCH  35  36
ATOM     36  C   UNL A   1      34.438  33.886  28.473  1.00  0.00     0.002 C 
BRANCH  36  37
ATOM     37  C   UNL A   1      33.169  34.628  28.914  1.00  0.00     0.021 C 
BRANCH  37  38
ATOM     38  C   UNL A   1      33.453  35.953  29.606  1.00  0.00     0.116 C 
BRANCH  38  39
ATOM     39  N   UNL A   1      32.775  36.053  30.895  1.00  0.00    -0.352 N 
ATOM     40  C   UNL A   1      32.930  35.260  32.015  1.00  0.00     0.251 C 
ATOM     41  H   UNL A   1      32.121  36.784  30.977  1.00  0.00     0.163 HD
ATOM     42  O   UNL A   1      32.073  35.221  32.880  1.00  0.00    -0.269 OA
BRANCH  40  43
ATOM     43  C   UNL A   1      34.156  34.451  32.143  1.00  0.00     0.039 A 
ATOM     44  C   UNL A   1      34.110  33.063  32.008  1.00  0.00     0.014 A 
ATOM     45  C   UNL A   1      35.362  35.105  32.382  1.00  0.00     0.014 A 
ATOM     46  C   UNL A   1      35.305  32.347  32.031  1.00  0.00     0.010 A 
ATOM     47  C   UNL A   1      36.547  34.420  32.264  1.00  0.00     0.010 A 
ATOM     48  C   UNL A   1      36.526  33.036  32.133  1.00  0.00    -0.014 A 
BRANCH  48  49
ATOM     49  C   UNL A   1      37.790  32.320  31.992  1.00  0.00     0.031 A 
ATOM     50  C   UNL A   1      38.494  32.063  33.275  1.00  0.00     0.074 A 
ATOM     51  C   UNL A   1      38.219  31.770  30.834  1.00  0.00     0.049 A 
ATOM     52  N   UNL A   1      39.541  32.675  33.720  1.00  0.00    -0.248 NA
ATOM     53  C   UNL A   1      37.908  31.109  34.233  1.00  0.00     0.031 C 
ATOM     54  C   UNL A   1      37.490  31.670  29.562  1.00  0.00     0.029 A 
ATOM     55  N   UNL A   1      39.367  31.079  30.575  1.00  0.00    -0.354 N 
ATOM     56  C   UNL A   1      39.889  32.022  34.897  1.00  0.00     0.074 A 
ATOM     57  C   UNL A   1      38.768  31.189  35.255  1.00  0.00     0.031 C 
ATOM     58  C   UNL A   1      38.091  30.761  28.763  1.00  0.00     0.029 A 
ATOM     59  C   UNL A   1      39.345  30.371  29.379  1.00  0.00     0.049 A 
ATOM     60  H   UNL A   1      40.143  31.083  31.180  1.00  0.00     0.167 HD
ATOM     61  C   UNL A   1      41.189  31.956  35.292  1.00  0.00     0.031 A 
ATOM     62  C   UNL A   1      40.293  29.526  28.909  1.00  0.00     0.031 A 
ATOM     63  C   UNL A   1      42.038  32.788  34.485  1.00  0.00     0.049 A 
ATOM     64  C   UNL A   1      41.563  29.872  29.574  1.00  0.00     0.074 A 
ATOM     65  C   UNL A   1      42.310  34.127  34.332  1.00  0.00     0.029 A 
ATOM     66  N   UNL A   1      42.507  32.139  33.375  1.00  0.00    -0.354 N 
ATOM     67  N   UNL A   1      42.195  30.990  29.362  1.00  0.00    -0.248 NA
ATOM     68  C   UNL A   1      41.990  29.122  30.748  1.00  0.00     0.031 C 
ATOM     69  C   UNL A   1      42.771  34.275  32.988  1.00  0.00     0.029 A 
ATOM     70  C   UNL A   1      42.806  33.020  32.379  1.00  0.00     0.049 A 
ATOM     71  H   UNL A   1      42.613  31.163  33.305  1.00  0.00     0.167 HD
ATOM     72  C   UNL A   1      42.755  31.299  30.586  1.00  0.00     0.074 A 
ATOM     73  C   UNL A   1      42.764  30.044  31.329  1.00  0.00     0.031 C 
ATOM     74  C   UNL A   1      42.856  32.596  30.997  1.00  0.00     0.031 A 
BRANCH  61  75
ATOM     75  C   UNL A   1      41.793  30.728  35.923  1.00  0.00    -0.014 A 
ATOM     76  C   UNL A   1      42.885  30.878  36.798  1.00  0.00     0.009 A 
ATOM     77  C   UNL A   1      41.590  29.454  35.360  1.00  0.00     0.009 A 
ATOM     78  C   UNL A   1      43.741  29.806  37.076  1.00  0.00     0.001 A 
ATOM     79  C   UNL A   1      42.441  28.383  35.644  1.00  0.00     0.001 A 
ATOM     80  C   UNL A   1      43.520  28.559  36.498  1.00  0.00     0.000 A 
ENDBRANCH  61  75
BRANCH  62  81
ATOM     81  C   UNL A   1      40.171  28.348  28.029  1.00  0.00    -0.014 A 
ATOM     82  C   UNL A   1      40.869  28.283  26.814  1.00  0.00     0.009 A 
ATOM     83  C   UNL A   1      39.598  27.164  28.527  1.00  0.00     0.009 A 
ATOM     84  C   UNL A   1      41.037  27.063  26.147  1.00  0.00     0.001 A 
ATOM     85  C   UNL A   1      39.768  25.946  27.860  1.00  0.00     0.001 A 
ATOM     86  C   UNL A   1      40.504  25.892  26.680  1.00  0.00     0.000 A 
ENDBRANCH  62  81
BRANCH  74  87
ATOM     87  C   UNL A   1      42.832  33.665  29.947  1.00  0.00    -0.014 A 
ATOM     88  C   UNL A   1      43.907  33.942  29.086  1.00  0.00     0.009 A 
ATOM     89  C   UNL A   1      41.626  34.356  29.766  1.00  0.00     0.009 A 
ATOM     90  C   UNL A   1      43.776  34.907  28.083  1.00  0.00     0.001 A 
ATOM     91  C   UNL A   1      41.489  35.301  28.751  1.00  0.00     0.001 A 
ATOM     92  C   UNL A   1      42.566  35.581  27.913  1.00  0.00     0.000 A 
ENDBRANCH  74  87
ENDBRANCH  48  49
ENDBRANCH  40  43
ENDBRANCH  38  39
ENDBRANCH  37  38
ENDBRANCH  36  37
ENDBRANCH  35  36
ENDBRANCH  34  35
ENDBRANCH   1  34
TORSDOF 19
ENDMDL
MODEL 2
REMARK VINA RESULT:     -11.8      3.585      7.130
REMARK SMILES O=C(CSc1nnnn1-c1ccc(C(=O)NCCCCCCNC(=O)c2ccc(-c3c4nc(c(-c5ccccc5)c5ccc([nH]5)c(-c5ccccc5)c5nc(c(-c6ccccc6)c6ccc3[nH]6)C=C5)C=C4)cc2)cc1)Nc1nc(-c2ccccc2)cs1
REMARK SMILES IDX 17 1 16 2 14 3 15 4 13 6 10 7 11 8 75 9 12 10 74 11 9 12
REMARK SMILES IDX 5 13 6 14 7 15 8 16 4 17 3 18 2 19 1 20 76 21 77 23 78 24
REMARK SMILES IDX 87 25 79 26 86 27 80 28 81 29 85 30 82 31 84 32 83 33 18 34
REMARK SMILES IDX 19 35 20 36 21 37 22 38 23 39 24 40 25 42 26 43 27 44 73 45
REMARK SMILES IDX 28 46 72 47 29 48 30 49 31 50 66 51 32 52 71 53 65 54 67 55
REMARK SMILES IDX 33 56 70 57 64 58 63 59 34 61 56 62 41 63 55 64 42 65 45 66
REMARK SMILES IDX 54 67 68 68 43 69 44 70 53 72 69 73 46 74 35 75 36 76 40 77
REMARK SMILES IDX 37 78 39 79 38 80 57 81 58 82 62 83 59 84 61 85 60 86 47 87
REMARK SMILES IDX 48 88 52 89 49 90 51 91 50 92
REMARK H PARENT 16 5 76 22 23 41 67 60 45 71
REMARK Flexibility Score: inf
ROOT
ATOM      1  C   UNL A   1      35.749  29.699  28.804  1.00  0.00     0.116 C 
ENDROOT
BRANCH   1   2
ATOM      2  N   UNL A   1      34.816  30.793  28.606  1.00  0.00    -0.352 N 
ATOM      3  C   UNL A   1      33.860  31.045  27.655  1.00  0.00     0.251 C 
ATOM      4  O   UNL A   1      33.210  32.085  27.757  1.00  0.00    -0.269 OA
ATOM      5  H   UNL A   1      34.882  31.495  29.293  1.00  0.00     0.163 HD
BRANCH   3   6
ATOM      6  C   UNL A   1      33.522  30.085  26.568  1.00  0.00     0.039 A 
ATOM      7  C   UNL A   1      33.184  28.356  24.400  1.00  0.00     0.069 A 
ATOM      8  C   UNL A   1      34.218  28.115  25.302  1.00  0.00     0.029 A 
ATOM      9  C   UNL A   1      32.245  29.361  24.640  1.00  0.00     0.029 A 
ATOM     10  C   UNL A   1      34.401  29.004  26.367  1.00  0.00     0.016 A 
ATOM     11  C   UNL A   1      32.395  30.191  25.752  1.00  0.00     0.016 A 
BRANCH   7  12
ATOM     12  N   UNL A   1      33.032  27.540  23.271  1.00  0.00    -0.187 N 
ATOM     13  C   UNL A   1      32.287  26.388  23.097  1.00  0.00     0.214 A 
ATOM     14  N   UNL A   1      32.728  25.763  22.027  1.00  0.00    -0.101 NA
ATOM     15  N   UNL A   1      33.696  26.575  21.489  1.00  0.00    -0.022 NA
ATOM     16  N   UNL A   1      33.839  27.688  22.198  1.00  0.00    -0.039 NA
BRANCH  13  17
ATOM     17  S   UNL A   1      30.697  26.120  23.750  1.00  0.00    -0.074 SA
BRANCH  17  18
ATOM     18  C   UNL A   1      30.323  24.385  23.461  1.00  0.00     0.178 C 
BRANCH  18  19
ATOM     19  C   UNL A   1      31.226  23.414  24.185  1.00  0.00     0.236 C 
ATOM     20  O   UNL A   1      31.068  23.244  25.393  1.00  0.00    -0.274 OA
ATOM     21  N   UNL A   1      32.143  22.781  23.379  1.00  0.00    -0.301 N 
ATOM     22  H   UNL A   1      32.231  23.055  22.438  1.00  0.00     0.172 HD
BRANCH  21  23
ATOM     23  C   UNL A   1      32.934  21.780  23.863  1.00  0.00     0.189 A 
ATOM     24  N   UNL A   1      32.651  20.511  23.976  1.00  0.00    -0.220 NA
ATOM     25  S   UNL A   1      34.487  22.269  24.371  1.00  0.00    -0.105 S 
ATOM     26  C   UNL A   1      33.710  19.865  24.571  1.00  0.00     0.084 A 
ATOM     27  C   UNL A   1      34.788  20.662  24.902  1.00  0.00     0.097 A 
BRANCH  26  28
ATOM     28  C   UNL A   1      33.680  18.436  24.778  1.00  0.00     0.001 A 
ATOM     29  C   UNL A   1      32.587  17.868  25.444  1.00  0.00     0.010 A 
ATOM     30  C   UNL A   1      34.732  17.626  24.342  1.00  0.00     0.010 A 
ATOM     31  C   UNL A   1      32.527  16.491  25.640  1.00  0.00     0.001 A 
ATOM     32  C   UNL A   1      34.674  16.248  24.547  1.00  0.00     0.001 A 
ATOM     33  C   UNL A   1      33.565  15.686  25.182  1.00  0.00     0.000 A 
ENDBRANCH  26  28
ENDBRANCH  21  23
ENDBRANCH  18  19
ENDBRANCH  17  18
ENDBRANCH  13  17
ENDBRANCH   7  12
ENDBRANCH   3   6
ENDBRANCH   1   2
BRANCH   1  34
ATOM     34  C   UNL A   1      36.322  29.745  30.223  1.00  0.00     0.021 C 
BRANCH  34  35
ATOM     35  C   UNL A   1      35.985  31.040  30.974  1.00  0.00     0.002 C 
BRANCH  35  36
ATOM     36  C   UNL A   1      36.570  31.151  32.392  1.00  0.00     0.002 C 
BRANCH  36  37
ATOM     37  C   UNL A   1      36.985  32.560  32.839  1.00  0.00     0.021 C 
BRANCH  37  38
ATOM     38  C   UNL A   1      38.486  32.799  32.766  1.00  0.00     0.116 C 
BRANCH  38  39
ATOM     39  N   UNL A   1      38.835  33.766  31.729  1.00  0.00    -0.352 N 
ATOM     40  C   UNL A   1      39.835  33.690  30.780  1.00  0.00     0.251 C 
ATOM     41  H   UNL A   1      38.282  34.581  31.703  1.00  0.00     0.163 HD
ATOM     42  O   UNL A   1      40.246  34.691  30.220  1.00  0.00    -0.269 OA
BRANCH  40  43
ATOM     43  C   UNL A   1      40.405  32.369  30.461  1.00  0.00     0.039 A 
ATOM     44  C   UNL A   1      41.771  32.127  30.615  1.00  0.00     0.014 A 
ATOM     45  C   UNL A   1      39.548  31.364  30.020  1.00  0.00     0.014 A 
ATOM     46  C   UNL A   1      42.252  30.837  30.402  1.00  0.00     0.010 A 
ATOM     47  C   UNL A   1      39.996  30.067  29.948  1.00  0.00     0.010 A 
ATOM     48  C   UNL A   1      41.352  29.802  30.095  1.00  0.00    -0.014 A 
BRANCH  48  49
ATOM     49  C   UNL A   1      41.813  28.419  30.032  1.00  0.00     0.031 A 
ATOM     50  C   UNL A   1      42.520  27.953  31.254  1.00  0.00     0.074 A 
ATOM     51  C   UNL A   1      41.484  27.559  29.042  1.00  0.00     0.049 A 
ATOM     52  N   UNL A   1      43.791  27.775  31.393  1.00  0.00    -0.248 NA
ATOM     53  C   UNL A   1      41.754  27.781  32.501  1.00  0.00     0.031 C 
ATOM     54  C   UNL A   1      40.543  27.781  27.935  1.00  0.00     0.029 A 
ATOM     55  N   UNL A   1      41.843  26.253  28.871  1.00  0.00    -0.354 N 
ATOM     56  C   UNL A   1      43.962  27.238  32.663  1.00  0.00     0.074 A 
ATOM     57  C   UNL A   1      42.713  27.421  33.360  1.00  0.00     0.031 C 
ATOM     58  C   UNL A   1      40.217  26.597  27.371  1.00  0.00     0.029 A 
ATOM     59  C   UNL A   1      41.071  25.571  27.937  1.00  0.00     0.049 A 
ATOM     60  H   UNL A   1      42.582  25.832  29.365  1.00  0.00     0.167 HD
ATOM     61  C   UNL A   1      44.992  26.387  32.922  1.00  0.00     0.031 A 
ATOM     62  C   UNL A   1      41.130  24.254  27.631  1.00  0.00     0.031 A 
ATOM     63  C   UNL A   1      45.918  26.318  31.826  1.00  0.00     0.049 A 
ATOM     64  C   UNL A   1      42.463  23.765  28.032  1.00  0.00     0.074 A 
ATOM     65  C   UNL A   1      46.902  27.099  31.269  1.00  0.00     0.029 A 
ATOM     66  N   UNL A   1      45.570  25.367  30.905  1.00  0.00    -0.354 N 
ATOM     67  N   UNL A   1      43.562  24.137  27.444  1.00  0.00    -0.248 NA
ATOM     68  C   UNL A   1      42.631  23.104  29.320  1.00  0.00     0.031 C 
ATOM     69  C   UNL A   1      46.977  26.704  29.898  1.00  0.00     0.029 A 
ATOM     70  C   UNL A   1      46.069  25.670  29.673  1.00  0.00     0.049 A 
ATOM     71  H   UNL A   1      45.030  24.569  31.106  1.00  0.00     0.167 HD
ATOM     72  C   UNL A   1      44.494  24.174  28.462  1.00  0.00     0.074 A 
ATOM     73  C   UNL A   1      43.927  23.355  29.528  1.00  0.00     0.031 C 
ATOM     74  C   UNL A   1      45.477  25.121  28.473  1.00  0.00     0.031 A 
BRANCH  61  75
ATOM     75  C   UNL A   1      44.853  25.178  33.811  1.00  0.00    -0.014 A 
ATOM     76  C   UNL A   1      46.006  24.448  34.152  1.00  0.00     0.009 A 
ATOM     77  C   UNL A   1      43.612  24.527  33.954  1.00  0.00     0.009 A 
ATOM     78  C   UNL A   1      45.917  23.123  34.597  1.00  0.00     0.001 A 
ATOM     79  C   UNL A   1      43.525  23.208  34.406  1.00  0.00     0.001 A 
ATOM     80  C   UNL A   1      44.677  22.504  34.722  1.00  0.00     0.000 A 
ENDBRANCH  61  75
BRANCH  62  81
ATOM     81  C   UNL A   1      40.080  23.339  27.143  1.00  0.00    -0.014 A 
ATOM     82  C   UNL A   1      38.838  23.833  26.717  1.00  0.00     0.009 A 
ATOM     83  C   UNL A   1      40.409  22.011  26.820  1.00  0.00     0.009 A 
ATOM     84  C   UNL A   1      37.977  23.042  25.946  1.00  0.00     0.001 A 
ATOM     85  C   UNL A   1      39.549  21.223  26.047  1.00  0.00     0.001 A 
ATOM     86  C   UNL A   1      38.342  21.745  25.594  1.00  0.00     0.000 A 
ENDBRANCH  62  81
BRANCH  74  87
ATOM     87  C   UNL A   1      45.837  25.768  27.170  1.00  0.00    -0.014 A 
ATOM     88  C   UNL A   1      46.792  25.253  26.278  1.00  0.00     0.009 A 
ATOM     89  C   UNL A   1      45.100  26.899  26.792  1.00  0.00     0.009 A 
ATOM     90  C   UNL A   1      47.015  25.878  25.046  1.00  0.00     0.001 A 
ATOM     91  C   UNL A   1      45.307  27.507  25.556  1.00  0.00     0.001 A 
ATOM     92  C   UNL A   1      46.269  27.000  24.685  1.00  0.00     0.000 A 
ENDBRANCH  74  87
ENDBRANCH  48  49
ENDBRANCH  40  43
ENDBRANCH  38  39
ENDBRANCH  37  38
ENDBRANCH  36  37
ENDBRANCH  35  36
ENDBRANCH  34  35
ENDBRANCH   1  34
TORSDOF 19
ENDMDL
MODEL 3
REMARK VINA RESULT:     -11.3      2.978      9.714
REMARK SMILES O=C(CSc1nnnn1-c1ccc(C(=O)NCCCCCCNC(=O)c2ccc(-c3c4nc(c(-c5ccccc5)c5ccc([nH]5)c(-c5ccccc5)c5nc(c(-c6ccccc6)c6ccc3[nH]6)C=C5)C=C4)cc2)cc1)Nc1nc(-c2ccccc2)cs1
REMARK SMILES IDX 17 1 16 2 14 3 15 4 13 6 10 7 11 8 75 9 12 10 74 11 9 12
REMARK SMILES IDX 5 13 6 14 7 15 8 16 4 17 3 18 2 19 1 20 76 21 77 23 78 24
REMARK SMILES IDX 87 25 79 26 86 27 80 28 81 29 85 30 82 31 84 32 83 33 18 34
REMARK SMILES IDX 19 35 20 36 21 37 22 38 23 39 24 40 25 42 26 43 27 44 73 45
REMARK SMILES IDX 28 46 72 47 29 48 30 49 31 50 66 51 32 52 71 53 65 54 67 55
REMARK SMILES IDX 33 56 70 57 64 58 63 59 34 61 56 62 41 63 55 64 42 65 45 66
REMARK SMILES IDX 54 67 68 68 43 69 44 70 53 72 69 73 46 74 35 75 36 76 40 77
REMARK SMILES IDX 37 78 39 79 38 80 57 81 58 82 62 83 59 84 61 85 60 86 47 87
REMARK SMILES IDX 48 88 52 89 49 90 51 91 50 92
REMARK H PARENT 16 5 76 22 23 41 67 60 45 71
REMARK Flexibility Score: inf
ROOT
ATOM      1  C   UNL A   1      43.014  20.142  25.500  1.00  0.00     0.116 C 
ENDROOT
BRANCH   1   2
ATOM      2  N   UNL A   1      42.366  19.832  26.762  1.00  0.00    -0.352 N 
ATOM      3  C   UNL A   1      41.087  20.011  27.223  1.00  0.00     0.251 C 
ATOM      4  O   UNL A   1      40.833  19.637  28.368  1.00  0.00    -0.269 OA
ATOM      5  H   UNL A   1      42.965  19.409  27.418  1.00  0.00     0.163 HD
BRANCH   3   6
ATOM      6  C   UNL A   1      39.986  20.554  26.379  1.00  0.00     0.039 A 
ATOM      7  C   UNL A   1      37.782  21.672  25.077  1.00  0.00     0.069 A 
ATOM      8  C   UNL A   1      38.625  22.501  25.814  1.00  0.00     0.029 A 
ATOM      9  C   UNL A   1      38.100  20.327  24.876  1.00  0.00     0.029 A 
ATOM     10  C   UNL A   1      39.708  21.929  26.490  1.00  0.00     0.016 A 
ATOM     11  C   UNL A   1      39.229  19.787  25.491  1.00  0.00     0.016 A 
BRANCH   7  12
ATOM     12  N   UNL A   1      36.636  22.199  24.468  1.00  0.00    -0.187 N 
ATOM     13  C   UNL A   1      35.299  21.941  24.709  1.00  0.00     0.214 A 
ATOM     14  N   UNL A   1      34.600  22.359  23.677  1.00  0.00    -0.101 NA
ATOM     15  N   UNL A   1      35.501  22.955  22.828  1.00  0.00    -0.022 NA
ATOM     16  N   UNL A   1      36.728  22.925  23.332  1.00  0.00    -0.039 NA
BRANCH  13  17
ATOM     17  S   UNL A   1      34.596  21.706  26.283  1.00  0.00    -0.074 SA
BRANCH  17  18
ATOM     18  C   UNL A   1      32.822  21.911  26.075  1.00  0.00     0.178 C 
BRANCH  18  19
ATOM     19  C   UNL A   1      32.358  23.345  25.973  1.00  0.00     0.236 C 
ATOM     20  O   UNL A   1      31.902  23.894  26.975  1.00  0.00    -0.274 OA
ATOM     21  N   UNL A   1      32.530  23.912  24.732  1.00  0.00    -0.301 N 
ATOM     22  H   UNL A   1      32.834  23.351  23.981  1.00  0.00     0.172 HD
BRANCH  21  23
ATOM     23  C   UNL A   1      32.285  25.237  24.522  1.00  0.00     0.189 A 
ATOM     24  N   UNL A   1      31.265  25.784  23.919  1.00  0.00    -0.220 NA
ATOM     25  S   UNL A   1      33.470  26.296  25.142  1.00  0.00    -0.105 S 
ATOM     26  C   UNL A   1      31.447  27.148  23.874  1.00  0.00     0.084 A 
ATOM     27  C   UNL A   1      32.612  27.616  24.449  1.00  0.00     0.097 A 
BRANCH  26  28
ATOM     28  C   UNL A   1      30.441  28.007  23.296  1.00  0.00     0.001 A 
ATOM     29  C   UNL A   1      29.089  27.698  23.490  1.00  0.00     0.010 A 
ATOM     30  C   UNL A   1      30.802  29.122  22.535  1.00  0.00     0.010 A 
ATOM     31  C   UNL A   1      28.101  28.522  22.957  1.00  0.00     0.001 A 
ATOM     32  C   UNL A   1      29.811  29.940  21.994  1.00  0.00     0.001 A 
ATOM     33  C   UNL A   1      28.466  29.645  22.220  1.00  0.00     0.000 A 
ENDBRANCH  26  28
ENDBRANCH  21  23
ENDBRANCH  18  19
ENDBRANCH  17  18
ENDBRANCH  13  17
ENDBRANCH   7  12
ENDBRANCH   3   6
ENDBRANCH   1   2
BRANCH   1  34
ATOM     34  C   UNL A   1      43.944  21.346  25.667  1.00  0.00     0.021 C 
BRANCH  34  35
ATOM     35  C   UNL A   1      43.229  22.695  25.510  1.00  0.00     0.002 C 
BRANCH  35  36
ATOM     36  C   UNL A   1      43.271  23.611  26.745  1.00  0.00     0.002 C 
BRANCH  36  37
ATOM     37  C   UNL A   1      42.802  22.982  28.064  1.00  0.00     0.021 C 
BRANCH  37  38
ATOM     38  C   UNL A   1      43.172  23.803  29.290  1.00  0.00     0.116 C 
BRANCH  38  39
ATOM     39  N   UNL A   1      44.616  23.985  29.412  1.00  0.00    -0.352 N 
ATOM     40  C   UNL A   1      45.365  25.120  29.178  1.00  0.00     0.251 C 
ATOM     41  H   UNL A   1      45.122  23.190  29.699  1.00  0.00     0.163 HD
ATOM     42  O   UNL A   1      46.564  25.050  28.970  1.00  0.00    -0.269 OA
BRANCH  40  43
ATOM     43  C   UNL A   1      44.684  26.427  29.178  1.00  0.00     0.039 A 
ATOM     44  C   UNL A   1      44.291  27.026  27.980  1.00  0.00     0.014 A 
ATOM     45  C   UNL A   1      44.425  27.043  30.401  1.00  0.00     0.014 A 
ATOM     46  C   UNL A   1      43.558  28.209  28.030  1.00  0.00     0.010 A 
ATOM     47  C   UNL A   1      43.585  28.128  30.455  1.00  0.00     0.010 A 
ATOM     48  C   UNL A   1      43.184  28.743  29.275  1.00  0.00    -0.014 A 
BRANCH  48  49
ATOM     49  C   UNL A   1      42.279  29.885  29.345  1.00  0.00     0.031 A 
ATOM     50  C   UNL A   1      42.940  31.203  29.162  1.00  0.00     0.074 A 
ATOM     51  C   UNL A   1      40.932  29.778  29.390  1.00  0.00     0.049 A 
ATOM     52  N   UNL A   1      43.201  32.073  30.080  1.00  0.00    -0.248 NA
ATOM     53  C   UNL A   1      43.488  31.550  27.839  1.00  0.00     0.031 C 
ATOM     54  C   UNL A   1      40.123  28.557  29.263  1.00  0.00     0.029 A 
ATOM     55  N   UNL A   1      39.984  30.758  29.454  1.00  0.00    -0.354 N 
ATOM     56  C   UNL A   1      43.724  33.177  29.417  1.00  0.00     0.074 A 
ATOM     57  C   UNL A   1      44.037  32.746  28.078  1.00  0.00     0.031 C 
ATOM     58  C   UNL A   1      38.837  28.888  29.006  1.00  0.00     0.029 A 
ATOM     59  C   UNL A   1      38.698  30.324  29.153  1.00  0.00     0.049 A 
ATOM     60  H   UNL A   1      40.192  31.690  29.692  1.00  0.00     0.167 HD
ATOM     61  C   UNL A   1      43.539  34.432  29.912  1.00  0.00     0.031 A 
ATOM     62  C   UNL A   1      37.582  31.083  29.041  1.00  0.00     0.031 A 
ATOM     63  C   UNL A   1      42.961  34.410  31.227  1.00  0.00     0.049 A 
ATOM     64  C   UNL A   1      37.816  32.329  29.794  1.00  0.00     0.074 A 
ATOM     65  C   UNL A   1      43.356  34.126  32.512  1.00  0.00     0.029 A 
ATOM     66  N   UNL A   1      41.592  34.389  31.198  1.00  0.00    -0.354 N 
ATOM     67  N   UNL A   1      37.931  32.364  31.091  1.00  0.00    -0.248 NA
ATOM     68  C   UNL A   1      38.264  33.524  29.091  1.00  0.00     0.031 C 
ATOM     69  C   UNL A   1      42.170  33.726  33.200  1.00  0.00     0.029 A 
ATOM     70  C   UNL A   1      41.085  33.820  32.328  1.00  0.00     0.049 A 
ATOM     71  H   UNL A   1      41.047  34.740  30.458  1.00  0.00     0.167 HD
ATOM     72  C   UNL A   1      38.859  33.360  31.321  1.00  0.00     0.074 A 
ATOM     73  C   UNL A   1      38.877  34.154  30.097  1.00  0.00     0.031 C 
ATOM     74  C   UNL A   1      39.754  33.255  32.345  1.00  0.00     0.031 A 
BRANCH  61  75
ATOM     75  C   UNL A   1      43.261  35.626  29.035  1.00  0.00    -0.014 A 
ATOM     76  C   UNL A   1      42.012  35.726  28.397  1.00  0.00     0.009 A 
ATOM     77  C   UNL A   1      44.316  36.396  28.509  1.00  0.00     0.009 A 
ATOM     78  C   UNL A   1      41.837  36.544  27.274  1.00  0.00     0.001 A 
ATOM     79  C   UNL A   1      44.138  37.218  27.394  1.00  0.00     0.001 A 
ATOM     80  C   UNL A   1      42.900  37.288  26.772  1.00  0.00     0.000 A 
ENDBRANCH  61  75
BRANCH  62  81
ATOM     81  C   UNL A   1      36.372  30.885  28.221  1.00  0.00    -0.014 A 
ATOM     82  C   UNL A   1      35.972  29.599  27.829  1.00  0.00     0.009 A 
ATOM     83  C   UNL A   1      35.450  31.937  28.076  1.00  0.00     0.009 A 
ATOM     84  C   UNL A   1      34.673  29.362  27.359  1.00  0.00     0.001 A 
ATOM     85  C   UNL A   1      34.153  31.699  27.608  1.00  0.00     0.001 A 
ATOM     86  C   UNL A   1      33.759  30.409  27.268  1.00  0.00     0.000 A 
ENDBRANCH  62  81
BRANCH  74  87
ATOM     87  C   UNL A   1      39.407  32.344  33.483  1.00  0.00    -0.014 A 
ATOM     88  C   UNL A   1      38.609  32.722  34.575  1.00  0.00     0.009 A 
ATOM     89  C   UNL A   1      39.836  31.012  33.390  1.00  0.00     0.009 A 
ATOM     90  C   UNL A   1      38.270  31.788  35.559  1.00  0.00     0.001 A 
ATOM     91  C   UNL A   1      39.479  30.077  34.359  1.00  0.00     0.001 A 
ATOM     92  C   UNL A   1      38.701  30.466  35.447  1.00  0.00     0.000 A 
ENDBRANCH  74  87
ENDBRANCH  48  49
ENDBRANCH  40  43
ENDBRANCH  38  39
ENDBRANCH  37  38
ENDBRANCH  36  37
ENDBRANCH  35  36
ENDBRANCH  34  35
ENDBRANCH   1  34
TORSDOF 19
ENDMDL
