MODEL 1
REMARK VINA RESULT:     -11.4      0.000      0.000
REMARK SMILES O=C(NCCCCCCNC(=O)c1c(S(=O)(=O)N2CCO[C@@H](CCO)C2)sc2c1CC[NH2+]C2)c1ccc(-c2c3nc(c(-c4ccccc4)c4ccc([nH]4)c(-c4ccccc4)c4nc(c(-c5ccccc5)c5ccc2[nH]5)C=C4)C=C3)cc1
REMARK SMILES IDX 8 1 7 2 6 3 5 4 4 5 3 6 1 7 2 8 34 10 35 11 81 12 36 13
REMARK SMILES IDX 80 14 37 15 38 16 39 17 74 18 40 19 79 20 73 21 75 22 41 23
REMARK SMILES IDX 78 24 72 25 71 26 42 28 64 29 49 30 63 31 50 32 53 33 62 34
REMARK SMILES IDX 76 35 51 36 52 37 61 39 77 40 54 41 43 42 44 43 48 44 45 45
REMARK SMILES IDX 47 46 46 47 65 48 66 49 70 50 67 51 69 52 68 53 55 54 56 55
REMARK SMILES IDX 60 56 57 57 59 58 58 59 9 60 10 61 11 62 12 64 13 65 14 66
REMARK SMILES IDX 29 67 27 68 28 69 30 70 33 71 31 72 32 73 15 76 16 77 17 78
REMARK SMILES IDX 18 79 19 80 26 81 20 82 22 83 21 84 23 85 24 86 25 87
REMARK H PARENT 3 9 75 27 53 38 10 63 32 74 32 75 25 88
REMARK Flexibility Score: inf
ROOT
ATOM      1  C   UNL A   1      37.732  23.302  25.630  1.00  0.00     0.021 C 
ENDROOT
BRANCH   1   2
ATOM      2  C   UNL A   1      38.665  24.049  26.582  1.00  0.00     0.002 C 
BRANCH   2   3
ATOM      3  C   UNL A   1      39.786  23.238  27.239  1.00  0.00     0.002 C 
BRANCH   3   4
ATOM      4  C   UNL A   1      40.159  21.897  26.595  1.00  0.00     0.021 C 
BRANCH   4   5
ATOM      5  C   UNL A   1      41.636  21.510  26.640  1.00  0.00     0.116 C 
BRANCH   5   6
ATOM      6  N   UNL A   1      42.429  22.002  25.535  1.00  0.00    -0.352 N 
ATOM      7  O   UNL A   1      43.696  23.221  24.198  1.00  0.00    -0.269 OA
ATOM      8  C   UNL A   1      43.011  23.199  25.223  1.00  0.00     0.251 C 
ATOM      9  H   UNL A   1      42.587  21.316  24.847  1.00  0.00     0.163 HD
BRANCH   8  10
ATOM     10  C   UNL A   1      42.841  24.462  25.996  1.00  0.00     0.039 A 
ATOM     11  C   UNL A   1      43.442  24.760  27.220  1.00  0.00     0.014 A 
ATOM     12  C   UNL A   1      41.996  25.427  25.419  1.00  0.00     0.014 A 
ATOM     13  C   UNL A   1      43.145  25.947  27.892  1.00  0.00     0.010 A 
ATOM     14  C   UNL A   1      41.722  26.628  26.069  1.00  0.00     0.010 A 
ATOM     15  C   UNL A   1      42.268  26.875  27.330  1.00  0.00    -0.014 A 
BRANCH  15  16
ATOM     16  C   UNL A   1      41.976  28.100  28.079  1.00  0.00     0.031 A 
ATOM     17  C   UNL A   1      42.943  29.235  27.993  1.00  0.00     0.074 A 
ATOM     18  C   UNL A   1      40.792  28.324  28.684  1.00  0.00     0.049 A 
ATOM     19  N   UNL A   1      43.438  29.951  28.956  1.00  0.00    -0.248 NA
ATOM     20  C   UNL A   1      43.384  29.647  26.652  1.00  0.00     0.031 C 
ATOM     21  C   UNL A   1      39.582  27.503  28.596  1.00  0.00     0.029 A 
ATOM     22  N   UNL A   1      40.385  29.422  29.392  1.00  0.00    -0.354 N 
ATOM     23  C   UNL A   1      44.143  30.987  28.346  1.00  0.00     0.074 A 
ATOM     24  C   UNL A   1      44.120  30.724  26.928  1.00  0.00     0.031 C 
ATOM     25  C   UNL A   1      38.528  28.236  29.012  1.00  0.00     0.029 A 
ATOM     26  C   UNL A   1      39.009  29.515  29.509  1.00  0.00     0.049 A 
ATOM     27  H   UNL A   1      41.007  30.078  29.780  1.00  0.00     0.167 HD
ATOM     28  C   UNL A   1      44.595  32.086  29.009  1.00  0.00     0.031 A 
ATOM     29  C   UNL A   1      38.291  30.587  29.908  1.00  0.00     0.031 A 
ATOM     30  C   UNL A   1      44.635  31.930  30.432  1.00  0.00     0.049 A 
ATOM     31  C   UNL A   1      39.168  31.520  30.642  1.00  0.00     0.074 A 
ATOM     32  C   UNL A   1      45.308  31.116  31.319  1.00  0.00     0.029 A 
ATOM     33  N   UNL A   1      43.688  32.590  31.174  1.00  0.00    -0.354 N 
ATOM     34  N   UNL A   1      39.663  31.288  31.823  1.00  0.00    -0.248 NA
ATOM     35  C   UNL A   1      39.736  32.665  29.946  1.00  0.00     0.031 C 
ATOM     36  C   UNL A   1      44.455  31.006  32.457  1.00  0.00     0.029 A 
ATOM     37  C   UNL A   1      43.300  31.736  32.174  1.00  0.00     0.049 A 
ATOM     38  H   UNL A   1      43.353  33.501  31.018  1.00  0.00     0.167 HD
ATOM     39  C   UNL A   1      40.857  31.989  31.853  1.00  0.00     0.074 A 
ATOM     40  C   UNL A   1      40.760  32.941  30.756  1.00  0.00     0.031 C 
ATOM     41  C   UNL A   1      41.924  31.533  32.572  1.00  0.00     0.031 A 
BRANCH  28  42
ATOM     42  C   UNL A   1      44.757  33.436  28.365  1.00  0.00    -0.014 A 
ATOM     43  C   UNL A   1      43.620  34.181  28.009  1.00  0.00     0.009 A 
ATOM     44  C   UNL A   1      45.997  33.880  27.866  1.00  0.00     0.009 A 
ATOM     45  C   UNL A   1      43.719  35.312  27.188  1.00  0.00     0.001 A 
ATOM     46  C   UNL A   1      46.103  35.030  27.078  1.00  0.00     0.001 A 
ATOM     47  C   UNL A   1      44.961  35.738  26.726  1.00  0.00     0.000 A 
ENDBRANCH  28  42
BRANCH  29  48
ATOM     48  C   UNL A   1      36.910  30.934  29.520  1.00  0.00    -0.014 A 
ATOM     49  C   UNL A   1      36.091  31.703  30.357  1.00  0.00     0.009 A 
ATOM     50  C   UNL A   1      36.457  30.674  28.212  1.00  0.00     0.009 A 
ATOM     51  C   UNL A   1      34.862  32.194  29.900  1.00  0.00     0.001 A 
ATOM     52  C   UNL A   1      35.226  31.153  27.759  1.00  0.00     0.001 A 
ATOM     53  C   UNL A   1      34.432  31.922  28.602  1.00  0.00     0.000 A 
ENDBRANCH  29  48
BRANCH  41  54
ATOM     54  C   UNL A   1      41.668  30.453  33.592  1.00  0.00    -0.014 A 
ATOM     55  C   UNL A   1      41.876  29.094  33.304  1.00  0.00     0.009 A 
ATOM     56  C   UNL A   1      41.351  30.816  34.909  1.00  0.00     0.009 A 
ATOM     57  C   UNL A   1      41.727  28.120  34.293  1.00  0.00     0.001 A 
ATOM     58  C   UNL A   1      41.223  29.843  35.904  1.00  0.00     0.001 A 
ATOM     59  C   UNL A   1      41.404  28.495  35.595  1.00  0.00     0.000 A 
ENDBRANCH  41  54
ENDBRANCH  15  16
ENDBRANCH   8  10
ENDBRANCH   5   6
ENDBRANCH   4   5
ENDBRANCH   3   4
ENDBRANCH   2   3
ENDBRANCH   1   2
BRANCH   1  60
ATOM     60  C   UNL A   1      36.505  24.069  25.158  1.00  0.00     0.116 C 
BRANCH  60  61
ATOM     61  N   UNL A   1      35.352  23.939  26.025  1.00  0.00    -0.352 N 
ATOM     62  C   UNL A   1      34.100  24.491  25.896  1.00  0.00     0.253 C 
ATOM     63  H   UNL A   1      35.484  23.376  26.822  1.00  0.00     0.163 HD
ATOM     64  O   UNL A   1      33.270  24.293  26.778  1.00  0.00    -0.269 OA
BRANCH  62  65
ATOM     65  C   UNL A   1      33.831  25.399  24.783  1.00  0.00     0.074 A 
ATOM     66  C   UNL A   1      33.683  25.012  23.450  1.00  0.00     0.148 A 
ATOM     67  C   UNL A   1      33.563  26.814  24.925  1.00  0.00    -0.009 A 
ATOM     68  S   UNL A   1      33.720  26.380  22.425  1.00  0.00    -0.120 S 
ATOM     69  C   UNL A   1      33.375  27.425  23.703  1.00  0.00     0.064 A 
ATOM     70  C   UNL A   1      33.489  27.631  26.185  1.00  0.00     0.099 C 
ATOM     71  C   UNL A   1      32.938  28.841  23.504  1.00  0.00     0.308 C 
ATOM     72  C   UNL A   1      32.828  29.009  25.919  1.00  0.00     0.265 C 
ATOM     73  N   UNL A   1      33.290  29.662  24.675  1.00  0.00    -0.342 N 
ATOM     74  H   UNL A   1      34.303  29.777  24.712  1.00  0.00     0.346 HD
ATOM     75  H   UNL A   1      32.836  30.571  24.591  1.00  0.00     0.346 HD
BRANCH  66  76
ATOM     76  S   UNL A   1      33.575  23.424  22.641  1.00  0.00     0.253 S 
ATOM     77  O   UNL A   1      33.321  23.754  21.235  1.00  0.00    -0.206 OA
ATOM     78  O   UNL A   1      34.778  22.748  23.032  1.00  0.00    -0.206 OA
BRANCH  76  79
ATOM     79  N   UNL A   1      32.267  22.521  23.176  1.00  0.00    -0.192 NA
ATOM     80  C   UNL A   1      31.368  22.988  24.253  1.00  0.00     0.131 C 
ATOM     81  C   UNL A   1      32.216  21.062  22.944  1.00  0.00     0.134 C 
ATOM     82  C   UNL A   1      31.398  22.081  25.493  1.00  0.00     0.177 C 
ATOM     83  C   UNL A   1      32.441  20.323  24.271  1.00  0.00     0.135 C 
ATOM     84  O   UNL A   1      31.384  20.679  25.191  1.00  0.00    -0.375 OA
BRANCH  83  85
ATOM     85  C   UNL A   1      32.472  18.797  24.157  1.00  0.00     0.061 C 
BRANCH  85  86
ATOM     86  C   UNL A   1      33.207  18.094  25.291  1.00  0.00     0.159 C 
BRANCH  86  87
ATOM     87  O   UNL A   1      32.597  18.402  26.535  1.00  0.00    -0.396 OA
ATOM     88  H   UNL A   1      31.800  18.934  26.382  1.00  0.00     0.210 HD
ENDBRANCH  86  87
ENDBRANCH  85  86
ENDBRANCH  83  85
ENDBRANCH  76  79
ENDBRANCH  66  76
ENDBRANCH  62  65
ENDBRANCH  60  61
ENDBRANCH   1  60
TORSDOF 18
ENDMDL
MODEL 2
REMARK VINA RESULT:     -11.3      3.129      7.828
REMARK SMILES O=C(NCCCCCCNC(=O)c1c(S(=O)(=O)N2CCO[C@@H](CCO)C2)sc2c1CC[NH2+]C2)c1ccc(-c2c3nc(c(-c4ccccc4)c4ccc([nH]4)c(-c4ccccc4)c4nc(c(-c5ccccc5)c5ccc2[nH]5)C=C4)C=C3)cc1
REMARK SMILES IDX 8 1 7 2 6 3 5 4 4 5 3 6 1 7 2 8 34 10 35 11 81 12 36 13
REMARK SMILES IDX 80 14 37 15 38 16 39 17 74 18 40 19 79 20 73 21 75 22 41 23
REMARK SMILES IDX 78 24 72 25 71 26 42 28 64 29 49 30 63 31 50 32 53 33 62 34
REMARK SMILES IDX 76 35 51 36 52 37 61 39 77 40 54 41 43 42 44 43 48 44 45 45
REMARK SMILES IDX 47 46 46 47 65 48 66 49 70 50 67 51 69 52 68 53 55 54 56 55
REMARK SMILES IDX 60 56 57 57 59 58 58 59 9 60 10 61 11 62 12 64 13 65 14 66
REMARK SMILES IDX 29 67 27 68 28 69 30 70 33 71 31 72 32 73 15 76 16 77 17 78
REMARK SMILES IDX 18 79 19 80 26 81 20 82 22 83 21 84 23 85 24 86 25 87
REMARK H PARENT 3 9 75 27 53 38 10 63 32 74 32 75 25 88
REMARK Flexibility Score: inf
ROOT
ATOM      1  C   UNL A   1      33.180  29.534  26.972  1.00  0.00     0.021 C 
ENDROOT
BRANCH   1   2
ATOM      2  C   UNL A   1      34.676  29.247  26.852  1.00  0.00     0.002 C 
BRANCH   2   3
ATOM      3  C   UNL A   1      35.622  30.117  27.687  1.00  0.00     0.002 C 
BRANCH   3   4
ATOM      4  C   UNL A   1      35.273  31.603  27.830  1.00  0.00     0.021 C 
BRANCH   4   5
ATOM      5  C   UNL A   1      34.542  32.008  29.109  1.00  0.00     0.116 C 
BRANCH   5   6
ATOM      6  N   UNL A   1      35.299  32.858  30.001  1.00  0.00    -0.352 N 
ATOM      7  O   UNL A   1      36.883  33.777  31.236  1.00  0.00    -0.269 OA
ATOM      8  C   UNL A   1      36.540  32.798  30.569  1.00  0.00     0.251 C 
ATOM      9  H   UNL A   1      34.805  33.670  30.260  1.00  0.00     0.163 HD
BRANCH   8  10
ATOM     10  C   UNL A   1      37.470  31.637  30.476  1.00  0.00     0.039 A 
ATOM     11  C   UNL A   1      37.198  30.334  30.897  1.00  0.00     0.014 A 
ATOM     12  C   UNL A   1      38.729  31.902  29.910  1.00  0.00     0.014 A 
ATOM     13  C   UNL A   1      38.178  29.343  30.833  1.00  0.00     0.010 A 
ATOM     14  C   UNL A   1      39.702  30.908  29.813  1.00  0.00     0.010 A 
ATOM     15  C   UNL A   1      39.440  29.631  30.312  1.00  0.00    -0.014 A 
BRANCH  15  16
ATOM     16  C   UNL A   1      40.441  28.562  30.279  1.00  0.00     0.031 A 
ATOM     17  C   UNL A   1      41.229  28.287  31.518  1.00  0.00     0.074 A 
ATOM     18  C   UNL A   1      40.550  27.691  29.255  1.00  0.00     0.049 A 
ATOM     19  N   UNL A   1      42.511  28.123  31.641  1.00  0.00    -0.248 NA
ATOM     20  C   UNL A   1      40.483  28.138  32.777  1.00  0.00     0.031 C 
ATOM     21  C   UNL A   1      39.652  27.556  28.107  1.00  0.00     0.029 A 
ATOM     22  N   UNL A   1      41.418  26.644  29.109  1.00  0.00    -0.354 N 
ATOM     23  C   UNL A   1      42.727  27.718  32.957  1.00  0.00     0.074 A 
ATOM     24  C   UNL A   1      41.450  27.792  33.626  1.00  0.00     0.031 C 
ATOM     25  C   UNL A   1      39.869  26.360  27.522  1.00  0.00     0.029 A 
ATOM     26  C   UNL A   1      40.998  25.715  28.174  1.00  0.00     0.049 A 
ATOM     27  H   UNL A   1      42.258  26.560  29.616  1.00  0.00     0.167 HD
ATOM     28  C   UNL A   1      43.904  27.207  33.407  1.00  0.00     0.031 A 
ATOM     29  C   UNL A   1      41.478  24.466  27.986  1.00  0.00     0.031 A 
ATOM     30  C   UNL A   1      45.017  27.467  32.545  1.00  0.00     0.049 A 
ATOM     31  C   UNL A   1      42.817  24.357  28.598  1.00  0.00     0.074 A 
ATOM     32  C   UNL A   1      45.677  28.592  32.093  1.00  0.00     0.029 A 
ATOM     33  N   UNL A   1      45.515  26.422  31.810  1.00  0.00    -0.354 N 
ATOM     34  N   UNL A   1      43.884  24.944  28.139  1.00  0.00    -0.248 NA
ATOM     35  C   UNL A   1      42.951  23.774  29.924  1.00  0.00     0.031 C 
ATOM     36  C   UNL A   1      46.216  28.231  30.822  1.00  0.00     0.029 A 
ATOM     37  C   UNL A   1      45.822  26.916  30.569  1.00  0.00     0.049 A 
ATOM     38  H   UNL A   1      45.629  25.493  32.116  1.00  0.00     0.167 HD
ATOM     39  C   UNL A   1      44.680  25.157  29.252  1.00  0.00     0.074 A 
ATOM     40  C   UNL A   1      44.139  24.272  30.274  1.00  0.00     0.031 C 
ATOM     41  C   UNL A   1      45.508  26.239  29.330  1.00  0.00     0.031 A 
BRANCH  28  42
ATOM     42  C   UNL A   1      44.002  26.215  34.534  1.00  0.00    -0.014 A 
ATOM     43  C   UNL A   1      44.717  26.547  35.698  1.00  0.00     0.009 A 
ATOM     44  C   UNL A   1      43.625  24.867  34.376  1.00  0.00     0.009 A 
ATOM     45  C   UNL A   1      45.045  25.576  36.652  1.00  0.00     0.001 A 
ATOM     46  C   UNL A   1      43.917  23.903  35.345  1.00  0.00     0.001 A 
ATOM     47  C   UNL A   1      44.642  24.255  36.477  1.00  0.00     0.000 A 
ENDBRANCH  28  42
BRANCH  29  48
ATOM     48  C   UNL A   1      40.749  23.297  27.458  1.00  0.00    -0.014 A 
ATOM     49  C   UNL A   1      39.487  23.434  26.866  1.00  0.00     0.009 A 
ATOM     50  C   UNL A   1      41.395  22.050  27.351  1.00  0.00     0.009 A 
ATOM     51  C   UNL A   1      38.893  22.360  26.192  1.00  0.00     0.001 A 
ATOM     52  C   UNL A   1      40.799  20.975  26.689  1.00  0.00     0.001 A 
ATOM     53  C   UNL A   1      39.550  21.133  26.101  1.00  0.00     0.000 A 
ENDBRANCH  29  48
BRANCH  41  54
ATOM     54  C   UNL A   1      45.792  26.994  28.057  1.00  0.00    -0.014 A 
ATOM     55  C   UNL A   1      44.908  27.966  27.557  1.00  0.00     0.009 A 
ATOM     56  C   UNL A   1      47.033  26.830  27.424  1.00  0.00     0.009 A 
ATOM     57  C   UNL A   1      45.237  28.722  26.430  1.00  0.00     0.001 A 
ATOM     58  C   UNL A   1      47.370  27.602  26.309  1.00  0.00     0.001 A 
ATOM     59  C   UNL A   1      46.470  28.542  25.808  1.00  0.00     0.000 A 
ENDBRANCH  41  54
ENDBRANCH  15  16
ENDBRANCH   8  10
ENDBRANCH   5   6
ENDBRANCH   4   5
ENDBRANCH   3   4
ENDBRANCH   2   3
ENDBRANCH   1   2
BRANCH   1  60
ATOM     60  C   UNL A   1      32.496  30.052  25.716  1.00  0.00     0.116 C 
BRANCH  60  61
ATOM     61  N   UNL A   1      33.124  29.634  24.480  1.00  0.00    -0.352 N 
ATOM     62  C   UNL A   1      32.615  28.862  23.463  1.00  0.00     0.253 C 
ATOM     63  H   UNL A   1      34.049  29.946  24.350  1.00  0.00     0.163 HD
ATOM     64  O   UNL A   1      33.339  28.579  22.512  1.00  0.00    -0.269 OA
BRANCH  62  65
ATOM     65  C   UNL A   1      31.276  28.295  23.599  1.00  0.00     0.074 A 
ATOM     66  C   UNL A   1      30.951  27.181  24.375  1.00  0.00     0.148 A 
ATOM     67  C   UNL A   1      30.076  28.881  23.041  1.00  0.00    -0.009 A 
ATOM     68  S   UNL A   1      29.373  26.637  24.006  1.00  0.00    -0.120 S 
ATOM     69  C   UNL A   1      28.961  28.112  23.303  1.00  0.00     0.064 A 
ATOM     70  C   UNL A   1      29.935  30.150  22.246  1.00  0.00     0.099 C 
ATOM     71  C   UNL A   1      27.550  28.504  22.995  1.00  0.00     0.308 C 
ATOM     72  C   UNL A   1      28.452  30.593  22.158  1.00  0.00     0.265 C 
ATOM     73  N   UNL A   1      27.512  29.481  21.894  1.00  0.00    -0.342 N 
ATOM     74  H   UNL A   1      27.776  29.018  21.024  1.00  0.00     0.346 HD
ATOM     75  H   UNL A   1      26.568  29.858  21.818  1.00  0.00     0.346 HD
BRANCH  66  76
ATOM     76  S   UNL A   1      31.869  26.198  25.550  1.00  0.00     0.253 S 
ATOM     77  O   UNL A   1      33.272  26.452  25.211  1.00  0.00    -0.206 OA
ATOM     78  O   UNL A   1      31.338  26.588  26.824  1.00  0.00    -0.206 OA
BRANCH  76  79
ATOM     79  N   UNL A   1      31.607  24.553  25.351  1.00  0.00    -0.192 NA
ATOM     80  C   UNL A   1      30.813  23.755  26.309  1.00  0.00     0.131 C 
ATOM     81  C   UNL A   1      32.509  23.747  24.502  1.00  0.00     0.134 C 
ATOM     82  C   UNL A   1      31.638  22.662  27.006  1.00  0.00     0.177 C 
ATOM     83  C   UNL A   1      33.377  22.843  25.389  1.00  0.00     0.135 C 
ATOM     84  O   UNL A   1      32.518  21.945  26.127  1.00  0.00    -0.375 OA
BRANCH  83  85
ATOM     85  C   UNL A   1      34.403  21.996  24.631  1.00  0.00     0.061 C 
BRANCH  85  86
ATOM     86  C   UNL A   1      35.394  21.258  25.522  1.00  0.00     0.159 C 
BRANCH  86  87
ATOM     87  O   UNL A   1      35.095  21.496  26.890  1.00  0.00    -0.396 OA
ATOM     88  H   UNL A   1      34.587  20.749  27.244  1.00  0.00     0.210 HD
ENDBRANCH  86  87
ENDBRANCH  85  86
ENDBRANCH  83  85
ENDBRANCH  76  79
ENDBRANCH  66  76
ENDBRANCH  62  65
ENDBRANCH  60  61
ENDBRANCH   1  60
TORSDOF 18
ENDMDL
MODEL 3
REMARK VINA RESULT:     -11.3      2.998      7.641
REMARK SMILES O=C(NCCCCCCNC(=O)c1c(S(=O)(=O)N2CCO[C@@H](CCO)C2)sc2c1CC[NH2+]C2)c1ccc(-c2c3nc(c(-c4ccccc4)c4ccc([nH]4)c(-c4ccccc4)c4nc(c(-c5ccccc5)c5ccc2[nH]5)C=C4)C=C3)cc1
REMARK SMILES IDX 8 1 7 2 6 3 5 4 4 5 3 6 1 7 2 8 34 10 35 11 81 12 36 13
REMARK SMILES IDX 80 14 37 15 38 16 39 17 74 18 40 19 79 20 73 21 75 22 41 23
REMARK SMILES IDX 78 24 72 25 71 26 42 28 64 29 49 30 63 31 50 32 53 33 62 34
REMARK SMILES IDX 76 35 51 36 52 37 61 39 77 40 54 41 43 42 44 43 48 44 45 45
REMARK SMILES IDX 47 46 46 47 65 48 66 49 70 50 67 51 69 52 68 53 55 54 56 55
REMARK SMILES IDX 60 56 57 57 59 58 58 59 9 60 10 61 11 62 12 64 13 65 14 66
REMARK SMILES IDX 29 67 27 68 28 69 30 70 33 71 31 72 32 73 15 76 16 77 17 78
REMARK SMILES IDX 18 79 19 80 26 81 20 82 22 83 21 84 23 85 24 86 25 87
REMARK H PARENT 3 9 75 27 53 38 10 63 32 74 32 75 25 88
REMARK Flexibility Score: inf
ROOT
ATOM      1  C   UNL A   1      35.143  29.255  27.454  1.00  0.00     0.021 C 
ENDROOT
BRANCH   1   2
ATOM      2  C   UNL A   1      35.035  30.757  27.715  1.00  0.00     0.002 C 
BRANCH   2   3
ATOM      3  C   UNL A   1      36.304  31.476  28.184  1.00  0.00     0.002 C 
BRANCH   3   4
ATOM      4  C   UNL A   1      36.147  32.553  29.265  1.00  0.00     0.021 C 
BRANCH   4   5
ATOM      5  C   UNL A   1      37.031  33.790  29.123  1.00  0.00     0.116 C 
BRANCH   5   6
ATOM      6  N   UNL A   1      37.635  34.253  30.353  1.00  0.00    -0.352 N 
ATOM      7  O   UNL A   1      38.954  34.545  32.101  1.00  0.00    -0.269 OA
ATOM      8  C   UNL A   1      38.673  33.830  31.136  1.00  0.00     0.251 C 
ATOM      9  H   UNL A   1      37.198  35.060  30.709  1.00  0.00     0.163 HD
BRANCH   8  10
ATOM     10  C   UNL A   1      39.442  32.570  30.934  1.00  0.00     0.039 A 
ATOM     11  C   UNL A   1      40.703  32.466  30.345  1.00  0.00     0.014 A 
ATOM     12  C   UNL A   1      38.821  31.392  31.387  1.00  0.00     0.014 A 
ATOM     13  C   UNL A   1      41.294  31.218  30.137  1.00  0.00     0.010 A 
ATOM     14  C   UNL A   1      39.420  30.146  31.211  1.00  0.00     0.010 A 
ATOM     15  C   UNL A   1      40.645  30.053  30.549  1.00  0.00    -0.014 A 
BRANCH  15  16
ATOM     16  C   UNL A   1      41.298  28.766  30.295  1.00  0.00     0.031 A 
ATOM     17  C   UNL A   1      42.124  28.160  31.382  1.00  0.00     0.074 A 
ATOM     18  C   UNL A   1      41.035  28.014  29.207  1.00  0.00     0.049 A 
ATOM     19  N   UNL A   1      43.315  27.650  31.303  1.00  0.00    -0.248 NA
ATOM     20  C   UNL A   1      41.526  28.081  32.723  1.00  0.00     0.031 C 
ATOM     21  C   UNL A   1      40.001  28.246  28.197  1.00  0.00     0.029 A 
ATOM     22  N   UNL A   1      41.553  26.795  28.862  1.00  0.00    -0.354 N 
ATOM     23  C   UNL A   1      43.569  27.063  32.541  1.00  0.00     0.074 A 
ATOM     24  C   UNL A   1      42.455  27.401  33.394  1.00  0.00     0.031 C 
ATOM     25  C   UNL A   1      39.804  27.105  27.504  1.00  0.00     0.029 A 
ATOM     26  C   UNL A   1      40.781  26.118  27.936  1.00  0.00     0.049 A 
ATOM     27  H   UNL A   1      42.392  26.438  29.233  1.00  0.00     0.167 HD
ATOM     28  C   UNL A   1      44.604  26.213  32.776  1.00  0.00     0.031 A 
ATOM     29  C   UNL A   1      40.868  24.814  27.592  1.00  0.00     0.031 A 
ATOM     30  C   UNL A   1      45.632  26.259  31.781  1.00  0.00     0.049 A 
ATOM     31  C   UNL A   1      42.188  24.288  27.991  1.00  0.00     0.074 A 
ATOM     32  C   UNL A   1      46.517  27.210  31.316  1.00  0.00     0.029 A 
ATOM     33  N   UNL A   1      45.725  25.204  30.909  1.00  0.00    -0.354 N 
ATOM     34  N   UNL A   1      43.312  24.616  27.423  1.00  0.00    -0.248 NA
ATOM     35  C   UNL A   1      42.317  23.551  29.240  1.00  0.00     0.031 C 
ATOM     36  C   UNL A   1      46.775  26.858  29.958  1.00  0.00     0.029 A 
ATOM     37  C   UNL A   1      46.003  25.730  29.674  1.00  0.00     0.049 A 
ATOM     38  H   UNL A   1      45.614  24.252  31.128  1.00  0.00     0.167 HD
ATOM     39  C   UNL A   1      44.266  24.489  28.419  1.00  0.00     0.074 A 
ATOM     40  C   UNL A   1      43.630  23.675  29.445  1.00  0.00     0.031 C 
ATOM     41  C   UNL A   1      45.365  25.298  28.450  1.00  0.00     0.031 A 
BRANCH  28  42
ATOM     42  C   UNL A   1      44.559  25.114  33.804  1.00  0.00    -0.014 A 
ATOM     43  C   UNL A   1      45.497  25.099  34.851  1.00  0.00     0.009 A 
ATOM     44  C   UNL A   1      43.780  23.956  33.624  1.00  0.00     0.009 A 
ATOM     45  C   UNL A   1      45.652  23.975  35.673  1.00  0.00     0.001 A 
ATOM     46  C   UNL A   1      43.906  22.846  34.466  1.00  0.00     0.001 A 
ATOM     47  C   UNL A   1      44.854  22.851  35.482  1.00  0.00     0.000 A 
ENDBRANCH  28  42
BRANCH  29  48
ATOM     48  C   UNL A   1      39.784  23.944  27.097  1.00  0.00    -0.014 A 
ATOM     49  C   UNL A   1      38.532  24.468  26.751  1.00  0.00     0.009 A 
ATOM     50  C   UNL A   1      40.051  22.602  26.766  1.00  0.00     0.009 A 
ATOM     51  C   UNL A   1      37.580  23.676  26.097  1.00  0.00     0.001 A 
ATOM     52  C   UNL A   1      39.099  21.807  26.124  1.00  0.00     0.001 A 
ATOM     53  C   UNL A   1      37.866  22.348  25.781  1.00  0.00     0.000 A 
ENDBRANCH  29  48
BRANCH  41  54
ATOM     54  C   UNL A   1      45.689  26.083  27.205  1.00  0.00    -0.014 A 
ATOM     55  C   UNL A   1      46.576  25.596  26.229  1.00  0.00     0.009 A 
ATOM     56  C   UNL A   1      44.985  27.266  26.937  1.00  0.00     0.009 A 
ATOM     57  C   UNL A   1      46.786  26.294  25.038  1.00  0.00     0.001 A 
ATOM     58  C   UNL A   1      45.179  27.953  25.736  1.00  0.00     0.001 A 
ATOM     59  C   UNL A   1      46.084  27.472  24.790  1.00  0.00     0.000 A 
ENDBRANCH  41  54
ENDBRANCH  15  16
ENDBRANCH   8  10
ENDBRANCH   5   6
ENDBRANCH   4   5
ENDBRANCH   3   4
ENDBRANCH   2   3
ENDBRANCH   1   2
BRANCH   1  60
ATOM     60  C   UNL A   1      34.212  28.694  26.389  1.00  0.00     0.116 C 
BRANCH  60  61
ATOM     61  N   UNL A   1      33.225  27.762  26.894  1.00  0.00    -0.352 N 
ATOM     62  C   UNL A   1      32.331  26.982  26.199  1.00  0.00     0.253 C 
ATOM     63  H   UNL A   1      33.187  27.676  27.873  1.00  0.00     0.163 HD
ATOM     64  O   UNL A   1      31.535  26.288  26.827  1.00  0.00    -0.269 OA
BRANCH  62  65
ATOM     65  C   UNL A   1      32.264  27.095  24.744  1.00  0.00     0.074 A 
ATOM     66  C   UNL A   1      32.808  26.179  23.843  1.00  0.00     0.148 A 
ATOM     67  C   UNL A   1      31.520  28.113  24.034  1.00  0.00    -0.009 A 
ATOM     68  S   UNL A   1      32.817  26.831  22.263  1.00  0.00    -0.120 S 
ATOM     69  C   UNL A   1      31.662  27.991  22.667  1.00  0.00     0.064 A 
ATOM     70  C   UNL A   1      30.676  29.222  24.599  1.00  0.00     0.099 C 
ATOM     71  C   UNL A   1      30.913  28.788  21.647  1.00  0.00     0.308 C 
ATOM     72  C   UNL A   1      29.776  29.852  23.505  1.00  0.00     0.265 C 
ATOM     73  N   UNL A   1      30.468  30.072  22.216  1.00  0.00    -0.342 N 
ATOM     74  H   UNL A   1      31.280  30.670  22.368  1.00  0.00     0.346 HD
ATOM     75  H   UNL A   1      29.821  30.516  21.565  1.00  0.00     0.346 HD
BRANCH  66  76
ATOM     76  S   UNL A   1      33.560  24.571  24.036  1.00  0.00     0.253 S 
ATOM     77  O   UNL A   1      34.387  24.416  22.836  1.00  0.00    -0.206 OA
ATOM     78  O   UNL A   1      34.156  24.617  25.340  1.00  0.00    -0.206 OA
BRANCH  76  79
ATOM     79  N   UNL A   1      32.431  23.330  24.016  1.00  0.00    -0.192 NA
ATOM     80  C   UNL A   1      31.210  23.357  24.848  1.00  0.00     0.131 C 
ATOM     81  C   UNL A   1      32.808  21.980  23.547  1.00  0.00     0.134 C 
ATOM     82  C   UNL A   1      31.164  22.219  25.880  1.00  0.00     0.177 C 
ATOM     83  C   UNL A   1      32.880  21.022  24.745  1.00  0.00     0.135 C 
ATOM     84  O   UNL A   1      31.577  20.946  25.365  1.00  0.00    -0.375 OA
BRANCH  83  85
ATOM     85  C   UNL A   1      33.323  19.598  24.400  1.00  0.00     0.061 C 
BRANCH  85  86
ATOM     86  C   UNL A   1      32.528  18.503  25.100  1.00  0.00     0.159 C 
BRANCH  86  87
ATOM     87  O   UNL A   1      32.773  18.538  26.499  1.00  0.00    -0.396 OA
ATOM     88  H   UNL A   1      33.721  18.417  26.664  1.00  0.00     0.210 HD
ENDBRANCH  86  87
ENDBRANCH  85  86
ENDBRANCH  83  85
ENDBRANCH  76  79
ENDBRANCH  66  76
ENDBRANCH  62  65
ENDBRANCH  60  61
ENDBRANCH   1  60
TORSDOF 18
ENDMDL
