MODEL 1
REMARK VINA RESULT:      -9.1      0.000      0.000
REMARK SMILES NC(=S)S/C=C/C(=O)NCCCCCCNC(=O)c1ccc(-c2c3nc(c(-c4ccccc4)c4ccc([nH]4)c(-c4ccccc4)c4nc(c(-c5ccccc5)c5ccc2[nH]5)C=C4)C=C3)cc1
REMARK SMILES IDX 12 1 11 2 10 3 9 4 7 5 8 6 6 8 5 9 4 10 2 11 3 12 1 13 13 16
REMARK SMILES IDX 14 17 15 18 16 19 17 20 18 22 19 23 20 24 66 25 21 26 65 27
REMARK SMILES IDX 22 28 23 29 24 30 59 31 25 32 64 33 58 34 60 35 26 36 63 37
REMARK SMILES IDX 57 38 56 39 27 41 49 42 34 43 48 44 35 45 38 46 47 47 61 48
REMARK SMILES IDX 36 49 37 50 46 52 62 53 39 54 28 55 29 56 33 57 30 58 32 59
REMARK SMILES IDX 31 60 50 61 51 62 55 63 52 64 54 65 53 66 40 67 41 68 45 69
REMARK SMILES IDX 42 70 44 71 43 72
REMARK H PARENT 9 7 1 14 1 15 16 21 60 40 38 51
REMARK Flexibility Score: inf
ROOT
ATOM      1  C   UNL A   1      36.900  21.992  25.496  1.00  0.00     0.002 C 
ENDROOT
BRANCH   1   2
ATOM      2  C   UNL A   1      35.510  22.456  25.959  1.00  0.00     0.021 C 
BRANCH   2   3
ATOM      3  C   UNL A   1      34.521  22.686  24.815  1.00  0.00     0.116 C 
BRANCH   3   4
ATOM      4  N   UNL A   1      33.180  22.336  25.245  1.00  0.00    -0.353 N 
ATOM      5  C   UNL A   1      32.400  21.251  25.015  1.00  0.00     0.244 C 
ATOM      6  O   UNL A   1      31.278  21.209  25.516  1.00  0.00    -0.270 OA
ATOM      7  H   UNL A   1      32.755  23.018  25.813  1.00  0.00     0.163 HD
BRANCH   5   8
ATOM      8  C   UNL A   1      32.916  20.069  24.297  1.00  0.00     0.078 C 
ATOM      9  C   UNL A   1      33.648  19.084  24.831  1.00  0.00     0.054 C 
BRANCH   9  10
ATOM     10  S   UNL A   1      34.132  17.669  23.957  1.00  0.00    -0.069 SA
BRANCH  10  11
ATOM     11  C   UNL A   1      34.054  16.296  25.029  1.00  0.00     0.135 C 
ATOM     12  S   UNL A   1      32.783  15.327  25.470  1.00  0.00    -0.053 S 
BRANCH  11  13
ATOM     13  N   UNL A   1      35.285  16.064  25.562  1.00  0.00    -0.384 N 
ATOM     14  H   UNL A   1      36.079  16.048  24.980  1.00  0.00     0.158 HD
ATOM     15  H   UNL A   1      35.382  15.912  26.531  1.00  0.00     0.158 HD
ENDBRANCH  11  13
ENDBRANCH  10  11
ENDBRANCH   9  10
ENDBRANCH   5   8
ENDBRANCH   3   4
ENDBRANCH   2   3
ENDBRANCH   1   2
BRANCH   1  16
ATOM     16  C   UNL A   1      36.903  20.759  24.584  1.00  0.00     0.002 C 
BRANCH  16  17
ATOM     17  C   UNL A   1      37.946  19.697  24.940  1.00  0.00     0.021 C 
BRANCH  17  18
ATOM     18  C   UNL A   1      39.060  20.195  25.855  1.00  0.00     0.116 C 
BRANCH  18  19
ATOM     19  N   UNL A   1      40.209  19.304  25.845  1.00  0.00    -0.352 N 
ATOM     20  C   UNL A   1      41.535  19.594  26.051  1.00  0.00     0.251 C 
ATOM     21  H   UNL A   1      40.008  18.358  25.664  1.00  0.00     0.163 HD
ATOM     22  O   UNL A   1      42.399  18.766  25.790  1.00  0.00    -0.269 OA
BRANCH  20  23
ATOM     23  C   UNL A   1      41.920  20.921  26.578  1.00  0.00     0.039 A 
ATOM     24  C   UNL A   1      42.331  21.910  25.683  1.00  0.00     0.014 A 
ATOM     25  C   UNL A   1      41.886  21.182  27.950  1.00  0.00     0.014 A 
ATOM     26  C   UNL A   1      42.656  23.182  26.160  1.00  0.00     0.010 A 
ATOM     27  C   UNL A   1      42.135  22.468  28.417  1.00  0.00     0.010 A 
ATOM     28  C   UNL A   1      42.530  23.480  27.528  1.00  0.00    -0.014 A 
BRANCH  28  29
ATOM     29  C   UNL A   1      42.807  24.842  28.045  1.00  0.00     0.031 A 
ATOM     30  C   UNL A   1      44.204  25.229  28.447  1.00  0.00     0.074 A 
ATOM     31  C   UNL A   1      41.791  25.712  28.209  1.00  0.00     0.049 A 
ATOM     32  N   UNL A   1      44.633  26.354  28.962  1.00  0.00    -0.248 NA
ATOM     33  C   UNL A   1      45.254  24.213  28.268  1.00  0.00     0.031 C 
ATOM     34  C   UNL A   1      40.387  25.446  27.890  1.00  0.00     0.029 A 
ATOM     35  N   UNL A   1      41.785  26.998  28.688  1.00  0.00    -0.354 N 
ATOM     36  C   UNL A   1      45.993  26.173  29.184  1.00  0.00     0.074 A 
ATOM     37  C   UNL A   1      46.308  24.816  28.796  1.00  0.00     0.031 C 
ATOM     38  C   UNL A   1      39.662  26.546  28.152  1.00  0.00     0.029 A 
ATOM     39  C   UNL A   1      40.539  27.576  28.697  1.00  0.00     0.049 A 
ATOM     40  H   UNL A   1      42.596  27.462  28.996  1.00  0.00     0.167 HD
ATOM     41  C   UNL A   1      46.901  27.062  29.652  1.00  0.00     0.031 A 
ATOM     42  C   UNL A   1      40.145  28.797  29.105  1.00  0.00     0.031 A 
ATOM     43  C   UNL A   1      46.587  28.414  30.030  1.00  0.00     0.049 A 
ATOM     44  C   UNL A   1      41.170  29.756  29.645  1.00  0.00     0.074 A 
ATOM     45  C   UNL A   1      47.448  29.410  30.459  1.00  0.00     0.029 A 
ATOM     46  N   UNL A   1      45.313  28.958  30.030  1.00  0.00    -0.354 N 
ATOM     47  N   UNL A   1      42.464  29.594  29.780  1.00  0.00    -0.248 NA
ATOM     48  C   UNL A   1      40.679  31.070  30.080  1.00  0.00     0.031 C 
ATOM     49  C   UNL A   1      46.685  30.538  30.777  1.00  0.00     0.029 A 
ATOM     50  C   UNL A   1      45.359  30.267  30.482  1.00  0.00     0.049 A 
ATOM     51  H   UNL A   1      44.495  28.485  29.750  1.00  0.00     0.167 HD
ATOM     52  C   UNL A   1      42.945  30.795  30.284  1.00  0.00     0.074 A 
ATOM     53  C   UNL A   1      41.807  31.681  30.414  1.00  0.00     0.031 C 
ATOM     54  C   UNL A   1      44.217  31.136  30.606  1.00  0.00     0.031 A 
BRANCH  41  55
ATOM     55  C   UNL A   1      48.323  26.593  29.795  1.00  0.00    -0.014 A 
ATOM     56  C   UNL A   1      48.776  25.978  30.974  1.00  0.00     0.009 A 
ATOM     57  C   UNL A   1      49.214  26.732  28.718  1.00  0.00     0.009 A 
ATOM     58  C   UNL A   1      50.100  25.548  31.084  1.00  0.00     0.001 A 
ATOM     59  C   UNL A   1      50.528  26.271  28.821  1.00  0.00     0.001 A 
ATOM     60  C   UNL A   1      50.973  25.688  30.007  1.00  0.00     0.000 A 
ENDBRANCH  41  55
BRANCH  42  61
ATOM     61  C   UNL A   1      38.715  29.193  29.008  1.00  0.00    -0.014 A 
ATOM     62  C   UNL A   1      37.874  29.105  30.128  1.00  0.00     0.009 A 
ATOM     63  C   UNL A   1      38.178  29.648  27.793  1.00  0.00     0.009 A 
ATOM     64  C   UNL A   1      36.521  29.434  30.027  1.00  0.00     0.001 A 
ATOM     65  C   UNL A   1      36.832  30.007  27.702  1.00  0.00     0.001 A 
ATOM     66  C   UNL A   1      36.002  29.888  28.816  1.00  0.00     0.000 A 
ENDBRANCH  42  61
BRANCH  54  67
ATOM     67  C   UNL A   1      44.451  32.538  31.094  1.00  0.00    -0.014 A 
ATOM     68  C   UNL A   1      44.711  33.591  30.203  1.00  0.00     0.009 A 
ATOM     69  C   UNL A   1      44.370  32.815  32.468  1.00  0.00     0.009 A 
ATOM     70  C   UNL A   1      44.921  34.885  30.683  1.00  0.00     0.001 A 
ATOM     71  C   UNL A   1      44.548  34.116  32.942  1.00  0.00     0.001 A 
ATOM     72  C   UNL A   1      44.834  35.147  32.050  1.00  0.00     0.000 A 
ENDBRANCH  54  67
ENDBRANCH  28  29
ENDBRANCH  20  23
ENDBRANCH  18  19
ENDBRANCH  17  18
ENDBRANCH  16  17
ENDBRANCH   1  16
TORSDOF 16
ENDMDL
MODEL 2
REMARK VINA RESULT:      -9.1      2.843      7.730
REMARK SMILES NC(=S)S/C=C/C(=O)NCCCCCCNC(=O)c1ccc(-c2c3nc(c(-c4ccccc4)c4ccc([nH]4)c(-c4ccccc4)c4nc(c(-c5ccccc5)c5ccc2[nH]5)C=C4)C=C3)cc1
REMARK SMILES IDX 12 1 11 2 10 3 9 4 7 5 8 6 6 8 5 9 4 10 2 11 3 12 1 13 13 16
REMARK SMILES IDX 14 17 15 18 16 19 17 20 18 22 19 23 20 24 66 25 21 26 65 27
REMARK SMILES IDX 22 28 23 29 24 30 59 31 25 32 64 33 58 34 60 35 26 36 63 37
REMARK SMILES IDX 57 38 56 39 27 41 49 42 34 43 48 44 35 45 38 46 47 47 61 48
REMARK SMILES IDX 36 49 37 50 46 52 62 53 39 54 28 55 29 56 33 57 30 58 32 59
REMARK SMILES IDX 31 60 50 61 51 62 55 63 52 64 54 65 53 66 40 67 41 68 45 69
REMARK SMILES IDX 42 70 44 71 43 72
REMARK H PARENT 9 7 1 14 1 15 16 21 60 40 38 51
REMARK Flexibility Score: inf
ROOT
ATOM      1  C   UNL A   1      31.248  28.131  24.890  1.00  0.00     0.002 C 
ENDROOT
BRANCH   1   2
ATOM      2  C   UNL A   1      31.041  27.063  25.976  1.00  0.00     0.021 C 
BRANCH   2   3
ATOM      3  C   UNL A   1      30.609  25.701  25.430  1.00  0.00     0.116 C 
BRANCH   3   4
ATOM      4  N   UNL A   1      30.264  24.818  26.528  1.00  0.00    -0.353 N 
ATOM      5  C   UNL A   1      30.249  23.467  26.647  1.00  0.00     0.244 C 
ATOM      6  O   UNL A   1      29.910  22.968  27.717  1.00  0.00    -0.270 OA
ATOM      7  H   UNL A   1      29.986  25.291  27.346  1.00  0.00     0.163 HD
BRANCH   5   8
ATOM      8  C   UNL A   1      30.760  22.595  25.571  1.00  0.00     0.078 C 
ATOM      9  C   UNL A   1      31.985  22.059  25.510  1.00  0.00     0.054 C 
BRANCH   9  10
ATOM     10  S   UNL A   1      32.487  20.956  24.273  1.00  0.00    -0.069 SA
BRANCH  10  11
ATOM     11  C   UNL A   1      32.433  21.778  22.735  1.00  0.00     0.135 C 
ATOM     12  S   UNL A   1      33.118  23.203  22.235  1.00  0.00    -0.053 S 
BRANCH  11  13
ATOM     13  N   UNL A   1      31.661  21.068  21.866  1.00  0.00    -0.384 N 
ATOM     14  H   UNL A   1      31.533  21.390  20.945  1.00  0.00     0.158 HD
ATOM     15  H   UNL A   1      31.231  20.232  22.160  1.00  0.00     0.158 HD
ENDBRANCH  11  13
ENDBRANCH  10  11
ENDBRANCH   9  10
ENDBRANCH   5   8
ENDBRANCH   3   4
ENDBRANCH   2   3
ENDBRANCH   1   2
BRANCH   1  16
ATOM     16  C   UNL A   1      32.234  29.247  25.254  1.00  0.00     0.002 C 
BRANCH  16  17
ATOM     17  C   UNL A   1      33.602  28.765  25.742  1.00  0.00     0.021 C 
BRANCH  17  18
ATOM     18  C   UNL A   1      33.788  28.834  27.254  1.00  0.00     0.116 C 
BRANCH  18  19
ATOM     19  N   UNL A   1      33.764  30.203  27.742  1.00  0.00    -0.352 N 
ATOM     20  C   UNL A   1      34.710  30.885  28.466  1.00  0.00     0.251 C 
ATOM     21  H   UNL A   1      32.952  30.715  27.522  1.00  0.00     0.163 HD
ATOM     22  O   UNL A   1      34.437  31.961  28.985  1.00  0.00    -0.269 OA
BRANCH  20  23
ATOM     23  C   UNL A   1      36.060  30.307  28.632  1.00  0.00     0.039 A 
ATOM     24  C   UNL A   1      36.951  30.351  27.558  1.00  0.00     0.014 A 
ATOM     25  C   UNL A   1      36.440  29.713  29.839  1.00  0.00     0.014 A 
ATOM     26  C   UNL A   1      38.245  29.848  27.713  1.00  0.00     0.010 A 
ATOM     27  C   UNL A   1      37.750  29.283  30.017  1.00  0.00     0.010 A 
ATOM     28  C   UNL A   1      38.664  29.339  28.954  1.00  0.00    -0.014 A 
BRANCH  28  29
ATOM     29  C   UNL A   1      40.054  28.860  29.157  1.00  0.00     0.031 A 
ATOM     30  C   UNL A   1      41.088  29.772  29.760  1.00  0.00     0.074 A 
ATOM     31  C   UNL A   1      40.400  27.625  28.745  1.00  0.00     0.049 A 
ATOM     32  N   UNL A   1      42.361  29.549  29.972  1.00  0.00    -0.248 NA
ATOM     33  C   UNL A   1      40.640  31.117  30.154  1.00  0.00     0.031 C 
ATOM     34  C   UNL A   1      39.499  26.658  28.114  1.00  0.00     0.029 A 
ATOM     35  N   UNL A   1      41.606  26.972  28.794  1.00  0.00    -0.354 N 
ATOM     36  C   UNL A   1      42.865  30.728  30.507  1.00  0.00     0.074 A 
ATOM     37  C   UNL A   1      41.776  31.679  30.539  1.00  0.00     0.031 C 
ATOM     38  C   UNL A   1      40.176  25.525  27.865  1.00  0.00     0.029 A 
ATOM     39  C   UNL A   1      41.564  25.701  28.275  1.00  0.00     0.049 A 
ATOM     40  H   UNL A   1      42.423  27.377  29.164  1.00  0.00     0.167 HD
ATOM     41  C   UNL A   1      44.119  30.991  30.948  1.00  0.00     0.031 A 
ATOM     42  C   UNL A   1      42.538  24.781  28.140  1.00  0.00     0.031 A 
ATOM     43  C   UNL A   1      45.200  30.041  30.922  1.00  0.00     0.049 A 
ATOM     44  C   UNL A   1      43.927  25.108  28.614  1.00  0.00     0.074 A 
ATOM     45  C   UNL A   1      46.489  30.192  31.401  1.00  0.00     0.029 A 
ATOM     46  N   UNL A   1      45.118  28.767  30.385  1.00  0.00    -0.354 N 
ATOM     47  N   UNL A   1      44.371  26.202  29.184  1.00  0.00    -0.248 NA
ATOM     48  C   UNL A   1      44.948  24.066  28.434  1.00  0.00     0.031 C 
ATOM     49  C   UNL A   1      47.206  29.031  31.097  1.00  0.00     0.029 A 
ATOM     50  C   UNL A   1      46.344  28.131  30.490  1.00  0.00     0.049 A 
ATOM     51  H   UNL A   1      44.308  28.372  29.986  1.00  0.00     0.167 HD
ATOM     52  C   UNL A   1      45.712  25.968  29.459  1.00  0.00     0.074 A 
ATOM     53  C   UNL A   1      46.004  24.622  29.010  1.00  0.00     0.031 C 
ATOM     54  C   UNL A   1      46.619  26.792  30.037  1.00  0.00     0.031 A 
BRANCH  41  55
ATOM     55  C   UNL A   1      44.392  32.369  31.484  1.00  0.00    -0.014 A 
ATOM     56  C   UNL A   1      44.807  33.414  30.641  1.00  0.00     0.009 A 
ATOM     57  C   UNL A   1      44.194  32.638  32.848  1.00  0.00     0.009 A 
ATOM     58  C   UNL A   1      45.053  34.687  31.160  1.00  0.00     0.001 A 
ATOM     59  C   UNL A   1      44.410  33.921  33.357  1.00  0.00     0.001 A 
ATOM     60  C   UNL A   1      44.849  34.941  32.515  1.00  0.00     0.000 A 
ENDBRANCH  41  55
BRANCH  42  61
ATOM     61  C   UNL A   1      42.235  23.454  27.541  1.00  0.00    -0.014 A 
ATOM     62  C   UNL A   1      41.702  22.422  28.328  1.00  0.00     0.009 A 
ATOM     63  C   UNL A   1      42.491  23.205  26.183  1.00  0.00     0.009 A 
ATOM     64  C   UNL A   1      41.460  21.161  27.777  1.00  0.00     0.001 A 
ATOM     65  C   UNL A   1      42.218  21.954  25.626  1.00  0.00     0.001 A 
ATOM     66  C   UNL A   1      41.714  20.930  26.427  1.00  0.00     0.000 A 
ENDBRANCH  42  61
BRANCH  54  67
ATOM     67  C   UNL A   1      48.005  26.249  30.252  1.00  0.00    -0.014 A 
ATOM     68  C   UNL A   1      48.975  26.294  29.239  1.00  0.00     0.009 A 
ATOM     69  C   UNL A   1      48.353  25.718  31.504  1.00  0.00     0.009 A 
ATOM     70  C   UNL A   1      50.256  25.787  29.466  1.00  0.00     0.001 A 
ATOM     71  C   UNL A   1      49.643  25.242  31.738  1.00  0.00     0.001 A 
ATOM     72  C   UNL A   1      50.590  25.267  30.716  1.00  0.00     0.000 A 
ENDBRANCH  54  67
ENDBRANCH  28  29
ENDBRANCH  20  23
ENDBRANCH  18  19
ENDBRANCH  17  18
ENDBRANCH  16  17
ENDBRANCH   1  16
TORSDOF 16
ENDMDL
MODEL 3
REMARK VINA RESULT:      -9.1      1.012      6.377
REMARK SMILES NC(=S)S/C=C/C(=O)NCCCCCCNC(=O)c1ccc(-c2c3nc(c(-c4ccccc4)c4ccc([nH]4)c(-c4ccccc4)c4nc(c(-c5ccccc5)c5ccc2[nH]5)C=C4)C=C3)cc1
REMARK SMILES IDX 12 1 11 2 10 3 9 4 7 5 8 6 6 8 5 9 4 10 2 11 3 12 1 13 13 16
REMARK SMILES IDX 14 17 15 18 16 19 17 20 18 22 19 23 20 24 66 25 21 26 65 27
REMARK SMILES IDX 22 28 23 29 24 30 59 31 25 32 64 33 58 34 60 35 26 36 63 37
REMARK SMILES IDX 57 38 56 39 27 41 49 42 34 43 48 44 35 45 38 46 47 47 61 48
REMARK SMILES IDX 36 49 37 50 46 52 62 53 39 54 28 55 29 56 33 57 30 58 32 59
REMARK SMILES IDX 31 60 50 61 51 62 55 63 52 64 54 65 53 66 40 67 41 68 45 69
REMARK SMILES IDX 42 70 44 71 43 72
REMARK H PARENT 9 7 1 14 1 15 16 21 60 40 38 51
REMARK Flexibility Score: inf
ROOT
ATOM      1  C   UNL A   1      36.937  22.079  25.423  1.00  0.00     0.002 C 
ENDROOT
BRANCH   1   2
ATOM      2  C   UNL A   1      35.554  22.627  25.809  1.00  0.00     0.021 C 
BRANCH   2   3
ATOM      3  C   UNL A   1      34.549  22.637  24.656  1.00  0.00     0.116 C 
BRANCH   3   4
ATOM      4  N   UNL A   1      33.213  22.393  25.166  1.00  0.00    -0.353 N 
ATOM      5  C   UNL A   1      32.344  21.365  25.001  1.00  0.00     0.244 C 
ATOM      6  O   UNL A   1      31.253  21.412  25.563  1.00  0.00    -0.270 OA
ATOM      7  H   UNL A   1      32.871  23.113  25.744  1.00  0.00     0.163 HD
BRANCH   5   8
ATOM      8  C   UNL A   1      32.733  20.138  24.278  1.00  0.00     0.078 C 
ATOM      9  C   UNL A   1      33.402  19.100  24.797  1.00  0.00     0.054 C 
BRANCH   9  10
ATOM     10  S   UNL A   1      33.734  17.642  23.922  1.00  0.00    -0.069 SA
BRANCH  10  11
ATOM     11  C   UNL A   1      33.808  16.317  25.054  1.00  0.00     0.135 C 
ATOM     12  S   UNL A   1      32.672  15.192  25.494  1.00  0.00    -0.053 S 
BRANCH  11  13
ATOM     13  N   UNL A   1      35.036  16.289  25.642  1.00  0.00    -0.384 N 
ATOM     14  H   UNL A   1      35.848  16.365  25.091  1.00  0.00     0.158 HD
ATOM     15  H   UNL A   1      35.112  16.193  26.619  1.00  0.00     0.158 HD
ENDBRANCH  11  13
ENDBRANCH  10  11
ENDBRANCH   9  10
ENDBRANCH   5   8
ENDBRANCH   3   4
ENDBRANCH   2   3
ENDBRANCH   1   2
BRANCH   1  16
ATOM     16  C   UNL A   1      36.915  20.818  24.549  1.00  0.00     0.002 C 
BRANCH  16  17
ATOM     17  C   UNL A   1      37.913  19.733  24.958  1.00  0.00     0.021 C 
BRANCH  17  18
ATOM     18  C   UNL A   1      39.130  20.253  25.715  1.00  0.00     0.116 C 
BRANCH  18  19
ATOM     19  N   UNL A   1      40.156  19.233  25.860  1.00  0.00    -0.352 N 
ATOM     20  C   UNL A   1      41.497  19.380  26.115  1.00  0.00     0.251 C 
ATOM     21  H   UNL A   1      39.845  18.305  25.761  1.00  0.00     0.163 HD
ATOM     22  O   UNL A   1      42.260  18.430  25.988  1.00  0.00    -0.269 OA
BRANCH  20  23
ATOM     23  C   UNL A   1      42.022  20.697  26.531  1.00  0.00     0.039 A 
ATOM     24  C   UNL A   1      42.448  21.595  25.551  1.00  0.00     0.014 A 
ATOM     25  C   UNL A   1      42.104  21.039  27.884  1.00  0.00     0.014 A 
ATOM     26  C   UNL A   1      42.906  22.861  25.925  1.00  0.00     0.010 A 
ATOM     27  C   UNL A   1      42.488  22.325  28.251  1.00  0.00     0.010 A 
ATOM     28  C   UNL A   1      42.899  23.247  27.276  1.00  0.00    -0.014 A 
BRANCH  28  29
ATOM     29  C   UNL A   1      43.320  24.609  27.687  1.00  0.00     0.031 A 
ATOM     30  C   UNL A   1      42.288  25.655  28.009  1.00  0.00     0.074 A 
ATOM     31  C   UNL A   1      44.631  24.921  27.715  1.00  0.00     0.049 A 
ATOM     32  N   UNL A   1      42.462  26.910  28.341  1.00  0.00    -0.248 NA
ATOM     33  C   UNL A   1      40.877  25.246  27.924  1.00  0.00     0.031 C 
ATOM     34  C   UNL A   1      45.728  24.006  27.392  1.00  0.00     0.029 A 
ATOM     35  N   UNL A   1      45.262  26.098  28.029  1.00  0.00    -0.354 N 
ATOM     36  C   UNL A   1      41.185  27.440  28.486  1.00  0.00     0.074 A 
ATOM     37  C   UNL A   1      40.249  26.389  28.157  1.00  0.00     0.031 C 
ATOM     38  C   UNL A   1      46.896  24.647  27.556  1.00  0.00     0.029 A 
ATOM     39  C   UNL A   1      46.632  26.026  27.950  1.00  0.00     0.049 A 
ATOM     40  H   UNL A   1      44.779  26.917  28.286  1.00  0.00     0.167 HD
ATOM     41  C   UNL A   1      40.825  28.687  28.876  1.00  0.00     0.031 A 
ATOM     42  C   UNL A   1      47.569  26.967  28.167  1.00  0.00     0.031 A 
ATOM     43  C   UNL A   1      41.757  29.730  29.210  1.00  0.00     0.049 A 
ATOM     44  C   UNL A   1      47.141  28.351  28.572  1.00  0.00     0.074 A 
ATOM     45  C   UNL A   1      41.491  31.007  29.672  1.00  0.00     0.029 A 
ATOM     46  N   UNL A   1      43.135  29.618  29.112  1.00  0.00    -0.354 N 
ATOM     47  N   UNL A   1      45.932  28.816  28.776  1.00  0.00    -0.248 NA
ATOM     48  C   UNL A   1      48.210  29.335  28.788  1.00  0.00     0.031 C 
ATOM     49  C   UNL A   1      42.706  31.688  29.795  1.00  0.00     0.029 A 
ATOM     50  C   UNL A   1      43.732  30.814  29.475  1.00  0.00     0.049 A 
ATOM     51  H   UNL A   1      43.618  28.808  28.826  1.00  0.00     0.167 HD
ATOM     52  C   UNL A   1      46.097  30.136  29.174  1.00  0.00     0.074 A 
ATOM     53  C   UNL A   1      47.522  30.391  29.200  1.00  0.00     0.031 C 
ATOM     54  C   UNL A   1      45.152  31.053  29.494  1.00  0.00     0.031 A 
BRANCH  41  55
ATOM     55  C   UNL A   1      39.354  28.994  28.947  1.00  0.00    -0.014 A 
ATOM     56  C   UNL A   1      38.657  29.497  27.836  1.00  0.00     0.009 A 
ATOM     57  C   UNL A   1      38.646  28.740  30.133  1.00  0.00     0.009 A 
ATOM     58  C   UNL A   1      37.290  29.773  27.924  1.00  0.00     0.001 A 
ATOM     59  C   UNL A   1      37.273  28.987  30.206  1.00  0.00     0.001 A 
ATOM     60  C   UNL A   1      36.599  29.513  29.105  1.00  0.00     0.000 A 
ENDBRANCH  41  55
BRANCH  42  61
ATOM     61  C   UNL A   1      49.011  26.635  28.017  1.00  0.00    -0.014 A 
ATOM     62  C   UNL A   1      49.647  26.768  26.773  1.00  0.00     0.009 A 
ATOM     63  C   UNL A   1      49.757  26.170  29.112  1.00  0.00     0.009 A 
ATOM     64  C   UNL A   1      50.990  26.413  26.621  1.00  0.00     0.001 A 
ATOM     65  C   UNL A   1      51.107  25.846  28.966  1.00  0.00     0.001 A 
ATOM     66  C   UNL A   1      51.719  25.956  27.718  1.00  0.00     0.000 A 
ENDBRANCH  42  61
BRANCH  54  67
ATOM     67  C   UNL A   1      45.631  32.408  29.938  1.00  0.00    -0.014 A 
ATOM     68  C   UNL A   1      45.798  33.462  29.025  1.00  0.00     0.009 A 
ATOM     69  C   UNL A   1      45.879  32.642  31.299  1.00  0.00     0.009 A 
ATOM     70  C   UNL A   1      46.239  34.711  29.464  1.00  0.00     0.001 A 
ATOM     71  C   UNL A   1      46.289  33.902  31.739  1.00  0.00     0.001 A 
ATOM     72  C   UNL A   1      46.478  34.932  30.820  1.00  0.00     0.000 A 
ENDBRANCH  54  67
ENDBRANCH  28  29
ENDBRANCH  20  23
ENDBRANCH  18  19
ENDBRANCH  17  18
ENDBRANCH  16  17
ENDBRANCH   1  16
TORSDOF 16
ENDMDL
