MODEL 1
REMARK VINA RESULT:     -12.4      0.000      0.000
REMARK SMILES Cc1ccc(-c2c(C)sc(NC(=O)[C@H]3CC=CC[C@H]3C(=O)NCCCCCCNC(=O)c3ccc(-c4c5nc(c(-c6ccccc6)c6ccc([nH]6)c(-c6ccccc6)c6nc(c(-c7ccccc7)c7ccc4[nH]7)C=C6)C=C5)cc3)c2C(N)=O)cc1
REMARK SMILES IDX 25 1 24 2 23 3 22 4 20 5 21 6 19 8 14 9 15 10 16 11 18 12
REMARK SMILES IDX 17 13 12 14 11 15 13 17 10 18 6 19 7 20 80 21 8 22 9 23 5 24
REMARK SMILES IDX 1 25 2 26 3 27 85 28 4 29 84 30 81 31 82 32 83 33 26 36
REMARK SMILES IDX 27 37 28 38 29 39 30 40 31 42 32 43 33 44 79 45 34 46 78 47
REMARK SMILES IDX 35 48 36 49 37 50 72 51 38 52 77 53 71 54 73 55 39 56 76 57
REMARK SMILES IDX 70 58 69 59 40 61 62 62 47 63 61 64 48 65 51 66 60 67 74 68
REMARK SMILES IDX 49 69 50 70 59 72 75 73 52 74 41 75 42 76 46 77 43 78 45 79
REMARK SMILES IDX 44 80 63 81 64 82 68 83 65 84 67 85 66 86 53 87 54 88 58 89
REMARK SMILES IDX 55 90 57 91 56 92
REMARK H PARENT 22 7 11 16 82 34 82 35 29 41 73 60 51 71
REMARK Flexibility Score: inf
ROOT
ATOM      1  C   UNL A   1      36.947  23.587  24.836  1.00  0.00     0.002 C 
ENDROOT
BRANCH   1   2
ATOM      2  C   UNL A   1      35.439  23.569  25.111  1.00  0.00     0.021 C 
BRANCH   2   3
ATOM      3  C   UNL A   1      34.901  24.896  25.643  1.00  0.00     0.116 C 
BRANCH   3   4
ATOM      4  N   UNL A   1      33.570  24.713  26.138  1.00  0.00    -0.356 N 
ATOM      5  C   UNL A   1      32.647  25.636  26.475  1.00  0.00     0.224 C 
ATOM      6  O   UNL A   1      31.671  25.233  27.113  1.00  0.00    -0.275 OA
ATOM      7  H   UNL A   1      33.287  23.778  26.248  1.00  0.00     0.163 HD
BRANCH   5   8
ATOM      8  C   UNL A   1      32.725  27.086  26.027  1.00  0.00     0.095 C 
ATOM      9  C   UNL A   1      33.113  27.462  24.582  1.00  0.00     0.095 C 
ATOM     10  C   UNL A   1      33.732  28.875  24.622  1.00  0.00     0.041 C 
ATOM     11  C   UNL A   1      33.100  29.803  25.645  1.00  0.00    -0.030 C 
ATOM     12  C   UNL A   1      31.666  28.003  26.627  1.00  0.00     0.041 C 
ATOM     13  C   UNL A   1      32.136  29.426  26.505  1.00  0.00    -0.030 C 
BRANCH   9  14
ATOM     14  C   UNL A   1      32.186  27.140  23.371  1.00  0.00     0.229 C 
ATOM     15  N   UNL A   1      31.818  25.947  22.817  1.00  0.00    -0.317 N 
ATOM     16  H   UNL A   1      31.494  26.033  21.892  1.00  0.00     0.170 HD
ATOM     17  O   UNL A   1      31.773  28.113  22.712  1.00  0.00    -0.274 OA
BRANCH  15  18
ATOM     18  C   UNL A   1      31.806  24.649  23.280  1.00  0.00     0.109 A 
ATOM     19  C   UNL A   1      32.108  22.380  23.762  1.00  0.00     0.010 A 
ATOM     20  C   UNL A   1      31.139  22.776  24.673  1.00  0.00     0.012 A 
ATOM     21  C   UNL A   1      32.522  23.504  22.906  1.00  0.00     0.082 A 
ATOM     22  C   UNL A   1      30.604  22.139  25.910  1.00  0.00     0.057 C 
ATOM     23  S   UNL A   1      30.379  24.164  24.059  1.00  0.00    -0.122 S 
BRANCH  19  24
ATOM     24  C   UNL A   1      32.492  20.969  23.715  1.00  0.00    -0.016 A 
ATOM     25  C   UNL A   1      33.803  16.858  23.777  1.00  0.00     0.044 C 
ATOM     26  C   UNL A   1      33.367  18.292  23.735  1.00  0.00    -0.051 A 
ATOM     27  C   UNL A   1      32.422  18.731  22.794  1.00  0.00     0.004 A 
ATOM     28  C   UNL A   1      33.870  19.199  24.666  1.00  0.00     0.004 A 
ATOM     29  C   UNL A   1      31.992  20.067  22.775  1.00  0.00     0.009 A 
ATOM     30  C   UNL A   1      33.424  20.517  24.665  1.00  0.00     0.009 A 
ENDBRANCH  19  24
BRANCH  21  31
ATOM     31  C   UNL A   1      33.531  23.391  21.842  1.00  0.00     0.252 C 
ATOM     32  N   UNL A   1      33.095  23.245  20.553  1.00  0.00    -0.365 N 
ATOM     33  O   UNL A   1      34.735  23.423  22.030  1.00  0.00    -0.269 OA
ATOM     34  H   UNL A   1      32.129  23.215  20.360  1.00  0.00     0.159 HD
ATOM     35  H   UNL A   1      33.746  23.168  19.818  1.00  0.00     0.159 HD
ENDBRANCH  21  31
ENDBRANCH  15  18
ENDBRANCH   9  14
ENDBRANCH   5   8
ENDBRANCH   3   4
ENDBRANCH   2   3
ENDBRANCH   1   2
BRANCH   1  36
ATOM     36  C   UNL A   1      37.828  23.136  26.009  1.00  0.00     0.002 C 
BRANCH  36  37
ATOM     37  C   UNL A   1      38.699  21.911  25.737  1.00  0.00     0.021 C 
BRANCH  37  38
ATOM     38  C   UNL A   1      39.938  21.852  26.606  1.00  0.00     0.116 C 
BRANCH  38  39
ATOM     39  N   UNL A   1      40.903  20.874  26.146  1.00  0.00    -0.352 N 
ATOM     40  C   UNL A   1      42.277  20.935  26.083  1.00  0.00     0.251 C 
ATOM     41  H   UNL A   1      40.512  20.029  25.827  1.00  0.00     0.163 HD
ATOM     42  O   UNL A   1      42.876  20.059  25.460  1.00  0.00    -0.269 OA
BRANCH  40  43
ATOM     43  C   UNL A   1      43.039  21.894  26.926  1.00  0.00     0.039 A 
ATOM     44  C   UNL A   1      42.732  21.875  28.295  1.00  0.00     0.014 A 
ATOM     45  C   UNL A   1      43.679  22.997  26.376  1.00  0.00     0.014 A 
ATOM     46  C   UNL A   1      42.737  23.064  29.006  1.00  0.00     0.010 A 
ATOM     47  C   UNL A   1      43.552  24.198  27.018  1.00  0.00     0.010 A 
ATOM     48  C   UNL A   1      43.010  24.227  28.300  1.00  0.00    -0.014 A 
BRANCH  48  49
ATOM     49  C   UNL A   1      42.807  25.559  28.810  1.00  0.00     0.031 A 
ATOM     50  C   UNL A   1      41.633  26.283  28.320  1.00  0.00     0.074 A 
ATOM     51  C   UNL A   1      43.597  25.977  29.820  1.00  0.00     0.049 A 
ATOM     52  N   UNL A   1      41.548  27.560  28.245  1.00  0.00    -0.248 NA
ATOM     53  C   UNL A   1      40.459  25.589  27.790  1.00  0.00     0.031 C 
ATOM     54  C   UNL A   1      43.421  27.108  30.717  1.00  0.00     0.029 A 
ATOM     55  N   UNL A   1      44.871  25.503  30.117  1.00  0.00    -0.354 N 
ATOM     56  C   UNL A   1      40.216  27.842  28.040  1.00  0.00     0.074 A 
ATOM     57  C   UNL A   1      39.622  26.609  27.592  1.00  0.00     0.031 C 
ATOM     58  C   UNL A   1      44.612  27.412  31.271  1.00  0.00     0.029 A 
ATOM     59  C   UNL A   1      45.618  26.577  30.628  1.00  0.00     0.049 A 
ATOM     60  H   UNL A   1      45.192  24.582  29.992  1.00  0.00     0.167 HD
ATOM     61  C   UNL A   1      39.730  29.029  28.495  1.00  0.00     0.031 A 
ATOM     62  C   UNL A   1      46.678  27.053  29.904  1.00  0.00     0.031 A 
ATOM     63  C   UNL A   1      40.809  29.828  29.077  1.00  0.00     0.049 A 
ATOM     64  C   UNL A   1      46.410  28.438  29.351  1.00  0.00     0.074 A 
ATOM     65  C   UNL A   1      41.212  30.012  30.390  1.00  0.00     0.029 A 
ATOM     66  N   UNL A   1      41.871  30.226  28.275  1.00  0.00    -0.354 N 
ATOM     67  N   UNL A   1      45.215  28.920  29.145  1.00  0.00    -0.248 NA
ATOM     68  C   UNL A   1      47.463  29.387  29.002  1.00  0.00     0.031 C 
ATOM     69  C   UNL A   1      42.566  30.441  30.371  1.00  0.00     0.029 A 
ATOM     70  C   UNL A   1      42.969  30.548  29.051  1.00  0.00     0.049 A 
ATOM     71  H   UNL A   1      41.846  30.274  27.292  1.00  0.00     0.167 HD
ATOM     72  C   UNL A   1      45.313  30.206  28.687  1.00  0.00     0.074 A 
ATOM     73  C   UNL A   1      46.742  30.450  28.602  1.00  0.00     0.031 C 
ATOM     74  C   UNL A   1      44.214  30.975  28.427  1.00  0.00     0.031 A 
BRANCH  61  75
ATOM     75  C   UNL A   1      38.267  29.313  28.735  1.00  0.00    -0.014 A 
ATOM     76  C   UNL A   1      37.471  29.722  27.649  1.00  0.00     0.009 A 
ATOM     77  C   UNL A   1      37.620  29.251  29.980  1.00  0.00     0.009 A 
ATOM     78  C   UNL A   1      36.135  30.108  27.805  1.00  0.00     0.001 A 
ATOM     79  C   UNL A   1      36.287  29.656  30.151  1.00  0.00     0.001 A 
ATOM     80  C   UNL A   1      35.545  30.089  29.062  1.00  0.00     0.000 A 
ENDBRANCH  61  75
BRANCH  62  81
ATOM     81  C   UNL A   1      47.393  25.960  29.169  1.00  0.00    -0.014 A 
ATOM     82  C   UNL A   1      46.995  25.701  27.838  1.00  0.00     0.009 A 
ATOM     83  C   UNL A   1      48.672  25.550  29.572  1.00  0.00     0.009 A 
ATOM     84  C   UNL A   1      47.912  25.222  26.896  1.00  0.00     0.001 A 
ATOM     85  C   UNL A   1      49.578  25.045  28.628  1.00  0.00     0.001 A 
ATOM     86  C   UNL A   1      49.217  24.935  27.284  1.00  0.00     0.000 A 
ENDBRANCH  62  81
BRANCH  74  87
ATOM     87  C   UNL A   1      44.208  32.258  27.632  1.00  0.00    -0.014 A 
ATOM     88  C   UNL A   1      44.341  32.321  26.241  1.00  0.00     0.009 A 
ATOM     89  C   UNL A   1      43.908  33.472  28.293  1.00  0.00     0.009 A 
ATOM     90  C   UNL A   1      44.244  33.537  25.554  1.00  0.00     0.001 A 
ATOM     91  C   UNL A   1      43.747  34.676  27.606  1.00  0.00     0.001 A 
ATOM     92  C   UNL A   1      43.937  34.712  26.235  1.00  0.00     0.000 A 
ENDBRANCH  74  87
ENDBRANCH  48  49
ENDBRANCH  40  43
ENDBRANCH  38  39
ENDBRANCH  37  38
ENDBRANCH  36  37
ENDBRANCH   1  36
TORSDOF 17
ENDMDL
MODEL 2
REMARK VINA RESULT:     -12.2      3.704      8.275
REMARK SMILES Cc1ccc(-c2c(C)sc(NC(=O)[C@H]3CC=CC[C@H]3C(=O)NCCCCCCNC(=O)c3ccc(-c4c5nc(c(-c6ccccc6)c6ccc([nH]6)c(-c6ccccc6)c6nc(c(-c7ccccc7)c7ccc4[nH]7)C=C6)C=C5)cc3)c2C(N)=O)cc1
REMARK SMILES IDX 25 1 24 2 23 3 22 4 20 5 21 6 19 8 14 9 15 10 16 11 18 12
REMARK SMILES IDX 17 13 12 14 11 15 13 17 10 18 6 19 7 20 80 21 8 22 9 23 5 24
REMARK SMILES IDX 1 25 2 26 3 27 85 28 4 29 84 30 81 31 82 32 83 33 26 36
REMARK SMILES IDX 27 37 28 38 29 39 30 40 31 42 32 43 33 44 79 45 34 46 78 47
REMARK SMILES IDX 35 48 36 49 37 50 72 51 38 52 77 53 71 54 73 55 39 56 76 57
REMARK SMILES IDX 70 58 69 59 40 61 62 62 47 63 61 64 48 65 51 66 60 67 74 68
REMARK SMILES IDX 49 69 50 70 59 72 75 73 52 74 41 75 42 76 46 77 43 78 45 79
REMARK SMILES IDX 44 80 63 81 64 82 68 83 65 84 67 85 66 86 53 87 54 88 58 89
REMARK SMILES IDX 55 90 57 91 56 92
REMARK H PARENT 22 7 11 16 82 34 82 35 29 41 73 60 51 71
REMARK Flexibility Score: inf
ROOT
ATOM      1  C   UNL A   1      31.819  30.753  26.756  1.00  0.00     0.002 C 
ENDROOT
BRANCH   1   2
ATOM      2  C   UNL A   1      31.672  30.467  25.258  1.00  0.00     0.021 C 
BRANCH   2   3
ATOM      3  C   UNL A   1      30.331  30.913  24.680  1.00  0.00     0.116 C 
BRANCH   3   4
ATOM      4  N   UNL A   1      30.015  30.125  23.527  1.00  0.00    -0.356 N 
ATOM      5  C   UNL A   1      30.557  28.964  23.110  1.00  0.00     0.224 C 
ATOM      6  O   UNL A   1      30.292  28.614  21.956  1.00  0.00    -0.275 OA
ATOM      7  H   UNL A   1      29.299  30.483  22.956  1.00  0.00     0.163 HD
BRANCH   5   8
ATOM      8  C   UNL A   1      31.377  28.060  24.016  1.00  0.00     0.095 C 
ATOM      9  C   UNL A   1      30.703  27.036  24.952  1.00  0.00     0.095 C 
ATOM     10  C   UNL A   1      31.661  26.791  26.136  1.00  0.00     0.041 C 
ATOM     11  C   UNL A   1      33.133  26.824  25.762  1.00  0.00    -0.030 C 
ATOM     12  C   UNL A   1      32.684  27.560  23.414  1.00  0.00     0.041 C 
ATOM     13  C   UNL A   1      33.588  27.114  24.530  1.00  0.00    -0.030 C 
BRANCH   9  14
ATOM     14  C   UNL A   1      29.944  25.792  24.400  1.00  0.00     0.229 C 
ATOM     15  N   UNL A   1      30.353  24.500  24.218  1.00  0.00    -0.317 N 
ATOM     16  H   UNL A   1      29.797  24.005  23.574  1.00  0.00     0.170 HD
ATOM     17  O   UNL A   1      28.801  25.992  23.947  1.00  0.00    -0.274 OA
BRANCH  15  18
ATOM     18  C   UNL A   1      31.379  23.746  24.743  1.00  0.00     0.109 A 
ATOM     19  C   UNL A   1      33.297  22.497  25.225  1.00  0.00     0.010 A 
ATOM     20  C   UNL A   1      32.630  22.546  26.442  1.00  0.00     0.012 A 
ATOM     21  C   UNL A   1      32.549  23.219  24.183  1.00  0.00     0.082 A 
ATOM     22  C   UNL A   1      33.063  22.243  27.836  1.00  0.00     0.057 C 
ATOM     23  S   UNL A   1      30.991  22.848  26.129  1.00  0.00    -0.122 S 
BRANCH  19  24
ATOM     24  C   UNL A   1      34.524  21.706  25.128  1.00  0.00    -0.016 A 
ATOM     25  C   UNL A   1      38.284  19.606  24.849  1.00  0.00     0.044 C 
ATOM     26  C   UNL A   1      36.976  20.336  24.918  1.00  0.00    -0.051 A 
ATOM     27  C   UNL A   1      35.758  19.640  24.867  1.00  0.00     0.004 A 
ATOM     28  C   UNL A   1      36.960  21.721  25.075  1.00  0.00     0.004 A 
ATOM     29  C   UNL A   1      34.535  20.321  24.961  1.00  0.00     0.009 A 
ATOM     30  C   UNL A   1      35.748  22.393  25.196  1.00  0.00     0.009 A 
ENDBRANCH  19  24
BRANCH  21  31
ATOM     31  C   UNL A   1      33.001  23.337  22.788  1.00  0.00     0.252 C 
ATOM     32  N   UNL A   1      32.480  22.470  21.865  1.00  0.00    -0.365 N 
ATOM     33  O   UNL A   1      33.811  24.160  22.395  1.00  0.00    -0.269 OA
ATOM     34  H   UNL A   1      31.824  21.791  22.144  1.00  0.00     0.159 HD
ATOM     35  H   UNL A   1      32.763  22.525  20.924  1.00  0.00     0.159 HD
ENDBRANCH  21  31
ENDBRANCH  15  18
ENDBRANCH   9  14
ENDBRANCH   5   8
ENDBRANCH   3   4
ENDBRANCH   2   3
ENDBRANCH   1   2
BRANCH   1  36
ATOM     36  C   UNL A   1      32.998  30.047  27.442  1.00  0.00     0.002 C 
BRANCH  36  37
ATOM     37  C   UNL A   1      34.362  30.699  27.225  1.00  0.00     0.021 C 
BRANCH  37  38
ATOM     38  C   UNL A   1      34.900  31.389  28.461  1.00  0.00     0.116 C 
BRANCH  38  39
ATOM     39  N   UNL A   1      34.183  32.606  28.783  1.00  0.00    -0.352 N 
ATOM     40  C   UNL A   1      34.371  33.511  29.803  1.00  0.00     0.251 C 
ATOM     41  H   UNL A   1      33.440  32.819  28.173  1.00  0.00     0.163 HD
ATOM     42  O   UNL A   1      33.506  34.364  29.999  1.00  0.00    -0.269 OA
BRANCH  40  43
ATOM     43  C   UNL A   1      35.679  33.611  30.505  1.00  0.00     0.039 A 
ATOM     44  C   UNL A   1      36.716  34.209  29.773  1.00  0.00     0.014 A 
ATOM     45  C   UNL A   1      35.977  32.815  31.603  1.00  0.00     0.014 A 
ATOM     46  C   UNL A   1      38.009  33.731  29.918  1.00  0.00     0.010 A 
ATOM     47  C   UNL A   1      37.214  32.233  31.657  1.00  0.00     0.010 A 
ATOM     48  C   UNL A   1      38.196  32.645  30.760  1.00  0.00    -0.014 A 
BRANCH  48  49
ATOM     49  C   UNL A   1      39.404  31.864  30.831  1.00  0.00     0.031 A 
ATOM     50  C   UNL A   1      39.451  30.643  30.026  1.00  0.00     0.074 A 
ATOM     51  C   UNL A   1      40.461  32.392  31.483  1.00  0.00     0.049 A 
ATOM     52  N   UNL A   1      40.159  29.613  30.311  1.00  0.00    -0.248 NA
ATOM     53  C   UNL A   1      38.613  30.464  28.840  1.00  0.00     0.031 C 
ATOM     54  C   UNL A   1      41.858  31.991  31.446  1.00  0.00     0.029 A 
ATOM     55  N   UNL A   1      40.410  33.350  32.491  1.00  0.00    -0.354 N 
ATOM     56  C   UNL A   1      40.169  28.831  29.178  1.00  0.00     0.074 A 
ATOM     57  C   UNL A   1      39.071  29.301  28.373  1.00  0.00     0.031 C 
ATOM     58  C   UNL A   1      42.480  32.482  32.536  1.00  0.00     0.029 A 
ATOM     59  C   UNL A   1      41.461  33.089  33.383  1.00  0.00     0.049 A 
ATOM     60  H   UNL A   1      39.755  34.081  32.565  1.00  0.00     0.167 HD
ATOM     61  C   UNL A   1      41.247  28.032  28.954  1.00  0.00     0.031 A 
ATOM     62  C   UNL A   1      41.167  32.684  34.657  1.00  0.00     0.031 A 
ATOM     63  C   UNL A   1      42.190  28.129  30.069  1.00  0.00     0.049 A 
ATOM     64  C   UNL A   1      41.558  31.240  34.897  1.00  0.00     0.074 A 
ATOM     65  C   UNL A   1      43.348  28.872  30.232  1.00  0.00     0.029 A 
ATOM     66  N   UNL A   1      41.786  27.740  31.340  1.00  0.00    -0.354 N 
ATOM     67  N   UNL A   1      41.687  30.353  33.948  1.00  0.00    -0.248 NA
ATOM     68  C   UNL A   1      41.846  30.689  36.219  1.00  0.00     0.031 C 
ATOM     69  C   UNL A   1      43.588  29.001  31.626  1.00  0.00     0.029 A 
ATOM     70  C   UNL A   1      42.596  28.312  32.302  1.00  0.00     0.049 A 
ATOM     71  H   UNL A   1      41.030  27.138  31.529  1.00  0.00     0.167 HD
ATOM     72  C   UNL A   1      42.094  29.162  34.486  1.00  0.00     0.074 A 
ATOM     73  C   UNL A   1      42.168  29.418  35.913  1.00  0.00     0.031 C 
ATOM     74  C   UNL A   1      42.351  28.063  33.717  1.00  0.00     0.031 A 
BRANCH  61  75
ATOM     75  C   UNL A   1      41.614  27.455  27.609  1.00  0.00    -0.014 A 
ATOM     76  C   UNL A   1      41.680  26.057  27.468  1.00  0.00     0.009 A 
ATOM     77  C   UNL A   1      41.949  28.202  26.467  1.00  0.00     0.009 A 
ATOM     78  C   UNL A   1      42.115  25.443  26.287  1.00  0.00     0.001 A 
ATOM     79  C   UNL A   1      42.407  27.598  25.286  1.00  0.00     0.001 A 
ATOM     80  C   UNL A   1      42.494  26.215  25.198  1.00  0.00     0.000 A 
ENDBRANCH  61  75
BRANCH  62  81
ATOM     81  C   UNL A   1      39.920  33.331  35.179  1.00  0.00    -0.014 A 
ATOM     82  C   UNL A   1      38.715  32.599  35.082  1.00  0.00     0.009 A 
ATOM     83  C   UNL A   1      39.997  34.363  36.127  1.00  0.00     0.009 A 
ATOM     84  C   UNL A   1      37.697  32.768  36.027  1.00  0.00     0.001 A 
ATOM     85  C   UNL A   1      38.960  34.544  37.053  1.00  0.00     0.001 A 
ATOM     86  C   UNL A   1      37.840  33.712  37.038  1.00  0.00     0.000 A 
ENDBRANCH  62  81
BRANCH  74  87
ATOM     87  C   UNL A   1      42.488  26.648  34.224  1.00  0.00    -0.014 A 
ATOM     88  C   UNL A   1      43.624  25.853  34.039  1.00  0.00     0.009 A 
ATOM     89  C   UNL A   1      41.477  26.119  35.060  1.00  0.00     0.009 A 
ATOM     90  C   UNL A   1      43.720  24.576  34.605  1.00  0.00     0.001 A 
ATOM     91  C   UNL A   1      41.595  24.874  35.679  1.00  0.00     0.001 A 
ATOM     92  C   UNL A   1      42.711  24.091  35.433  1.00  0.00     0.000 A 
ENDBRANCH  74  87
ENDBRANCH  48  49
ENDBRANCH  40  43
ENDBRANCH  38  39
ENDBRANCH  37  38
ENDBRANCH  36  37
ENDBRANCH   1  36
TORSDOF 17
ENDMDL
MODEL 3
REMARK VINA RESULT:     -11.8      1.562      2.115
REMARK SMILES Cc1ccc(-c2c(C)sc(NC(=O)[C@H]3CC=CC[C@H]3C(=O)NCCCCCCNC(=O)c3ccc(-c4c5nc(c(-c6ccccc6)c6ccc([nH]6)c(-c6ccccc6)c6nc(c(-c7ccccc7)c7ccc4[nH]7)C=C6)C=C5)cc3)c2C(N)=O)cc1
REMARK SMILES IDX 25 1 24 2 23 3 22 4 20 5 21 6 19 8 14 9 15 10 16 11 18 12
REMARK SMILES IDX 17 13 12 14 11 15 13 17 10 18 6 19 7 20 80 21 8 22 9 23 5 24
REMARK SMILES IDX 1 25 2 26 3 27 85 28 4 29 84 30 81 31 82 32 83 33 26 36
REMARK SMILES IDX 27 37 28 38 29 39 30 40 31 42 32 43 33 44 79 45 34 46 78 47
REMARK SMILES IDX 35 48 36 49 37 50 72 51 38 52 77 53 71 54 73 55 39 56 76 57
REMARK SMILES IDX 70 58 69 59 40 61 62 62 47 63 61 64 48 65 51 66 60 67 74 68
REMARK SMILES IDX 49 69 50 70 59 72 75 73 52 74 41 75 42 76 46 77 43 78 45 79
REMARK SMILES IDX 44 80 63 81 64 82 68 83 65 84 67 85 66 86 53 87 54 88 58 89
REMARK SMILES IDX 55 90 57 91 56 92
REMARK H PARENT 22 7 11 16 82 34 82 35 29 41 73 60 51 71
REMARK Flexibility Score: inf
ROOT
ATOM      1  C   UNL A   1      37.495  22.069  25.999  1.00  0.00     0.002 C 
ENDROOT
BRANCH   1   2
ATOM      2  C   UNL A   1      37.259  23.539  25.637  1.00  0.00     0.021 C 
BRANCH   2   3
ATOM      3  C   UNL A   1      35.782  23.903  25.495  1.00  0.00     0.116 C 
BRANCH   3   4
ATOM      4  N   UNL A   1      35.466  24.109  24.114  1.00  0.00    -0.356 N 
ATOM      5  C   UNL A   1      34.483  24.846  23.561  1.00  0.00     0.224 C 
ATOM      6  O   UNL A   1      34.262  24.660  22.361  1.00  0.00    -0.275 OA
ATOM      7  H   UNL A   1      36.052  23.644  23.475  1.00  0.00     0.163 HD
BRANCH   5   8
ATOM      8  C   UNL A   1      33.730  25.925  24.321  1.00  0.00     0.095 C 
ATOM      9  C   UNL A   1      32.434  26.547  23.762  1.00  0.00     0.095 C 
ATOM     10  C   UNL A   1      32.306  27.965  24.357  1.00  0.00     0.041 C 
ATOM     11  C   UNL A   1      32.810  28.087  25.785  1.00  0.00    -0.030 C 
ATOM     12  C   UNL A   1      33.715  25.755  25.835  1.00  0.00     0.041 C 
ATOM     13  C   UNL A   1      33.390  27.081  26.465  1.00  0.00    -0.030 C 
BRANCH   9  14
ATOM     14  C   UNL A   1      31.117  25.725  23.630  1.00  0.00     0.229 C 
ATOM     15  N   UNL A   1      30.883  24.383  23.743  1.00  0.00    -0.317 N 
ATOM     16  H   UNL A   1      30.047  24.097  23.309  1.00  0.00     0.170 HD
ATOM     17  O   UNL A   1      30.104  26.350  23.262  1.00  0.00    -0.274 OA
BRANCH  15  18
ATOM     18  C   UNL A   1      31.571  23.346  24.334  1.00  0.00     0.109 A 
ATOM     19  C   UNL A   1      32.775  21.428  24.921  1.00  0.00     0.010 A 
ATOM     20  C   UNL A   1      32.610  22.087  26.131  1.00  0.00     0.012 A 
ATOM     21  C   UNL A   1      32.148  22.178  23.820  1.00  0.00     0.082 A 
ATOM     22  C   UNL A   1      33.266  21.925  27.460  1.00  0.00     0.057 C 
ATOM     23  S   UNL A   1      31.269  23.118  25.988  1.00  0.00    -0.122 S 
BRANCH  19  24
ATOM     24  C   UNL A   1      33.424  20.116  24.919  1.00  0.00    -0.016 A 
ATOM     25  C   UNL A   1      35.098  16.139  24.979  1.00  0.00     0.044 C 
ATOM     26  C   UNL A   1      34.524  17.525  24.985  1.00  0.00    -0.051 A 
ATOM     27  C   UNL A   1      35.337  18.643  24.743  1.00  0.00     0.004 A 
ATOM     28  C   UNL A   1      33.158  17.710  25.193  1.00  0.00     0.004 A 
ATOM     29  C   UNL A   1      34.793  19.937  24.720  1.00  0.00     0.009 A 
ATOM     30  C   UNL A   1      32.614  18.990  25.142  1.00  0.00     0.009 A 
ENDBRANCH  19  24
BRANCH  21  31
ATOM     31  C   UNL A   1      32.153  21.727  22.420  1.00  0.00     0.252 C 
ATOM     32  N   UNL A   1      32.621  22.590  21.466  1.00  0.00    -0.365 N 
ATOM     33  O   UNL A   1      31.770  20.631  22.049  1.00  0.00    -0.269 OA
ATOM     34  H   UNL A   1      32.939  23.486  21.726  1.00  0.00     0.159 HD
ATOM     35  H   UNL A   1      32.638  22.317  20.520  1.00  0.00     0.159 HD
ENDBRANCH  21  31
ENDBRANCH  15  18
ENDBRANCH   9  14
ENDBRANCH   5   8
ENDBRANCH   3   4
ENDBRANCH   2   3
ENDBRANCH   1   2
BRANCH   1  36
ATOM     36  C   UNL A   1      38.881  21.522  25.628  1.00  0.00     0.002 C 
BRANCH  36  37
ATOM     37  C   UNL A   1      39.945  21.651  26.717  1.00  0.00     0.021 C 
BRANCH  37  38
ATOM     38  C   UNL A   1      41.244  22.248  26.217  1.00  0.00     0.116 C 
BRANCH  38  39
ATOM     39  N   UNL A   1      42.160  21.252  25.701  1.00  0.00    -0.352 N 
ATOM     40  C   UNL A   1      43.490  21.351  25.361  1.00  0.00     0.251 C 
ATOM     41  H   UNL A   1      41.767  20.358  25.572  1.00  0.00     0.163 HD
ATOM     42  O   UNL A   1      44.011  20.421  24.747  1.00  0.00    -0.269 OA
BRANCH  40  43
ATOM     43  C   UNL A   1      44.341  22.439  25.913  1.00  0.00     0.039 A 
ATOM     44  C   UNL A   1      44.614  22.359  27.287  1.00  0.00     0.014 A 
ATOM     45  C   UNL A   1      44.499  23.648  25.247  1.00  0.00     0.014 A 
ATOM     46  C   UNL A   1      44.689  23.525  28.031  1.00  0.00     0.010 A 
ATOM     47  C   UNL A   1      44.426  24.800  25.980  1.00  0.00     0.010 A 
ATOM     48  C   UNL A   1      44.445  24.719  27.370  1.00  0.00    -0.014 A 
BRANCH  48  49
ATOM     49  C   UNL A   1      44.227  25.986  28.022  1.00  0.00     0.031 A 
ATOM     50  C   UNL A   1      42.868  26.528  27.977  1.00  0.00     0.074 A 
ATOM     51  C   UNL A   1      45.229  26.492  28.770  1.00  0.00     0.049 A 
ATOM     52  N   UNL A   1      42.583  27.776  28.035  1.00  0.00    -0.248 NA
ATOM     53  C   UNL A   1      41.698  25.672  27.781  1.00  0.00     0.031 C 
ATOM     54  C   UNL A   1      45.188  27.552  29.765  1.00  0.00     0.029 A 
ATOM     55  N   UNL A   1      46.585  26.220  28.621  1.00  0.00    -0.354 N 
ATOM     56  C   UNL A   1      41.229  27.848  28.274  1.00  0.00     0.074 A 
ATOM     57  C   UNL A   1      40.705  26.550  27.934  1.00  0.00     0.031 C 
ATOM     58  C   UNL A   1      46.436  28.025  29.947  1.00  0.00     0.029 A 
ATOM     59  C   UNL A   1      47.295  27.382  28.961  1.00  0.00     0.049 A 
ATOM     60  H   UNL A   1      46.977  25.366  28.329  1.00  0.00     0.167 HD
ATOM     61  C   UNL A   1      40.749  28.927  28.950  1.00  0.00     0.031 A 
ATOM     62  C   UNL A   1      47.992  28.044  27.986  1.00  0.00     0.031 A 
ATOM     63  C   UNL A   1      41.832  29.870  29.233  1.00  0.00     0.049 A 
ATOM     64  C   UNL A   1      47.369  29.385  27.655  1.00  0.00     0.074 A 
ATOM     65  C   UNL A   1      42.600  30.074  30.368  1.00  0.00     0.029 A 
ATOM     66  N   UNL A   1      42.518  30.458  28.178  1.00  0.00    -0.354 N 
ATOM     67  N   UNL A   1      46.115  29.676  27.867  1.00  0.00    -0.248 NA
ATOM     68  C   UNL A   1      48.111  30.501  27.075  1.00  0.00     0.031 C 
ATOM     69  C   UNL A   1      43.803  30.715  29.967  1.00  0.00     0.029 A 
ATOM     70  C   UNL A   1      43.747  30.926  28.600  1.00  0.00     0.049 A 
ATOM     71  H   UNL A   1      42.176  30.532  27.257  1.00  0.00     0.167 HD
ATOM     72  C   UNL A   1      45.879  30.975  27.506  1.00  0.00     0.074 A 
ATOM     73  C   UNL A   1      47.157  31.447  27.004  1.00  0.00     0.031 C 
ATOM     74  C   UNL A   1      44.657  31.566  27.660  1.00  0.00     0.031 A 
BRANCH  61  75
ATOM     75  C   UNL A   1      39.414  28.966  29.652  1.00  0.00    -0.014 A 
ATOM     76  C   UNL A   1      38.304  29.491  28.963  1.00  0.00     0.009 A 
ATOM     77  C   UNL A   1      39.177  28.561  30.976  1.00  0.00     0.009 A 
ATOM     78  C   UNL A   1      37.057  29.662  29.575  1.00  0.00     0.001 A 
ATOM     79  C   UNL A   1      37.937  28.748  31.605  1.00  0.00     0.001 A 
ATOM     80  C   UNL A   1      36.876  29.304  30.904  1.00  0.00     0.000 A 
ENDBRANCH  61  75
BRANCH  62  81
ATOM     81  C   UNL A   1      48.584  27.104  26.981  1.00  0.00    -0.014 A 
ATOM     82  C   UNL A   1      47.992  27.062  25.698  1.00  0.00     0.009 A 
ATOM     83  C   UNL A   1      49.907  26.657  27.117  1.00  0.00     0.009 A 
ATOM     84  C   UNL A   1      48.758  26.765  24.566  1.00  0.00     0.001 A 
ATOM     85  C   UNL A   1      50.660  26.334  25.980  1.00  0.00     0.001 A 
ATOM     86  C   UNL A   1      50.104  26.443  24.704  1.00  0.00     0.000 A 
ENDBRANCH  62  81
BRANCH  74  87
ATOM     87  C   UNL A   1      44.216  32.856  27.011  1.00  0.00    -0.014 A 
ATOM     88  C   UNL A   1      44.083  33.035  25.630  1.00  0.00     0.009 A 
ATOM     89  C   UNL A   1      43.769  33.918  27.831  1.00  0.00     0.009 A 
ATOM     90  C   UNL A   1      43.591  34.232  25.094  1.00  0.00     0.001 A 
ATOM     91  C   UNL A   1      43.218  35.087  27.305  1.00  0.00     0.001 A 
ATOM     92  C   UNL A   1      43.149  35.253  25.931  1.00  0.00     0.000 A 
ENDBRANCH  74  87
ENDBRANCH  48  49
ENDBRANCH  40  43
ENDBRANCH  38  39
ENDBRANCH  37  38
ENDBRANCH  36  37
ENDBRANCH   1  36
TORSDOF 17
ENDMDL
