MODEL 1
REMARK VINA RESULT:     -11.3      0.000      0.000
REMARK SMILES CC1(C)[C@H](C(=O)Nc2ccc(NC(=O)C[NH+]3CCCCC3)cc2)[C@@H]1C(=O)NCCCCCCNC(=O)c1ccc(-c2c3nc(c(-c4ccccc4)c4ccc([nH]4)c(-c4ccccc4)c4nc(c(-c5ccccc5)c5ccc2[nH]5)C=C4)C=C3)cc1
REMARK SMILES IDX 29 1 28 2 27 3 25 4 26 5 24 7 1 8 2 9 3 10 4 11 5 12 6 13
REMARK SMILES IDX 7 14 8 16 9 17 23 18 10 19 22 20 11 21 12 22 13 23 14 25
REMARK SMILES IDX 15 26 16 27 17 28 21 29 18 31 20 32 19 33 30 34 31 35 32 36
REMARK SMILES IDX 33 37 34 38 35 39 36 41 37 42 38 43 84 44 39 45 83 46 40 47
REMARK SMILES IDX 41 48 42 49 77 50 43 51 82 52 76 53 78 54 44 55 81 56 75 57
REMARK SMILES IDX 74 58 45 60 67 61 52 62 66 63 53 64 56 65 65 66 79 67 54 68
REMARK SMILES IDX 55 69 64 71 80 72 57 73 46 74 47 75 51 76 48 77 50 78 49 79
REMARK SMILES IDX 68 80 69 81 73 82 70 83 72 84 71 85 58 86 59 87 63 88 60 89
REMARK SMILES IDX 62 90 61 91
REMARK H PARENT 27 6 7 15 12 24 16 30 34 40 78 59 56 70
REMARK Flexibility Score: inf
ROOT
ATOM      1  C   UNL A   1      38.881  22.699  26.132  1.00  0.00     0.021 C 
ENDROOT
BRANCH   1   2
ATOM      2  C   UNL A   1      37.645  22.144  25.425  1.00  0.00     0.116 C 
BRANCH   2   3
ATOM      3  N   UNL A   1      36.555  21.883  26.338  1.00  0.00    -0.356 N 
ATOM      4  C   UNL A   1      35.243  21.617  26.048  1.00  0.00     0.224 C 
ATOM      5  O   UNL A   1      34.447  21.433  26.957  1.00  0.00    -0.275 OA
ATOM      6  H   UNL A   1      36.786  21.900  27.295  1.00  0.00     0.163 HD
BRANCH   4   7
ATOM      7  C   UNL A   1      34.795  21.710  24.641  1.00  0.00     0.098 C 
ATOM      8  C   UNL A   1      34.726  23.299  22.573  1.00  0.00     0.013 C 
ATOM      9  C   UNL A   1      34.291  23.015  24.002  1.00  0.00    -0.011 C 
ATOM     10  C   UNL A   1      34.164  24.283  24.786  1.00  0.00     0.013 C 
ATOM     11  C   UNL A   1      33.371  21.827  24.158  1.00  0.00     0.098 C 
BRANCH  11  12
ATOM     12  C   UNL A   1      32.133  21.508  24.923  1.00  0.00     0.228 C 
ATOM     13  O   UNL A   1      32.105  20.378  25.424  1.00  0.00    -0.274 OA
ATOM     14  N   UNL A   1      31.073  22.299  25.276  1.00  0.00    -0.326 N 
ATOM     15  H   UNL A   1      30.422  21.844  25.858  1.00  0.00     0.169 HD
BRANCH  14  16
ATOM     16  C   UNL A   1      30.731  23.607  24.982  1.00  0.00     0.041 A 
ATOM     17  C   UNL A   1      30.631  23.976  23.649  1.00  0.00     0.028 A 
ATOM     18  C   UNL A   1      30.656  24.580  25.967  1.00  0.00     0.028 A 
ATOM     19  C   UNL A   1      30.225  25.262  23.307  1.00  0.00     0.028 A 
ATOM     20  C   UNL A   1      30.287  25.886  25.621  1.00  0.00     0.028 A 
ATOM     21  C   UNL A   1      30.052  26.236  24.285  1.00  0.00     0.041 A 
BRANCH  21  22
ATOM     22  N   UNL A   1      29.608  27.543  24.023  1.00  0.00    -0.321 N 
ATOM     23  C   UNL A   1      30.260  28.678  23.615  1.00  0.00     0.279 C 
ATOM     24  H   UNL A   1      28.642  27.668  24.160  1.00  0.00     0.170 HD
ATOM     25  O   UNL A   1      29.568  29.653  23.293  1.00  0.00    -0.268 OA
BRANCH  23  26
ATOM     26  C   UNL A   1      31.793  28.787  23.594  1.00  0.00     0.363 C 
BRANCH  26  27
ATOM     27  N   UNL A   1      32.340  28.718  24.960  1.00  0.00    -0.327 N 
ATOM     28  C   UNL A   1      33.607  27.994  25.038  1.00  0.00     0.262 C 
ATOM     29  C   UNL A   1      32.433  30.038  25.592  1.00  0.00     0.262 C 
ATOM     30  H   UNL A   1      31.664  28.173  25.494  1.00  0.00     0.348 HD
ATOM     31  C   UNL A   1      33.939  27.732  26.510  1.00  0.00     0.062 C 
ATOM     32  C   UNL A   1      32.763  29.883  27.077  1.00  0.00     0.062 C 
ATOM     33  C   UNL A   1      34.014  29.037  27.297  1.00  0.00     0.012 C 
ENDBRANCH  26  27
ENDBRANCH  23  26
ENDBRANCH  21  22
ENDBRANCH  14  16
ENDBRANCH  11  12
ENDBRANCH   4   7
ENDBRANCH   2   3
ENDBRANCH   1   2
BRANCH   1  34
ATOM     34  C   UNL A   1      39.951  21.674  26.530  1.00  0.00     0.002 C 
BRANCH  34  35
ATOM     35  C   UNL A   1      40.840  22.028  27.724  1.00  0.00     0.002 C 
BRANCH  35  36
ATOM     36  C   UNL A   1      42.347  22.014  27.475  1.00  0.00     0.021 C 
BRANCH  36  37
ATOM     37  C   UNL A   1      42.977  23.378  27.218  1.00  0.00     0.116 C 
BRANCH  37  38
ATOM     38  N   UNL A   1      42.406  24.059  26.069  1.00  0.00    -0.352 N 
ATOM     39  C   UNL A   1      41.702  25.238  26.017  1.00  0.00     0.251 C 
ATOM     40  H   UNL A   1      42.544  23.613  25.202  1.00  0.00     0.163 HD
ATOM     41  O   UNL A   1      41.188  25.604  24.965  1.00  0.00    -0.269 OA
BRANCH  39  42
ATOM     42  C   UNL A   1      41.532  26.050  27.242  1.00  0.00     0.039 A 
ATOM     43  C   UNL A   1      42.415  27.109  27.474  1.00  0.00     0.014 A 
ATOM     44  C   UNL A   1      40.509  25.779  28.153  1.00  0.00     0.014 A 
ATOM     45  C   UNL A   1      42.227  27.939  28.582  1.00  0.00     0.010 A 
ATOM     46  C   UNL A   1      40.279  26.648  29.217  1.00  0.00     0.010 A 
ATOM     47  C   UNL A   1      41.135  27.737  29.441  1.00  0.00    -0.014 A 
BRANCH  47  48
ATOM     48  C   UNL A   1      40.868  28.655  30.577  1.00  0.00     0.031 A 
ATOM     49  C   UNL A   1      39.760  29.668  30.487  1.00  0.00     0.074 A 
ATOM     50  C   UNL A   1      41.669  28.627  31.660  1.00  0.00     0.049 A 
ATOM     51  N   UNL A   1      39.422  30.599  31.342  1.00  0.00    -0.248 NA
ATOM     52  C   UNL A   1      38.939  29.645  29.265  1.00  0.00     0.031 C 
ATOM     53  C   UNL A   1      42.801  27.720  31.856  1.00  0.00     0.029 A 
ATOM     54  N   UNL A   1      41.654  29.392  32.800  1.00  0.00    -0.354 N 
ATOM     55  C   UNL A   1      38.365  31.284  30.754  1.00  0.00     0.074 A 
ATOM     56  C   UNL A   1      38.149  30.691  29.452  1.00  0.00     0.031 C 
ATOM     57  C   UNL A   1      43.357  27.965  33.054  1.00  0.00     0.029 A 
ATOM     58  C   UNL A   1      42.648  29.069  33.692  1.00  0.00     0.049 A 
ATOM     59  H   UNL A   1      40.995  30.105  32.962  1.00  0.00     0.167 HD
ATOM     60  C   UNL A   1      37.629  32.302  31.258  1.00  0.00     0.031 A 
ATOM     61  C   UNL A   1      42.958  29.605  34.886  1.00  0.00     0.031 A 
ATOM     62  C   UNL A   1      37.835  32.885  32.557  1.00  0.00     0.049 A 
ATOM     63  C   UNL A   1      42.136  30.744  35.418  1.00  0.00     0.074 A 
ATOM     64  C   UNL A   1      37.104  33.882  33.180  1.00  0.00     0.029 A 
ATOM     65  N   UNL A   1      38.847  32.523  33.432  1.00  0.00    -0.354 N 
ATOM     66  N   UNL A   1      41.100  31.338  34.877  1.00  0.00    -0.248 NA
ATOM     67  C   UNL A   1      42.520  31.282  36.731  1.00  0.00     0.031 C 
ATOM     68  C   UNL A   1      37.704  34.156  34.414  1.00  0.00     0.029 A 
ATOM     69  C   UNL A   1      38.776  33.294  34.580  1.00  0.00     0.049 A 
ATOM     70  H   UNL A   1      39.518  31.823  33.261  1.00  0.00     0.167 HD
ATOM     71  C   UNL A   1      40.693  32.299  35.794  1.00  0.00     0.074 A 
ATOM     72  C   UNL A   1      41.586  32.200  36.930  1.00  0.00     0.031 C 
ATOM     73  C   UNL A   1      39.671  33.184  35.701  1.00  0.00     0.031 A 
BRANCH  60  74
ATOM     74  C   UNL A   1      36.533  32.856  30.391  1.00  0.00    -0.014 A 
ATOM     75  C   UNL A   1      35.213  32.390  30.502  1.00  0.00     0.009 A 
ATOM     76  C   UNL A   1      36.818  33.876  29.470  1.00  0.00     0.009 A 
ATOM     77  C   UNL A   1      34.209  32.907  29.680  1.00  0.00     0.001 A 
ATOM     78  C   UNL A   1      35.807  34.411  28.669  1.00  0.00     0.001 A 
ATOM     79  C   UNL A   1      34.505  33.919  28.768  1.00  0.00     0.000 A 
ENDBRANCH  60  74
BRANCH  61  80
ATOM     80  C   UNL A   1      44.094  29.060  35.673  1.00  0.00    -0.014 A 
ATOM     81  C   UNL A   1      43.891  28.003  36.573  1.00  0.00     0.009 A 
ATOM     82  C   UNL A   1      45.385  29.593  35.531  1.00  0.00     0.009 A 
ATOM     83  C   UNL A   1      44.952  27.506  37.333  1.00  0.00     0.001 A 
ATOM     84  C   UNL A   1      46.450  29.075  36.272  1.00  0.00     0.001 A 
ATOM     85  C   UNL A   1      46.232  28.039  37.179  1.00  0.00     0.000 A 
ENDBRANCH  61  80
BRANCH  73  86
ATOM     86  C   UNL A   1      39.442  34.093  36.876  1.00  0.00    -0.014 A 
ATOM     87  C   UNL A   1      38.755  33.648  38.016  1.00  0.00     0.009 A 
ATOM     88  C   UNL A   1      39.958  35.397  36.855  1.00  0.00     0.009 A 
ATOM     89  C   UNL A   1      38.565  34.506  39.101  1.00  0.00     0.001 A 
ATOM     90  C   UNL A   1      39.790  36.243  37.952  1.00  0.00     0.001 A 
ATOM     91  C   UNL A   1      39.085  35.799  39.071  1.00  0.00     0.000 A 
ENDBRANCH  73  86
ENDBRANCH  47  48
ENDBRANCH  39  42
ENDBRANCH  37  38
ENDBRANCH  36  37
ENDBRANCH  35  36
ENDBRANCH  34  35
ENDBRANCH   1  34
TORSDOF 18
ENDMDL
MODEL 2
REMARK VINA RESULT:     -10.8      2.418      8.899
REMARK SMILES CC1(C)[C@H](C(=O)Nc2ccc(NC(=O)C[NH+]3CCCCC3)cc2)[C@@H]1C(=O)NCCCCCCNC(=O)c1ccc(-c2c3nc(c(-c4ccccc4)c4ccc([nH]4)c(-c4ccccc4)c4nc(c(-c5ccccc5)c5ccc2[nH]5)C=C4)C=C3)cc1
REMARK SMILES IDX 29 1 28 2 27 3 25 4 26 5 24 7 1 8 2 9 3 10 4 11 5 12 6 13
REMARK SMILES IDX 7 14 8 16 9 17 23 18 10 19 22 20 11 21 12 22 13 23 14 25
REMARK SMILES IDX 15 26 16 27 17 28 21 29 18 31 20 32 19 33 30 34 31 35 32 36
REMARK SMILES IDX 33 37 34 38 35 39 36 41 37 42 38 43 84 44 39 45 83 46 40 47
REMARK SMILES IDX 41 48 42 49 77 50 43 51 82 52 76 53 78 54 44 55 81 56 75 57
REMARK SMILES IDX 74 58 45 60 67 61 52 62 66 63 53 64 56 65 65 66 79 67 54 68
REMARK SMILES IDX 55 69 64 71 80 72 57 73 46 74 47 75 51 76 48 77 50 78 49 79
REMARK SMILES IDX 68 80 69 81 73 82 70 83 72 84 71 85 58 86 59 87 63 88 60 89
REMARK SMILES IDX 62 90 61 91
REMARK H PARENT 27 6 7 15 12 24 16 30 34 40 78 59 56 70
REMARK Flexibility Score: inf
ROOT
ATOM      1  C   UNL A   1      34.831  31.303  28.477  1.00  0.00     0.021 C 
ENDROOT
BRANCH   1   2
ATOM      2  C   UNL A   1      34.072  30.335  27.570  1.00  0.00     0.116 C 
BRANCH   2   3
ATOM      3  N   UNL A   1      32.865  30.917  27.026  1.00  0.00    -0.356 N 
ATOM      4  C   UNL A   1      32.099  30.471  25.983  1.00  0.00     0.224 C 
ATOM      5  O   UNL A   1      31.108  31.103  25.646  1.00  0.00    -0.275 OA
ATOM      6  H   UNL A   1      32.554  31.742  27.463  1.00  0.00     0.163 HD
BRANCH   4   7
ATOM      7  C   UNL A   1      32.579  29.316  25.192  1.00  0.00     0.098 C 
ATOM      8  C   UNL A   1      32.412  28.173  22.853  1.00  0.00     0.013 C 
ATOM      9  C   UNL A   1      31.719  28.600  24.137  1.00  0.00    -0.011 C 
ATOM     10  C   UNL A   1      30.298  28.991  23.877  1.00  0.00     0.013 C 
ATOM     11  C   UNL A   1      32.183  27.873  25.378  1.00  0.00     0.098 C 
BRANCH  11  12
ATOM     12  C   UNL A   1      31.546  27.263  26.578  1.00  0.00     0.228 C 
ATOM     13  O   UNL A   1      31.163  28.070  27.434  1.00  0.00    -0.274 OA
ATOM     14  N   UNL A   1      31.196  25.965  26.841  1.00  0.00    -0.326 N 
ATOM     15  H   UNL A   1      30.712  25.855  27.691  1.00  0.00     0.169 HD
BRANCH  14  16
ATOM     16  C   UNL A   1      31.385  24.779  26.155  1.00  0.00     0.041 A 
ATOM     17  C   UNL A   1      31.596  24.838  24.786  1.00  0.00     0.028 A 
ATOM     18  C   UNL A   1      31.200  23.547  26.765  1.00  0.00     0.028 A 
ATOM     19  C   UNL A   1      31.856  23.675  24.067  1.00  0.00     0.028 A 
ATOM     20  C   UNL A   1      31.421  22.374  26.033  1.00  0.00     0.028 A 
ATOM     21  C   UNL A   1      31.768  22.428  24.677  1.00  0.00     0.041 A 
BRANCH  21  22
ATOM     22  N   UNL A   1      32.052  21.214  24.029  1.00  0.00    -0.321 N 
ATOM     23  C   UNL A   1      32.849  20.150  24.365  1.00  0.00     0.279 C 
ATOM     24  H   UNL A   1      31.590  21.108  23.167  1.00  0.00     0.170 HD
ATOM     25  O   UNL A   1      32.762  19.128  23.670  1.00  0.00    -0.268 OA
BRANCH  23  26
ATOM     26  C   UNL A   1      33.858  20.206  25.521  1.00  0.00     0.363 C 
BRANCH  26  27
ATOM     27  N   UNL A   1      34.929  21.176  25.234  1.00  0.00    -0.327 N 
ATOM     28  C   UNL A   1      35.041  22.227  26.243  1.00  0.00     0.262 C 
ATOM     29  C   UNL A   1      36.220  20.526  24.985  1.00  0.00     0.262 C 
ATOM     30  H   UNL A   1      34.649  21.637  24.369  1.00  0.00     0.348 HD
ATOM     31  C   UNL A   1      35.969  23.324  25.714  1.00  0.00     0.062 C 
ATOM     32  C   UNL A   1      37.222  21.549  24.448  1.00  0.00     0.062 C 
ATOM     33  C   UNL A   1      37.344  22.762  25.365  1.00  0.00     0.012 C 
ENDBRANCH  26  27
ENDBRANCH  23  26
ENDBRANCH  21  22
ENDBRANCH  14  16
ENDBRANCH  11  12
ENDBRANCH   4   7
ENDBRANCH   2   3
ENDBRANCH   1   2
BRANCH   1  34
ATOM     34  C   UNL A   1      34.809  32.780  28.059  1.00  0.00     0.002 C 
BRANCH  34  35
ATOM     35  C   UNL A   1      34.572  33.810  29.166  1.00  0.00     0.002 C 
BRANCH  35  36
ATOM     36  C   UNL A   1      33.296  34.642  29.055  1.00  0.00     0.021 C 
BRANCH  36  37
ATOM     37  C   UNL A   1      33.373  36.037  29.664  1.00  0.00     0.116 C 
BRANCH  37  38
ATOM     38  N   UNL A   1      32.448  36.226  30.768  1.00  0.00    -0.352 N 
ATOM     39  C   UNL A   1      32.532  35.770  32.061  1.00  0.00     0.251 C 
ATOM     40  H   UNL A   1      31.647  36.759  30.560  1.00  0.00     0.163 HD
ATOM     41  O   UNL A   1      31.591  35.927  32.833  1.00  0.00    -0.269 OA
BRANCH  39  42
ATOM     42  C   UNL A   1      33.745  35.055  32.515  1.00  0.00     0.039 A 
ATOM     43  C   UNL A   1      33.627  33.724  32.926  1.00  0.00     0.014 A 
ATOM     44  C   UNL A   1      34.992  35.684  32.530  1.00  0.00     0.014 A 
ATOM     45  C   UNL A   1      34.769  33.004  33.284  1.00  0.00     0.010 A 
ATOM     46  C   UNL A   1      36.138  34.947  32.817  1.00  0.00     0.010 A 
ATOM     47  C   UNL A   1      36.038  33.599  33.196  1.00  0.00    -0.014 A 
BRANCH  47  48
ATOM     48  C   UNL A   1      37.272  32.829  33.491  1.00  0.00     0.031 A 
ATOM     49  C   UNL A   1      38.034  33.080  34.764  1.00  0.00     0.074 A 
ATOM     50  C   UNL A   1      37.748  31.956  32.583  1.00  0.00     0.049 A 
ATOM     51  N   UNL A   1      39.166  32.561  35.163  1.00  0.00    -0.248 NA
ATOM     52  C   UNL A   1      37.457  34.059  35.699  1.00  0.00     0.031 C 
ATOM     53  C   UNL A   1      37.126  31.649  31.293  1.00  0.00     0.029 A 
ATOM     54  N   UNL A   1      38.873  31.171  32.604  1.00  0.00    -0.354 N 
ATOM     55  C   UNL A   1      39.448  33.164  36.383  1.00  0.00     0.074 A 
ATOM     56  C   UNL A   1      38.392  34.120  36.635  1.00  0.00     0.031 C 
ATOM     57  C   UNL A   1      37.865  30.724  30.659  1.00  0.00     0.029 A 
ATOM     58  C   UNL A   1      39.030  30.403  31.476  1.00  0.00     0.049 A 
ATOM     59  H   UNL A   1      39.509  31.160  33.356  1.00  0.00     0.167 HD
ATOM     60  C   UNL A   1      40.482  32.932  37.226  1.00  0.00     0.031 A 
ATOM     61  C   UNL A   1      40.006  29.542  31.133  1.00  0.00     0.031 A 
ATOM     62  C   UNL A   1      41.526  31.974  36.982  1.00  0.00     0.049 A 
ATOM     63  C   UNL A   1      41.151  29.312  32.079  1.00  0.00     0.074 A 
ATOM     64  C   UNL A   1      42.585  31.625  37.804  1.00  0.00     0.029 A 
ATOM     65  N   UNL A   1      41.643  31.211  35.831  1.00  0.00    -0.354 N 
ATOM     66  N   UNL A   1      41.368  29.844  33.257  1.00  0.00    -0.248 NA
ATOM     67  C   UNL A   1      42.181  28.354  31.651  1.00  0.00     0.031 C 
ATOM     68  C   UNL A   1      43.370  30.685  37.127  1.00  0.00     0.029 A 
ATOM     69  C   UNL A   1      42.771  30.410  35.908  1.00  0.00     0.049 A 
ATOM     70  H   UNL A   1      41.018  31.236  35.071  1.00  0.00     0.167 HD
ATOM     71  C   UNL A   1      42.543  29.267  33.722  1.00  0.00     0.074 A 
ATOM     72  C   UNL A   1      42.984  28.335  32.705  1.00  0.00     0.031 C 
ATOM     73  C   UNL A   1      43.197  29.489  34.888  1.00  0.00     0.031 A 
BRANCH  60  74
ATOM     74  C   UNL A   1      40.533  33.740  38.493  1.00  0.00    -0.014 A 
ATOM     75  C   UNL A   1      39.902  33.296  39.665  1.00  0.00     0.009 A 
ATOM     76  C   UNL A   1      41.245  34.949  38.521  1.00  0.00     0.009 A 
ATOM     77  C   UNL A   1      39.950  34.065  40.830  1.00  0.00     0.001 A 
ATOM     78  C   UNL A   1      41.316  35.703  39.695  1.00  0.00     0.001 A 
ATOM     79  C   UNL A   1      40.660  35.264  40.845  1.00  0.00     0.000 A 
ENDBRANCH  60  74
BRANCH  61  80
ATOM     80  C   UNL A   1      39.937  28.817  29.838  1.00  0.00    -0.014 A 
ATOM     81  C   UNL A   1      40.408  29.419  28.662  1.00  0.00     0.009 A 
ATOM     82  C   UNL A   1      39.400  27.521  29.771  1.00  0.00     0.009 A 
ATOM     83  C   UNL A   1      40.320  28.750  27.440  1.00  0.00     0.001 A 
ATOM     84  C   UNL A   1      39.339  26.843  28.551  1.00  0.00     0.001 A 
ATOM     85  C   UNL A   1      39.791  27.461  27.386  1.00  0.00     0.000 A 
ENDBRANCH  61  80
BRANCH  73  86
ATOM     86  C   UNL A   1      44.441  28.687  35.141  1.00  0.00    -0.014 A 
ATOM     87  C   UNL A   1      45.685  29.095  34.636  1.00  0.00     0.009 A 
ATOM     88  C   UNL A   1      44.371  27.529  35.931  1.00  0.00     0.009 A 
ATOM     89  C   UNL A   1      46.831  28.340  34.895  1.00  0.00     0.001 A 
ATOM     90  C   UNL A   1      45.523  26.791  36.210  1.00  0.00     0.001 A 
ATOM     91  C   UNL A   1      46.750  27.194  35.684  1.00  0.00     0.000 A 
ENDBRANCH  73  86
ENDBRANCH  47  48
ENDBRANCH  39  42
ENDBRANCH  37  38
ENDBRANCH  36  37
ENDBRANCH  35  36
ENDBRANCH  34  35
ENDBRANCH   1  34
TORSDOF 18
ENDMDL
MODEL 3
REMARK VINA RESULT:     -10.8      2.378      7.966
REMARK SMILES CC1(C)[C@H](C(=O)Nc2ccc(NC(=O)C[NH+]3CCCCC3)cc2)[C@@H]1C(=O)NCCCCCCNC(=O)c1ccc(-c2c3nc(c(-c4ccccc4)c4ccc([nH]4)c(-c4ccccc4)c4nc(c(-c5ccccc5)c5ccc2[nH]5)C=C4)C=C3)cc1
REMARK SMILES IDX 29 1 28 2 27 3 25 4 26 5 24 7 1 8 2 9 3 10 4 11 5 12 6 13
REMARK SMILES IDX 7 14 8 16 9 17 23 18 10 19 22 20 11 21 12 22 13 23 14 25
REMARK SMILES IDX 15 26 16 27 17 28 21 29 18 31 20 32 19 33 30 34 31 35 32 36
REMARK SMILES IDX 33 37 34 38 35 39 36 41 37 42 38 43 84 44 39 45 83 46 40 47
REMARK SMILES IDX 41 48 42 49 77 50 43 51 82 52 76 53 78 54 44 55 81 56 75 57
REMARK SMILES IDX 74 58 45 60 67 61 52 62 66 63 53 64 56 65 65 66 79 67 54 68
REMARK SMILES IDX 55 69 64 71 80 72 57 73 46 74 47 75 51 76 48 77 50 78 49 79
REMARK SMILES IDX 68 80 69 81 73 82 70 83 72 84 71 85 58 86 59 87 63 88 60 89
REMARK SMILES IDX 62 90 61 91
REMARK H PARENT 27 6 7 15 12 24 16 30 34 40 78 59 56 70
REMARK Flexibility Score: inf
ROOT
ATOM      1  C   UNL A   1      34.830  30.410  28.052  1.00  0.00     0.021 C 
ENDROOT
BRANCH   1   2
ATOM      2  C   UNL A   1      33.950  29.815  26.954  1.00  0.00     0.116 C 
BRANCH   2   3
ATOM      3  N   UNL A   1      32.811  29.100  27.484  1.00  0.00    -0.356 N 
ATOM      4  C   UNL A   1      32.258  27.927  27.042  1.00  0.00     0.224 C 
ATOM      5  O   UNL A   1      31.276  27.469  27.609  1.00  0.00    -0.275 OA
ATOM      6  H   UNL A   1      32.375  29.509  28.266  1.00  0.00     0.163 HD
BRANCH   4   7
ATOM      7  C   UNL A   1      32.773  27.327  25.792  1.00  0.00     0.098 C 
ATOM      8  C   UNL A   1      33.654  27.907  23.405  1.00  0.00     0.013 C 
ATOM      9  C   UNL A   1      32.502  27.918  24.398  1.00  0.00    -0.011 C 
ATOM     10  C   UNL A   1      31.639  29.125  24.205  1.00  0.00     0.013 C 
ATOM     11  C   UNL A   1      31.976  26.553  24.772  1.00  0.00     0.098 C 
BRANCH  11  12
ATOM     12  C   UNL A   1      30.641  25.921  24.966  1.00  0.00     0.228 C 
ATOM     13  O   UNL A   1      29.704  26.713  25.116  1.00  0.00    -0.274 OA
ATOM     14  N   UNL A   1      30.253  24.610  24.879  1.00  0.00    -0.326 N 
ATOM     15  H   UNL A   1      29.282  24.483  24.977  1.00  0.00     0.169 HD
BRANCH  14  16
ATOM     16  C   UNL A   1      30.947  23.430  24.681  1.00  0.00     0.041 A 
ATOM     17  C   UNL A   1      31.399  23.141  23.403  1.00  0.00     0.028 A 
ATOM     18  C   UNL A   1      31.049  22.469  25.675  1.00  0.00     0.028 A 
ATOM     19  C   UNL A   1      32.159  21.998  23.172  1.00  0.00     0.028 A 
ATOM     20  C   UNL A   1      31.779  21.299  25.433  1.00  0.00     0.028 A 
ATOM     21  C   UNL A   1      32.356  21.060  24.179  1.00  0.00     0.041 A 
BRANCH  21  22
ATOM     22  N   UNL A   1      33.140  19.903  24.034  1.00  0.00    -0.321 N 
ATOM     23  C   UNL A   1      34.308  19.495  24.625  1.00  0.00     0.279 C 
ATOM     24  H   UNL A   1      32.781  19.261  23.380  1.00  0.00     0.170 HD
ATOM     25  O   UNL A   1      34.675  18.329  24.425  1.00  0.00    -0.268 OA
BRANCH  23  26
ATOM     26  C   UNL A   1      35.178  20.437  25.471  1.00  0.00     0.363 C 
BRANCH  26  27
ATOM     27  N   UNL A   1      34.906  21.844  25.132  1.00  0.00    -0.327 N 
ATOM     28  C   UNL A   1      34.947  22.735  26.290  1.00  0.00     0.262 C 
ATOM     29  C   UNL A   1      35.759  22.333  24.044  1.00  0.00     0.262 C 
ATOM     30  H   UNL A   1      33.944  21.859  24.793  1.00  0.00     0.348 HD
ATOM     31  C   UNL A   1      34.377  24.098  25.888  1.00  0.00     0.062 C 
ATOM     32  C   UNL A   1      35.266  23.700  23.568  1.00  0.00     0.062 C 
ATOM     33  C   UNL A   1      35.153  24.696  24.719  1.00  0.00     0.012 C 
ENDBRANCH  26  27
ENDBRANCH  23  26
ENDBRANCH  21  22
ENDBRANCH  14  16
ENDBRANCH  11  12
ENDBRANCH   4   7
ENDBRANCH   2   3
ENDBRANCH   1   2
BRANCH   1  34
ATOM     34  C   UNL A   1      35.056  31.927  27.991  1.00  0.00     0.002 C 
BRANCH  34  35
ATOM     35  C   UNL A   1      34.408  32.770  29.092  1.00  0.00     0.002 C 
BRANCH  35  36
ATOM     36  C   UNL A   1      33.426  33.846  28.634  1.00  0.00     0.021 C 
BRANCH  36  37
ATOM     37  C   UNL A   1      33.646  35.227  29.238  1.00  0.00     0.116 C 
BRANCH  37  38
ATOM     38  N   UNL A   1      32.731  35.522  30.328  1.00  0.00    -0.352 N 
ATOM     39  C   UNL A   1      32.852  35.237  31.666  1.00  0.00     0.251 C 
ATOM     40  H   UNL A   1      31.906  35.994  30.070  1.00  0.00     0.163 HD
ATOM     41  O   UNL A   1      31.917  35.457  32.430  1.00  0.00    -0.269 OA
BRANCH  39  42
ATOM     42  C   UNL A   1      34.099  34.631  32.183  1.00  0.00     0.039 A 
ATOM     43  C   UNL A   1      34.050  33.335  32.705  1.00  0.00     0.014 A 
ATOM     44  C   UNL A   1      35.309  35.327  32.149  1.00  0.00     0.014 A 
ATOM     45  C   UNL A   1      35.227  32.712  33.127  1.00  0.00     0.010 A 
ATOM     46  C   UNL A   1      36.491  34.681  32.501  1.00  0.00     0.010 A 
ATOM     47  C   UNL A   1      36.462  33.367  32.993  1.00  0.00    -0.014 A 
BRANCH  47  48
ATOM     48  C   UNL A   1      37.734  32.694  33.357  1.00  0.00     0.031 A 
ATOM     49  C   UNL A   1      38.309  31.629  32.464  1.00  0.00     0.074 A 
ATOM     50  C   UNL A   1      38.335  32.990  34.525  1.00  0.00     0.049 A 
ATOM     51  N   UNL A   1      39.366  30.881  32.648  1.00  0.00    -0.248 NA
ATOM     52  C   UNL A   1      37.585  31.353  31.212  1.00  0.00     0.031 C 
ATOM     53  C   UNL A   1      37.861  33.976  35.498  1.00  0.00     0.029 A 
ATOM     54  N   UNL A   1      39.475  32.481  35.096  1.00  0.00    -0.354 N 
ATOM     55  C   UNL A   1      39.424  30.033  31.548  1.00  0.00     0.074 A 
ATOM     56  C   UNL A   1      38.270  30.329  30.726  1.00  0.00     0.031 C 
ATOM     57  C   UNL A   1      38.715  34.017  36.534  1.00  0.00     0.029 A 
ATOM     58  C   UNL A   1      39.773  33.035  36.317  1.00  0.00     0.049 A 
ATOM     59  H   UNL A   1      40.026  31.784  34.671  1.00  0.00     0.167 HD
ATOM     60  C   UNL A   1      40.361  29.106  31.240  1.00  0.00     0.031 A 
ATOM     61  C   UNL A   1      40.781  32.777  37.171  1.00  0.00     0.031 A 
ATOM     62  C   UNL A   1      41.515  28.819  32.050  1.00  0.00     0.049 A 
ATOM     63  C   UNL A   1      41.800  31.733  36.813  1.00  0.00     0.074 A 
ATOM     64  C   UNL A   1      42.551  27.938  31.793  1.00  0.00     0.029 A 
ATOM     65  N   UNL A   1      41.783  29.408  33.275  1.00  0.00    -0.354 N 
ATOM     66  N   UNL A   1      41.875  30.986  35.739  1.00  0.00    -0.248 NA
ATOM     67  C   UNL A   1      42.881  31.503  37.784  1.00  0.00     0.031 C 
ATOM     68  C   UNL A   1      43.423  27.959  32.886  1.00  0.00     0.029 A 
ATOM     69  C   UNL A   1      42.957  28.892  33.799  1.00  0.00     0.049 A 
ATOM     70  H   UNL A   1      41.223  30.092  33.709  1.00  0.00     0.167 HD
ATOM     71  C   UNL A   1      43.022  30.218  35.891  1.00  0.00     0.074 A 
ATOM     72  C   UNL A   1      43.619  30.600  37.155  1.00  0.00     0.031 C 
ATOM     73  C   UNL A   1      43.536  29.281  35.058  1.00  0.00     0.031 A 
BRANCH  60  74
ATOM     74  C   UNL A   1      40.167  28.326  29.968  1.00  0.00    -0.014 A 
ATOM     75  C   UNL A   1      40.716  28.768  28.754  1.00  0.00     0.009 A 
ATOM     76  C   UNL A   1      39.450  27.120  29.991  1.00  0.00     0.009 A 
ATOM     77  C   UNL A   1      40.516  28.039  27.580  1.00  0.00     0.001 A 
ATOM     78  C   UNL A   1      39.277  26.377  28.821  1.00  0.00     0.001 A 
ATOM     79  C   UNL A   1      39.802  26.842  27.615  1.00  0.00     0.000 A 
ENDBRANCH  60  74
BRANCH  61  80
ATOM     80  C   UNL A   1      40.888  33.534  38.445  1.00  0.00    -0.014 A 
ATOM     81  C   UNL A   1      40.232  33.078  39.598  1.00  0.00     0.009 A 
ATOM     82  C   UNL A   1      41.643  34.715  38.515  1.00  0.00     0.009 A 
ATOM     83  C   UNL A   1      40.310  33.801  40.791  1.00  0.00     0.001 A 
ATOM     84  C   UNL A   1      41.742  35.422  39.716  1.00  0.00     0.001 A 
ATOM     85  C   UNL A   1      41.069  34.970  40.850  1.00  0.00     0.000 A 
ENDBRANCH  61  80
BRANCH  73  86
ATOM     86  C   UNL A   1      44.824  28.627  35.470  1.00  0.00    -0.014 A 
ATOM     87  C   UNL A   1      44.830  27.443  36.223  1.00  0.00     0.009 A 
ATOM     88  C   UNL A   1      46.046  29.184  35.062  1.00  0.00     0.009 A 
ATOM     89  C   UNL A   1      46.040  26.846  36.585  1.00  0.00     0.001 A 
ATOM     90  C   UNL A   1      47.252  28.569  35.402  1.00  0.00     0.001 A 
ATOM     91  C   UNL A   1      47.248  27.406  36.170  1.00  0.00     0.000 A 
ENDBRANCH  73  86
ENDBRANCH  47  48
ENDBRANCH  39  42
ENDBRANCH  37  38
ENDBRANCH  36  37
ENDBRANCH  35  36
ENDBRANCH  34  35
ENDBRANCH   1  34
TORSDOF 18
ENDMDL
