MODEL 1
REMARK VINA RESULT:     -10.3      0.000      0.000
REMARK SMILES COCCCNC(=O)/C(C#N)=C/c1ccc(C(=O)NCCCCCCNC(=O)c2ccc(-c3c4nc(c(-c5ccccc5)c5ccc([nH]5)c(-c5ccccc5)c5nc(c(-c6ccccc6)c6ccc3[nH]6)C=C5)C=C4)cc2)cc1
REMARK SMILES IDX 20 1 19 2 17 3 18 4 16 6 13 7 14 8 78 9 15 10 77 11 12 12
REMARK SMILES IDX 9 13 7 14 6 15 8 17 5 18 4 19 3 20 2 21 1 22 10 23 11 24
REMARK SMILES IDX 21 25 22 26 23 27 24 28 25 29 26 30 27 31 28 33 29 34 30 35
REMARK SMILES IDX 76 36 31 37 75 38 32 39 33 40 34 41 69 42 35 43 74 44 68 45
REMARK SMILES IDX 70 46 36 47 73 48 67 49 66 50 37 52 59 53 44 54 58 55 45 56
REMARK SMILES IDX 48 57 57 58 71 59 46 60 47 61 56 63 72 64 49 65 38 66 39 67
REMARK SMILES IDX 43 68 40 69 42 70 41 71 60 72 61 73 65 74 62 75 64 76 63 77
REMARK SMILES IDX 50 78 51 79 55 80 52 81 54 82 53 83
REMARK H PARENT 19 5 6 16 26 32 70 51 48 62
REMARK Flexibility Score: inf
ROOT
ATOM      1  C   UNL A   1      33.740  21.507  26.816  1.00  0.00     0.116 C 
ENDROOT
BRANCH   1   2
ATOM      2  N   UNL A   1      33.058  20.504  26.018  1.00  0.00    -0.352 N 
ATOM      3  C   UNL A   1      32.360  20.583  24.841  1.00  0.00     0.251 C 
ATOM      4  O   UNL A   1      31.871  19.550  24.386  1.00  0.00    -0.269 OA
ATOM      5  H   UNL A   1      33.106  19.595  26.393  1.00  0.00     0.163 HD
BRANCH   3   6
ATOM      6  C   UNL A   1      32.245  21.844  24.062  1.00  0.00     0.039 A 
ATOM      7  C   UNL A   1      32.383  24.300  22.718  1.00  0.00    -0.024 A 
ATOM      8  C   UNL A   1      33.224  23.255  22.336  1.00  0.00     0.009 A 
ATOM      9  C   UNL A   1      31.384  24.068  23.671  1.00  0.00     0.009 A 
ATOM     10  C   UNL A   1      33.154  22.033  23.009  1.00  0.00     0.014 A 
ATOM     11  C   UNL A   1      31.307  22.841  24.327  1.00  0.00     0.014 A 
BRANCH   7  12
ATOM     12  C   UNL A   1      32.614  25.667  22.232  1.00  0.00     0.033 C 
ATOM     13  C   UNL A   1      33.281  26.586  22.969  1.00  0.00     0.117 C 
BRANCH  13  14
ATOM     14  C   UNL A   1      33.375  27.968  22.402  1.00  0.00     0.261 C 
ATOM     15  N   UNL A   1      32.438  28.936  22.604  1.00  0.00    -0.351 N 
ATOM     16  H   UNL A   1      32.665  29.794  22.178  1.00  0.00     0.163 HD
ATOM     17  O   UNL A   1      34.330  28.281  21.686  1.00  0.00    -0.268 OA
BRANCH  15  18
ATOM     18  C   UNL A   1      31.168  28.965  23.318  1.00  0.00     0.118 C 
BRANCH  18  19
ATOM     19  C   UNL A   1      30.004  28.382  22.525  1.00  0.00     0.050 C 
BRANCH  19  20
ATOM     20  C   UNL A   1      28.602  28.736  23.005  1.00  0.00     0.161 C 
BRANCH  20  21
ATOM     21  O   UNL A   1      27.873  29.539  22.084  1.00  0.00    -0.385 OA
ATOM     22  C   UNL A   1      28.268  30.900  22.035  1.00  0.00     0.194 C 
ENDBRANCH  20  21
ENDBRANCH  19  20
ENDBRANCH  18  19
ENDBRANCH  15  18
ENDBRANCH  13  14
BRANCH  13  23
ATOM     23  C   UNL A   1      33.812  26.235  24.243  1.00  0.00     0.105 C 
ATOM     24  N   UNL A   1      34.249  25.909  25.267  1.00  0.00    -0.192 NA
ENDBRANCH  13  23
ENDBRANCH   7  12
ENDBRANCH   3   6
ENDBRANCH   1   2
BRANCH   1  25
ATOM     25  C   UNL A   1      35.122  21.788  26.218  1.00  0.00     0.021 C 
BRANCH  25  26
ATOM     26  C   UNL A   1      35.617  20.662  25.301  1.00  0.00     0.002 C 
BRANCH  26  27
ATOM     27  C   UNL A   1      36.977  20.929  24.648  1.00  0.00     0.002 C 
BRANCH  27  28
ATOM     28  C   UNL A   1      38.027  19.847  24.910  1.00  0.00     0.021 C 
BRANCH  28  29
ATOM     29  C   UNL A   1      39.080  20.252  25.935  1.00  0.00     0.116 C 
BRANCH  29  30
ATOM     30  N   UNL A   1      40.222  19.352  25.906  1.00  0.00    -0.352 N 
ATOM     31  C   UNL A   1      41.555  19.635  26.056  1.00  0.00     0.251 C 
ATOM     32  H   UNL A   1      40.007  18.402  25.758  1.00  0.00     0.163 HD
ATOM     33  O   UNL A   1      42.405  18.811  25.734  1.00  0.00    -0.269 OA
BRANCH  31  34
ATOM     34  C   UNL A   1      41.963  20.945  26.600  1.00  0.00     0.039 A 
ATOM     35  C   UNL A   1      42.345  21.956  25.715  1.00  0.00     0.014 A 
ATOM     36  C   UNL A   1      41.973  21.171  27.979  1.00  0.00     0.014 A 
ATOM     37  C   UNL A   1      42.685  23.212  26.216  1.00  0.00     0.010 A 
ATOM     38  C   UNL A   1      42.224  22.448  28.469  1.00  0.00     0.010 A 
ATOM     39  C   UNL A   1      42.589  23.480  27.592  1.00  0.00    -0.014 A 
BRANCH  39  40
ATOM     40  C   UNL A   1      42.854  24.838  28.124  1.00  0.00     0.031 A 
ATOM     41  C   UNL A   1      44.245  25.243  28.528  1.00  0.00     0.074 A 
ATOM     42  C   UNL A   1      41.828  25.696  28.284  1.00  0.00     0.049 A 
ATOM     43  N   UNL A   1      44.660  26.382  29.024  1.00  0.00    -0.248 NA
ATOM     44  C   UNL A   1      45.303  24.232  28.381  1.00  0.00     0.031 C 
ATOM     45  C   UNL A   1      40.427  25.409  27.964  1.00  0.00     0.029 A 
ATOM     46  N   UNL A   1      41.803  26.985  28.752  1.00  0.00    -0.354 N 
ATOM     47  C   UNL A   1      46.020  26.220  29.251  1.00  0.00     0.074 A 
ATOM     48  C   UNL A   1      46.349  24.856  28.901  1.00  0.00     0.031 C 
ATOM     49  C   UNL A   1      39.689  26.503  28.202  1.00  0.00     0.029 A 
ATOM     50  C   UNL A   1      40.550  27.549  28.742  1.00  0.00     0.049 A 
ATOM     51  H   UNL A   1      42.606  27.462  29.064  1.00  0.00     0.167 HD
ATOM     52  C   UNL A   1      46.920  27.131  29.695  1.00  0.00     0.031 A 
ATOM     53  C   UNL A   1      40.138  28.770  29.132  1.00  0.00     0.031 A 
ATOM     54  C   UNL A   1      46.586  28.485  30.055  1.00  0.00     0.049 A 
ATOM     55  C   UNL A   1      41.148  29.747  29.665  1.00  0.00     0.074 A 
ATOM     56  C   UNL A   1      47.432  29.498  30.472  1.00  0.00     0.029 A 
ATOM     57  N   UNL A   1      45.303  29.009  30.056  1.00  0.00    -0.354 N 
ATOM     58  N   UNL A   1      42.444  29.603  29.804  1.00  0.00    -0.248 NA
ATOM     59  C   UNL A   1      40.638  31.059  30.085  1.00  0.00     0.031 C 
ATOM     60  C   UNL A   1      46.651  30.610  30.798  1.00  0.00     0.029 A 
ATOM     61  C   UNL A   1      45.329  30.320  30.505  1.00  0.00     0.049 A 
ATOM     62  H   UNL A   1      44.493  28.523  29.779  1.00  0.00     0.167 HD
ATOM     63  C   UNL A   1      42.909  30.816  30.299  1.00  0.00     0.074 A 
ATOM     64  C   UNL A   1      41.758  31.688  30.412  1.00  0.00     0.031 C 
ATOM     65  C   UNL A   1      44.175  31.175  30.625  1.00  0.00     0.031 A 
BRANCH  52  66
ATOM     66  C   UNL A   1      48.350  26.680  29.837  1.00  0.00    -0.014 A 
ATOM     67  C   UNL A   1      49.279  26.846  28.797  1.00  0.00     0.009 A 
ATOM     68  C   UNL A   1      48.783  26.107  31.043  1.00  0.00     0.009 A 
ATOM     69  C   UNL A   1      50.596  26.405  28.944  1.00  0.00     0.001 A 
ATOM     70  C   UNL A   1      50.110  25.702  31.202  1.00  0.00     0.001 A 
ATOM     71  C   UNL A   1      51.011  25.839  30.148  1.00  0.00     0.000 A 
ENDBRANCH  52  66
BRANCH  53  72
ATOM     72  C   UNL A   1      38.701  29.138  29.027  1.00  0.00    -0.014 A 
ATOM     73  C   UNL A   1      38.176  29.639  27.826  1.00  0.00     0.009 A 
ATOM     74  C   UNL A   1      37.845  28.994  30.131  1.00  0.00     0.009 A 
ATOM     75  C   UNL A   1      36.834  30.015  27.742  1.00  0.00     0.001 A 
ATOM     76  C   UNL A   1      36.495  29.337  30.033  1.00  0.00     0.001 A 
ATOM     77  C   UNL A   1      35.994  29.858  28.842  1.00  0.00     0.000 A 
ENDBRANCH  53  72
BRANCH  65  78
ATOM     78  C   UNL A   1      44.388  32.585  31.105  1.00  0.00    -0.014 A 
ATOM     79  C   UNL A   1      44.382  32.908  32.471  1.00  0.00     0.009 A 
ATOM     80  C   UNL A   1      44.633  33.605  30.170  1.00  0.00     0.009 A 
ATOM     81  C   UNL A   1      44.574  34.227  32.887  1.00  0.00     0.001 A 
ATOM     82  C   UNL A   1      44.864  34.915  30.590  1.00  0.00     0.001 A 
ATOM     83  C   UNL A   1      44.820  35.228  31.948  1.00  0.00     0.000 A 
ENDBRANCH  65  78
ENDBRANCH  39  40
ENDBRANCH  31  34
ENDBRANCH  29  30
ENDBRANCH  28  29
ENDBRANCH  27  28
ENDBRANCH  26  27
ENDBRANCH  25  26
ENDBRANCH   1  25
TORSDOF 20
ENDMDL
MODEL 2
REMARK VINA RESULT:     -10.3      1.769      8.081
REMARK SMILES COCCCNC(=O)/C(C#N)=C/c1ccc(C(=O)NCCCCCCNC(=O)c2ccc(-c3c4nc(c(-c5ccccc5)c5ccc([nH]5)c(-c5ccccc5)c5nc(c(-c6ccccc6)c6ccc3[nH]6)C=C5)C=C4)cc2)cc1
REMARK SMILES IDX 20 1 19 2 17 3 18 4 16 6 13 7 14 8 78 9 15 10 77 11 12 12
REMARK SMILES IDX 9 13 7 14 6 15 8 17 5 18 4 19 3 20 2 21 1 22 10 23 11 24
REMARK SMILES IDX 21 25 22 26 23 27 24 28 25 29 26 30 27 31 28 33 29 34 30 35
REMARK SMILES IDX 76 36 31 37 75 38 32 39 33 40 34 41 69 42 35 43 74 44 68 45
REMARK SMILES IDX 70 46 36 47 73 48 67 49 66 50 37 52 59 53 44 54 58 55 45 56
REMARK SMILES IDX 48 57 57 58 71 59 46 60 47 61 56 63 72 64 49 65 38 66 39 67
REMARK SMILES IDX 43 68 40 69 42 70 41 71 60 72 61 73 65 74 62 75 64 76 63 77
REMARK SMILES IDX 50 78 51 79 55 80 52 81 54 82 53 83
REMARK H PARENT 19 5 6 16 26 32 70 51 48 62
REMARK Flexibility Score: inf
ROOT
ATOM      1  C   UNL A   1      33.008  28.991  22.719  1.00  0.00     0.116 C 
ENDROOT
BRANCH   1   2
ATOM      2  N   UNL A   1      31.641  29.152  22.259  1.00  0.00    -0.352 N 
ATOM      3  C   UNL A   1      30.544  28.334  22.331  1.00  0.00     0.251 C 
ATOM      4  O   UNL A   1      29.489  28.733  21.840  1.00  0.00    -0.269 OA
ATOM      5  H   UNL A   1      31.469  30.012  21.811  1.00  0.00     0.163 HD
BRANCH   3   6
ATOM      6  C   UNL A   1      30.562  27.030  23.046  1.00  0.00     0.039 A 
ATOM      7  C   UNL A   1      30.789  24.758  24.672  1.00  0.00    -0.024 A 
ATOM      8  C   UNL A   1      30.012  25.836  25.095  1.00  0.00     0.009 A 
ATOM      9  C   UNL A   1      31.331  24.764  23.381  1.00  0.00     0.009 A 
ATOM     10  C   UNL A   1      29.902  26.968  24.283  1.00  0.00     0.014 A 
ATOM     11  C   UNL A   1      31.205  25.889  22.568  1.00  0.00     0.014 A 
BRANCH   7  12
ATOM     12  C   UNL A   1      31.152  23.682  25.603  1.00  0.00     0.033 C 
ATOM     13  C   UNL A   1      32.370  23.626  26.193  1.00  0.00     0.117 C 
BRANCH  13  14
ATOM     14  C   UNL A   1      32.649  22.433  27.053  1.00  0.00     0.261 C 
ATOM     15  N   UNL A   1      33.000  21.211  26.564  1.00  0.00    -0.351 N 
ATOM     16  H   UNL A   1      33.170  20.543  27.267  1.00  0.00     0.163 HD
ATOM     17  O   UNL A   1      32.544  22.515  28.280  1.00  0.00    -0.268 OA
BRANCH  15  18
ATOM     18  C   UNL A   1      33.176  20.687  25.217  1.00  0.00     0.118 C 
BRANCH  18  19
ATOM     19  C   UNL A   1      34.595  20.216  24.920  1.00  0.00     0.050 C 
BRANCH  19  20
ATOM     20  C   UNL A   1      35.714  21.223  25.151  1.00  0.00     0.161 C 
BRANCH  20  21
ATOM     21  O   UNL A   1      37.016  20.659  25.038  1.00  0.00    -0.385 OA
ATOM     22  C   UNL A   1      38.082  21.569  25.251  1.00  0.00     0.194 C 
ENDBRANCH  20  21
ENDBRANCH  19  20
ENDBRANCH  18  19
ENDBRANCH  15  18
ENDBRANCH  13  14
BRANCH  13  23
ATOM     23  C   UNL A   1      33.334  24.644  25.945  1.00  0.00     0.105 C 
ATOM     24  N   UNL A   1      34.149  25.443  25.739  1.00  0.00    -0.192 NA
ENDBRANCH  13  23
ENDBRANCH   7  12
ENDBRANCH   3   6
ENDBRANCH   1   2
BRANCH   1  25
ATOM     25  C   UNL A   1      33.052  29.078  24.247  1.00  0.00     0.021 C 
BRANCH  25  26
ATOM     26  C   UNL A   1      31.878  29.874  24.834  1.00  0.00     0.002 C 
BRANCH  26  27
ATOM     27  C   UNL A   1      31.594  29.586  26.312  1.00  0.00     0.002 C 
BRANCH  27  28
ATOM     28  C   UNL A   1      32.352  28.382  26.877  1.00  0.00     0.021 C 
BRANCH  28  29
ATOM     29  C   UNL A   1      33.685  28.746  27.520  1.00  0.00     0.116 C 
BRANCH  29  30
ATOM     30  N   UNL A   1      33.726  30.151  27.897  1.00  0.00    -0.352 N 
ATOM     31  C   UNL A   1      34.711  30.845  28.549  1.00  0.00     0.251 C 
ATOM     32  H   UNL A   1      32.934  30.678  27.646  1.00  0.00     0.163 HD
ATOM     33  O   UNL A   1      34.478  31.950  29.030  1.00  0.00    -0.269 OA
BRANCH  31  34
ATOM     34  C   UNL A   1      36.057  30.252  28.680  1.00  0.00     0.039 A 
ATOM     35  C   UNL A   1      36.929  30.307  27.591  1.00  0.00     0.014 A 
ATOM     36  C   UNL A   1      36.451  29.638  29.872  1.00  0.00     0.014 A 
ATOM     37  C   UNL A   1      38.219  29.794  27.720  1.00  0.00     0.010 A 
ATOM     38  C   UNL A   1      37.765  29.210  30.027  1.00  0.00     0.010 A 
ATOM     39  C   UNL A   1      38.660  29.278  28.950  1.00  0.00    -0.014 A 
BRANCH  39  40
ATOM     40  C   UNL A   1      40.059  28.818  29.125  1.00  0.00     0.031 A 
ATOM     41  C   UNL A   1      41.099  29.738  29.703  1.00  0.00     0.074 A 
ATOM     42  C   UNL A   1      40.403  27.580  28.720  1.00  0.00     0.049 A 
ATOM     43  N   UNL A   1      42.370  29.512  29.918  1.00  0.00    -0.248 NA
ATOM     44  C   UNL A   1      40.662  31.095  30.065  1.00  0.00     0.031 C 
ATOM     45  C   UNL A   1      39.494  26.607  28.110  1.00  0.00     0.029 A 
ATOM     46  N   UNL A   1      41.607  26.926  28.764  1.00  0.00    -0.354 N 
ATOM     47  C   UNL A   1      42.882  30.696  30.431  1.00  0.00     0.074 A 
ATOM     48  C   UNL A   1      41.802  31.657  30.438  1.00  0.00     0.031 C 
ATOM     49  C   UNL A   1      40.161  25.467  27.878  1.00  0.00     0.029 A 
ATOM     50  C   UNL A   1      41.555  25.644  28.272  1.00  0.00     0.049 A 
ATOM     51  H   UNL A   1      42.431  27.335  29.116  1.00  0.00     0.167 HD
ATOM     52  C   UNL A   1      44.135  30.956  30.876  1.00  0.00     0.031 A 
ATOM     53  C   UNL A   1      42.522  24.717  28.142  1.00  0.00     0.031 A 
ATOM     54  C   UNL A   1      45.213  30.001  30.856  1.00  0.00     0.049 A 
ATOM     55  C   UNL A   1      43.916  25.047  28.600  1.00  0.00     0.074 A 
ATOM     56  C   UNL A   1      46.506  30.151  31.325  1.00  0.00     0.029 A 
ATOM     57  N   UNL A   1      45.126  28.722  30.325  1.00  0.00    -0.354 N 
ATOM     58  N   UNL A   1      44.366  26.147  29.153  1.00  0.00    -0.248 NA
ATOM     59  C   UNL A   1      44.931  24.000  28.424  1.00  0.00     0.031 C 
ATOM     60  C   UNL A   1      47.222  28.993  31.009  1.00  0.00     0.029 A 
ATOM     61  C   UNL A   1      46.355  28.088  30.419  1.00  0.00     0.049 A 
ATOM     62  H   UNL A   1      44.312  28.325  29.939  1.00  0.00     0.167 HD
ATOM     63  C   UNL A   1      45.711  25.913  29.418  1.00  0.00     0.074 A 
ATOM     64  C   UNL A   1      45.992  24.560  28.987  1.00  0.00     0.031 C 
ATOM     65  C   UNL A   1      46.626  26.744  29.974  1.00  0.00     0.031 A 
BRANCH  52  66
ATOM     66  C   UNL A   1      44.412  32.341  31.400  1.00  0.00    -0.014 A 
ATOM     67  C   UNL A   1      44.268  32.652  32.763  1.00  0.00     0.009 A 
ATOM     68  C   UNL A   1      44.852  33.343  30.521  1.00  0.00     0.009 A 
ATOM     69  C   UNL A   1      44.513  33.947  33.224  1.00  0.00     0.001 A 
ATOM     70  C   UNL A   1      45.134  34.627  30.992  1.00  0.00     0.001 A 
ATOM     71  C   UNL A   1      44.951  34.932  32.339  1.00  0.00     0.000 A 
ENDBRANCH  52  66
BRANCH  53  72
ATOM     72  C   UNL A   1      42.204  23.387  27.558  1.00  0.00    -0.014 A 
ATOM     73  C   UNL A   1      42.435  23.128  26.199  1.00  0.00     0.009 A 
ATOM     74  C   UNL A   1      41.665  22.367  28.358  1.00  0.00     0.009 A 
ATOM     75  C   UNL A   1      42.104  21.889  25.647  1.00  0.00     0.001 A 
ATOM     76  C   UNL A   1      41.370  21.117  27.812  1.00  0.00     0.001 A 
ATOM     77  C   UNL A   1      41.578  20.883  26.455  1.00  0.00     0.000 A 
ENDBRANCH  53  72
BRANCH  65  78
ATOM     78  C   UNL A   1      48.014  26.201  30.179  1.00  0.00    -0.014 A 
ATOM     79  C   UNL A   1      48.962  26.188  29.143  1.00  0.00     0.009 A 
ATOM     80  C   UNL A   1      48.391  25.721  31.445  1.00  0.00     0.009 A 
ATOM     81  C   UNL A   1      50.240  25.669  29.359  1.00  0.00     0.001 A 
ATOM     82  C   UNL A   1      49.681  25.240  31.669  1.00  0.00     0.001 A 
ATOM     83  C   UNL A   1      50.600  25.201  30.622  1.00  0.00     0.000 A 
ENDBRANCH  65  78
ENDBRANCH  39  40
ENDBRANCH  31  34
ENDBRANCH  29  30
ENDBRANCH  28  29
ENDBRANCH  27  28
ENDBRANCH  26  27
ENDBRANCH  25  26
ENDBRANCH   1  25
TORSDOF 20
ENDMDL
MODEL 3
REMARK VINA RESULT:     -10.2      1.018      1.593
REMARK SMILES COCCCNC(=O)/C(C#N)=C/c1ccc(C(=O)NCCCCCCNC(=O)c2ccc(-c3c4nc(c(-c5ccccc5)c5ccc([nH]5)c(-c5ccccc5)c5nc(c(-c6ccccc6)c6ccc3[nH]6)C=C5)C=C4)cc2)cc1
REMARK SMILES IDX 20 1 19 2 17 3 18 4 16 6 13 7 14 8 78 9 15 10 77 11 12 12
REMARK SMILES IDX 9 13 7 14 6 15 8 17 5 18 4 19 3 20 2 21 1 22 10 23 11 24
REMARK SMILES IDX 21 25 22 26 23 27 24 28 25 29 26 30 27 31 28 33 29 34 30 35
REMARK SMILES IDX 76 36 31 37 75 38 32 39 33 40 34 41 69 42 35 43 74 44 68 45
REMARK SMILES IDX 70 46 36 47 73 48 67 49 66 50 37 52 59 53 44 54 58 55 45 56
REMARK SMILES IDX 48 57 57 58 71 59 46 60 47 61 56 63 72 64 49 65 38 66 39 67
REMARK SMILES IDX 43 68 40 69 42 70 41 71 60 72 61 73 65 74 62 75 64 76 63 77
REMARK SMILES IDX 50 78 51 79 55 80 52 81 54 82 53 83
REMARK H PARENT 19 5 6 16 26 32 70 51 48 62
REMARK Flexibility Score: inf
ROOT
ATOM      1  C   UNL A   1      34.023  21.467  26.854  1.00  0.00     0.116 C 
ENDROOT
BRANCH   1   2
ATOM      2  N   UNL A   1      33.255  20.444  26.168  1.00  0.00    -0.352 N 
ATOM      3  C   UNL A   1      32.430  20.491  25.075  1.00  0.00     0.251 C 
ATOM      4  O   UNL A   1      31.893  19.447  24.708  1.00  0.00    -0.269 OA
ATOM      5  H   UNL A   1      33.345  19.546  26.562  1.00  0.00     0.163 HD
BRANCH   3   6
ATOM      6  C   UNL A   1      32.229  21.729  24.276  1.00  0.00     0.039 A 
ATOM      7  C   UNL A   1      32.223  24.134  22.835  1.00  0.00    -0.024 A 
ATOM      8  C   UNL A   1      32.960  23.048  22.364  1.00  0.00     0.009 A 
ATOM      9  C   UNL A   1      31.383  23.968  23.943  1.00  0.00     0.009 A 
ATOM     10  C   UNL A   1      32.963  21.851  23.086  1.00  0.00     0.014 A 
ATOM     11  C   UNL A   1      31.375  22.767  24.649  1.00  0.00     0.014 A 
BRANCH   7  12
ATOM     12  C   UNL A   1      32.414  25.474  22.266  1.00  0.00     0.033 C 
ATOM     13  C   UNL A   1      33.177  26.410  22.879  1.00  0.00     0.117 C 
BRANCH  13  14
ATOM     14  C   UNL A   1      33.223  27.765  22.246  1.00  0.00     0.261 C 
ATOM     15  N   UNL A   1      32.263  28.716  22.420  1.00  0.00    -0.351 N 
ATOM     16  H   UNL A   1      32.458  29.559  21.950  1.00  0.00     0.163 HD
ATOM     17  O   UNL A   1      34.156  28.070  21.497  1.00  0.00    -0.268 OA
BRANCH  15  18
ATOM     18  C   UNL A   1      31.006  28.744  23.156  1.00  0.00     0.118 C 
BRANCH  18  19
ATOM     19  C   UNL A   1      31.147  29.226  24.595  1.00  0.00     0.050 C 
BRANCH  19  20
ATOM     20  C   UNL A   1      31.404  28.161  25.653  1.00  0.00     0.161 C 
BRANCH  20  21
ATOM     21  O   UNL A   1      32.515  28.454  26.494  1.00  0.00    -0.385 OA
ATOM     22  C   UNL A   1      33.379  29.469  26.011  1.00  0.00     0.194 C 
ENDBRANCH  20  21
ENDBRANCH  19  20
ENDBRANCH  18  19
ENDBRANCH  15  18
ENDBRANCH  13  14
BRANCH  13  23
ATOM     23  C   UNL A   1      33.852  26.101  24.094  1.00  0.00     0.105 C 
ATOM     24  N   UNL A   1      34.364  25.837  25.101  1.00  0.00    -0.192 NA
ENDBRANCH  13  23
ENDBRANCH   7  12
ENDBRANCH   3   6
ENDBRANCH   1   2
BRANCH   1  25
ATOM     25  C   UNL A   1      35.267  21.816  26.033  1.00  0.00     0.021 C 
BRANCH  25  26
ATOM     26  C   UNL A   1      35.720  20.669  25.119  1.00  0.00     0.002 C 
BRANCH  26  27
ATOM     27  C   UNL A   1      37.140  20.826  24.563  1.00  0.00     0.002 C 
BRANCH  27  28
ATOM     28  C   UNL A   1      38.112  19.726  24.996  1.00  0.00     0.021 C 
BRANCH  28  29
ATOM     29  C   UNL A   1      39.217  20.218  25.924  1.00  0.00     0.116 C 
BRANCH  29  30
ATOM     30  N   UNL A   1      40.342  19.294  25.945  1.00  0.00    -0.352 N 
ATOM     31  C   UNL A   1      41.680  19.559  26.077  1.00  0.00     0.251 C 
ATOM     32  H   UNL A   1      40.108  18.342  25.852  1.00  0.00     0.163 HD
ATOM     33  O   UNL A   1      42.513  18.701  25.802  1.00  0.00    -0.269 OA
BRANCH  31  34
ATOM     34  C   UNL A   1      42.116  20.890  26.545  1.00  0.00     0.039 A 
ATOM     35  C   UNL A   1      42.372  21.888  25.602  1.00  0.00     0.014 A 
ATOM     36  C   UNL A   1      42.275  21.147  27.909  1.00  0.00     0.014 A 
ATOM     37  C   UNL A   1      42.735  23.162  26.036  1.00  0.00     0.010 A 
ATOM     38  C   UNL A   1      42.549  22.441  28.341  1.00  0.00     0.010 A 
ATOM     39  C   UNL A   1      42.788  23.460  27.408  1.00  0.00    -0.014 A 
BRANCH  39  40
ATOM     40  C   UNL A   1      43.079  24.835  27.878  1.00  0.00     0.031 A 
ATOM     41  C   UNL A   1      44.496  25.274  28.129  1.00  0.00     0.074 A 
ATOM     42  C   UNL A   1      42.058  25.678  28.123  1.00  0.00     0.049 A 
ATOM     43  N   UNL A   1      44.936  26.432  28.553  1.00  0.00    -0.248 NA
ATOM     44  C   UNL A   1      45.553  24.278  27.898  1.00  0.00     0.031 C 
ATOM     45  C   UNL A   1      40.638  25.359  27.954  1.00  0.00     0.029 A 
ATOM     46  N   UNL A   1      42.055  26.978  28.561  1.00  0.00    -0.354 N 
ATOM     47  C   UNL A   1      46.315  26.300  28.644  1.00  0.00     0.074 A 
ATOM     48  C   UNL A   1      46.634  24.934  28.294  1.00  0.00     0.031 C 
ATOM     49  C   UNL A   1      39.906  26.445  28.242  1.00  0.00     0.029 A 
ATOM     50  C   UNL A   1      40.796  27.520  28.667  1.00  0.00     0.049 A 
ATOM     51  H   UNL A   1      42.876  27.476  28.779  1.00  0.00     0.167 HD
ATOM     52  C   UNL A   1      47.237  27.237  28.973  1.00  0.00     0.031 A 
ATOM     53  C   UNL A   1      40.402  28.742  29.069  1.00  0.00     0.031 A 
ATOM     54  C   UNL A   1      46.915  28.593  29.334  1.00  0.00     0.049 A 
ATOM     55  C   UNL A   1      41.442  29.749  29.473  1.00  0.00     0.074 A 
ATOM     56  C   UNL A   1      47.779  29.631  29.639  1.00  0.00     0.029 A 
ATOM     57  N   UNL A   1      45.628  29.095  29.454  1.00  0.00    -0.354 N 
ATOM     58  N   UNL A   1      42.748  29.632  29.482  1.00  0.00    -0.248 NA
ATOM     59  C   UNL A   1      40.951  31.063  29.913  1.00  0.00     0.031 C 
ATOM     60  C   UNL A   1      47.013  30.737  30.018  1.00  0.00     0.029 A 
ATOM     61  C   UNL A   1      45.674  30.417  29.868  1.00  0.00     0.049 A 
ATOM     62  H   UNL A   1      44.804  28.587  29.272  1.00  0.00     0.167 HD
ATOM     63  C   UNL A   1      43.236  30.865  29.899  1.00  0.00     0.074 A 
ATOM     64  C   UNL A   1      42.085  31.719  30.110  1.00  0.00     0.031 C 
ATOM     65  C   UNL A   1      44.521  31.254  30.086  1.00  0.00     0.031 A 
BRANCH  52  66
ATOM     66  C   UNL A   1      48.683  26.815  28.978  1.00  0.00    -0.014 A 
ATOM     67  C   UNL A   1      49.314  26.370  30.152  1.00  0.00     0.009 A 
ATOM     68  C   UNL A   1      49.419  26.836  27.783  1.00  0.00     0.009 A 
ATOM     69  C   UNL A   1      50.660  26.001  30.138  1.00  0.00     0.001 A 
ATOM     70  C   UNL A   1      50.755  26.429  27.764  1.00  0.00     0.001 A 
ATOM     71  C   UNL A   1      51.378  26.025  28.943  1.00  0.00     0.000 A 
ENDBRANCH  52  66
BRANCH  53  72
ATOM     72  C   UNL A   1      38.955  29.083  29.103  1.00  0.00    -0.014 A 
ATOM     73  C   UNL A   1      38.208  28.918  30.280  1.00  0.00     0.009 A 
ATOM     74  C   UNL A   1      38.309  29.574  27.957  1.00  0.00     0.009 A 
ATOM     75  C   UNL A   1      36.842  29.207  30.299  1.00  0.00     0.001 A 
ATOM     76  C   UNL A   1      36.952  29.897  27.990  1.00  0.00     0.001 A 
ATOM     77  C   UNL A   1      36.217  29.702  29.157  1.00  0.00     0.000 A 
ENDBRANCH  53  72
BRANCH  65  78
ATOM     78  C   UNL A   1      44.754  32.679  30.509  1.00  0.00    -0.014 A 
ATOM     79  C   UNL A   1      44.892  33.714  29.570  1.00  0.00     0.009 A 
ATOM     80  C   UNL A   1      44.804  32.997  31.877  1.00  0.00     0.009 A 
ATOM     81  C   UNL A   1      45.118  35.026  29.991  1.00  0.00     0.001 A 
ATOM     82  C   UNL A   1      44.989  34.314  32.295  1.00  0.00     0.001 A 
ATOM     83  C   UNL A   1      45.160  35.326  31.352  1.00  0.00     0.000 A 
ENDBRANCH  65  78
ENDBRANCH  39  40
ENDBRANCH  31  34
ENDBRANCH  29  30
ENDBRANCH  28  29
ENDBRANCH  27  28
ENDBRANCH  26  27
ENDBRANCH  25  26
ENDBRANCH   1  25
TORSDOF 20
ENDMDL
