MODEL 1
REMARK VINA RESULT:     -12.3      0.000      0.000
REMARK SMILES CCc1ccc2c(CC(=O)NCCCCCCNC(=O)c3ccc(-c4c5nc(c(-c6ccccc6)c6ccc([nH]6)c(-c6ccccc6)c6nc(c(-c7ccccc7)c7ccc4[nH]7)C=C6)C=C5)cc3)c(C(=O)c3cc(C)ccn3)[nH]c2c1
REMARK SMILES IDX 14 1 13 2 12 3 11 4 9 5 10 6 8 8 7 9 3 10 4 11 81 12 5 13
REMARK SMILES IDX 80 14 6 15 79 16 69 17 2 19 1 20 70 21 71 22 72 23 73 24
REMARK SMILES IDX 78 25 74 26 77 27 75 28 76 29 15 30 16 31 17 32 18 33 19 34
REMARK SMILES IDX 20 36 21 37 22 38 68 39 23 40 67 41 24 42 25 43 26 44 61 45
REMARK SMILES IDX 27 46 66 47 60 48 62 49 28 50 65 51 59 52 58 53 29 55 51 56
REMARK SMILES IDX 36 57 50 58 37 59 40 60 49 61 63 62 38 63 39 64 48 66 64 67
REMARK SMILES IDX 41 68 30 69 31 70 35 71 32 72 34 73 33 74 52 75 53 76 57 77
REMARK SMILES IDX 54 78 56 79 55 80 42 81 43 82 47 83 44 84 46 85 45 86
REMARK H PARENT 11 7 79 18 18 35 62 54 40 65
REMARK Flexibility Score: inf
ROOT
ATOM      1  C   UNL A   1      32.367  29.543  27.177  1.00  0.00     0.002 C 
ENDROOT
BRANCH   1   2
ATOM      2  C   UNL A   1      31.707  28.200  27.519  1.00  0.00     0.021 C 
BRANCH   2   3
ATOM      3  C   UNL A   1      31.859  27.132  26.437  1.00  0.00     0.116 C 
BRANCH   3   4
ATOM      4  N   UNL A   1      31.340  25.850  26.859  1.00  0.00    -0.356 N 
ATOM      5  C   UNL A   1      31.794  24.589  26.597  1.00  0.00     0.224 C 
ATOM      6  O   UNL A   1      31.264  23.669  27.229  1.00  0.00    -0.275 OA
ATOM      7  H   UNL A   1      30.534  25.892  27.421  1.00  0.00     0.163 HD
BRANCH   5   8
ATOM      8  C   UNL A   1      32.995  24.336  25.694  1.00  0.00     0.138 C 
BRANCH   8   9
ATOM      9  C   UNL A   1      32.718  23.578  24.421  1.00  0.00    -0.002 A 
ATOM     10  C   UNL A   1      32.396  19.465  23.443  1.00  0.00    -0.046 A 
ATOM     11  C   UNL A   1      32.533  19.765  24.802  1.00  0.00     0.004 A 
ATOM     12  C   UNL A   1      32.322  20.519  22.512  1.00  0.00     0.030 A 
ATOM     13  C   UNL A   1      32.631  21.090  25.248  1.00  0.00     0.011 A 
ATOM     14  C   UNL A   1      32.422  21.837  22.977  1.00  0.00     0.046 A 
ATOM     15  C   UNL A   1      32.589  22.150  24.319  1.00  0.00     0.004 A 
ATOM     16  N   UNL A   1      32.393  23.025  22.291  1.00  0.00    -0.352 N 
ATOM     17  C   UNL A   1      32.490  24.103  23.148  1.00  0.00     0.093 A 
ATOM     18  H   UNL A   1      32.312  23.099  21.312  1.00  0.00     0.167 HD
BRANCH  10  19
ATOM     19  C   UNL A   1      32.285  18.047  22.921  1.00  0.00     0.032 C 
ATOM     20  C   UNL A   1      33.417  17.092  23.284  1.00  0.00     0.009 C 
ENDBRANCH  10  19
BRANCH  17  21
ATOM     21  C   UNL A   1      32.390  25.502  22.745  1.00  0.00     0.227 C 
ATOM     22  O   UNL A   1      33.312  26.125  22.223  1.00  0.00    -0.285 OA
BRANCH  21  23
ATOM     23  C   UNL A   1      31.133  26.242  23.033  1.00  0.00     0.113 A 
ATOM     24  C   UNL A   1      31.013  27.574  22.644  1.00  0.00     0.036 A 
ATOM     25  N   UNL A   1      30.161  25.553  23.681  1.00  0.00    -0.253 NA
ATOM     26  C   UNL A   1      29.824  28.245  22.937  1.00  0.00    -0.047 A 
ATOM     27  C   UNL A   1      29.012  26.213  23.919  1.00  0.00     0.112 A 
ATOM     28  C   UNL A   1      29.630  29.684  22.565  1.00  0.00     0.044 C 
ATOM     29  C   UNL A   1      28.801  27.541  23.578  1.00  0.00     0.023 A 
ENDBRANCH  21  23
ENDBRANCH  17  21
ENDBRANCH   8   9
ENDBRANCH   5   8
ENDBRANCH   3   4
ENDBRANCH   2   3
ENDBRANCH   1   2
BRANCH   1  30
ATOM     30  C   UNL A   1      31.615  30.409  26.159  1.00  0.00     0.002 C 
BRANCH  30  31
ATOM     31  C   UNL A   1      31.423  31.875  26.559  1.00  0.00     0.021 C 
BRANCH  31  32
ATOM     32  C   UNL A   1      32.640  32.530  27.205  1.00  0.00     0.116 C 
BRANCH  32  33
ATOM     33  N   UNL A   1      32.403  33.925  27.542  1.00  0.00    -0.352 N 
ATOM     34  C   UNL A   1      33.028  34.723  28.468  1.00  0.00     0.251 C 
ATOM     35  H   UNL A   1      31.686  34.363  27.028  1.00  0.00     0.163 HD
ATOM     36  O   UNL A   1      32.570  35.830  28.737  1.00  0.00    -0.269 OA
BRANCH  34  37
ATOM     37  C   UNL A   1      34.245  34.248  29.161  1.00  0.00     0.039 A 
ATOM     38  C   UNL A   1      34.111  33.608  30.397  1.00  0.00     0.014 A 
ATOM     39  C   UNL A   1      35.514  34.454  28.612  1.00  0.00     0.014 A 
ATOM     40  C   UNL A   1      35.242  33.114  31.050  1.00  0.00     0.010 A 
ATOM     41  C   UNL A   1      36.635  33.911  29.235  1.00  0.00     0.010 A 
ATOM     42  C   UNL A   1      36.510  33.232  30.458  1.00  0.00    -0.014 A 
BRANCH  42  43
ATOM     43  C   UNL A   1      37.714  32.637  31.090  1.00  0.00     0.031 A 
ATOM     44  C   UNL A   1      38.393  31.451  30.464  1.00  0.00     0.074 A 
ATOM     45  C   UNL A   1      38.152  33.118  32.269  1.00  0.00     0.049 A 
ATOM     46  N   UNL A   1      39.399  30.745  30.915  1.00  0.00    -0.248 NA
ATOM     47  C   UNL A   1      37.858  30.984  29.176  1.00  0.00     0.031 C 
ATOM     48  C   UNL A   1      37.561  34.244  32.998  1.00  0.00     0.029 A 
ATOM     49  N   UNL A   1      39.189  32.712  33.069  1.00  0.00    -0.354 N 
ATOM     50  C   UNL A   1      39.606  29.742  29.976  1.00  0.00     0.074 A 
ATOM     51  C   UNL A   1      38.599  29.908  28.950  1.00  0.00     0.031 C 
ATOM     52  C   UNL A   1      38.257  34.447  34.129  1.00  0.00     0.029 A 
ATOM     53  C   UNL A   1      39.313  33.445  34.224  1.00  0.00     0.049 A 
ATOM     54  H   UNL A   1      39.788  31.965  32.838  1.00  0.00     0.167 HD
ATOM     55  C   UNL A   1      40.558  28.777  29.962  1.00  0.00     0.031 A 
ATOM     56  C   UNL A   1      40.174  33.319  35.252  1.00  0.00     0.031 A 
ATOM     57  C   UNL A   1      41.568  28.617  30.973  1.00  0.00     0.049 A 
ATOM     58  C   UNL A   1      41.211  32.233  35.217  1.00  0.00     0.074 A 
ATOM     59  C   UNL A   1      42.609  27.705  31.014  1.00  0.00     0.029 A 
ATOM     60  N   UNL A   1      41.665  29.387  32.120  1.00  0.00    -0.354 N 
ATOM     61  N   UNL A   1      41.427  31.327  34.294  1.00  0.00    -0.248 NA
ATOM     62  C   UNL A   1      42.126  32.156  36.365  1.00  0.00     0.031 C 
ATOM     63  C   UNL A   1      43.309  27.895  32.210  1.00  0.00     0.029 A 
ATOM     64  C   UNL A   1      42.733  28.955  32.890  1.00  0.00     0.049 A 
ATOM     65  H   UNL A   1      41.064  30.130  32.356  1.00  0.00     0.167 HD
ATOM     66  C   UNL A   1      42.516  30.588  34.739  1.00  0.00     0.074 A 
ATOM     67  C   UNL A   1      42.924  31.161  36.006  1.00  0.00     0.031 C 
ATOM     68  C   UNL A   1      43.124  29.531  34.150  1.00  0.00     0.031 A 
BRANCH  55  69
ATOM     69  C   UNL A   1      40.542  27.810  28.813  1.00  0.00    -0.014 A 
ATOM     70  C   UNL A   1      41.280  28.057  27.644  1.00  0.00     0.009 A 
ATOM     71  C   UNL A   1      39.811  26.615  28.917  1.00  0.00     0.009 A 
ATOM     72  C   UNL A   1      41.259  27.143  26.589  1.00  0.00     0.001 A 
ATOM     73  C   UNL A   1      39.812  25.692  27.869  1.00  0.00     0.001 A 
ATOM     74  C   UNL A   1      40.529  25.959  26.703  1.00  0.00     0.000 A 
ENDBRANCH  55  69
BRANCH  56  75
ATOM     75  C   UNL A   1      40.097  34.254  36.403  1.00  0.00    -0.014 A 
ATOM     76  C   UNL A   1      40.745  35.497  36.353  1.00  0.00     0.009 A 
ATOM     77  C   UNL A   1      39.382  33.905  37.559  1.00  0.00     0.009 A 
ATOM     78  C   UNL A   1      40.699  36.363  37.447  1.00  0.00     0.001 A 
ATOM     79  C   UNL A   1      39.316  34.784  38.642  1.00  0.00     0.001 A 
ATOM     80  C   UNL A   1      39.981  36.009  38.589  1.00  0.00     0.000 A 
ENDBRANCH  56  75
BRANCH  68  81
ATOM     81  C   UNL A   1      44.311  28.943  34.856  1.00  0.00    -0.014 A 
ATOM     82  C   UNL A   1      44.152  27.952  35.838  1.00  0.00     0.009 A 
ATOM     83  C   UNL A   1      45.605  29.360  34.510  1.00  0.00     0.009 A 
ATOM     84  C   UNL A   1      45.270  27.415  36.482  1.00  0.00     0.001 A 
ATOM     85  C   UNL A   1      46.719  28.803  35.136  1.00  0.00     0.001 A 
ATOM     86  C   UNL A   1      46.550  27.836  36.127  1.00  0.00     0.000 A 
ENDBRANCH  68  81
ENDBRANCH  42  43
ENDBRANCH  34  37
ENDBRANCH  32  33
ENDBRANCH  31  32
ENDBRANCH  30  31
ENDBRANCH   1  30
TORSDOF 17
ENDMDL
MODEL 2
REMARK VINA RESULT:     -12.2      3.741      8.933
REMARK SMILES CCc1ccc2c(CC(=O)NCCCCCCNC(=O)c3ccc(-c4c5nc(c(-c6ccccc6)c6ccc([nH]6)c(-c6ccccc6)c6nc(c(-c7ccccc7)c7ccc4[nH]7)C=C6)C=C5)cc3)c(C(=O)c3cc(C)ccn3)[nH]c2c1
REMARK SMILES IDX 14 1 13 2 12 3 11 4 9 5 10 6 8 8 7 9 3 10 4 11 81 12 5 13
REMARK SMILES IDX 80 14 6 15 79 16 69 17 2 19 1 20 70 21 71 22 72 23 73 24
REMARK SMILES IDX 78 25 74 26 77 27 75 28 76 29 15 30 16 31 17 32 18 33 19 34
REMARK SMILES IDX 20 36 21 37 22 38 68 39 23 40 67 41 24 42 25 43 26 44 61 45
REMARK SMILES IDX 27 46 66 47 60 48 62 49 28 50 65 51 59 52 58 53 29 55 51 56
REMARK SMILES IDX 36 57 50 58 37 59 40 60 49 61 63 62 38 63 39 64 48 66 64 67
REMARK SMILES IDX 41 68 30 69 31 70 35 71 32 72 34 73 33 74 52 75 53 76 57 77
REMARK SMILES IDX 54 78 56 79 55 80 42 81 43 82 47 83 44 84 46 85 45 86
REMARK H PARENT 11 7 79 18 18 35 62 54 40 65
REMARK Flexibility Score: inf
ROOT
ATOM      1  C   UNL A   1      35.626  22.278  24.452  1.00  0.00     0.002 C 
ENDROOT
BRANCH   1   2
ATOM      2  C   UNL A   1      35.727  23.640  25.152  1.00  0.00     0.021 C 
BRANCH   2   3
ATOM      3  C   UNL A   1      34.397  24.380  25.280  1.00  0.00     0.116 C 
BRANCH   3   4
ATOM      4  N   UNL A   1      34.573  25.813  25.346  1.00  0.00    -0.356 N 
ATOM      5  C   UNL A   1      33.784  26.772  25.914  1.00  0.00     0.224 C 
ATOM      6  O   UNL A   1      34.259  27.911  25.981  1.00  0.00    -0.275 OA
ATOM      7  H   UNL A   1      35.389  26.152  24.912  1.00  0.00     0.163 HD
BRANCH   5   8
ATOM      8  C   UNL A   1      32.455  26.431  26.577  1.00  0.00     0.138 C 
BRANCH   8   9
ATOM      9  C   UNL A   1      31.273  26.287  25.652  1.00  0.00    -0.002 A 
ATOM     10  C   UNL A   1      29.201  28.936  23.070  1.00  0.00    -0.046 A 
ATOM     11  C   UNL A   1      30.359  29.441  23.669  1.00  0.00     0.004 A 
ATOM     12  C   UNL A   1      28.831  27.598  23.312  1.00  0.00     0.030 A 
ATOM     13  C   UNL A   1      31.137  28.653  24.528  1.00  0.00     0.011 A 
ATOM     14  C   UNL A   1      29.621  26.826  24.174  1.00  0.00     0.046 A 
ATOM     15  C   UNL A   1      30.757  27.323  24.800  1.00  0.00     0.004 A 
ATOM     16  N   UNL A   1      29.479  25.524  24.580  1.00  0.00    -0.352 N 
ATOM     17  C   UNL A   1      30.510  25.141  25.415  1.00  0.00     0.093 A 
ATOM     18  H   UNL A   1      28.736  24.936  24.311  1.00  0.00     0.167 HD
BRANCH  10  19
ATOM     19  C   UNL A   1      28.334  29.753  22.135  1.00  0.00     0.032 C 
ATOM     20  C   UNL A   1      27.610  30.949  22.742  1.00  0.00     0.009 C 
ENDBRANCH  10  19
BRANCH  17  21
ATOM     21  C   UNL A   1      30.706  23.794  25.939  1.00  0.00     0.227 C 
ATOM     22  O   UNL A   1      30.446  23.473  27.097  1.00  0.00    -0.285 OA
BRANCH  21  23
ATOM     23  C   UNL A   1      31.307  22.761  25.055  1.00  0.00     0.113 A 
ATOM     24  C   UNL A   1      31.715  21.544  25.595  1.00  0.00     0.036 A 
ATOM     25  N   UNL A   1      31.431  23.087  23.744  1.00  0.00    -0.253 NA
ATOM     26  C   UNL A   1      32.285  20.599  24.741  1.00  0.00    -0.047 A 
ATOM     27  C   UNL A   1      31.951  22.143  22.936  1.00  0.00     0.112 A 
ATOM     28  C   UNL A   1      32.763  19.274  25.253  1.00  0.00     0.044 C 
ATOM     29  C   UNL A   1      32.393  20.905  23.382  1.00  0.00     0.023 A 
ENDBRANCH  21  23
ENDBRANCH  17  21
ENDBRANCH   8   9
ENDBRANCH   5   8
ENDBRANCH   3   4
ENDBRANCH   2   3
ENDBRANCH   1   2
BRANCH   1  30
ATOM     30  C   UNL A   1      35.858  21.055  25.348  1.00  0.00     0.002 C 
BRANCH  30  31
ATOM     31  C   UNL A   1      37.057  20.180  24.970  1.00  0.00     0.021 C 
BRANCH  31  32
ATOM     32  C   UNL A   1      38.418  20.764  25.333  1.00  0.00     0.116 C 
BRANCH  32  33
ATOM     33  N   UNL A   1      39.425  19.733  25.535  1.00  0.00    -0.352 N 
ATOM     34  C   UNL A   1      40.712  19.844  26.000  1.00  0.00     0.251 C 
ATOM     35  H   UNL A   1      39.140  18.820  25.304  1.00  0.00     0.163 HD
ATOM     36  O   UNL A   1      41.475  18.883  25.933  1.00  0.00    -0.269 OA
BRANCH  34  37
ATOM     37  C   UNL A   1      41.195  21.121  26.565  1.00  0.00     0.039 A 
ATOM     38  C   UNL A   1      41.797  22.052  25.712  1.00  0.00     0.014 A 
ATOM     39  C   UNL A   1      41.080  21.394  27.931  1.00  0.00     0.014 A 
ATOM     40  C   UNL A   1      42.222  23.283  26.216  1.00  0.00     0.010 A 
ATOM     41  C   UNL A   1      41.452  22.644  28.422  1.00  0.00     0.010 A 
ATOM     42  C   UNL A   1      42.022  23.602  27.569  1.00  0.00    -0.014 A 
BRANCH  42  43
ATOM     43  C   UNL A   1      42.385  24.936  28.107  1.00  0.00     0.031 A 
ATOM     44  C   UNL A   1      43.795  25.222  28.543  1.00  0.00     0.074 A 
ATOM     45  C   UNL A   1      41.428  25.869  28.274  1.00  0.00     0.049 A 
ATOM     46  N   UNL A   1      44.280  26.295  29.116  1.00  0.00    -0.248 NA
ATOM     47  C   UNL A   1      44.784  24.155  28.328  1.00  0.00     0.031 C 
ATOM     48  C   UNL A   1      40.015  25.706  27.922  1.00  0.00     0.029 A 
ATOM     49  N   UNL A   1      41.497  27.136  28.794  1.00  0.00    -0.354 N 
ATOM     50  C   UNL A   1      45.623  26.026  29.345  1.00  0.00     0.074 A 
ATOM     51  C   UNL A   1      45.869  24.676  28.884  1.00  0.00     0.031 C 
ATOM     52  C   UNL A   1      39.356  26.837  28.222  1.00  0.00     0.029 A 
ATOM     53  C   UNL A   1      40.288  27.787  28.821  1.00  0.00     0.049 A 
ATOM     54  H   UNL A   1      42.335  27.541  29.118  1.00  0.00     0.167 HD
ATOM     55  C   UNL A   1      46.571  26.834  29.879  1.00  0.00     0.031 A 
ATOM     56  C   UNL A   1      39.961  29.007  29.286  1.00  0.00     0.031 A 
ATOM     57  C   UNL A   1      46.333  28.180  30.327  1.00  0.00     0.049 A 
ATOM     58  C   UNL A   1      41.028  29.878  29.886  1.00  0.00     0.074 A 
ATOM     59  C   UNL A   1      47.243  29.095  30.828  1.00  0.00     0.029 A 
ATOM     60  N   UNL A   1      45.096  28.804  30.326  1.00  0.00    -0.354 N 
ATOM     61  N   UNL A   1      42.305  29.628  30.044  1.00  0.00    -0.248 NA
ATOM     62  C   UNL A   1      40.608  31.203  30.366  1.00  0.00     0.031 C 
ATOM     63  C   UNL A   1      46.547  30.259  31.174  1.00  0.00     0.029 A 
ATOM     64  C   UNL A   1      45.214  30.084  30.843  1.00  0.00     0.049 A 
ATOM     65  H   UNL A   1      44.257  28.399  30.008  1.00  0.00     0.167 HD
ATOM     66  C   UNL A   1      42.844  30.771  30.619  1.00  0.00     0.074 A 
ATOM     67  C   UNL A   1      41.759  31.720  30.769  1.00  0.00     0.031 C 
ATOM     68  C   UNL A   1      44.125  31.014  30.990  1.00  0.00     0.031 A 
BRANCH  55  69
ATOM     69  C   UNL A   1      47.957  26.274  30.017  1.00  0.00    -0.014 A 
ATOM     70  C   UNL A   1      48.413  25.756  31.240  1.00  0.00     0.009 A 
ATOM     71  C   UNL A   1      48.806  26.226  28.899  1.00  0.00     0.009 A 
ATOM     72  C   UNL A   1      49.703  25.233  31.348  1.00  0.00     0.001 A 
ATOM     73  C   UNL A   1      50.086  25.680  29.005  1.00  0.00     0.001 A 
ATOM     74  C   UNL A   1      50.537  25.191  30.231  1.00  0.00     0.000 A 
ENDBRANCH  55  69
BRANCH  56  75
ATOM     75  C   UNL A   1      38.558  29.484  29.198  1.00  0.00    -0.014 A 
ATOM     76  C   UNL A   1      38.079  30.069  28.017  1.00  0.00     0.009 A 
ATOM     77  C   UNL A   1      37.692  29.363  30.297  1.00  0.00     0.009 A 
ATOM     78  C   UNL A   1      36.768  30.545  27.944  1.00  0.00     0.001 A 
ATOM     79  C   UNL A   1      36.375  29.817  30.213  1.00  0.00     0.001 A 
ATOM     80  C   UNL A   1      35.916  30.415  29.040  1.00  0.00     0.000 A 
ENDBRANCH  56  75
BRANCH  68  81
ATOM     81  C   UNL A   1      44.425  32.367  31.568  1.00  0.00    -0.014 A 
ATOM     82  C   UNL A   1      44.756  33.452  30.741  1.00  0.00     0.009 A 
ATOM     83  C   UNL A   1      44.343  32.566  32.955  1.00  0.00     0.009 A 
ATOM     84  C   UNL A   1      45.029  34.703  31.297  1.00  0.00     0.001 A 
ATOM     85  C   UNL A   1      44.591  33.823  33.504  1.00  0.00     0.001 A 
ATOM     86  C   UNL A   1      44.941  34.889  32.676  1.00  0.00     0.000 A 
ENDBRANCH  68  81
ENDBRANCH  42  43
ENDBRANCH  34  37
ENDBRANCH  32  33
ENDBRANCH  31  32
ENDBRANCH  30  31
ENDBRANCH   1  30
TORSDOF 17
ENDMDL
MODEL 3
REMARK VINA RESULT:     -12.2      0.945      5.725
REMARK SMILES CCc1ccc2c(CC(=O)NCCCCCCNC(=O)c3ccc(-c4c5nc(c(-c6ccccc6)c6ccc([nH]6)c(-c6ccccc6)c6nc(c(-c7ccccc7)c7ccc4[nH]7)C=C6)C=C5)cc3)c(C(=O)c3cc(C)ccn3)[nH]c2c1
REMARK SMILES IDX 14 1 13 2 12 3 11 4 9 5 10 6 8 8 7 9 3 10 4 11 81 12 5 13
REMARK SMILES IDX 80 14 6 15 79 16 69 17 2 19 1 20 70 21 71 22 72 23 73 24
REMARK SMILES IDX 78 25 74 26 77 27 75 28 76 29 15 30 16 31 17 32 18 33 19 34
REMARK SMILES IDX 20 36 21 37 22 38 68 39 23 40 67 41 24 42 25 43 26 44 61 45
REMARK SMILES IDX 27 46 66 47 60 48 62 49 28 50 65 51 59 52 58 53 29 55 51 56
REMARK SMILES IDX 36 57 50 58 37 59 40 60 49 61 63 62 38 63 39 64 48 66 64 67
REMARK SMILES IDX 41 68 30 69 31 70 35 71 32 72 34 73 33 74 52 75 53 76 57 77
REMARK SMILES IDX 54 78 56 79 55 80 42 81 43 82 47 83 44 84 46 85 45 86
REMARK H PARENT 11 7 79 18 18 35 62 54 40 65
REMARK Flexibility Score: inf
ROOT
ATOM      1  C   UNL A   1      32.475  29.725  26.845  1.00  0.00     0.002 C 
ENDROOT
BRANCH   1   2
ATOM      2  C   UNL A   1      31.996  28.351  27.334  1.00  0.00     0.021 C 
BRANCH   2   3
ATOM      3  C   UNL A   1      31.500  27.427  26.223  1.00  0.00     0.116 C 
BRANCH   3   4
ATOM      4  N   UNL A   1      31.077  26.142  26.730  1.00  0.00    -0.356 N 
ATOM      5  C   UNL A   1      31.628  24.904  26.559  1.00  0.00     0.224 C 
ATOM      6  O   UNL A   1      31.163  23.992  27.250  1.00  0.00    -0.275 OA
ATOM      7  H   UNL A   1      30.264  26.160  27.284  1.00  0.00     0.163 HD
BRANCH   5   8
ATOM      8  C   UNL A   1      32.854  24.683  25.681  1.00  0.00     0.138 C 
BRANCH   8   9
ATOM      9  C   UNL A   1      32.644  23.836  24.452  1.00  0.00    -0.002 A 
ATOM     10  C   UNL A   1      32.527  19.661  23.723  1.00  0.00    -0.046 A 
ATOM     11  C   UNL A   1      32.616  20.050  25.063  1.00  0.00     0.004 A 
ATOM     12  C   UNL A   1      32.432  20.652  22.727  1.00  0.00     0.030 A 
ATOM     13  C   UNL A   1      32.644  21.402  25.429  1.00  0.00     0.011 A 
ATOM     14  C   UNL A   1      32.462  21.999  23.112  1.00  0.00     0.046 A 
ATOM     15  C   UNL A   1      32.580  22.401  24.436  1.00  0.00     0.004 A 
ATOM     16  N   UNL A   1      32.399  23.141  22.353  1.00  0.00    -0.352 N 
ATOM     17  C   UNL A   1      32.426  24.273  23.144  1.00  0.00     0.093 A 
ATOM     18  H   UNL A   1      32.341  23.152  21.370  1.00  0.00     0.167 HD
BRANCH  10  19
ATOM     19  C   UNL A   1      32.492  18.211  23.287  1.00  0.00     0.032 C 
ATOM     20  C   UNL A   1      33.767  17.401  23.497  1.00  0.00     0.009 C 
ENDBRANCH  10  19
BRANCH  17  21
ATOM     21  C   UNL A   1      32.276  25.639  22.653  1.00  0.00     0.227 C 
ATOM     22  O   UNL A   1      33.160  26.243  22.050  1.00  0.00    -0.285 OA
BRANCH  21  23
ATOM     23  C   UNL A   1      31.015  26.370  22.946  1.00  0.00     0.113 A 
ATOM     24  C   UNL A   1      30.895  27.709  22.583  1.00  0.00     0.036 A 
ATOM     25  N   UNL A   1      30.041  25.666  23.574  1.00  0.00    -0.253 NA
ATOM     26  C   UNL A   1      29.703  28.372  22.881  1.00  0.00    -0.047 A 
ATOM     27  C   UNL A   1      28.888  26.319  23.817  1.00  0.00     0.112 A 
ATOM     28  C   UNL A   1      29.508  29.817  22.536  1.00  0.00     0.044 C 
ATOM     29  C   UNL A   1      28.677  27.654  23.501  1.00  0.00     0.023 A 
ENDBRANCH  21  23
ENDBRANCH  17  21
ENDBRANCH   8   9
ENDBRANCH   5   8
ENDBRANCH   3   4
ENDBRANCH   2   3
ENDBRANCH   1   2
BRANCH   1  30
ATOM     30  C   UNL A   1      31.421  30.576  26.128  1.00  0.00     0.002 C 
BRANCH  30  31
ATOM     31  C   UNL A   1      31.409  32.061  26.502  1.00  0.00     0.021 C 
BRANCH  31  32
ATOM     32  C   UNL A   1      32.651  32.547  27.244  1.00  0.00     0.116 C 
BRANCH  32  33
ATOM     33  N   UNL A   1      32.521  33.925  27.694  1.00  0.00    -0.352 N 
ATOM     34  C   UNL A   1      33.250  34.612  28.633  1.00  0.00     0.251 C 
ATOM     35  H   UNL A   1      31.804  34.441  27.260  1.00  0.00     0.163 HD
ATOM     36  O   UNL A   1      32.878  35.721  29.009  1.00  0.00    -0.269 OA
BRANCH  34  37
ATOM     37  C   UNL A   1      34.473  34.018  29.211  1.00  0.00     0.039 A 
ATOM     38  C   UNL A   1      34.351  33.134  30.287  1.00  0.00     0.014 A 
ATOM     39  C   UNL A   1      35.738  34.345  28.713  1.00  0.00     0.014 A 
ATOM     40  C   UNL A   1      35.490  32.528  30.822  1.00  0.00     0.010 A 
ATOM     41  C   UNL A   1      36.868  33.697  29.209  1.00  0.00     0.010 A 
ATOM     42  C   UNL A   1      36.754  32.779  30.265  1.00  0.00    -0.014 A 
BRANCH  42  43
ATOM     43  C   UNL A   1      37.966  32.079  30.758  1.00  0.00     0.031 A 
ATOM     44  C   UNL A   1      38.782  32.669  31.875  1.00  0.00     0.074 A 
ATOM     45  C   UNL A   1      38.375  30.949  30.151  1.00  0.00     0.049 A 
ATOM     46  N   UNL A   1      39.915  32.248  32.380  1.00  0.00    -0.248 NA
ATOM     47  C   UNL A   1      38.270  33.903  32.489  1.00  0.00     0.031 C 
ATOM     48  C   UNL A   1      37.691  30.291  29.035  1.00  0.00     0.029 A 
ATOM     49  N   UNL A   1      39.473  30.160  30.380  1.00  0.00    -0.354 N 
ATOM     50  C   UNL A   1      40.259  33.174  33.356  1.00  0.00     0.074 A 
ATOM     51  C   UNL A   1      39.236  34.198  33.349  1.00  0.00     0.031 C 
ATOM     52  C   UNL A   1      38.378  29.190  28.688  1.00  0.00     0.029 A 
ATOM     53  C   UNL A   1      39.567  29.086  29.528  1.00  0.00     0.049 A 
ATOM     54  H   UNL A   1      40.133  30.346  31.087  1.00  0.00     0.167 HD
ATOM     55  C   UNL A   1      41.324  33.166  34.194  1.00  0.00     0.031 A 
ATOM     56  C   UNL A   1      40.509  28.131  29.425  1.00  0.00     0.031 A 
ATOM     57  C   UNL A   1      42.336  32.144  34.213  1.00  0.00     0.049 A 
ATOM     58  C   UNL A   1      41.687  28.152  30.357  1.00  0.00     0.074 A 
ATOM     59  C   UNL A   1      43.421  32.021  35.063  1.00  0.00     0.029 A 
ATOM     60  N   UNL A   1      42.387  31.069  33.340  1.00  0.00    -0.354 N 
ATOM     61  N   UNL A   1      41.968  29.005  31.312  1.00  0.00    -0.248 NA
ATOM     62  C   UNL A   1      42.675  27.075  30.199  1.00  0.00     0.031 C 
ATOM     63  C   UNL A   1      44.154  30.894  34.676  1.00  0.00     0.029 A 
ATOM     64  C   UNL A   1      43.500  30.291  33.616  1.00  0.00     0.049 A 
ATOM     65  H   UNL A   1      41.732  30.885  32.629  1.00  0.00     0.167 HD
ATOM     66  C   UNL A   1      43.151  28.555  31.883  1.00  0.00     0.074 A 
ATOM     67  C   UNL A   1      43.526  27.346  31.178  1.00  0.00     0.031 C 
ATOM     68  C   UNL A   1      43.863  29.094  32.903  1.00  0.00     0.031 A 
BRANCH  55  69
ATOM     69  C   UNL A   1      41.453  34.311  35.157  1.00  0.00    -0.014 A 
ATOM     70  C   UNL A   1      42.142  35.483  34.804  1.00  0.00     0.009 A 
ATOM     71  C   UNL A   1      40.843  34.234  36.419  1.00  0.00     0.009 A 
ATOM     72  C   UNL A   1      42.246  36.541  35.710  1.00  0.00     0.001 A 
ATOM     73  C   UNL A   1      40.928  35.304  37.313  1.00  0.00     0.001 A 
ATOM     74  C   UNL A   1      41.636  36.453  36.961  1.00  0.00     0.000 A 
ENDBRANCH  55  69
BRANCH  56  75
ATOM     75  C   UNL A   1      40.375  27.063  28.402  1.00  0.00    -0.014 A 
ATOM     76  C   UNL A   1      40.974  27.208  27.142  1.00  0.00     0.009 A 
ATOM     77  C   UNL A   1      39.645  25.896  28.678  1.00  0.00     0.009 A 
ATOM     78  C   UNL A   1      40.823  26.217  26.169  1.00  0.00     0.001 A 
ATOM     79  C   UNL A   1      39.517  24.897  27.712  1.00  0.00     0.001 A 
ATOM     80  C   UNL A   1      40.099  25.061  26.456  1.00  0.00     0.000 A 
ENDBRANCH  56  75
BRANCH  68  81
ATOM     81  C   UNL A   1      45.103  28.365  33.332  1.00  0.00    -0.014 A 
ATOM     82  C   UNL A   1      46.356  28.682  32.784  1.00  0.00     0.009 A 
ATOM     83  C   UNL A   1      45.021  27.374  34.322  1.00  0.00     0.009 A 
ATOM     84  C   UNL A   1      47.499  27.994  33.199  1.00  0.00     0.001 A 
ATOM     85  C   UNL A   1      46.168  26.709  34.753  1.00  0.00     0.001 A 
ATOM     86  C   UNL A   1      47.405  27.014  34.185  1.00  0.00     0.000 A 
ENDBRANCH  68  81
ENDBRANCH  42  43
ENDBRANCH  34  37
ENDBRANCH  32  33
ENDBRANCH  31  32
ENDBRANCH  30  31
ENDBRANCH   1  30
TORSDOF 17
ENDMDL
