MODEL 1
REMARK VINA RESULT:     -11.5      0.000      0.000
REMARK SMILES O=C(NCCCCCCNC(=O)c1cc(-c2ccc(C(F)(F)F)cc2)cc([N+](=O)[O-])c1)c1ccc(-c2c3nc(c(-c4ccccc4)c4ccc([nH]4)c(-c4ccccc4)c4nc(c(-c5ccccc5)c5ccc2[nH]5)C=C4)C=C3)cc1
REMARK SMILES IDX 6 1 5 2 4 3 3 4 1 5 2 6 32 8 33 9 79 10 34 11 78 12 35 13
REMARK SMILES IDX 36 14 37 15 72 16 38 17 77 18 71 19 73 20 39 21 76 22 70 23
REMARK SMILES IDX 69 24 40 26 62 27 47 28 61 29 48 30 51 31 60 32 74 33 49 34
REMARK SMILES IDX 50 35 59 37 75 38 52 39 41 40 42 41 46 42 43 43 45 44 44 45
REMARK SMILES IDX 63 46 64 47 68 48 65 49 67 50 66 51 53 52 54 53 58 54 55 55
REMARK SMILES IDX 57 56 56 57 7 58 8 59 9 60 10 61 11 62 12 64 13 65 14 66
REMARK SMILES IDX 31 67 15 68 27 69 26 70 16 71 17 72 25 73 18 74 24 75 19 76
REMARK SMILES IDX 20 77 21 78 22 79 23 80 28 81 29 82 30 83
REMARK H PARENT 3 7 73 25 51 36 10 63
REMARK Flexibility Score: inf
ROOT
ATOM      1  C   UNL A   1      34.256  24.434  25.734  1.00  0.00     0.002 C 
ENDROOT
BRANCH   1   2
ATOM      2  C   UNL A   1      35.605  23.925  26.244  1.00  0.00     0.021 C 
BRANCH   2   3
ATOM      3  C   UNL A   1      36.730  23.925  25.217  1.00  0.00     0.116 C 
BRANCH   3   4
ATOM      4  N   UNL A   1      37.704  22.875  25.456  1.00  0.00    -0.352 N 
ATOM      5  O   UNL A   1      39.692  21.992  26.056  1.00  0.00    -0.269 OA
ATOM      6  C   UNL A   1      38.927  22.954  26.072  1.00  0.00     0.251 C 
ATOM      7  H   UNL A   1      37.451  21.981  25.131  1.00  0.00     0.163 HD
BRANCH   6   8
ATOM      8  C   UNL A   1      39.339  24.207  26.740  1.00  0.00     0.039 A 
ATOM      9  C   UNL A   1      40.055  25.189  26.049  1.00  0.00     0.014 A 
ATOM     10  C   UNL A   1      38.976  24.410  28.074  1.00  0.00     0.014 A 
ATOM     11  C   UNL A   1      40.499  26.325  26.719  1.00  0.00     0.010 A 
ATOM     12  C   UNL A   1      39.366  25.580  28.728  1.00  0.00     0.010 A 
ATOM     13  C   UNL A   1      40.146  26.536  28.061  1.00  0.00    -0.014 A 
BRANCH  13  14
ATOM     14  C   UNL A   1      40.532  27.799  28.736  1.00  0.00     0.031 A 
ATOM     15  C   UNL A   1      41.893  27.970  29.343  1.00  0.00     0.074 A 
ATOM     16  C   UNL A   1      39.626  28.791  28.816  1.00  0.00     0.049 A 
ATOM     17  N   UNL A   1      42.379  28.997  29.994  1.00  0.00    -0.248 NA
ATOM     18  C   UNL A   1      42.829  26.843  29.211  1.00  0.00     0.031 C 
ATOM     19  C   UNL A   1      38.263  28.735  28.280  1.00  0.00     0.029 A 
ATOM     20  N   UNL A   1      39.710  30.037  29.382  1.00  0.00    -0.354 N 
ATOM     21  C   UNL A   1      43.665  28.634  30.370  1.00  0.00     0.074 A 
ATOM     22  C   UNL A   1      43.879  27.285  29.889  1.00  0.00     0.031 C 
ATOM     23  C   UNL A   1      37.647  29.898  28.528  1.00  0.00     0.029 A 
ATOM     24  C   UNL A   1      38.548  30.761  29.283  1.00  0.00     0.049 A 
ATOM     25  H   UNL A   1      40.524  30.379  29.817  1.00  0.00     0.167 HD
ATOM     26  C   UNL A   1      44.584  29.359  31.053  1.00  0.00     0.031 A 
ATOM     27  C   UNL A   1      38.229  31.974  29.766  1.00  0.00     0.031 A 
ATOM     28  C   UNL A   1      44.367  30.700  31.531  1.00  0.00     0.049 A 
ATOM     29  C   UNL A   1      39.253  32.749  30.538  1.00  0.00     0.074 A 
ATOM     30  C   UNL A   1      45.255  31.536  32.185  1.00  0.00     0.029 A 
ATOM     31  N   UNL A   1      43.173  31.395  31.417  1.00  0.00    -0.354 N 
ATOM     32  N   UNL A   1      40.485  32.413  30.836  1.00  0.00    -0.248 NA
ATOM     33  C   UNL A   1      38.847  34.069  31.038  1.00  0.00     0.031 C 
ATOM     34  C   UNL A   1      44.582  32.720  32.512  1.00  0.00     0.029 A 
ATOM     35  C   UNL A   1      43.290  32.638  32.018  1.00  0.00     0.049 A 
ATOM     36  H   UNL A   1      42.361  31.055  30.976  1.00  0.00     0.167 HD
ATOM     37  C   UNL A   1      41.005  33.482  31.550  1.00  0.00     0.074 A 
ATOM     38  C   UNL A   1      39.961  34.485  31.624  1.00  0.00     0.031 C 
ATOM     39  C   UNL A   1      42.239  33.620  32.095  1.00  0.00     0.031 A 
BRANCH  26  40
ATOM     40  C   UNL A   1      45.901  28.701  31.352  1.00  0.00    -0.014 A 
ATOM     41  C   UNL A   1      46.987  28.803  30.470  1.00  0.00     0.009 A 
ATOM     42  C   UNL A   1      46.065  27.991  32.553  1.00  0.00     0.009 A 
ATOM     43  C   UNL A   1      48.201  28.177  30.767  1.00  0.00     0.001 A 
ATOM     44  C   UNL A   1      47.285  27.386  32.858  1.00  0.00     0.001 A 
ATOM     45  C   UNL A   1      48.350  27.472  31.962  1.00  0.00     0.000 A 
ENDBRANCH  26  40
BRANCH  27  46
ATOM     46  C   UNL A   1      36.862  32.507  29.542  1.00  0.00    -0.014 A 
ATOM     47  C   UNL A   1      35.877  32.390  30.532  1.00  0.00     0.009 A 
ATOM     48  C   UNL A   1      36.557  33.187  28.351  1.00  0.00     0.009 A 
ATOM     49  C   UNL A   1      34.608  32.938  30.330  1.00  0.00     0.001 A 
ATOM     50  C   UNL A   1      35.296  33.755  28.164  1.00  0.00     0.001 A 
ATOM     51  C   UNL A   1      34.321  33.625  29.151  1.00  0.00     0.000 A 
ENDBRANCH  27  46
BRANCH  39  52
ATOM     52  C   UNL A   1      42.530  34.908  32.807  1.00  0.00    -0.014 A 
ATOM     53  C   UNL A   1      43.249  35.935  32.178  1.00  0.00     0.009 A 
ATOM     54  C   UNL A   1      42.040  35.112  34.106  1.00  0.00     0.009 A 
ATOM     55  C   UNL A   1      43.494  37.135  32.848  1.00  0.00     0.001 A 
ATOM     56  C   UNL A   1      42.267  36.320  34.764  1.00  0.00     0.001 A 
ATOM     57  C   UNL A   1      42.999  37.328  34.138  1.00  0.00     0.000 A 
ENDBRANCH  39  52
ENDBRANCH  13  14
ENDBRANCH   6   8
ENDBRANCH   3   4
ENDBRANCH   2   3
ENDBRANCH   1   2
BRANCH   1  58
ATOM     58  C   UNL A   1      34.113  25.956  25.639  1.00  0.00     0.002 C 
BRANCH  58  59
ATOM     59  C   UNL A   1      32.907  26.560  26.363  1.00  0.00     0.021 C 
BRANCH  59  60
ATOM     60  C   UNL A   1      31.855  25.558  26.834  1.00  0.00     0.116 C 
BRANCH  60  61
ATOM     61  N   UNL A   1      30.554  25.814  26.245  1.00  0.00    -0.352 N 
ATOM     62  C   UNL A   1      30.131  25.642  24.955  1.00  0.00     0.251 C 
ATOM     63  H   UNL A   1      29.874  26.161  26.866  1.00  0.00     0.163 HD
ATOM     64  O   UNL A   1      29.034  26.068  24.603  1.00  0.00    -0.269 OA
BRANCH  62  65
ATOM     65  C   UNL A   1      30.989  24.956  23.968  1.00  0.00     0.047 A 
ATOM     66  C   UNL A   1      31.220  23.584  24.131  1.00  0.00     0.023 A 
ATOM     67  C   UNL A   1      31.631  25.662  22.949  1.00  0.00     0.099 A 
ATOM     68  C   UNL A   1      32.071  22.885  23.259  1.00  0.00    -0.011 A 
ATOM     69  C   UNL A   1      32.448  24.966  22.053  1.00  0.00     0.270 A 
ATOM     70  C   UNL A   1      32.666  23.588  22.200  1.00  0.00     0.094 A 
BRANCH  68  71
ATOM     71  C   UNL A   1      32.385  21.471  23.508  1.00  0.00    -0.018 A 
ATOM     72  C   UNL A   1      33.124  21.067  24.630  1.00  0.00     0.009 A 
ATOM     73  C   UNL A   1      31.998  20.491  22.581  1.00  0.00     0.009 A 
ATOM     74  C   UNL A   1      33.485  19.726  24.806  1.00  0.00     0.014 A 
ATOM     75  C   UNL A   1      32.361  19.152  22.750  1.00  0.00     0.014 A 
ATOM     76  C   UNL A   1      33.119  18.758  23.860  1.00  0.00     0.056 A 
BRANCH  76  77
ATOM     77  C   UNL A   1      33.558  17.324  24.031  1.00  0.00     0.416 C 
ATOM     78  F   UNL A   1      34.860  17.223  24.416  1.00  0.00    -0.166 F 
ATOM     79  F   UNL A   1      32.835  16.667  24.979  1.00  0.00    -0.166 F 
ATOM     80  F   UNL A   1      33.448  16.580  22.895  1.00  0.00    -0.166 F 
ENDBRANCH  76  77
ENDBRANCH  68  71
BRANCH  69  81
ATOM     81  N   UNL A   1      33.091  25.693  20.953  1.00  0.00     0.062 N 
ATOM     82  O   UNL A   1      32.956  25.244  19.806  1.00  0.00    -0.258 OA
ATOM     83  O   UNL A   1      33.721  26.722  21.238  1.00  0.00    -0.258 OA
ENDBRANCH  69  81
ENDBRANCH  62  65
ENDBRANCH  60  61
ENDBRANCH  59  60
ENDBRANCH  58  59
ENDBRANCH   1  58
TORSDOF 16
ENDMDL
MODEL 2
REMARK VINA RESULT:     -11.5      0.607      5.833
REMARK SMILES O=C(NCCCCCCNC(=O)c1cc(-c2ccc(C(F)(F)F)cc2)cc([N+](=O)[O-])c1)c1ccc(-c2c3nc(c(-c4ccccc4)c4ccc([nH]4)c(-c4ccccc4)c4nc(c(-c5ccccc5)c5ccc2[nH]5)C=C4)C=C3)cc1
REMARK SMILES IDX 6 1 5 2 4 3 3 4 1 5 2 6 32 8 33 9 79 10 34 11 78 12 35 13
REMARK SMILES IDX 36 14 37 15 72 16 38 17 77 18 71 19 73 20 39 21 76 22 70 23
REMARK SMILES IDX 69 24 40 26 62 27 47 28 61 29 48 30 51 31 60 32 74 33 49 34
REMARK SMILES IDX 50 35 59 37 75 38 52 39 41 40 42 41 46 42 43 43 45 44 44 45
REMARK SMILES IDX 63 46 64 47 68 48 65 49 67 50 66 51 53 52 54 53 58 54 55 55
REMARK SMILES IDX 57 56 56 57 7 58 8 59 9 60 10 61 11 62 12 64 13 65 14 66
REMARK SMILES IDX 31 67 15 68 27 69 26 70 16 71 17 72 25 73 18 74 24 75 19 76
REMARK SMILES IDX 20 77 21 78 22 79 23 80 28 81 29 82 30 83
REMARK H PARENT 3 7 73 25 51 36 10 63
REMARK Flexibility Score: inf
ROOT
ATOM      1  C   UNL A   1      34.433  24.589  25.339  1.00  0.00     0.002 C 
ENDROOT
BRANCH   1   2
ATOM      2  C   UNL A   1      35.592  23.766  25.903  1.00  0.00     0.021 C 
BRANCH   2   3
ATOM      3  C   UNL A   1      36.874  23.800  25.080  1.00  0.00     0.116 C 
BRANCH   3   4
ATOM      4  N   UNL A   1      37.802  22.746  25.449  1.00  0.00    -0.352 N 
ATOM      5  O   UNL A   1      39.718  21.859  26.243  1.00  0.00    -0.269 OA
ATOM      6  C   UNL A   1      38.978  22.835  26.149  1.00  0.00     0.251 C 
ATOM      7  H   UNL A   1      37.552  21.840  25.155  1.00  0.00     0.163 HD
BRANCH   6   8
ATOM      8  C   UNL A   1      39.369  24.115  26.776  1.00  0.00     0.039 A 
ATOM      9  C   UNL A   1      39.056  24.388  28.112  1.00  0.00     0.014 A 
ATOM     10  C   UNL A   1      40.085  25.046  26.019  1.00  0.00     0.014 A 
ATOM     11  C   UNL A   1      39.366  25.630  28.658  1.00  0.00     0.010 A 
ATOM     12  C   UNL A   1      40.452  26.267  26.587  1.00  0.00     0.010 A 
ATOM     13  C   UNL A   1      40.079  26.575  27.904  1.00  0.00    -0.014 A 
BRANCH  13  14
ATOM     14  C   UNL A   1      40.498  27.853  28.528  1.00  0.00     0.031 A 
ATOM     15  C   UNL A   1      39.522  28.972  28.735  1.00  0.00     0.074 A 
ATOM     16  C   UNL A   1      41.786  28.003  28.889  1.00  0.00     0.049 A 
ATOM     17  N   UNL A   1      39.732  30.164  29.238  1.00  0.00    -0.248 NA
ATOM     18  C   UNL A   1      38.132  28.732  28.318  1.00  0.00     0.031 C 
ATOM     19  C   UNL A   1      42.833  26.991  28.721  1.00  0.00     0.029 A 
ATOM     20  N   UNL A   1      42.437  29.062  29.466  1.00  0.00    -0.354 N 
ATOM     21  C   UNL A   1      38.511  30.822  29.177  1.00  0.00     0.074 A 
ATOM     22  C   UNL A   1      37.568  29.904  28.573  1.00  0.00     0.031 C 
ATOM     23  C   UNL A   1      43.988  27.473  29.199  1.00  0.00     0.029 A 
ATOM     24  C   UNL A   1      43.777  28.840  29.659  1.00  0.00     0.049 A 
ATOM     25  H   UNL A   1      41.986  29.901  29.719  1.00  0.00     0.167 HD
ATOM     26  C   UNL A   1      38.205  32.076  29.588  1.00  0.00     0.031 A 
ATOM     27  C   UNL A   1      44.740  29.652  30.129  1.00  0.00     0.031 A 
ATOM     28  C   UNL A   1      39.146  32.987  30.186  1.00  0.00     0.049 A 
ATOM     29  C   UNL A   1      44.382  31.044  30.557  1.00  0.00     0.074 A 
ATOM     30  C   UNL A   1      38.918  34.258  30.685  1.00  0.00     0.029 A 
ATOM     31  N   UNL A   1      40.497  32.726  30.357  1.00  0.00    -0.354 N 
ATOM     32  N   UNL A   1      43.210  31.631  30.545  1.00  0.00    -0.248 NA
ATOM     33  C   UNL A   1      45.476  31.882  31.064  1.00  0.00     0.031 C 
ATOM     34  C   UNL A   1      40.143  34.787  31.111  1.00  0.00     0.029 A 
ATOM     35  C   UNL A   1      41.123  33.826  30.922  1.00  0.00     0.049 A 
ATOM     36  H   UNL A   1      40.946  31.886  30.111  1.00  0.00     0.167 HD
ATOM     37  C   UNL A   1      43.422  32.905  31.051  1.00  0.00     0.074 A 
ATOM     38  C   UNL A   1      44.832  32.998  31.377  1.00  0.00     0.031 C 
ATOM     39  C   UNL A   1      42.528  33.908  31.229  1.00  0.00     0.031 A 
BRANCH  26  40
ATOM     40  C   UNL A   1      36.795  32.549  29.372  1.00  0.00    -0.014 A 
ATOM     41  C   UNL A   1      36.402  33.153  28.168  1.00  0.00     0.009 A 
ATOM     42  C   UNL A   1      35.837  32.360  30.382  1.00  0.00     0.009 A 
ATOM     43  C   UNL A   1      35.086  33.590  27.993  1.00  0.00     0.001 A 
ATOM     44  C   UNL A   1      34.518  32.776  30.195  1.00  0.00     0.001 A 
ATOM     45  C   UNL A   1      34.145  33.399  29.005  1.00  0.00     0.000 A 
ENDBRANCH  26  40
BRANCH  27  46
ATOM     46  C   UNL A   1      46.138  29.158  30.193  1.00  0.00    -0.014 A 
ATOM     47  C   UNL A   1      47.015  29.354  29.117  1.00  0.00     0.009 A 
ATOM     48  C   UNL A   1      46.614  28.536  31.359  1.00  0.00     0.009 A 
ATOM     49  C   UNL A   1      48.343  28.928  29.206  1.00  0.00     0.001 A 
ATOM     50  C   UNL A   1      47.947  28.135  31.453  1.00  0.00     0.001 A 
ATOM     51  C   UNL A   1      48.809  28.326  30.375  1.00  0.00     0.000 A 
ENDBRANCH  27  46
BRANCH  39  52
ATOM     52  C   UNL A   1      43.046  35.187  31.817  1.00  0.00    -0.014 A 
ATOM     53  C   UNL A   1      42.981  35.426  33.198  1.00  0.00     0.009 A 
ATOM     54  C   UNL A   1      43.645  36.145  30.985  1.00  0.00     0.009 A 
ATOM     55  C   UNL A   1      43.486  36.614  33.731  1.00  0.00     0.001 A 
ATOM     56  C   UNL A   1      44.168  37.320  31.523  1.00  0.00     0.001 A 
ATOM     57  C   UNL A   1      44.082  37.557  32.894  1.00  0.00     0.000 A 
ENDBRANCH  39  52
ENDBRANCH  13  14
ENDBRANCH   6   8
ENDBRANCH   3   4
ENDBRANCH   2   3
ENDBRANCH   1   2
BRANCH   1  58
ATOM     58  C   UNL A   1      34.400  26.062  25.756  1.00  0.00     0.002 C 
BRANCH  58  59
ATOM     59  C   UNL A   1      33.034  26.602  26.189  1.00  0.00     0.021 C 
BRANCH  59  60
ATOM     60  C   UNL A   1      32.083  25.573  26.794  1.00  0.00     0.116 C 
BRANCH  60  61
ATOM     61  N   UNL A   1      30.730  25.716  26.291  1.00  0.00    -0.352 N 
ATOM     62  C   UNL A   1      30.231  25.459  25.043  1.00  0.00     0.251 C 
ATOM     63  H   UNL A   1      30.072  26.045  26.945  1.00  0.00     0.163 HD
ATOM     64  O   UNL A   1      29.085  25.795  24.754  1.00  0.00    -0.269 OA
BRANCH  62  65
ATOM     65  C   UNL A   1      31.064  24.786  24.025  1.00  0.00     0.047 A 
ATOM     66  C   UNL A   1      31.299  23.413  24.164  1.00  0.00     0.023 A 
ATOM     67  C   UNL A   1      31.679  25.506  23.000  1.00  0.00     0.099 A 
ATOM     68  C   UNL A   1      32.128  22.726  23.261  1.00  0.00    -0.011 A 
ATOM     69  C   UNL A   1      32.472  24.823  22.073  1.00  0.00     0.270 A 
ATOM     70  C   UNL A   1      32.695  23.443  22.196  1.00  0.00     0.094 A 
BRANCH  68  71
ATOM     71  C   UNL A   1      32.449  21.309  23.483  1.00  0.00    -0.018 A 
ATOM     72  C   UNL A   1      33.189  20.887  24.598  1.00  0.00     0.009 A 
ATOM     73  C   UNL A   1      32.069  20.345  22.536  1.00  0.00     0.009 A 
ATOM     74  C   UNL A   1      33.557  19.545  24.748  1.00  0.00     0.014 A 
ATOM     75  C   UNL A   1      32.438  19.005  22.680  1.00  0.00     0.014 A 
ATOM     76  C   UNL A   1      33.197  18.593  23.783  1.00  0.00     0.056 A 
BRANCH  76  77
ATOM     77  C   UNL A   1      33.644  17.159  23.927  1.00  0.00     0.416 C 
ATOM     78  F   UNL A   1      33.982  16.599  22.733  1.00  0.00    -0.166 F 
ATOM     79  F   UNL A   1      34.740  17.031  24.723  1.00  0.00    -0.166 F 
ATOM     80  F   UNL A   1      32.694  16.343  24.464  1.00  0.00    -0.166 F 
ENDBRANCH  76  77
ENDBRANCH  68  71
BRANCH  69  81
ATOM     81  N   UNL A   1      33.086  25.565  20.966  1.00  0.00     0.062 N 
ATOM     82  O   UNL A   1      32.945  25.116  19.821  1.00  0.00    -0.258 OA
ATOM     83  O   UNL A   1      33.700  26.606  21.246  1.00  0.00    -0.258 OA
ENDBRANCH  69  81
ENDBRANCH  62  65
ENDBRANCH  60  61
ENDBRANCH  59  60
ENDBRANCH  58  59
ENDBRANCH   1  58
TORSDOF 16
ENDMDL
MODEL 3
REMARK VINA RESULT:     -11.1      3.484      4.719
REMARK SMILES O=C(NCCCCCCNC(=O)c1cc(-c2ccc(C(F)(F)F)cc2)cc([N+](=O)[O-])c1)c1ccc(-c2c3nc(c(-c4ccccc4)c4ccc([nH]4)c(-c4ccccc4)c4nc(c(-c5ccccc5)c5ccc2[nH]5)C=C4)C=C3)cc1
REMARK SMILES IDX 6 1 5 2 4 3 3 4 1 5 2 6 32 8 33 9 79 10 34 11 78 12 35 13
REMARK SMILES IDX 36 14 37 15 72 16 38 17 77 18 71 19 73 20 39 21 76 22 70 23
REMARK SMILES IDX 69 24 40 26 62 27 47 28 61 29 48 30 51 31 60 32 74 33 49 34
REMARK SMILES IDX 50 35 59 37 75 38 52 39 41 40 42 41 46 42 43 43 45 44 44 45
REMARK SMILES IDX 63 46 64 47 68 48 65 49 67 50 66 51 53 52 54 53 58 54 55 55
REMARK SMILES IDX 57 56 56 57 7 58 8 59 9 60 10 61 11 62 12 64 13 65 14 66
REMARK SMILES IDX 31 67 15 68 27 69 26 70 16 71 17 72 25 73 18 74 24 75 19 76
REMARK SMILES IDX 20 77 21 78 22 79 23 80 28 81 29 82 30 83
REMARK H PARENT 3 7 73 25 51 36 10 63
REMARK Flexibility Score: inf
ROOT
ATOM      1  C   UNL A   1      35.636  21.565  25.143  1.00  0.00     0.002 C 
ENDROOT
BRANCH   1   2
ATOM      2  C   UNL A   1      35.741  23.074  24.922  1.00  0.00     0.021 C 
BRANCH   2   3
ATOM      3  C   UNL A   1      37.016  23.721  25.449  1.00  0.00     0.116 C 
BRANCH   3   4
ATOM      4  N   UNL A   1      38.111  22.775  25.574  1.00  0.00    -0.352 N 
ATOM      5  O   UNL A   1      40.215  22.089  26.015  1.00  0.00    -0.269 OA
ATOM      6  C   UNL A   1      39.352  22.957  26.128  1.00  0.00     0.251 C 
ATOM      7  H   UNL A   1      37.939  21.877  25.208  1.00  0.00     0.163 HD
BRANCH   6   8
ATOM      8  C   UNL A   1      39.663  24.210  26.849  1.00  0.00     0.039 A 
ATOM      9  C   UNL A   1      39.254  24.399  28.173  1.00  0.00     0.014 A 
ATOM     10  C   UNL A   1      40.400  25.199  26.193  1.00  0.00     0.014 A 
ATOM     11  C   UNL A   1      39.490  25.617  28.804  1.00  0.00     0.010 A 
ATOM     12  C   UNL A   1      40.693  26.396  26.850  1.00  0.00     0.010 A 
ATOM     13  C   UNL A   1      40.223  26.620  28.153  1.00  0.00    -0.014 A 
BRANCH  13  14
ATOM     14  C   UNL A   1      40.563  27.872  28.872  1.00  0.00     0.031 A 
ATOM     15  C   UNL A   1      41.883  28.037  29.563  1.00  0.00     0.074 A 
ATOM     16  C   UNL A   1      39.649  28.860  28.914  1.00  0.00     0.049 A 
ATOM     17  N   UNL A   1      42.325  29.054  30.260  1.00  0.00    -0.248 NA
ATOM     18  C   UNL A   1      42.830  26.915  29.470  1.00  0.00     0.031 C 
ATOM     19  C   UNL A   1      38.322  28.809  28.294  1.00  0.00     0.029 A 
ATOM     20  N   UNL A   1      39.693  30.096  29.505  1.00  0.00    -0.354 N 
ATOM     21  C   UNL A   1      43.587  28.688  30.708  1.00  0.00     0.074 A 
ATOM     22  C   UNL A   1      43.835  27.348  30.218  1.00  0.00     0.031 C 
ATOM     23  C   UNL A   1      37.686  29.966  28.524  1.00  0.00     0.029 A 
ATOM     24  C   UNL A   1      38.537  30.818  29.347  1.00  0.00     0.049 A 
ATOM     25  H   UNL A   1      40.478  30.433  29.994  1.00  0.00     0.167 HD
ATOM     26  C   UNL A   1      44.459  29.404  31.458  1.00  0.00     0.031 A 
ATOM     27  C   UNL A   1      38.184  32.022  29.831  1.00  0.00     0.031 A 
ATOM     28  C   UNL A   1      44.208  30.736  31.945  1.00  0.00     0.049 A 
ATOM     29  C   UNL A   1      39.156  32.786  30.677  1.00  0.00     0.074 A 
ATOM     30  C   UNL A   1      45.052  31.563  32.666  1.00  0.00     0.029 A 
ATOM     31  N   UNL A   1      43.020  31.429  31.770  1.00  0.00    -0.354 N 
ATOM     32  N   UNL A   1      40.369  32.448  31.044  1.00  0.00    -0.248 NA
ATOM     33  C   UNL A   1      38.715  34.096  31.174  1.00  0.00     0.031 C 
ATOM     34  C   UNL A   1      44.355  32.739  32.972  1.00  0.00     0.029 A 
ATOM     35  C   UNL A   1      43.096  32.662  32.399  1.00  0.00     0.049 A 
ATOM     36  H   UNL A   1      42.238  31.094  31.275  1.00  0.00     0.167 HD
ATOM     37  C   UNL A   1      40.840  33.507  31.807  1.00  0.00     0.074 A 
ATOM     38  C   UNL A   1      39.790  34.505  31.834  1.00  0.00     0.031 C 
ATOM     39  C   UNL A   1      42.038  33.639  32.428  1.00  0.00     0.031 A 
BRANCH  26  40
ATOM     40  C   UNL A   1      45.758  28.744  31.826  1.00  0.00    -0.014 A 
ATOM     41  C   UNL A   1      45.885  27.979  32.995  1.00  0.00     0.009 A 
ATOM     42  C   UNL A   1      46.865  28.867  30.970  1.00  0.00     0.009 A 
ATOM     43  C   UNL A   1      47.105  27.380  33.319  1.00  0.00     0.001 A 
ATOM     44  C   UNL A   1      48.076  28.248  31.285  1.00  0.00     0.001 A 
ATOM     45  C   UNL A   1      48.198  27.512  32.462  1.00  0.00     0.000 A 
ENDBRANCH  26  40
BRANCH  27  46
ATOM     46  C   UNL A   1      36.832  32.554  29.533  1.00  0.00    -0.014 A 
ATOM     47  C   UNL A   1      36.580  33.239  28.336  1.00  0.00     0.009 A 
ATOM     48  C   UNL A   1      35.771  32.329  30.426  1.00  0.00     0.009 A 
ATOM     49  C   UNL A   1      35.292  33.694  28.043  1.00  0.00     0.001 A 
ATOM     50  C   UNL A   1      34.482  32.762  30.119  1.00  0.00     0.001 A 
ATOM     51  C   UNL A   1      34.244  33.449  28.930  1.00  0.00     0.000 A 
ENDBRANCH  27  46
BRANCH  39  52
ATOM     52  C   UNL A   1      42.279  34.916  33.178  1.00  0.00    -0.014 A 
ATOM     53  C   UNL A   1      43.028  35.957  32.610  1.00  0.00     0.009 A 
ATOM     54  C   UNL A   1      41.714  35.094  34.450  1.00  0.00     0.009 A 
ATOM     55  C   UNL A   1      43.227  37.146  33.315  1.00  0.00     0.001 A 
ATOM     56  C   UNL A   1      41.897  36.291  35.142  1.00  0.00     0.001 A 
ATOM     57  C   UNL A   1      42.658  37.313  34.577  1.00  0.00     0.000 A 
ENDBRANCH  39  52
ENDBRANCH  13  14
ENDBRANCH   6   8
ENDBRANCH   3   4
ENDBRANCH   2   3
ENDBRANCH   1   2
BRANCH   1  58
ATOM     58  C   UNL A   1      34.312  21.071  25.733  1.00  0.00     0.002 C 
BRANCH  58  59
ATOM     59  C   UNL A   1      34.014  21.515  27.167  1.00  0.00     0.021 C 
BRANCH  59  60
ATOM     60  C   UNL A   1      33.377  22.895  27.308  1.00  0.00     0.116 C 
BRANCH  60  61
ATOM     61  N   UNL A   1      31.945  22.817  27.529  1.00  0.00    -0.352 N 
ATOM     62  C   UNL A   1      30.921  23.378  26.816  1.00  0.00     0.251 C 
ATOM     63  H   UNL A   1      31.669  22.280  28.306  1.00  0.00     0.163 HD
ATOM     64  O   UNL A   1      29.772  23.336  27.249  1.00  0.00    -0.269 OA
BRANCH  62  65
ATOM     65  C   UNL A   1      31.182  24.048  25.527  1.00  0.00     0.047 A 
ATOM     66  C   UNL A   1      30.630  25.318  25.316  1.00  0.00     0.023 A 
ATOM     67  C   UNL A   1      31.882  23.406  24.503  1.00  0.00     0.099 A 
ATOM     68  C   UNL A   1      30.795  25.985  24.090  1.00  0.00    -0.011 A 
ATOM     69  C   UNL A   1      32.084  24.079  23.295  1.00  0.00     0.270 A 
ATOM     70  C   UNL A   1      31.551  25.360  23.086  1.00  0.00     0.094 A 
BRANCH  68  71
ATOM     71  C   UNL A   1      30.120  27.268  23.850  1.00  0.00    -0.018 A 
ATOM     72  C   UNL A   1      28.763  27.333  23.497  1.00  0.00     0.009 A 
ATOM     73  C   UNL A   1      30.847  28.467  23.909  1.00  0.00     0.009 A 
ATOM     74  C   UNL A   1      28.160  28.557  23.190  1.00  0.00     0.014 A 
ATOM     75  C   UNL A   1      30.250  29.691  23.599  1.00  0.00     0.014 A 
ATOM     76  C   UNL A   1      28.901  29.747  23.224  1.00  0.00     0.056 A 
BRANCH  76  77
ATOM     77  C   UNL A   1      28.256  31.056  22.840  1.00  0.00     0.416 C 
ATOM     78  F   UNL A   1      27.299  31.443  23.729  1.00  0.00    -0.166 F 
ATOM     79  F   UNL A   1      29.150  32.082  22.784  1.00  0.00    -0.166 F 
ATOM     80  F   UNL A   1      27.643  31.027  21.624  1.00  0.00    -0.166 F 
ENDBRANCH  76  77
ENDBRANCH  68  71
BRANCH  69  81
ATOM     81  N   UNL A   1      32.857  23.429  22.231  1.00  0.00     0.062 N 
ATOM     82  O   UNL A   1      33.033  22.205  22.309  1.00  0.00    -0.258 OA
ATOM     83  O   UNL A   1      33.278  24.144  21.310  1.00  0.00    -0.258 OA
ENDBRANCH  69  81
ENDBRANCH  62  65
ENDBRANCH  60  61
ENDBRANCH  59  60
ENDBRANCH  58  59
ENDBRANCH   1  58
TORSDOF 16
ENDMDL
