MODEL 1
REMARK VINA RESULT:     -12.2      0.000      0.000
REMARK SMILES COC(=O)c1ccc(NC(=O)[C@@H]2CC=CC[C@@H]2C(=O)NCCCCCCNC(=O)c2ccc(-c3c4nc(c(-c5ccccc5)c5ccc([nH]5)c(-c5ccccc5)c5nc(c(-c6ccccc6)c6ccc3[nH]6)C=C5)C=C4)cc2)c(C)c1
REMARK SMILES IDX 22 1 21 2 20 3 18 4 19 5 17 7 12 8 13 9 14 10 16 11 15 12
REMARK SMILES IDX 10 13 9 14 11 16 8 17 5 18 6 19 80 20 7 21 78 22 79 23 3 24
REMARK SMILES IDX 4 25 2 26 1 27 23 28 24 29 25 30 26 31 27 32 28 33 29 35
REMARK SMILES IDX 30 36 31 37 77 38 32 39 76 40 33 41 34 42 35 43 70 44 36 45
REMARK SMILES IDX 75 46 69 47 71 48 37 49 74 50 68 51 67 52 38 54 60 55 45 56
REMARK SMILES IDX 59 57 46 58 49 59 58 60 72 61 47 62 48 63 57 65 73 66 50 67
REMARK SMILES IDX 39 68 40 69 44 70 41 71 43 72 42 73 61 74 62 75 66 76 63 77
REMARK SMILES IDX 65 78 64 79 51 80 52 81 56 82 53 83 55 84 54 85
REMARK H PARENT 20 6 9 15 27 34 71 53 49 64
REMARK Flexibility Score: inf
ROOT
ATOM      1  C   UNL A   1      36.116  21.535  25.757  1.00  0.00     0.021 C 
ENDROOT
BRANCH   1   2
ATOM      2  C   UNL A   1      35.089  22.497  26.338  1.00  0.00     0.116 C 
BRANCH   2   3
ATOM      3  N   UNL A   1      35.178  23.839  25.844  1.00  0.00    -0.356 N 
ATOM      4  C   UNL A   1      34.212  24.598  25.278  1.00  0.00     0.224 C 
ATOM      5  O   UNL A   1      34.414  25.820  25.273  1.00  0.00    -0.275 OA
ATOM      6  H   UNL A   1      36.062  24.265  25.925  1.00  0.00     0.163 HD
BRANCH   4   7
ATOM      7  C   UNL A   1      32.987  24.044  24.532  1.00  0.00     0.095 C 
ATOM      8  C   UNL A   1      31.758  23.423  25.234  1.00  0.00     0.095 C 
ATOM      9  C   UNL A   1      31.752  21.894  25.413  1.00  0.00     0.041 C 
ATOM     10  C   UNL A   1      32.474  21.173  24.312  1.00  0.00    -0.030 C 
ATOM     11  C   UNL A   1      33.393  23.267  23.276  1.00  0.00     0.041 C 
ATOM     12  C   UNL A   1      33.186  21.787  23.356  1.00  0.00    -0.030 C 
BRANCH   8  13
ATOM     13  C   UNL A   1      31.408  24.171  26.501  1.00  0.00     0.228 C 
ATOM     14  N   UNL A   1      30.849  25.420  26.474  1.00  0.00    -0.326 N 
ATOM     15  H   UNL A   1      30.660  25.767  27.376  1.00  0.00     0.169 HD
ATOM     16  O   UNL A   1      31.594  23.649  27.606  1.00  0.00    -0.274 OA
BRANCH  14  17
ATOM     17  C   UNL A   1      30.478  26.331  25.454  1.00  0.00     0.044 A 
ATOM     18  C   UNL A   1      29.732  28.261  23.507  1.00  0.00     0.060 A 
ATOM     19  C   UNL A   1      29.151  27.004  23.506  1.00  0.00     0.018 A 
ATOM     20  C   UNL A   1      30.710  28.553  24.464  1.00  0.00     0.021 A 
ATOM     21  C   UNL A   1      29.532  26.060  24.460  1.00  0.00     0.027 A 
ATOM     22  C   UNL A   1      31.105  27.597  25.425  1.00  0.00    -0.027 A 
ATOM     23  C   UNL A   1      32.181  27.995  26.403  1.00  0.00     0.046 C 
BRANCH  18  24
ATOM     24  C   UNL A   1      29.323  29.210  22.446  1.00  0.00     0.337 C 
ATOM     25  O   UNL A   1      30.096  29.698  21.622  1.00  0.00    -0.246 OA
BRANCH  24  26
ATOM     26  O   UNL A   1      28.011  29.504  22.528  1.00  0.00    -0.465 OA
ATOM     27  C   UNL A   1      27.776  30.735  23.214  1.00  0.00     0.282 C 
ENDBRANCH  24  26
ENDBRANCH  18  24
ENDBRANCH  14  17
ENDBRANCH   8  13
ENDBRANCH   4   7
ENDBRANCH   2   3
ENDBRANCH   1   2
BRANCH   1  28
ATOM     28  C   UNL A   1      37.356  22.204  25.155  1.00  0.00     0.002 C 
BRANCH  28  29
ATOM     29  C   UNL A   1      38.491  22.561  26.132  1.00  0.00     0.002 C 
BRANCH  29  30
ATOM     30  C   UNL A   1      39.873  21.981  25.814  1.00  0.00     0.021 C 
BRANCH  30  31
ATOM     31  C   UNL A   1      40.097  20.597  26.391  1.00  0.00     0.116 C 
BRANCH  31  32
ATOM     32  N   UNL A   1      41.241  19.899  25.822  1.00  0.00    -0.352 N 
ATOM     33  C   UNL A   1      42.569  20.271  25.746  1.00  0.00     0.251 C 
ATOM     34  H   UNL A   1      41.035  19.021  25.428  1.00  0.00     0.163 HD
ATOM     35  O   UNL A   1      43.362  19.555  25.143  1.00  0.00    -0.269 OA
BRANCH  33  36
ATOM     36  C   UNL A   1      43.069  21.451  26.495  1.00  0.00     0.039 A 
ATOM     37  C   UNL A   1      42.719  21.579  27.850  1.00  0.00     0.014 A 
ATOM     38  C   UNL A   1      43.716  22.498  25.852  1.00  0.00     0.014 A 
ATOM     39  C   UNL A   1      42.808  22.821  28.477  1.00  0.00     0.010 A 
ATOM     40  C   UNL A   1      43.683  23.748  26.418  1.00  0.00     0.010 A 
ATOM     41  C   UNL A   1      43.195  23.919  27.719  1.00  0.00    -0.014 A 
BRANCH  41  42
ATOM     42  C   UNL A   1      43.130  25.308  28.139  1.00  0.00     0.031 A 
ATOM     43  C   UNL A   1      41.915  26.096  27.853  1.00  0.00     0.074 A 
ATOM     44  C   UNL A   1      44.037  25.755  29.033  1.00  0.00     0.049 A 
ATOM     45  N   UNL A   1      41.806  27.358  28.084  1.00  0.00    -0.248 NA
ATOM     46  C   UNL A   1      40.724  25.523  27.233  1.00  0.00     0.031 C 
ATOM     47  C   UNL A   1      43.884  26.848  29.988  1.00  0.00     0.029 A 
ATOM     48  N   UNL A   1      45.385  25.413  29.114  1.00  0.00    -0.354 N 
ATOM     49  C   UNL A   1      40.479  27.688  27.954  1.00  0.00     0.074 A 
ATOM     50  C   UNL A   1      39.866  26.544  27.324  1.00  0.00     0.031 C 
ATOM     51  C   UNL A   1      45.098  27.245  30.396  1.00  0.00     0.029 A 
ATOM     52  C   UNL A   1      46.071  26.562  29.562  1.00  0.00     0.049 A 
ATOM     53  H   UNL A   1      45.783  24.538  28.902  1.00  0.00     0.167 HD
ATOM     54  C   UNL A   1      40.035  28.845  28.517  1.00  0.00     0.031 A 
ATOM     55  C   UNL A   1      46.966  27.199  28.744  1.00  0.00     0.031 A 
ATOM     56  C   UNL A   1      41.134  29.632  29.078  1.00  0.00     0.049 A 
ATOM     57  C   UNL A   1      46.608  28.634  28.394  1.00  0.00     0.074 A 
ATOM     58  C   UNL A   1      41.583  29.906  30.358  1.00  0.00     0.029 A 
ATOM     59  N   UNL A   1      42.132  30.062  28.222  1.00  0.00    -0.354 N 
ATOM     60  N   UNL A   1      45.479  29.209  28.703  1.00  0.00    -0.248 NA
ATOM     61  C   UNL A   1      47.458  29.499  27.573  1.00  0.00     0.031 C 
ATOM     62  C   UNL A   1      42.858  30.537  30.252  1.00  0.00     0.029 A 
ATOM     63  C   UNL A   1      43.165  30.657  28.911  1.00  0.00     0.049 A 
ATOM     64  H   UNL A   1      42.106  29.956  27.243  1.00  0.00     0.167 HD
ATOM     65  C   UNL A   1      45.403  30.433  28.094  1.00  0.00     0.074 A 
ATOM     66  C   UNL A   1      46.672  30.579  27.406  1.00  0.00     0.031 C 
ATOM     67  C   UNL A   1      44.277  31.200  28.150  1.00  0.00     0.031 A 
BRANCH  54  68
ATOM     68  C   UNL A   1      38.586  29.207  28.737  1.00  0.00    -0.014 A 
ATOM     69  C   UNL A   1      37.834  29.702  27.654  1.00  0.00     0.009 A 
ATOM     70  C   UNL A   1      37.909  29.129  29.965  1.00  0.00     0.009 A 
ATOM     71  C   UNL A   1      36.517  30.155  27.805  1.00  0.00     0.001 A 
ATOM     72  C   UNL A   1      36.598  29.595  30.129  1.00  0.00     0.001 A 
ATOM     73  C   UNL A   1      35.904  30.118  29.049  1.00  0.00     0.000 A 
ENDBRANCH  54  68
BRANCH  55  74
ATOM     74  C   UNL A   1      47.653  26.260  27.811  1.00  0.00    -0.014 A 
ATOM     75  C   UNL A   1      47.182  26.169  26.486  1.00  0.00     0.009 A 
ATOM     76  C   UNL A   1      48.953  25.817  28.097  1.00  0.00     0.009 A 
ATOM     77  C   UNL A   1      48.038  25.771  25.454  1.00  0.00     0.001 A 
ATOM     78  C   UNL A   1      49.800  25.407  27.062  1.00  0.00     0.001 A 
ATOM     79  C   UNL A   1      49.355  25.421  25.740  1.00  0.00     0.000 A 
ENDBRANCH  55  74
BRANCH  67  80
ATOM     80  C   UNL A   1      44.088  32.515  27.442  1.00  0.00    -0.014 A 
ATOM     81  C   UNL A   1      43.701  33.688  28.097  1.00  0.00     0.009 A 
ATOM     82  C   UNL A   1      44.182  32.570  26.033  1.00  0.00     0.009 A 
ATOM     83  C   UNL A   1      43.470  34.872  27.378  1.00  0.00     0.001 A 
ATOM     84  C   UNL A   1      43.932  33.739  25.313  1.00  0.00     0.001 A 
ATOM     85  C   UNL A   1      43.585  34.896  25.990  1.00  0.00     0.000 A 
ENDBRANCH  67  80
ENDBRANCH  41  42
ENDBRANCH  33  36
ENDBRANCH  31  32
ENDBRANCH  30  31
ENDBRANCH  29  30
ENDBRANCH  28  29
ENDBRANCH   1  28
TORSDOF 17
ENDMDL
MODEL 2
REMARK VINA RESULT:     -11.8      3.255      8.892
REMARK SMILES COC(=O)c1ccc(NC(=O)[C@@H]2CC=CC[C@@H]2C(=O)NCCCCCCNC(=O)c2ccc(-c3c4nc(c(-c5ccccc5)c5ccc([nH]5)c(-c5ccccc5)c5nc(c(-c6ccccc6)c6ccc3[nH]6)C=C5)C=C4)cc2)c(C)c1
REMARK SMILES IDX 22 1 21 2 20 3 18 4 19 5 17 7 12 8 13 9 14 10 16 11 15 12
REMARK SMILES IDX 10 13 9 14 11 16 8 17 5 18 6 19 80 20 7 21 78 22 79 23 3 24
REMARK SMILES IDX 4 25 2 26 1 27 23 28 24 29 25 30 26 31 27 32 28 33 29 35
REMARK SMILES IDX 30 36 31 37 77 38 32 39 76 40 33 41 34 42 35 43 70 44 36 45
REMARK SMILES IDX 75 46 69 47 71 48 37 49 74 50 68 51 67 52 38 54 60 55 45 56
REMARK SMILES IDX 59 57 46 58 49 59 58 60 72 61 47 62 48 63 57 65 73 66 50 67
REMARK SMILES IDX 39 68 40 69 44 70 41 71 43 72 42 73 61 74 62 75 66 76 63 77
REMARK SMILES IDX 65 78 64 79 51 80 52 81 56 82 53 83 55 84 54 85
REMARK H PARENT 20 6 9 15 27 34 71 53 49 64
REMARK Flexibility Score: inf
ROOT
ATOM      1  C   UNL A   1      31.030  27.494  26.207  1.00  0.00     0.021 C 
ENDROOT
BRANCH   1   2
ATOM      2  C   UNL A   1      31.929  26.273  26.347  1.00  0.00     0.116 C 
BRANCH   2   3
ATOM      3  N   UNL A   1      31.268  25.096  26.827  1.00  0.00    -0.356 N 
ATOM      4  C   UNL A   1      31.456  23.808  26.455  1.00  0.00     0.224 C 
ATOM      5  O   UNL A   1      31.054  22.949  27.250  1.00  0.00    -0.275 OA
ATOM      6  H   UNL A   1      30.585  25.243  27.521  1.00  0.00     0.163 HD
BRANCH   4   7
ATOM      7  C   UNL A   1      31.985  23.363  25.081  1.00  0.00     0.095 C 
ATOM      8  C   UNL A   1      33.451  23.541  24.624  1.00  0.00     0.095 C 
ATOM      9  C   UNL A   1      33.783  24.809  23.814  1.00  0.00     0.041 C 
ATOM     10  C   UNL A   1      32.634  25.283  22.972  1.00  0.00    -0.030 C 
ATOM     11  C   UNL A   1      30.986  23.668  23.962  1.00  0.00     0.041 C 
ATOM     12  C   UNL A   1      31.400  24.762  23.028  1.00  0.00    -0.030 C 
BRANCH   8  13
ATOM     13  C   UNL A   1      34.420  23.290  25.757  1.00  0.00     0.228 C 
ATOM     14  N   UNL A   1      34.871  22.033  26.059  1.00  0.00    -0.326 N 
ATOM     15  H   UNL A   1      35.510  22.033  26.808  1.00  0.00     0.169 HD
ATOM     16  O   UNL A   1      34.856  24.232  26.426  1.00  0.00    -0.274 OA
BRANCH  14  17
ATOM     17  C   UNL A   1      34.633  20.732  25.549  1.00  0.00     0.044 A 
ATOM     18  C   UNL A   1      34.236  18.158  24.412  1.00  0.00     0.060 A 
ATOM     19  C   UNL A   1      33.183  18.832  25.008  1.00  0.00     0.018 A 
ATOM     20  C   UNL A   1      35.502  18.755  24.405  1.00  0.00     0.021 A 
ATOM     21  C   UNL A   1      33.390  20.090  25.572  1.00  0.00     0.027 A 
ATOM     22  C   UNL A   1      35.718  20.025  24.984  1.00  0.00    -0.027 A 
ATOM     23  C   UNL A   1      37.120  20.579  24.948  1.00  0.00     0.046 C 
BRANCH  18  24
ATOM     24  C   UNL A   1      33.970  16.808  23.867  1.00  0.00     0.337 C 
ATOM     25  O   UNL A   1      33.590  16.591  22.717  1.00  0.00    -0.246 OA
BRANCH  24  26
ATOM     26  O   UNL A   1      34.151  15.855  24.802  1.00  0.00    -0.465 OA
ATOM     27  C   UNL A   1      32.914  15.324  25.279  1.00  0.00     0.282 C 
ENDBRANCH  24  26
ENDBRANCH  18  24
ENDBRANCH  14  17
ENDBRANCH   8  13
ENDBRANCH   4   7
ENDBRANCH   2   3
ENDBRANCH   1   2
BRANCH   1  28
ATOM     28  C   UNL A   1      31.619  28.634  25.369  1.00  0.00     0.002 C 
BRANCH  28  29
ATOM     29  C   UNL A   1      33.098  28.499  24.962  1.00  0.00     0.002 C 
BRANCH  29  30
ATOM     30  C   UNL A   1      34.121  29.189  25.870  1.00  0.00     0.021 C 
BRANCH  30  31
ATOM     31  C   UNL A   1      33.494  29.937  27.030  1.00  0.00     0.116 C 
BRANCH  31  32
ATOM     32  N   UNL A   1      34.162  31.189  27.356  1.00  0.00    -0.352 N 
ATOM     33  C   UNL A   1      35.382  31.421  27.961  1.00  0.00     0.251 C 
ATOM     34  H   UNL A   1      33.665  32.000  27.106  1.00  0.00     0.163 HD
ATOM     35  O   UNL A   1      35.719  32.573  28.216  1.00  0.00    -0.269 OA
BRANCH  33  36
ATOM     36  C   UNL A   1      36.341  30.309  28.183  1.00  0.00     0.039 A 
ATOM     37  C   UNL A   1      36.402  29.726  29.459  1.00  0.00     0.014 A 
ATOM     38  C   UNL A   1      37.282  29.961  27.223  1.00  0.00     0.014 A 
ATOM     39  C   UNL A   1      37.524  28.986  29.832  1.00  0.00     0.010 A 
ATOM     40  C   UNL A   1      38.445  29.349  27.623  1.00  0.00     0.010 A 
ATOM     41  C   UNL A   1      38.583  28.892  28.938  1.00  0.00    -0.014 A 
BRANCH  41  42
ATOM     42  C   UNL A   1      39.902  28.361  29.235  1.00  0.00     0.031 A 
ATOM     43  C   UNL A   1      40.253  27.000  28.787  1.00  0.00     0.074 A 
ATOM     44  C   UNL A   1      40.866  29.217  29.637  1.00  0.00     0.049 A 
ATOM     45  N   UNL A   1      41.351  26.402  29.096  1.00  0.00    -0.248 NA
ATOM     46  C   UNL A   1      39.361  26.174  27.978  1.00  0.00     0.031 C 
ATOM     47  C   UNL A   1      42.309  29.075  29.469  1.00  0.00     0.029 A 
ATOM     48  N   UNL A   1      40.723  30.322  30.472  1.00  0.00    -0.354 N 
ATOM     49  C   UNL A   1      41.455  25.290  28.296  1.00  0.00     0.074 A 
ATOM     50  C   UNL A   1      40.151  25.133  27.697  1.00  0.00     0.031 C 
ATOM     51  C   UNL A   1      42.931  29.890  30.335  1.00  0.00     0.029 A 
ATOM     52  C   UNL A   1      41.913  30.422  31.223  1.00  0.00     0.049 A 
ATOM     53  H   UNL A   1      39.942  30.919  30.527  1.00  0.00     0.167 HD
ATOM     54  C   UNL A   1      42.676  24.710  28.139  1.00  0.00     0.031 A 
ATOM     55  C   UNL A   1      41.898  30.231  32.578  1.00  0.00     0.031 A 
ATOM     56  C   UNL A   1      43.686  25.331  28.996  1.00  0.00     0.049 A 
ATOM     57  C   UNL A   1      42.733  29.061  33.071  1.00  0.00     0.074 A 
ATOM     58  C   UNL A   1      44.753  26.188  28.783  1.00  0.00     0.029 A 
ATOM     59  N   UNL A   1      43.495  25.292  30.365  1.00  0.00    -0.354 N 
ATOM     60  N   UNL A   1      43.319  28.194  32.293  1.00  0.00    -0.248 NA
ATOM     61  C   UNL A   1      42.886  28.719  34.487  1.00  0.00     0.031 C 
ATOM     62  C   UNL A   1      45.216  26.639  30.053  1.00  0.00     0.029 A 
ATOM     63  C   UNL A   1      44.441  26.041  31.028  1.00  0.00     0.049 A 
ATOM     64  H   UNL A   1      42.772  24.793  30.810  1.00  0.00     0.167 HD
ATOM     65  C   UNL A   1      43.838  27.175  33.047  1.00  0.00     0.074 A 
ATOM     66  C   UNL A   1      43.554  27.554  34.419  1.00  0.00     0.031 C 
ATOM     67  C   UNL A   1      44.402  26.070  32.480  1.00  0.00     0.031 A 
BRANCH  54  68
ATOM     68  C   UNL A   1      43.027  23.693  27.080  1.00  0.00    -0.014 A 
ATOM     69  C   UNL A   1      42.353  22.457  27.070  1.00  0.00     0.009 A 
ATOM     70  C   UNL A   1      44.018  23.855  26.099  1.00  0.00     0.009 A 
ATOM     71  C   UNL A   1      42.696  21.427  26.185  1.00  0.00     0.001 A 
ATOM     72  C   UNL A   1      44.380  22.824  25.220  1.00  0.00     0.001 A 
ATOM     73  C   UNL A   1      43.723  21.604  25.270  1.00  0.00     0.000 A 
ENDBRANCH  54  68
BRANCH  55  74
ATOM     74  C   UNL A   1      40.609  30.654  33.199  1.00  0.00    -0.014 A 
ATOM     75  C   UNL A   1      40.310  32.030  33.248  1.00  0.00     0.009 A 
ATOM     76  C   UNL A   1      39.561  29.730  33.331  1.00  0.00     0.009 A 
ATOM     77  C   UNL A   1      38.982  32.467  33.295  1.00  0.00     0.001 A 
ATOM     78  C   UNL A   1      38.235  30.174  33.391  1.00  0.00     0.001 A 
ATOM     79  C   UNL A   1      37.946  31.537  33.334  1.00  0.00     0.000 A 
ENDBRANCH  55  74
BRANCH  67  80
ATOM     80  C   UNL A   1      44.920  24.877  33.237  1.00  0.00    -0.014 A 
ATOM     81  C   UNL A   1      46.211  24.810  33.770  1.00  0.00     0.009 A 
ATOM     82  C   UNL A   1      44.131  23.708  33.324  1.00  0.00     0.009 A 
ATOM     83  C   UNL A   1      46.669  23.645  34.407  1.00  0.00     0.001 A 
ATOM     84  C   UNL A   1      44.590  22.541  33.936  1.00  0.00     0.001 A 
ATOM     85  C   UNL A   1      45.860  22.514  34.488  1.00  0.00     0.000 A 
ENDBRANCH  67  80
ENDBRANCH  41  42
ENDBRANCH  33  36
ENDBRANCH  31  32
ENDBRANCH  30  31
ENDBRANCH  29  30
ENDBRANCH  28  29
ENDBRANCH   1  28
TORSDOF 17
ENDMDL
MODEL 3
REMARK VINA RESULT:     -11.8      3.996      9.628
REMARK SMILES COC(=O)c1ccc(NC(=O)[C@@H]2CC=CC[C@@H]2C(=O)NCCCCCCNC(=O)c2ccc(-c3c4nc(c(-c5ccccc5)c5ccc([nH]5)c(-c5ccccc5)c5nc(c(-c6ccccc6)c6ccc3[nH]6)C=C5)C=C4)cc2)c(C)c1
REMARK SMILES IDX 22 1 21 2 20 3 18 4 19 5 17 7 12 8 13 9 14 10 16 11 15 12
REMARK SMILES IDX 10 13 9 14 11 16 8 17 5 18 6 19 80 20 7 21 78 22 79 23 3 24
REMARK SMILES IDX 4 25 2 26 1 27 23 28 24 29 25 30 26 31 27 32 28 33 29 35
REMARK SMILES IDX 30 36 31 37 77 38 32 39 76 40 33 41 34 42 35 43 70 44 36 45
REMARK SMILES IDX 75 46 69 47 71 48 37 49 74 50 68 51 67 52 38 54 60 55 45 56
REMARK SMILES IDX 59 57 46 58 49 59 58 60 72 61 47 62 48 63 57 65 73 66 50 67
REMARK SMILES IDX 39 68 40 69 44 70 41 71 43 72 42 73 61 74 62 75 66 76 63 77
REMARK SMILES IDX 65 78 64 79 51 80 52 81 56 82 53 83 55 84 54 85
REMARK H PARENT 20 6 9 15 27 34 71 53 49 64
REMARK Flexibility Score: inf
ROOT
ATOM      1  C   UNL A   1      33.435  29.149  25.209  1.00  0.00     0.021 C 
ENDROOT
BRANCH   1   2
ATOM      2  C   UNL A   1      33.322  27.735  24.655  1.00  0.00     0.116 C 
BRANCH   2   3
ATOM      3  N   UNL A   1      33.509  26.696  25.624  1.00  0.00    -0.356 N 
ATOM      4  C   UNL A   1      33.139  25.397  25.552  1.00  0.00     0.224 C 
ATOM      5  O   UNL A   1      33.722  24.623  26.324  1.00  0.00    -0.275 OA
ATOM      6  H   UNL A   1      33.966  26.964  26.453  1.00  0.00     0.163 HD
BRANCH   4   7
ATOM      7  C   UNL A   1      31.971  24.864  24.706  1.00  0.00     0.095 C 
ATOM      8  C   UNL A   1      31.918  24.945  23.163  1.00  0.00     0.095 C 
ATOM      9  C   UNL A   1      31.192  26.156  22.549  1.00  0.00     0.041 C 
ATOM     10  C   UNL A   1      30.059  26.652  23.401  1.00  0.00    -0.030 C 
ATOM     11  C   UNL A   1      30.617  25.171  25.351  1.00  0.00     0.041 C 
ATOM     12  C   UNL A   1      29.798  26.200  24.636  1.00  0.00    -0.030 C 
BRANCH   8  13
ATOM     13  C   UNL A   1      33.277  24.692  22.548  1.00  0.00     0.228 C 
ATOM     14  N   UNL A   1      33.875  23.462  22.591  1.00  0.00    -0.326 N 
ATOM     15  H   UNL A   1      34.745  23.450  22.131  1.00  0.00     0.169 HD
ATOM     16  O   UNL A   1      33.873  25.600  21.958  1.00  0.00    -0.274 OA
BRANCH  14  17
ATOM     17  C   UNL A   1      33.535  22.200  23.141  1.00  0.00     0.044 A 
ATOM     18  C   UNL A   1      32.993  19.637  24.240  1.00  0.00     0.060 A 
ATOM     19  C   UNL A   1      32.170  20.168  23.260  1.00  0.00     0.018 A 
ATOM     20  C   UNL A   1      34.076  20.395  24.697  1.00  0.00     0.021 A 
ATOM     21  C   UNL A   1      32.439  21.431  22.735  1.00  0.00     0.027 A 
ATOM     22  C   UNL A   1      34.346  21.679  24.174  1.00  0.00    -0.027 A 
ATOM     23  C   UNL A   1      35.523  22.430  24.742  1.00  0.00     0.046 C 
BRANCH  18  24
ATOM     24  C   UNL A   1      32.637  18.310  24.793  1.00  0.00     0.337 C 
ATOM     25  O   UNL A   1      32.369  18.107  25.977  1.00  0.00    -0.246 OA
BRANCH  24  26
ATOM     26  O   UNL A   1      32.690  17.352  23.849  1.00  0.00    -0.465 OA
ATOM     27  C   UNL A   1      33.999  16.797  23.715  1.00  0.00     0.282 C 
ENDBRANCH  24  26
ENDBRANCH  18  24
ENDBRANCH  14  17
ENDBRANCH   8  13
ENDBRANCH   4   7
ENDBRANCH   2   3
ENDBRANCH   1   2
BRANCH   1  28
ATOM     28  C   UNL A   1      32.096  29.855  25.448  1.00  0.00     0.002 C 
BRANCH  28  29
ATOM     29  C   UNL A   1      31.969  30.675  26.744  1.00  0.00     0.002 C 
BRANCH  29  30
ATOM     30  C   UNL A   1      33.216  30.749  27.630  1.00  0.00     0.021 C 
BRANCH  30  31
ATOM     31  C   UNL A   1      34.009  32.030  27.454  1.00  0.00     0.116 C 
BRANCH  31  32
ATOM     32  N   UNL A   1      33.422  33.184  28.121  1.00  0.00    -0.352 N 
ATOM     33  C   UNL A   1      33.829  33.867  29.250  1.00  0.00     0.251 C 
ATOM     34  H   UNL A   1      32.603  33.532  27.701  1.00  0.00     0.163 HD
ATOM     35  O   UNL A   1      33.130  34.775  29.691  1.00  0.00    -0.269 OA
BRANCH  33  36
ATOM     36  C   UNL A   1      35.160  33.608  29.855  1.00  0.00     0.039 A 
ATOM     37  C   UNL A   1      36.304  34.021  29.152  1.00  0.00     0.014 A 
ATOM     38  C   UNL A   1      35.299  32.825  30.993  1.00  0.00     0.014 A 
ATOM     39  C   UNL A   1      37.545  33.464  29.455  1.00  0.00     0.010 A 
ATOM     40  C   UNL A   1      36.489  32.174  31.211  1.00  0.00     0.010 A 
ATOM     41  C   UNL A   1      37.605  32.466  30.418  1.00  0.00    -0.014 A 
BRANCH  41  42
ATOM     42  C   UNL A   1      38.756  31.625  30.703  1.00  0.00     0.031 A 
ATOM     43  C   UNL A   1      38.847  30.287  30.088  1.00  0.00     0.074 A 
ATOM     44  C   UNL A   1      39.844  32.192  31.267  1.00  0.00     0.049 A 
ATOM     45  N   UNL A   1      39.766  29.429  30.365  1.00  0.00    -0.248 NA
ATOM     46  C   UNL A   1      37.867  29.784  29.129  1.00  0.00     0.031 C 
ATOM     47  C   UNL A   1      41.234  31.759  31.153  1.00  0.00     0.029 A 
ATOM     48  N   UNL A   1      39.872  33.188  32.239  1.00  0.00    -0.354 N 
ATOM     49  C   UNL A   1      39.695  28.430  29.425  1.00  0.00     0.074 A 
ATOM     50  C   UNL A   1      38.439  28.639  28.746  1.00  0.00     0.031 C 
ATOM     51  C   UNL A   1      41.944  32.303  32.153  1.00  0.00     0.029 A 
ATOM     52  C   UNL A   1      40.994  32.931  33.055  1.00  0.00     0.049 A 
ATOM     53  H   UNL A   1      39.233  33.930  32.338  1.00  0.00     0.167 HD
ATOM     54  C   UNL A   1      40.775  27.620  29.250  1.00  0.00     0.031 A 
ATOM     55  C   UNL A   1      40.833  32.579  34.368  1.00  0.00     0.031 A 
ATOM     56  C   UNL A   1      41.824  27.893  30.233  1.00  0.00     0.049 A 
ATOM     57  C   UNL A   1      41.362  31.203  34.735  1.00  0.00     0.074 A 
ATOM     58  C   UNL A   1      43.060  28.515  30.194  1.00  0.00     0.029 A 
ATOM     59  N   UNL A   1      41.522  27.727  31.573  1.00  0.00    -0.354 N 
ATOM     60  N   UNL A   1      41.810  30.332  33.874  1.00  0.00    -0.248 NA
ATOM     61  C   UNL A   1      41.327  30.662  36.095  1.00  0.00     0.031 C 
ATOM     62  C   UNL A   1      43.507  28.691  31.536  1.00  0.00     0.029 A 
ATOM     63  C   UNL A   1      42.550  28.161  32.379  1.00  0.00     0.049 A 
ATOM     64  H   UNL A   1      40.677  27.346  31.907  1.00  0.00     0.167 HD
ATOM     65  C   UNL A   1      42.043  29.138  34.504  1.00  0.00     0.074 A 
ATOM     66  C   UNL A   1      41.739  29.396  35.899  1.00  0.00     0.031 C 
ATOM     67  C   UNL A   1      42.404  28.017  33.817  1.00  0.00     0.031 A 
BRANCH  54  68
ATOM     68  C   UNL A   1      40.986  26.692  28.078  1.00  0.00    -0.014 A 
ATOM     69  C   UNL A   1      41.131  25.312  28.318  1.00  0.00     0.009 A 
ATOM     70  C   UNL A   1      41.093  27.092  26.737  1.00  0.00     0.009 A 
ATOM     71  C   UNL A   1      41.433  24.404  27.295  1.00  0.00     0.001 A 
ATOM     72  C   UNL A   1      41.411  26.194  25.708  1.00  0.00     0.001 A 
ATOM     73  C   UNL A   1      41.590  24.848  25.990  1.00  0.00     0.000 A 
ENDBRANCH  54  68
BRANCH  55  74
ATOM     74  C   UNL A   1      39.617  33.194  34.977  1.00  0.00    -0.014 A 
ATOM     75  C   UNL A   1      38.362  32.621  34.691  1.00  0.00     0.009 A 
ATOM     76  C   UNL A   1      39.742  34.016  36.108  1.00  0.00     0.009 A 
ATOM     77  C   UNL A   1      37.297  32.760  35.586  1.00  0.00     0.001 A 
ATOM     78  C   UNL A   1      38.668  34.162  36.992  1.00  0.00     0.001 A 
ATOM     79  C   UNL A   1      37.462  33.505  36.752  1.00  0.00     0.000 A 
ENDBRANCH  55  74
BRANCH  67  80
ATOM     80  C   UNL A   1      42.598  26.654  34.426  1.00  0.00    -0.014 A 
ATOM     81  C   UNL A   1      43.661  25.809  34.089  1.00  0.00     0.009 A 
ATOM     82  C   UNL A   1      41.613  26.127  35.290  1.00  0.00     0.009 A 
ATOM     83  C   UNL A   1      43.757  24.518  34.633  1.00  0.00     0.001 A 
ATOM     84  C   UNL A   1      41.692  24.837  35.816  1.00  0.00     0.001 A 
ATOM     85  C   UNL A   1      42.774  24.035  35.494  1.00  0.00     0.000 A 
ENDBRANCH  67  80
ENDBRANCH  41  42
ENDBRANCH  33  36
ENDBRANCH  31  32
ENDBRANCH  30  31
ENDBRANCH  29  30
ENDBRANCH  28  29
ENDBRANCH   1  28
TORSDOF 17
ENDMDL
