MODEL 1
REMARK VINA RESULT:     -10.6      0.000      0.000
REMARK SMILES N#Cc1cccc(C(=O)N2CCCC[C@@H]2C(=O)NCCCCCCNC(=O)c2ccc(-c3c4nc(c(-c5ccccc5)c5ccc([nH]5)c(-c5ccccc5)c5nc(c(-c6ccccc6)c6ccc3[nH]6)C=C5)C=C4)cc2)c1
REMARK SMILES IDX 21 1 20 2 19 3 18 4 16 5 17 6 15 8 10 9 11 10 12 11 14 12
REMARK SMILES IDX 13 13 8 14 9 15 7 16 3 17 4 18 76 19 5 20 6 21 2 22 1 23
REMARK SMILES IDX 22 24 23 25 24 26 25 27 26 28 27 30 28 31 29 32 75 33 30 34
REMARK SMILES IDX 74 35 31 36 32 37 33 38 68 39 34 40 73 41 67 42 69 43 35 44
REMARK SMILES IDX 72 45 66 46 65 47 36 49 58 50 43 51 57 52 44 53 47 54 56 55
REMARK SMILES IDX 70 56 45 57 46 58 55 60 71 61 48 62 37 63 38 64 42 65 39 66
REMARK SMILES IDX 41 67 40 68 59 69 60 70 64 71 61 72 63 73 62 74 49 75 50 76
REMARK SMILES IDX 54 77 51 78 53 79 52 80
REMARK H PARENT 18 7 25 29 69 48 47 59
REMARK Flexibility Score: inf
ROOT
ATOM      1  C   UNL A   1      35.729  21.909  24.523  1.00  0.00     0.002 C 
ENDROOT
BRANCH   1   2
ATOM      2  C   UNL A   1      35.867  23.006  25.584  1.00  0.00     0.021 C 
BRANCH   2   3
ATOM      3  C   UNL A   1      35.281  24.349  25.151  1.00  0.00     0.116 C 
BRANCH   3   4
ATOM      4  N   UNL A   1      34.853  24.286  23.765  1.00  0.00    -0.354 N 
ATOM      5  C   UNL A   1      33.977  25.075  23.086  1.00  0.00     0.242 C 
ATOM      6  O   UNL A   1      33.638  24.723  21.953  1.00  0.00    -0.273 OA
ATOM      7  H   UNL A   1      35.259  23.561  23.235  1.00  0.00     0.163 HD
BRANCH   5   8
ATOM      8  C   UNL A   1      33.371  26.343  23.724  1.00  0.00     0.174 C 
ATOM      9  N   UNL A   1      31.911  26.265  23.950  1.00  0.00    -0.327 N 
ATOM     10  C   UNL A   1      31.240  27.497  24.332  1.00  0.00     0.120 C 
ATOM     11  C   UNL A   1      31.513  28.612  23.347  1.00  0.00     0.022 C 
ATOM     12  C   UNL A   1      33.751  27.566  22.851  1.00  0.00     0.035 C 
ATOM     13  C   UNL A   1      33.014  28.849  23.228  1.00  0.00     0.004 C 
BRANCH   9  14
ATOM     14  C   UNL A   1      31.138  25.110  24.053  1.00  0.00     0.254 C 
ATOM     15  O   UNL A   1      30.072  25.032  23.438  1.00  0.00    -0.269 OA
BRANCH  14  16
ATOM     16  C   UNL A   1      31.489  24.003  24.991  1.00  0.00     0.041 A 
ATOM     17  C   UNL A   1      32.113  21.709  25.489  1.00  0.00     0.053 A 
ATOM     18  C   UNL A   1      32.487  22.080  26.784  1.00  0.00     0.019 A 
ATOM     19  C   UNL A   1      31.631  22.671  24.591  1.00  0.00     0.033 A 
ATOM     20  C   UNL A   1      32.362  23.406  27.189  1.00  0.00     0.002 A 
ATOM     21  C   UNL A   1      31.859  24.358  26.300  1.00  0.00     0.014 A 
BRANCH  17  22
ATOM     22  C   UNL A   1      32.260  20.347  25.061  1.00  0.00     0.099 C 
ATOM     23  N   UNL A   1      32.365  19.243  24.723  1.00  0.00    -0.192 NA
ENDBRANCH  17  22
ENDBRANCH  14  16
ENDBRANCH   9  14
ENDBRANCH   5   8
ENDBRANCH   3   4
ENDBRANCH   2   3
ENDBRANCH   1   2
BRANCH   1  24
ATOM     24  C   UNL A   1      36.061  20.500  25.025  1.00  0.00     0.002 C 
BRANCH  24  25
ATOM     25  C   UNL A   1      37.459  20.008  24.644  1.00  0.00     0.021 C 
BRANCH  25  26
ATOM     26  C   UNL A   1      38.554  20.460  25.602  1.00  0.00     0.116 C 
BRANCH  26  27
ATOM     27  N   UNL A   1      39.615  19.471  25.706  1.00  0.00    -0.352 N 
ATOM     28  C   UNL A   1      40.936  19.642  26.026  1.00  0.00     0.251 C 
ATOM     29  H   UNL A   1      39.344  18.544  25.521  1.00  0.00     0.163 HD
ATOM     30  O   UNL A   1      41.741  18.739  25.825  1.00  0.00    -0.269 OA
BRANCH  28  31
ATOM     31  C   UNL A   1      41.394  20.924  26.602  1.00  0.00     0.039 A 
ATOM     32  C   UNL A   1      41.934  21.887  25.750  1.00  0.00     0.014 A 
ATOM     33  C   UNL A   1      41.303  21.170  27.975  1.00  0.00     0.014 A 
ATOM     34  C   UNL A   1      42.336  23.117  26.268  1.00  0.00     0.010 A 
ATOM     35  C   UNL A   1      41.621  22.429  28.477  1.00  0.00     0.010 A 
ATOM     36  C   UNL A   1      42.148  23.414  27.629  1.00  0.00    -0.014 A 
BRANCH  36  37
ATOM     37  C   UNL A   1      42.484  24.757  28.164  1.00  0.00     0.031 A 
ATOM     38  C   UNL A   1      43.894  25.094  28.565  1.00  0.00     0.074 A 
ATOM     39  C   UNL A   1      41.502  25.668  28.316  1.00  0.00     0.049 A 
ATOM     40  N   UNL A   1      44.369  26.222  29.031  1.00  0.00    -0.248 NA
ATOM     41  C   UNL A   1      44.900  24.026  28.446  1.00  0.00     0.031 C 
ATOM     42  C   UNL A   1      40.087  25.451  27.998  1.00  0.00     0.029 A 
ATOM     43  N   UNL A   1      41.544  26.965  28.764  1.00  0.00    -0.354 N 
ATOM     44  C   UNL A   1      45.719  25.994  29.272  1.00  0.00     0.074 A 
ATOM     45  C   UNL A   1      45.979  24.610  28.948  1.00  0.00     0.031 C 
ATOM     46  C   UNL A   1      39.409  26.589  28.211  1.00  0.00     0.029 A 
ATOM     47  C   UNL A   1      40.323  27.598  28.732  1.00  0.00     0.049 A 
ATOM     48  H   UNL A   1      42.368  27.400  29.078  1.00  0.00     0.167 HD
ATOM     49  C   UNL A   1      46.660  26.865  29.710  1.00  0.00     0.031 A 
ATOM     50  C   UNL A   1      39.979  28.850  29.088  1.00  0.00     0.031 A 
ATOM     51  C   UNL A   1      46.398  28.244  30.029  1.00  0.00     0.049 A 
ATOM     52  C   UNL A   1      41.042  29.778  29.607  1.00  0.00     0.074 A 
ATOM     53  C   UNL A   1      47.299  29.221  30.419  1.00  0.00     0.029 A 
ATOM     54  N   UNL A   1      45.147  28.838  30.013  1.00  0.00    -0.354 N 
ATOM     55  N   UNL A   1      42.330  29.574  29.740  1.00  0.00    -0.248 NA
ATOM     56  C   UNL A   1      40.600  31.119  30.017  1.00  0.00     0.031 C 
ATOM     57  C   UNL A   1      46.581  30.382  30.717  1.00  0.00     0.029 A 
ATOM     58  C   UNL A   1      45.245  30.155  30.430  1.00  0.00     0.049 A 
ATOM     59  H   UNL A   1      44.311  28.390  29.744  1.00  0.00     0.167 HD
ATOM     60  C   UNL A   1      42.856  30.770  30.212  1.00  0.00     0.074 A 
ATOM     61  C   UNL A   1      41.752  31.700  30.317  1.00  0.00     0.031 C 
ATOM     62  C   UNL A   1      44.138  31.071  30.533  1.00  0.00     0.031 A 
BRANCH  49  63
ATOM     63  C   UNL A   1      48.063  26.351  29.894  1.00  0.00    -0.014 A 
ATOM     64  C   UNL A   1      49.008  26.403  28.857  1.00  0.00     0.009 A 
ATOM     65  C   UNL A   1      48.463  25.871  31.151  1.00  0.00     0.009 A 
ATOM     66  C   UNL A   1      50.315  25.958  29.068  1.00  0.00     0.001 A 
ATOM     67  C   UNL A   1      49.780  25.459  31.369  1.00  0.00     0.001 A 
ATOM     68  C   UNL A   1      50.701  25.496  30.325  1.00  0.00     0.000 A 
ENDBRANCH  49  63
BRANCH  50  69
ATOM     69  C   UNL A   1      38.568  29.311  28.969  1.00  0.00    -0.014 A 
ATOM     70  C   UNL A   1      37.702  29.254  30.073  1.00  0.00     0.009 A 
ATOM     71  C   UNL A   1      38.065  29.763  27.739  1.00  0.00     0.009 A 
ATOM     72  C   UNL A   1      36.354  29.592  29.935  1.00  0.00     0.001 A 
ATOM     73  C   UNL A   1      36.726  30.139  27.614  1.00  0.00     0.001 A 
ATOM     74  C   UNL A   1      35.868  30.036  28.707  1.00  0.00     0.000 A 
ENDBRANCH  50  69
BRANCH  62  75
ATOM     75  C   UNL A   1      44.422  32.480  30.983  1.00  0.00    -0.014 A 
ATOM     76  C   UNL A   1      44.729  33.498  30.066  1.00  0.00     0.009 A 
ATOM     77  C   UNL A   1      44.360  32.794  32.350  1.00  0.00     0.009 A 
ATOM     78  C   UNL A   1      45.018  34.788  30.516  1.00  0.00     0.001 A 
ATOM     79  C   UNL A   1      44.607  34.095  32.792  1.00  0.00     0.001 A 
ATOM     80  C   UNL A   1      44.951  35.087  31.876  1.00  0.00     0.000 A 
ENDBRANCH  62  75
ENDBRANCH  36  37
ENDBRANCH  28  31
ENDBRANCH  26  27
ENDBRANCH  25  26
ENDBRANCH  24  25
ENDBRANCH   1  24
TORSDOF 16
ENDMDL
MODEL 2
REMARK VINA RESULT:     -10.6      1.894      2.812
REMARK SMILES N#Cc1cccc(C(=O)N2CCCC[C@@H]2C(=O)NCCCCCCNC(=O)c2ccc(-c3c4nc(c(-c5ccccc5)c5ccc([nH]5)c(-c5ccccc5)c5nc(c(-c6ccccc6)c6ccc3[nH]6)C=C5)C=C4)cc2)c1
REMARK SMILES IDX 21 1 20 2 19 3 18 4 16 5 17 6 15 8 10 9 11 10 12 11 14 12
REMARK SMILES IDX 13 13 8 14 9 15 7 16 3 17 4 18 76 19 5 20 6 21 2 22 1 23
REMARK SMILES IDX 22 24 23 25 24 26 25 27 26 28 27 30 28 31 29 32 75 33 30 34
REMARK SMILES IDX 74 35 31 36 32 37 33 38 68 39 34 40 73 41 67 42 69 43 35 44
REMARK SMILES IDX 72 45 66 46 65 47 36 49 58 50 43 51 57 52 44 53 47 54 56 55
REMARK SMILES IDX 70 56 45 57 46 58 55 60 71 61 48 62 37 63 38 64 42 65 39 66
REMARK SMILES IDX 41 67 40 68 59 69 60 70 64 71 61 72 63 73 62 74 49 75 50 76
REMARK SMILES IDX 54 77 51 78 53 79 52 80
REMARK H PARENT 18 7 25 29 69 48 47 59
REMARK Flexibility Score: inf
ROOT
ATOM      1  C   UNL A   1      37.444  21.842  24.594  1.00  0.00     0.002 C 
ENDROOT
BRANCH   1   2
ATOM      2  C   UNL A   1      37.479  22.790  25.797  1.00  0.00     0.021 C 
BRANCH   2   3
ATOM      3  C   UNL A   1      36.449  23.916  25.715  1.00  0.00     0.116 C 
BRANCH   3   4
ATOM      4  N   UNL A   1      35.760  23.872  24.437  1.00  0.00    -0.354 N 
ATOM      5  C   UNL A   1      34.426  23.868  24.167  1.00  0.00     0.242 C 
ATOM      6  O   UNL A   1      34.072  23.652  23.005  1.00  0.00    -0.273 OA
ATOM      7  H   UNL A   1      36.346  23.840  23.647  1.00  0.00     0.163 HD
BRANCH   5   8
ATOM      8  C   UNL A   1      33.376  24.068  25.280  1.00  0.00     0.174 C 
ATOM      9  N   UNL A   1      32.884  22.806  25.877  1.00  0.00    -0.327 N 
ATOM     10  C   UNL A   1      31.736  22.904  26.763  1.00  0.00     0.120 C 
ATOM     11  C   UNL A   1      30.572  23.605  26.097  1.00  0.00     0.022 C 
ATOM     12  C   UNL A   1      32.215  24.926  24.716  1.00  0.00     0.035 C 
ATOM     13  C   UNL A   1      30.994  24.993  25.631  1.00  0.00     0.004 C 
BRANCH   9  14
ATOM     14  C   UNL A   1      33.521  21.567  25.863  1.00  0.00     0.254 C 
ATOM     15  O   UNL A   1      34.401  21.324  26.692  1.00  0.00    -0.269 OA
BRANCH  14  16
ATOM     16  C   UNL A   1      33.269  20.558  24.792  1.00  0.00     0.041 A 
ATOM     17  C   UNL A   1      33.255  18.291  23.920  1.00  0.00     0.053 A 
ATOM     18  C   UNL A   1      32.432  18.691  22.863  1.00  0.00     0.019 A 
ATOM     19  C   UNL A   1      33.658  19.218  24.890  1.00  0.00     0.033 A 
ATOM     20  C   UNL A   1      32.027  20.019  22.763  1.00  0.00     0.002 A 
ATOM     21  C   UNL A   1      32.450  20.946  23.718  1.00  0.00     0.014 A 
BRANCH  17  22
ATOM     22  C   UNL A   1      33.657  16.918  24.038  1.00  0.00     0.099 C 
ATOM     23  N   UNL A   1      33.966  15.805  24.131  1.00  0.00    -0.192 NA
ENDBRANCH  17  22
ENDBRANCH  14  16
ENDBRANCH   9  14
ENDBRANCH   5   8
ENDBRANCH   3   4
ENDBRANCH   2   3
ENDBRANCH   1   2
BRANCH   1  24
ATOM     24  C   UNL A   1      37.098  20.391  24.945  1.00  0.00     0.002 C 
BRANCH  24  25
ATOM     25  C   UNL A   1      38.299  19.443  24.963  1.00  0.00     0.021 C 
BRANCH  25  26
ATOM     26  C   UNL A   1      39.377  19.831  25.968  1.00  0.00     0.116 C 
BRANCH  26  27
ATOM     27  N   UNL A   1      40.481  18.884  25.961  1.00  0.00    -0.352 N 
ATOM     28  C   UNL A   1      41.828  19.118  26.036  1.00  0.00     0.251 C 
ATOM     29  H   UNL A   1      40.221  17.938  25.894  1.00  0.00     0.163 HD
ATOM     30  O   UNL A   1      42.625  18.225  25.767  1.00  0.00    -0.269 OA
BRANCH  28  31
ATOM     31  C   UNL A   1      42.323  20.454  26.428  1.00  0.00     0.039 A 
ATOM     32  C   UNL A   1      42.849  21.290  25.443  1.00  0.00     0.014 A 
ATOM     33  C   UNL A   1      42.280  20.876  27.760  1.00  0.00     0.014 A 
ATOM     34  C   UNL A   1      43.285  22.569  25.786  1.00  0.00     0.010 A 
ATOM     35  C   UNL A   1      42.632  22.182  28.086  1.00  0.00     0.010 A 
ATOM     36  C   UNL A   1      43.146  23.041  27.103  1.00  0.00    -0.014 A 
BRANCH  36  37
ATOM     37  C   UNL A   1      43.518  24.436  27.450  1.00  0.00     0.031 A 
ATOM     38  C   UNL A   1      44.951  24.887  27.387  1.00  0.00     0.074 A 
ATOM     39  C   UNL A   1      42.557  25.291  27.854  1.00  0.00     0.049 A 
ATOM     40  N   UNL A   1      45.453  26.071  27.635  1.00  0.00    -0.248 NA
ATOM     41  C   UNL A   1      45.957  23.878  27.014  1.00  0.00     0.031 C 
ATOM     42  C   UNL A   1      41.135  24.964  27.993  1.00  0.00     0.029 A 
ATOM     43  N   UNL A   1      42.628  26.614  28.210  1.00  0.00    -0.354 N 
ATOM     44  C   UNL A   1      46.826  25.945  27.463  1.00  0.00     0.074 A 
ATOM     45  C   UNL A   1      47.087  24.562  27.137  1.00  0.00     0.031 C 
ATOM     46  C   UNL A   1      40.462  26.069  28.352  1.00  0.00     0.029 A 
ATOM     47  C   UNL A   1      41.408  27.166  28.525  1.00  0.00     0.049 A 
ATOM     48  H   UNL A   1      43.471  27.120  28.239  1.00  0.00     0.167 HD
ATOM     49  C   UNL A   1      47.782  26.901  27.554  1.00  0.00     0.031 A 
ATOM     50  C   UNL A   1      41.087  28.414  28.913  1.00  0.00     0.031 A 
ATOM     51  C   UNL A   1      47.519  28.279  27.877  1.00  0.00     0.049 A 
ATOM     52  C   UNL A   1      42.179  29.440  29.042  1.00  0.00     0.074 A 
ATOM     53  C   UNL A   1      48.413  29.334  27.930  1.00  0.00     0.029 A 
ATOM     54  N   UNL A   1      46.277  28.790  28.217  1.00  0.00    -0.354 N 
ATOM     55  N   UNL A   1      43.459  29.326  28.784  1.00  0.00    -0.248 NA
ATOM     56  C   UNL A   1      41.774  30.775  29.507  1.00  0.00     0.031 C 
ATOM     57  C   UNL A   1      47.728  30.465  28.382  1.00  0.00     0.029 A 
ATOM     58  C   UNL A   1      46.390  30.135  28.526  1.00  0.00     0.049 A 
ATOM     59  H   UNL A   1      45.438  28.273  28.236  1.00  0.00     0.167 HD
ATOM     60  C   UNL A   1      44.005  30.582  29.021  1.00  0.00     0.074 A 
ATOM     61  C   UNL A   1      42.913  31.446  29.416  1.00  0.00     0.031 C 
ATOM     62  C   UNL A   1      45.296  30.984  28.921  1.00  0.00     0.031 A 
BRANCH  49  63
ATOM     63  C   UNL A   1      49.212  26.490  27.324  1.00  0.00    -0.014 A 
ATOM     64  C   UNL A   1      50.034  26.064  28.380  1.00  0.00     0.009 A 
ATOM     65  C   UNL A   1      49.722  26.465  26.017  1.00  0.00     0.009 A 
ATOM     66  C   UNL A   1      51.345  25.649  28.132  1.00  0.00     0.001 A 
ATOM     67  C   UNL A   1      51.021  26.017  25.768  1.00  0.00     0.001 A 
ATOM     68  C   UNL A   1      51.833  25.617  26.827  1.00  0.00     0.000 A 
ENDBRANCH  49  63
BRANCH  50  69
ATOM     69  C   UNL A   1      39.674  28.776  29.211  1.00  0.00    -0.014 A 
ATOM     70  C   UNL A   1      39.135  28.565  30.490  1.00  0.00     0.009 A 
ATOM     71  C   UNL A   1      38.840  29.287  28.203  1.00  0.00     0.009 A 
ATOM     72  C   UNL A   1      37.783  28.811  30.740  1.00  0.00     0.001 A 
ATOM     73  C   UNL A   1      37.499  29.571  28.467  1.00  0.00     0.001 A 
ATOM     74  C   UNL A   1      36.967  29.316  29.730  1.00  0.00     0.000 A 
ENDBRANCH  50  69
BRANCH  62  75
ATOM     75  C   UNL A   1      45.588  32.435  29.201  1.00  0.00    -0.014 A 
ATOM     76  C   UNL A   1      46.006  32.871  30.468  1.00  0.00     0.009 A 
ATOM     77  C   UNL A   1      45.459  33.377  28.168  1.00  0.00     0.009 A 
ATOM     78  C   UNL A   1      46.240  34.227  30.706  1.00  0.00     0.001 A 
ATOM     79  C   UNL A   1      45.735  34.726  28.397  1.00  0.00     0.001 A 
ATOM     80  C   UNL A   1      46.110  35.152  29.670  1.00  0.00     0.000 A 
ENDBRANCH  62  75
ENDBRANCH  36  37
ENDBRANCH  28  31
ENDBRANCH  26  27
ENDBRANCH  25  26
ENDBRANCH  24  25
ENDBRANCH   1  24
TORSDOF 16
ENDMDL
MODEL 3
REMARK VINA RESULT:     -10.5      1.936      6.393
REMARK SMILES N#Cc1cccc(C(=O)N2CCCC[C@@H]2C(=O)NCCCCCCNC(=O)c2ccc(-c3c4nc(c(-c5ccccc5)c5ccc([nH]5)c(-c5ccccc5)c5nc(c(-c6ccccc6)c6ccc3[nH]6)C=C5)C=C4)cc2)c1
REMARK SMILES IDX 21 1 20 2 19 3 18 4 16 5 17 6 15 8 10 9 11 10 12 11 14 12
REMARK SMILES IDX 13 13 8 14 9 15 7 16 3 17 4 18 76 19 5 20 6 21 2 22 1 23
REMARK SMILES IDX 22 24 23 25 24 26 25 27 26 28 27 30 28 31 29 32 75 33 30 34
REMARK SMILES IDX 74 35 31 36 32 37 33 38 68 39 34 40 73 41 67 42 69 43 35 44
REMARK SMILES IDX 72 45 66 46 65 47 36 49 58 50 43 51 57 52 44 53 47 54 56 55
REMARK SMILES IDX 70 56 45 57 46 58 55 60 71 61 48 62 37 63 38 64 42 65 39 66
REMARK SMILES IDX 41 67 40 68 59 69 60 70 64 71 61 72 63 73 62 74 49 75 50 76
REMARK SMILES IDX 54 77 51 78 53 79 52 80
REMARK H PARENT 18 7 25 29 69 48 47 59
REMARK Flexibility Score: inf
ROOT
ATOM      1  C   UNL A   1      37.533  21.636  24.640  1.00  0.00     0.002 C 
ENDROOT
BRANCH   1   2
ATOM      2  C   UNL A   1      37.287  22.633  25.777  1.00  0.00     0.021 C 
BRANCH   2   3
ATOM      3  C   UNL A   1      36.508  23.873  25.341  1.00  0.00     0.116 C 
BRANCH   3   4
ATOM      4  N   UNL A   1      35.953  23.675  24.014  1.00  0.00    -0.354 N 
ATOM      5  C   UNL A   1      34.656  23.673  23.603  1.00  0.00     0.242 C 
ATOM      6  O   UNL A   1      34.415  23.311  22.448  1.00  0.00    -0.273 OA
ATOM      7  H   UNL A   1      36.617  23.519  23.303  1.00  0.00     0.163 HD
BRANCH   5   8
ATOM      8  C   UNL A   1      33.506  24.054  24.558  1.00  0.00     0.174 C 
ATOM      9  N   UNL A   1      32.872  22.896  25.229  1.00  0.00    -0.327 N 
ATOM     10  C   UNL A   1      31.643  23.155  25.961  1.00  0.00     0.120 C 
ATOM     11  C   UNL A   1      30.605  23.833  25.092  1.00  0.00     0.022 C 
ATOM     12  C   UNL A   1      32.470  24.900  23.774  1.00  0.00     0.035 C 
ATOM     13  C   UNL A   1      31.164  25.134  24.530  1.00  0.00     0.004 C 
BRANCH   9  14
ATOM     14  C   UNL A   1      33.426  21.633  25.424  1.00  0.00     0.254 C 
ATOM     15  O   UNL A   1      34.210  21.448  26.358  1.00  0.00    -0.269 OA
BRANCH  14  16
ATOM     16  C   UNL A   1      33.208  20.514  24.460  1.00  0.00     0.041 A 
ATOM     17  C   UNL A   1      33.230  18.168  23.832  1.00  0.00     0.053 A 
ATOM     18  C   UNL A   1      32.431  18.446  22.719  1.00  0.00     0.019 A 
ATOM     19  C   UNL A   1      33.603  19.196  24.708  1.00  0.00     0.033 A 
ATOM     20  C   UNL A   1      32.020  19.753  22.470  1.00  0.00     0.002 A 
ATOM     21  C   UNL A   1      32.412  20.779  23.331  1.00  0.00     0.014 A 
BRANCH  17  22
ATOM     22  C   UNL A   1      33.639  16.819  24.104  1.00  0.00     0.099 C 
ATOM     23  N   UNL A   1      33.956  15.724  24.314  1.00  0.00    -0.192 NA
ENDBRANCH  17  22
ENDBRANCH  14  16
ENDBRANCH   9  14
ENDBRANCH   5   8
ENDBRANCH   3   4
ENDBRANCH   2   3
ENDBRANCH   1   2
BRANCH   1  24
ATOM     24  C   UNL A   1      37.062  20.209  24.940  1.00  0.00     0.002 C 
BRANCH  24  25
ATOM     25  C   UNL A   1      38.195  19.202  25.152  1.00  0.00     0.021 C 
BRANCH  25  26
ATOM     26  C   UNL A   1      39.469  19.817  25.720  1.00  0.00     0.116 C 
BRANCH  26  27
ATOM     27  N   UNL A   1      40.518  18.823  25.880  1.00  0.00    -0.352 N 
ATOM     28  C   UNL A   1      41.862  18.999  26.077  1.00  0.00     0.251 C 
ATOM     29  H   UNL A   1      40.217  17.886  25.843  1.00  0.00     0.163 HD
ATOM     30  O   UNL A   1      42.633  18.055  25.942  1.00  0.00    -0.269 OA
BRANCH  28  31
ATOM     31  C   UNL A   1      42.384  20.333  26.438  1.00  0.00     0.039 A 
ATOM     32  C   UNL A   1      43.038  21.084  25.461  1.00  0.00     0.014 A 
ATOM     33  C   UNL A   1      42.240  20.836  27.734  1.00  0.00     0.014 A 
ATOM     34  C   UNL A   1      43.503  22.361  25.771  1.00  0.00     0.010 A 
ATOM     35  C   UNL A   1      42.626  22.143  28.017  1.00  0.00     0.010 A 
ATOM     36  C   UNL A   1      43.268  22.918  27.041  1.00  0.00    -0.014 A 
BRANCH  36  37
ATOM     37  C   UNL A   1      43.676  24.313  27.342  1.00  0.00     0.031 A 
ATOM     38  C   UNL A   1      42.652  25.345  27.731  1.00  0.00     0.074 A 
ATOM     39  C   UNL A   1      44.975  24.656  27.235  1.00  0.00     0.049 A 
ATOM     40  N   UNL A   1      42.833  26.603  28.049  1.00  0.00    -0.248 NA
ATOM     41  C   UNL A   1      41.243  24.919  27.751  1.00  0.00     0.031 C 
ATOM     42  C   UNL A   1      46.059  23.755  26.831  1.00  0.00     0.029 A 
ATOM     43  N   UNL A   1      45.608  25.850  27.469  1.00  0.00    -0.354 N 
ATOM     44  C   UNL A   1      41.565  27.118  28.290  1.00  0.00     0.074 A 
ATOM     45  C   UNL A   1      40.620  26.054  28.038  1.00  0.00     0.031 C 
ATOM     46  C   UNL A   1      47.226  24.415  26.897  1.00  0.00     0.029 A 
ATOM     47  C   UNL A   1      46.971  25.796  27.291  1.00  0.00     0.049 A 
ATOM     48  H   UNL A   1      45.133  26.669  27.738  1.00  0.00     0.167 HD
ATOM     49  C   UNL A   1      41.220  28.362  28.700  1.00  0.00     0.031 A 
ATOM     50  C   UNL A   1      47.909  26.751  27.425  1.00  0.00     0.031 A 
ATOM     51  C   UNL A   1      42.164  29.420  28.953  1.00  0.00     0.049 A 
ATOM     52  C   UNL A   1      47.487  28.133  27.844  1.00  0.00     0.074 A 
ATOM     53  C   UNL A   1      41.917  30.694  29.433  1.00  0.00     0.029 A 
ATOM     54  N   UNL A   1      43.529  29.333  28.733  1.00  0.00    -0.354 N 
ATOM     55  N   UNL A   1      46.295  28.576  28.159  1.00  0.00    -0.248 NA
ATOM     56  C   UNL A   1      48.550  29.144  27.936  1.00  0.00     0.031 C 
ATOM     57  C   UNL A   1      43.120  31.405  29.425  1.00  0.00     0.029 A 
ATOM     58  C   UNL A   1      44.131  30.546  29.023  1.00  0.00     0.049 A 
ATOM     59  H   UNL A   1      44.002  28.529  28.417  1.00  0.00     0.167 HD
ATOM     60  C   UNL A   1      46.470  29.906  28.521  1.00  0.00     0.074 A 
ATOM     61  C   UNL A   1      47.886  30.187  28.412  1.00  0.00     0.031 C 
ATOM     62  C   UNL A   1      45.541  30.815  28.908  1.00  0.00     0.031 A 
BRANCH  49  63
ATOM     63  C   UNL A   1      39.757  28.664  28.882  1.00  0.00    -0.014 A 
ATOM     64  C   UNL A   1      39.100  28.416  30.098  1.00  0.00     0.009 A 
ATOM     65  C   UNL A   1      39.042  29.272  27.838  1.00  0.00     0.009 A 
ATOM     66  C   UNL A   1      37.750  28.745  30.252  1.00  0.00     0.001 A 
ATOM     67  C   UNL A   1      37.703  29.630  28.006  1.00  0.00     0.001 A 
ATOM     68  C   UNL A   1      37.057  29.359  29.211  1.00  0.00     0.000 A 
ENDBRANCH  49  63
BRANCH  50  69
ATOM     69  C   UNL A   1      49.343  26.448  27.164  1.00  0.00    -0.014 A 
ATOM     70  C   UNL A   1      50.195  26.061  28.211  1.00  0.00     0.009 A 
ATOM     71  C   UNL A   1      49.881  26.592  25.875  1.00  0.00     0.009 A 
ATOM     72  C   UNL A   1      51.560  25.874  27.983  1.00  0.00     0.001 A 
ATOM     73  C   UNL A   1      51.239  26.365  25.642  1.00  0.00     0.001 A 
ATOM     74  C   UNL A   1      52.080  26.023  26.699  1.00  0.00     0.000 A 
ENDBRANCH  50  69
BRANCH  62  75
ATOM     75  C   UNL A   1      46.036  32.186  29.286  1.00  0.00    -0.014 A 
ATOM     76  C   UNL A   1      46.438  32.488  30.597  1.00  0.00     0.009 A 
ATOM     77  C   UNL A   1      46.120  33.186  28.304  1.00  0.00     0.009 A 
ATOM     78  C   UNL A   1      46.864  33.777  30.925  1.00  0.00     0.001 A 
ATOM     79  C   UNL A   1      46.586  34.461  28.626  1.00  0.00     0.001 A 
ATOM     80  C   UNL A   1      46.943  34.760  29.940  1.00  0.00     0.000 A 
ENDBRANCH  62  75
ENDBRANCH  36  37
ENDBRANCH  28  31
ENDBRANCH  26  27
ENDBRANCH  25  26
ENDBRANCH  24  25
ENDBRANCH   1  24
TORSDOF 16
ENDMDL
