MODEL 1
REMARK VINA RESULT:      -9.9      0.000      0.000
REMARK SMILES CCCN(CC)S(=O)(=O)c1ccc(C(=O)NCCCCCCNC(=O)c2ccc(-c3c4nc(c(-c5ccccc5)c5ccc([nH]5)c(-c5ccccc5)c5nc(c(-c6ccccc6)c6ccc3[nH]6)C=C5)C=C4)cc2)o1
REMARK SMILES IDX 18 1 17 2 16 3 14 4 15 5 13 7 10 8 11 9 74 10 12 11 7 12
REMARK SMILES IDX 8 13 9 14 4 15 3 16 2 17 1 18 5 19 6 20 19 21 20 22 21 23
REMARK SMILES IDX 22 24 23 25 24 26 25 28 26 29 27 30 73 31 28 32 72 33 29 34
REMARK SMILES IDX 30 35 31 36 66 37 32 38 71 39 65 40 67 41 33 42 70 43 64 44
REMARK SMILES IDX 63 45 34 47 56 48 41 49 55 50 42 51 45 52 54 53 68 54 43 55
REMARK SMILES IDX 44 56 53 58 69 59 46 60 35 61 36 62 40 63 37 64 39 65 38 66
REMARK SMILES IDX 57 67 58 68 62 69 59 70 61 71 60 72 47 73 48 74 52 75 49 76
REMARK SMILES IDX 51 77 50 78
REMARK H PARENT 16 6 23 27 67 46 45 57
REMARK Flexibility Score: inf
ROOT
ATOM      1  C   UNL A   1      33.059  28.599  27.148  1.00  0.00     0.021 C 
ENDROOT
BRANCH   1   2
ATOM      2  C   UNL A   1      32.840  27.232  26.501  1.00  0.00     0.116 C 
BRANCH   2   3
ATOM      3  N   UNL A   1      31.503  26.742  26.765  1.00  0.00    -0.349 N 
ATOM      4  C   UNL A   1      30.660  25.988  25.984  1.00  0.00     0.287 C 
ATOM      5  O   UNL A   1      29.608  25.619  26.510  1.00  0.00    -0.266 OA
ATOM      6  H   UNL A   1      31.141  26.988  27.647  1.00  0.00     0.163 HD
BRANCH   4   7
ATOM      7  C   UNL A   1      31.019  25.645  24.622  1.00  0.00     0.193 A 
ATOM      8  C   UNL A   1      32.034  24.347  23.109  1.00  0.00     0.234 A 
ATOM      9  C   UNL A   1      31.408  25.380  22.426  1.00  0.00     0.065 A 
ATOM     10  O   UNL A   1      31.783  24.521  24.451  1.00  0.00    -0.438 OA
ATOM     11  C   UNL A   1      30.741  26.182  23.379  1.00  0.00     0.058 A 
BRANCH   8  12
ATOM     12  S   UNL A   1      33.001  22.965  22.499  1.00  0.00     0.276 S 
ATOM     13  O   UNL A   1      33.543  23.391  21.231  1.00  0.00    -0.204 OA
ATOM     14  O   UNL A   1      32.072  21.854  22.571  1.00  0.00    -0.204 OA
BRANCH  12  15
ATOM     15  N   UNL A   1      34.282  22.677  23.596  1.00  0.00    -0.195 NA
BRANCH  15  16
ATOM     16  C   UNL A   1      35.136  23.860  23.909  1.00  0.00     0.102 C 
BRANCH  16  17
ATOM     17  C   UNL A   1      35.553  23.914  25.381  1.00  0.00     0.013 C 
ATOM     18  C   UNL A   1      37.032  23.635  25.624  1.00  0.00     0.005 C 
ENDBRANCH  16  17
ENDBRANCH  15  16
BRANCH  15  19
ATOM     19  C   UNL A   1      33.951  21.871  24.813  1.00  0.00     0.099 C 
ATOM     20  C   UNL A   1      33.835  20.376  24.557  1.00  0.00     0.022 C 
ENDBRANCH  15  19
ENDBRANCH  12  15
ENDBRANCH   8  12
ENDBRANCH   4   7
ENDBRANCH   2   3
ENDBRANCH   1   2
BRANCH   1  21
ATOM     21  C   UNL A   1      31.779  29.439  27.251  1.00  0.00     0.002 C 
BRANCH  21  22
ATOM     22  C   UNL A   1      31.551  30.421  26.094  1.00  0.00     0.002 C 
BRANCH  22  23
ATOM     23  C   UNL A   1      31.397  31.888  26.505  1.00  0.00     0.021 C 
BRANCH  23  24
ATOM     24  C   UNL A   1      32.634  32.494  27.159  1.00  0.00     0.116 C 
BRANCH  24  25
ATOM     25  N   UNL A   1      32.407  33.867  27.578  1.00  0.00    -0.352 N 
ATOM     26  C   UNL A   1      33.071  34.601  28.528  1.00  0.00     0.251 C 
ATOM     27  H   UNL A   1      31.675  34.335  27.117  1.00  0.00     0.163 HD
ATOM     28  O   UNL A   1      32.621  35.677  28.909  1.00  0.00    -0.269 OA
BRANCH  26  29
ATOM     29  C   UNL A   1      34.333  34.087  29.101  1.00  0.00     0.039 A 
ATOM     30  C   UNL A   1      34.291  33.355  30.290  1.00  0.00     0.014 A 
ATOM     31  C   UNL A   1      35.555  34.348  28.474  1.00  0.00     0.014 A 
ATOM     32  C   UNL A   1      35.472  32.842  30.829  1.00  0.00     0.010 A 
ATOM     33  C   UNL A   1      36.723  33.784  28.978  1.00  0.00     0.010 A 
ATOM     34  C   UNL A   1      36.694  33.035  30.165  1.00  0.00    -0.014 A 
BRANCH  34  35
ATOM     35  C   UNL A   1      37.963  32.487  30.702  1.00  0.00     0.031 A 
ATOM     36  C   UNL A   1      38.558  31.248  30.092  1.00  0.00     0.074 A 
ATOM     37  C   UNL A   1      38.536  33.053  31.781  1.00  0.00     0.049 A 
ATOM     38  N   UNL A   1      39.596  30.551  30.481  1.00  0.00    -0.248 NA
ATOM     39  C   UNL A   1      37.881  30.706  28.903  1.00  0.00     0.031 C 
ATOM     40  C   UNL A   1      38.041  34.238  32.482  1.00  0.00     0.029 A 
ATOM     41  N   UNL A   1      39.657  32.692  32.486  1.00  0.00    -0.354 N 
ATOM     42  C   UNL A   1      39.678  29.478  29.604  1.00  0.00     0.074 A 
ATOM     43  C   UNL A   1      38.564  29.592  28.688  1.00  0.00     0.031 C 
ATOM     44  C   UNL A   1      38.865  34.517  33.506  1.00  0.00     0.029 A 
ATOM     45  C   UNL A   1      39.919  33.509  33.557  1.00  0.00     0.049 A 
ATOM     46  H   UNL A   1      40.219  31.920  32.245  1.00  0.00     0.167 HD
ATOM     47  C   UNL A   1      40.606  28.493  29.554  1.00  0.00     0.031 A 
ATOM     48  C   UNL A   1      40.894  33.448  34.483  1.00  0.00     0.031 A 
ATOM     49  C   UNL A   1      41.725  28.390  30.452  1.00  0.00     0.049 A 
ATOM     50  C   UNL A   1      41.911  32.344  34.408  1.00  0.00     0.074 A 
ATOM     51  C   UNL A   1      42.750  27.460  30.450  1.00  0.00     0.029 A 
ATOM     52  N   UNL A   1      41.966  29.252  31.511  1.00  0.00    -0.354 N 
ATOM     53  N   UNL A   1      42.005  31.365  33.542  1.00  0.00    -0.248 NA
ATOM     54  C   UNL A   1      42.963  32.345  35.435  1.00  0.00     0.031 C 
ATOM     55  C   UNL A   1      43.592  27.737  31.533  1.00  0.00     0.029 A 
ATOM     56  C   UNL A   1      43.116  28.866  32.179  1.00  0.00     0.049 A 
ATOM     57  H   UNL A   1      41.404  30.024  31.751  1.00  0.00     0.167 HD
ATOM     58  C   UNL A   1      43.140  30.650  33.900  1.00  0.00     0.074 A 
ATOM     59  C   UNL A   1      43.708  31.314  35.056  1.00  0.00     0.031 C 
ATOM     60  C   UNL A   1      43.667  29.543  33.323  1.00  0.00     0.031 A 
BRANCH  47  61
ATOM     61  C   UNL A   1      40.440  27.441  28.495  1.00  0.00    -0.014 A 
ATOM     62  C   UNL A   1      40.975  27.614  27.208  1.00  0.00     0.009 A 
ATOM     63  C   UNL A   1      39.760  26.250  28.793  1.00  0.00     0.009 A 
ATOM     64  C   UNL A   1      40.799  26.632  26.231  1.00  0.00     0.001 A 
ATOM     65  C   UNL A   1      39.610  25.257  27.823  1.00  0.00     0.001 A 
ATOM     66  C   UNL A   1      40.120  25.453  26.541  1.00  0.00     0.000 A 
ENDBRANCH  47  61
BRANCH  48  67
ATOM     67  C   UNL A   1      40.967  34.474  35.555  1.00  0.00    -0.014 A 
ATOM     68  C   UNL A   1      40.091  34.420  36.649  1.00  0.00     0.009 A 
ATOM     69  C   UNL A   1      41.907  35.514  35.487  1.00  0.00     0.009 A 
ATOM     70  C   UNL A   1      40.138  35.399  37.643  1.00  0.00     0.001 A 
ATOM     71  C   UNL A   1      41.969  36.478  36.496  1.00  0.00     0.001 A 
ATOM     72  C   UNL A   1      41.079  36.425  37.567  1.00  0.00     0.000 A 
ENDBRANCH  48  67
BRANCH  60  73
ATOM     73  C   UNL A   1      44.943  29.007  33.907  1.00  0.00    -0.014 A 
ATOM     74  C   UNL A   1      44.931  28.127  34.998  1.00  0.00     0.009 A 
ATOM     75  C   UNL A   1      46.171  29.354  33.322  1.00  0.00     0.009 A 
ATOM     76  C   UNL A   1      46.129  27.628  35.513  1.00  0.00     0.001 A 
ATOM     77  C   UNL A   1      47.365  28.833  33.823  1.00  0.00     0.001 A 
ATOM     78  C   UNL A   1      47.344  27.977  34.923  1.00  0.00     0.000 A 
ENDBRANCH  60  73
ENDBRANCH  34  35
ENDBRANCH  26  29
ENDBRANCH  24  25
ENDBRANCH  23  24
ENDBRANCH  22  23
ENDBRANCH  21  22
ENDBRANCH   1  21
TORSDOF 18
ENDMDL
MODEL 2
REMARK VINA RESULT:      -9.9      5.075      9.789
REMARK SMILES CCCN(CC)S(=O)(=O)c1ccc(C(=O)NCCCCCCNC(=O)c2ccc(-c3c4nc(c(-c5ccccc5)c5ccc([nH]5)c(-c5ccccc5)c5nc(c(-c6ccccc6)c6ccc3[nH]6)C=C5)C=C4)cc2)o1
REMARK SMILES IDX 18 1 17 2 16 3 14 4 15 5 13 7 10 8 11 9 74 10 12 11 7 12
REMARK SMILES IDX 8 13 9 14 4 15 3 16 2 17 1 18 5 19 6 20 19 21 20 22 21 23
REMARK SMILES IDX 22 24 23 25 24 26 25 28 26 29 27 30 73 31 28 32 72 33 29 34
REMARK SMILES IDX 30 35 31 36 66 37 32 38 71 39 65 40 67 41 33 42 70 43 64 44
REMARK SMILES IDX 63 45 34 47 56 48 41 49 55 50 42 51 45 52 54 53 68 54 43 55
REMARK SMILES IDX 44 56 53 58 69 59 46 60 35 61 36 62 40 63 37 64 39 65 38 66
REMARK SMILES IDX 57 67 58 68 62 69 59 70 61 71 60 72 47 73 48 74 52 75 49 76
REMARK SMILES IDX 51 77 50 78
REMARK H PARENT 16 6 23 27 67 46 45 57
REMARK Flexibility Score: inf
ROOT
ATOM      1  C   UNL A   1      36.402  33.836  33.889  1.00  0.00     0.021 C 
ENDROOT
BRANCH   1   2
ATOM      2  C   UNL A   1      37.277  34.127  35.107  1.00  0.00     0.116 C 
BRANCH   2   3
ATOM      3  N   UNL A   1      37.000  33.192  36.179  1.00  0.00    -0.349 N 
ATOM      4  C   UNL A   1      37.790  32.213  36.734  1.00  0.00     0.287 C 
ATOM      5  O   UNL A   1      37.331  31.632  37.718  1.00  0.00    -0.266 OA
ATOM      6  H   UNL A   1      36.102  33.272  36.574  1.00  0.00     0.163 HD
BRANCH   4   7
ATOM      7  C   UNL A   1      39.096  31.912  36.181  1.00  0.00     0.193 A 
ATOM      8  C   UNL A   1      40.803  30.523  35.780  1.00  0.00     0.234 A 
ATOM      9  C   UNL A   1      41.122  31.755  35.226  1.00  0.00     0.065 A 
ATOM     10  O   UNL A   1      39.558  30.635  36.357  1.00  0.00    -0.438 OA
ATOM     11  C   UNL A   1      40.031  32.623  35.453  1.00  0.00     0.058 A 
BRANCH   8  12
ATOM     12  S   UNL A   1      41.721  28.982  35.802  1.00  0.00     0.276 S 
ATOM     13  O   UNL A   1      40.872  28.027  36.473  1.00  0.00    -0.204 OA
ATOM     14  O   UNL A   1      42.998  29.366  36.372  1.00  0.00    -0.204 OA
BRANCH  12  15
ATOM     15  N   UNL A   1      41.974  28.480  34.186  1.00  0.00    -0.195 NA
BRANCH  15  16
ATOM     16  C   UNL A   1      42.162  27.013  33.992  1.00  0.00     0.102 C 
BRANCH  16  17
ATOM     17  C   UNL A   1      43.631  26.625  33.812  1.00  0.00     0.013 C 
ATOM     18  C   UNL A   1      44.255  25.949  35.028  1.00  0.00     0.005 C 
ENDBRANCH  16  17
ENDBRANCH  15  16
BRANCH  15  19
ATOM     19  C   UNL A   1      41.077  29.085  33.151  1.00  0.00     0.099 C 
ATOM     20  C   UNL A   1      39.779  28.322  32.931  1.00  0.00     0.022 C 
ENDBRANCH  15  19
ENDBRANCH  12  15
ENDBRANCH   8  12
ENDBRANCH   4   7
ENDBRANCH   2   3
ENDBRANCH   1   2
BRANCH   1  21
ATOM     21  C   UNL A   1      34.960  34.342  34.036  1.00  0.00     0.002 C 
BRANCH  21  22
ATOM     22  C   UNL A   1      34.636  35.621  33.251  1.00  0.00     0.002 C 
BRANCH  22  23
ATOM     23  C   UNL A   1      33.371  35.556  32.392  1.00  0.00     0.021 C 
BRANCH  23  24
ATOM     24  C   UNL A   1      33.494  36.239  31.035  1.00  0.00     0.116 C 
BRANCH  24  25
ATOM     25  N   UNL A   1      32.769  35.520  29.999  1.00  0.00    -0.352 N 
ATOM     26  C   UNL A   1      33.218  34.534  29.157  1.00  0.00     0.251 C 
ATOM     27  H   UNL A   1      31.826  35.776  29.887  1.00  0.00     0.163 HD
ATOM     28  O   UNL A   1      32.538  34.177  28.201  1.00  0.00    -0.269 OA
BRANCH  26  29
ATOM     29  C   UNL A   1      34.532  33.904  29.402  1.00  0.00     0.039 A 
ATOM     30  C   UNL A   1      35.625  34.289  28.622  1.00  0.00     0.014 A 
ATOM     31  C   UNL A   1      34.676  32.921  30.385  1.00  0.00     0.014 A 
ATOM     32  C   UNL A   1      36.879  33.721  28.859  1.00  0.00     0.010 A 
ATOM     33  C   UNL A   1      35.937  32.400  30.661  1.00  0.00     0.010 A 
ATOM     34  C   UNL A   1      37.047  32.788  29.895  1.00  0.00    -0.014 A 
BRANCH  34  35
ATOM     35  C   UNL A   1      38.369  32.181  30.183  1.00  0.00     0.031 A 
ATOM     36  C   UNL A   1      39.383  32.947  30.987  1.00  0.00     0.074 A 
ATOM     37  C   UNL A   1      38.686  30.980  29.662  1.00  0.00     0.049 A 
ATOM     38  N   UNL A   1      40.627  32.642  31.256  1.00  0.00    -0.248 NA
ATOM     39  C   UNL A   1      38.949  34.242  31.537  1.00  0.00     0.031 C 
ATOM     40  C   UNL A   1      37.802  30.151  28.842  1.00  0.00     0.029 A 
ATOM     41  N   UNL A   1      39.849  30.257  29.734  1.00  0.00    -0.354 N 
ATOM     42  C   UNL A   1      41.129  33.715  31.981  1.00  0.00     0.074 A 
ATOM     43  C   UNL A   1      40.070  34.696  32.076  1.00  0.00     0.031 C 
ATOM     44  C   UNL A   1      38.449  29.024  28.502  1.00  0.00     0.029 A 
ATOM     45  C   UNL A   1      39.803  29.071  29.044  1.00  0.00     0.049 A 
ATOM     46  H   UNL A   1      40.642  30.561  30.233  1.00  0.00     0.167 HD
ATOM     47  C   UNL A   1      42.357  33.865  32.532  1.00  0.00     0.031 A 
ATOM     48  C   UNL A   1      40.749  28.131  28.862  1.00  0.00     0.031 A 
ATOM     49  C   UNL A   1      43.404  32.881  32.455  1.00  0.00     0.049 A 
ATOM     50  C   UNL A   1      42.105  28.321  29.482  1.00  0.00     0.074 A 
ATOM     51  C   UNL A   1      44.664  32.916  33.026  1.00  0.00     0.029 A 
ATOM     52  N   UNL A   1      43.308  31.683  31.765  1.00  0.00    -0.354 N 
ATOM     53  N   UNL A   1      42.549  29.318  30.208  1.00  0.00    -0.248 NA
ATOM     54  C   UNL A   1      43.087  27.249  29.264  1.00  0.00     0.031 C 
ATOM     55  C   UNL A   1      45.346  31.754  32.649  1.00  0.00     0.029 A 
ATOM     56  C   UNL A   1      44.493  30.976  31.883  1.00  0.00     0.049 A 
ATOM     57  H   UNL A   1      42.516  31.379  31.267  1.00  0.00     0.167 HD
ATOM     58  C   UNL A   1      43.849  28.982  30.558  1.00  0.00     0.074 A 
ATOM     59  C   UNL A   1      44.120  27.684  29.974  1.00  0.00     0.031 C 
ATOM     60  C   UNL A   1      44.740  29.684  31.299  1.00  0.00     0.031 A 
BRANCH  47  61
ATOM     61  C   UNL A   1      42.634  35.149  33.260  1.00  0.00    -0.014 A 
ATOM     62  C   UNL A   1      42.302  35.303  34.616  1.00  0.00     0.009 A 
ATOM     63  C   UNL A   1      43.258  36.213  32.589  1.00  0.00     0.009 A 
ATOM     64  C   UNL A   1      42.553  36.509  35.273  1.00  0.00     0.001 A 
ATOM     65  C   UNL A   1      43.535  37.407  33.257  1.00  0.00     0.001 A 
ATOM     66  C   UNL A   1      43.173  37.558  34.594  1.00  0.00     0.000 A 
ENDBRANCH  47  61
BRANCH  48  67
ATOM     67  C   UNL A   1      40.443  26.913  28.068  1.00  0.00    -0.014 A 
ATOM     68  C   UNL A   1      39.706  25.863  28.636  1.00  0.00     0.009 A 
ATOM     69  C   UNL A   1      40.891  26.792  26.743  1.00  0.00     0.009 A 
ATOM     70  C   UNL A   1      39.443  24.705  27.902  1.00  0.00     0.001 A 
ATOM     71  C   UNL A   1      40.604  25.643  26.003  1.00  0.00     0.001 A 
ATOM     72  C   UNL A   1      39.888  24.598  26.585  1.00  0.00     0.000 A 
ENDBRANCH  48  67
BRANCH  60  73
ATOM     73  C   UNL A   1      46.075  29.045  31.554  1.00  0.00    -0.014 A 
ATOM     74  C   UNL A   1      46.315  28.295  32.715  1.00  0.00     0.009 A 
ATOM     75  C   UNL A   1      47.091  29.159  30.592  1.00  0.00     0.009 A 
ATOM     76  C   UNL A   1      47.559  27.696  32.921  1.00  0.00     0.001 A 
ATOM     77  C   UNL A   1      48.325  28.537  30.790  1.00  0.00     0.001 A 
ATOM     78  C   UNL A   1      48.560  27.813  31.958  1.00  0.00     0.000 A 
ENDBRANCH  60  73
ENDBRANCH  34  35
ENDBRANCH  26  29
ENDBRANCH  24  25
ENDBRANCH  23  24
ENDBRANCH  22  23
ENDBRANCH  21  22
ENDBRANCH   1  21
TORSDOF 18
ENDMDL
MODEL 3
REMARK VINA RESULT:      -9.9      1.673      6.233
REMARK SMILES CCCN(CC)S(=O)(=O)c1ccc(C(=O)NCCCCCCNC(=O)c2ccc(-c3c4nc(c(-c5ccccc5)c5ccc([nH]5)c(-c5ccccc5)c5nc(c(-c6ccccc6)c6ccc3[nH]6)C=C5)C=C4)cc2)o1
REMARK SMILES IDX 18 1 17 2 16 3 14 4 15 5 13 7 10 8 11 9 74 10 12 11 7 12
REMARK SMILES IDX 8 13 9 14 4 15 3 16 2 17 1 18 5 19 6 20 19 21 20 22 21 23
REMARK SMILES IDX 22 24 23 25 24 26 25 28 26 29 27 30 73 31 28 32 72 33 29 34
REMARK SMILES IDX 30 35 31 36 66 37 32 38 71 39 65 40 67 41 33 42 70 43 64 44
REMARK SMILES IDX 63 45 34 47 56 48 41 49 55 50 42 51 45 52 54 53 68 54 43 55
REMARK SMILES IDX 44 56 53 58 69 59 46 60 35 61 36 62 40 63 37 64 39 65 38 66
REMARK SMILES IDX 57 67 58 68 62 69 59 70 61 71 60 72 47 73 48 74 52 75 49 76
REMARK SMILES IDX 51 77 50 78
REMARK H PARENT 16 6 23 27 67 46 45 57
REMARK Flexibility Score: inf
ROOT
ATOM      1  C   UNL A   1      34.615  29.098  26.918  1.00  0.00     0.021 C 
ENDROOT
BRANCH   1   2
ATOM      2  C   UNL A   1      33.666  28.046  26.347  1.00  0.00     0.116 C 
BRANCH   2   3
ATOM      3  N   UNL A   1      33.919  27.829  24.937  1.00  0.00    -0.349 N 
ATOM      4  C   UNL A   1      33.267  27.031  24.027  1.00  0.00     0.287 C 
ATOM      5  O   UNL A   1      33.635  27.124  22.855  1.00  0.00    -0.266 OA
ATOM      6  H   UNL A   1      34.680  28.336  24.573  1.00  0.00     0.163 HD
BRANCH   4   7
ATOM      7  C   UNL A   1      32.197  26.148  24.447  1.00  0.00     0.193 A 
ATOM      8  C   UNL A   1      31.435  24.277  25.407  1.00  0.00     0.234 A 
ATOM      9  C   UNL A   1      30.337  25.002  24.967  1.00  0.00     0.065 A 
ATOM     10  O   UNL A   1      32.565  24.994  25.085  1.00  0.00    -0.438 OA
ATOM     11  C   UNL A   1      30.817  26.198  24.389  1.00  0.00     0.058 A 
BRANCH   8  12
ATOM     12  S   UNL A   1      31.526  22.704  26.265  1.00  0.00     0.276 S 
ATOM     13  O   UNL A   1      30.235  22.082  26.087  1.00  0.00    -0.204 OA
ATOM     14  O   UNL A   1      31.992  23.075  27.587  1.00  0.00    -0.204 OA
BRANCH  12  15
ATOM     15  N   UNL A   1      32.726  21.746  25.511  1.00  0.00    -0.195 NA
BRANCH  15  16
ATOM     16  C   UNL A   1      33.691  21.083  26.436  1.00  0.00     0.102 C 
BRANCH  16  17
ATOM     17  C   UNL A   1      35.123  21.594  26.260  1.00  0.00     0.013 C 
ATOM     18  C   UNL A   1      35.941  20.826  25.228  1.00  0.00     0.005 C 
ENDBRANCH  16  17
ENDBRANCH  15  16
BRANCH  15  19
ATOM     19  C   UNL A   1      32.264  20.836  24.417  1.00  0.00     0.099 C 
ATOM     20  C   UNL A   1      32.283  21.467  23.033  1.00  0.00     0.022 C 
ENDBRANCH  15  19
ENDBRANCH  12  15
ENDBRANCH   8  12
ENDBRANCH   4   7
ENDBRANCH   2   3
ENDBRANCH   1   2
BRANCH   1  21
ATOM     21  C   UNL A   1      33.914  30.404  27.315  1.00  0.00     0.002 C 
BRANCH  21  22
ATOM     22  C   UNL A   1      32.385  30.388  27.183  1.00  0.00     0.002 C 
BRANCH  22  23
ATOM     23  C   UNL A   1      31.723  31.766  27.094  1.00  0.00     0.021 C 
BRANCH  23  24
ATOM     24  C   UNL A   1      32.684  32.908  26.780  1.00  0.00     0.116 C 
BRANCH  24  25
ATOM     25  N   UNL A   1      32.457  34.057  27.641  1.00  0.00    -0.352 N 
ATOM     26  C   UNL A   1      33.131  34.433  28.776  1.00  0.00     0.251 C 
ATOM     27  H   UNL A   1      31.717  34.647  27.373  1.00  0.00     0.163 HD
ATOM     28  O   UNL A   1      32.682  35.314  29.502  1.00  0.00    -0.269 OA
BRANCH  26  29
ATOM     29  C   UNL A   1      34.402  33.766  29.127  1.00  0.00     0.039 A 
ATOM     30  C   UNL A   1      35.562  34.102  28.426  1.00  0.00     0.014 A 
ATOM     31  C   UNL A   1      34.440  32.797  30.133  1.00  0.00     0.014 A 
ATOM     32  C   UNL A   1      36.775  33.498  28.765  1.00  0.00     0.010 A 
ATOM     33  C   UNL A   1      35.658  32.241  30.511  1.00  0.00     0.010 A 
ATOM     34  C   UNL A   1      36.835  32.579  29.825  1.00  0.00    -0.014 A 
BRANCH  34  35
ATOM     35  C   UNL A   1      38.111  31.935  30.220  1.00  0.00     0.031 A 
ATOM     36  C   UNL A   1      39.049  32.648  31.154  1.00  0.00     0.074 A 
ATOM     37  C   UNL A   1      38.461  30.750  29.684  1.00  0.00     0.049 A 
ATOM     38  N   UNL A   1      40.254  32.308  31.535  1.00  0.00    -0.248 NA
ATOM     39  C   UNL A   1      38.580  33.928  31.711  1.00  0.00     0.031 C 
ATOM     40  C   UNL A   1      37.652  29.972  28.745  1.00  0.00     0.029 A 
ATOM     41  N   UNL A   1      39.599  30.003  29.844  1.00  0.00    -0.354 N 
ATOM     42  C   UNL A   1      40.695  33.341  32.352  1.00  0.00     0.074 A 
ATOM     43  C   UNL A   1      39.647  34.338  32.379  1.00  0.00     0.031 C 
ATOM     44  C   UNL A   1      38.314  28.847  28.425  1.00  0.00     0.029 A 
ATOM     45  C   UNL A   1      39.606  28.846  29.104  1.00  0.00     0.049 A 
ATOM     46  H   UNL A   1      40.341  30.270  30.433  1.00  0.00     0.167 HD
ATOM     47  C   UNL A   1      41.863  33.445  33.030  1.00  0.00     0.031 A 
ATOM     48  C   UNL A   1      40.551  27.896  28.980  1.00  0.00     0.031 A 
ATOM     49  C   UNL A   1      42.896  32.445  33.020  1.00  0.00     0.049 A 
ATOM     50  C   UNL A   1      41.838  28.034  29.741  1.00  0.00     0.074 A 
ATOM     51  C   UNL A   1      44.092  32.432  33.716  1.00  0.00     0.029 A 
ATOM     52  N   UNL A   1      42.853  31.277  32.273  1.00  0.00    -0.354 N 
ATOM     53  N   UNL A   1      42.221  28.992  30.550  1.00  0.00    -0.248 NA
ATOM     54  C   UNL A   1      42.821  26.952  29.581  1.00  0.00     0.031 C 
ATOM     55  C   UNL A   1      44.791  31.273  33.363  1.00  0.00     0.029 A 
ATOM     56  C   UNL A   1      44.009  30.543  32.482  1.00  0.00     0.049 A 
ATOM     57  H   UNL A   1      42.111  31.009  31.685  1.00  0.00     0.167 HD
ATOM     58  C   UNL A   1      43.473  28.617  31.016  1.00  0.00     0.074 A 
ATOM     59  C   UNL A   1      43.782  27.338  30.409  1.00  0.00     0.031 C 
ATOM     60  C   UNL A   1      44.295  29.271  31.873  1.00  0.00     0.031 A 
BRANCH  47  61
ATOM     61  C   UNL A   1      42.083  34.693  33.836  1.00  0.00    -0.014 A 
ATOM     62  C   UNL A   1      42.690  35.827  33.272  1.00  0.00     0.009 A 
ATOM     63  C   UNL A   1      41.656  34.747  35.173  1.00  0.00     0.009 A 
ATOM     64  C   UNL A   1      42.899  36.974  34.040  1.00  0.00     0.001 A 
ATOM     65  C   UNL A   1      41.840  35.905  35.931  1.00  0.00     0.001 A 
ATOM     66  C   UNL A   1      42.471  37.013  35.367  1.00  0.00     0.000 A 
ENDBRANCH  47  61
BRANCH  48  67
ATOM     67  C   UNL A   1      40.309  26.717  28.109  1.00  0.00    -0.014 A 
ATOM     68  C   UNL A   1      39.605  25.607  28.597  1.00  0.00     0.009 A 
ATOM     69  C   UNL A   1      40.785  26.693  26.789  1.00  0.00     0.009 A 
ATOM     70  C   UNL A   1      39.402  24.485  27.790  1.00  0.00     0.001 A 
ATOM     71  C   UNL A   1      40.559  25.580  25.975  1.00  0.00     0.001 A 
ATOM     72  C   UNL A   1      39.875  24.475  26.479  1.00  0.00     0.000 A 
ENDBRANCH  48  67
BRANCH  60  73
ATOM     73  C   UNL A   1      45.586  28.596  32.236  1.00  0.00    -0.014 A 
ATOM     74  C   UNL A   1      45.664  27.700  33.312  1.00  0.00     0.009 A 
ATOM     75  C   UNL A   1      46.730  28.828  31.455  1.00  0.00     0.009 A 
ATOM     76  C   UNL A   1      46.872  27.072  33.619  1.00  0.00     0.001 A 
ATOM     77  C   UNL A   1      47.930  28.178  31.749  1.00  0.00     0.001 A 
ATOM     78  C   UNL A   1      48.002  27.307  32.835  1.00  0.00     0.000 A 
ENDBRANCH  60  73
ENDBRANCH  34  35
ENDBRANCH  26  29
ENDBRANCH  24  25
ENDBRANCH  23  24
ENDBRANCH  22  23
ENDBRANCH  21  22
ENDBRANCH   1  21
TORSDOF 18
ENDMDL
