MODEL 1
REMARK VINA RESULT:     -10.6      0.000      0.000
REMARK SMILES C[N@H+]1CCO[C@H](CNC(=O)N2CC[C@@](C)(C(=O)NCCCCCCNC(=O)c3ccc(-c4c5nc(c(-c6ccccc6)c6ccc([nH]6)c(-c6ccccc6)c6nc(c(-c7ccccc7)c7ccc4[nH]7)C=C6)C=C5)cc3)C2)C1
REMARK SMILES IDX 21 1 20 2 19 3 18 4 16 5 17 6 14 8 11 9 12 10 76 11 13 12
REMARK SMILES IDX 15 13 9 14 8 15 10 17 7 18 6 19 1 20 2 21 3 22 77 23 4 25
REMARK SMILES IDX 5 26 22 27 23 28 24 29 25 30 26 31 27 33 28 34 29 35 75 36
REMARK SMILES IDX 30 37 74 38 31 39 32 40 33 41 68 42 34 43 73 44 67 45 69 46
REMARK SMILES IDX 35 47 72 48 66 49 65 50 36 52 58 53 43 54 57 55 44 56 47 57
REMARK SMILES IDX 56 58 70 59 45 60 46 61 55 63 71 64 48 65 37 66 38 67 42 68
REMARK SMILES IDX 39 69 41 70 40 71 59 72 60 73 64 74 61 75 63 76 62 77 49 78
REMARK SMILES IDX 50 79 54 80 51 81 53 82 52 83
REMARK H PARENT 18 7 8 16 2 24 25 32 69 51 47 62
REMARK Flexibility Score: inf
ROOT
ATOM      1  C   UNL A   1      38.433  22.325  25.856  1.00  0.00     0.002 C 
ENDROOT
BRANCH   1   2
ATOM      2  C   UNL A   1      37.823  23.732  25.814  1.00  0.00     0.021 C 
BRANCH   2   3
ATOM      3  C   UNL A   1      36.296  23.761  25.906  1.00  0.00     0.116 C 
BRANCH   3   4
ATOM      4  N   UNL A   1      35.701  24.027  24.612  1.00  0.00    -0.356 N 
ATOM      5  C   UNL A   1      34.703  23.460  23.893  1.00  0.00     0.227 C 
ATOM      6  O   UNL A   1      34.614  23.881  22.732  1.00  0.00    -0.274 OA
ATOM      7  H   UNL A   1      36.114  24.792  24.152  1.00  0.00     0.163 HD
BRANCH   5   8
ATOM      8  C   UNL A   1      33.652  22.471  24.442  1.00  0.00     0.066 C 
ATOM      9  N   UNL A   1      31.589  23.291  25.346  1.00  0.00    -0.324 N 
ATOM     10  C   UNL A   1      31.385  23.149  23.914  1.00  0.00     0.122 C 
ATOM     11  C   UNL A   1      32.936  22.881  25.733  1.00  0.00     0.138 C 
ATOM     12  C   UNL A   1      32.521  22.283  23.417  1.00  0.00     0.040 C 
ATOM     13  C   UNL A   1      34.353  21.115  24.679  1.00  0.00     0.024 C 
BRANCH   9  14
ATOM     14  C   UNL A   1      30.513  23.533  26.142  1.00  0.00     0.317 C 
ATOM     15  N   UNL A   1      30.045  24.781  26.326  1.00  0.00    -0.335 N 
ATOM     16  H   UNL A   1      29.746  24.965  27.246  1.00  0.00     0.165 HD
ATOM     17  O   UNL A   1      29.930  22.626  26.740  1.00  0.00    -0.249 OA
BRANCH  15  18
ATOM     18  C   UNL A   1      29.897  25.908  25.419  1.00  0.00     0.155 C 
BRANCH  18  19
ATOM     19  C   UNL A   1      30.872  27.056  25.766  1.00  0.00     0.192 C 
ATOM     20  C   UNL A   1      32.936  29.167  24.724  1.00  0.00     0.332 C 
ATOM     21  N   UNL A   1      33.237  27.881  25.326  1.00  0.00    -0.333 N 
ATOM     22  C   UNL A   1      33.360  27.989  26.797  1.00  0.00     0.290 C 
ATOM     23  C   UNL A   1      32.202  26.880  24.990  1.00  0.00     0.296 C 
ATOM     24  H   UNL A   1      34.132  27.573  24.944  1.00  0.00     0.348 HD
ATOM     25  C   UNL A   1      32.015  28.154  27.518  1.00  0.00     0.222 C 
ATOM     26  O   UNL A   1      31.138  27.070  27.183  1.00  0.00    -0.365 OA
ENDBRANCH  18  19
ENDBRANCH  15  18
ENDBRANCH   9  14
ENDBRANCH   5   8
ENDBRANCH   3   4
ENDBRANCH   2   3
ENDBRANCH   1   2
BRANCH   1  27
ATOM     27  C   UNL A   1      37.781  21.300  24.920  1.00  0.00     0.002 C 
BRANCH  27  28
ATOM     28  C   UNL A   1      38.409  19.902  24.932  1.00  0.00     0.021 C 
BRANCH  28  29
ATOM     29  C   UNL A   1      39.230  19.577  26.178  1.00  0.00     0.116 C 
BRANCH  29  30
ATOM     30  N   UNL A   1      40.519  18.987  25.865  1.00  0.00    -0.352 N 
ATOM     31  C   UNL A   1      41.769  19.559  25.893  1.00  0.00     0.251 C 
ATOM     32  H   UNL A   1      40.494  18.041  25.595  1.00  0.00     0.163 HD
ATOM     33  O   UNL A   1      42.735  18.955  25.443  1.00  0.00    -0.269 OA
BRANCH  31  34
ATOM     34  C   UNL A   1      41.948  20.918  26.449  1.00  0.00     0.039 A 
ATOM     35  C   UNL A   1      41.874  21.107  27.830  1.00  0.00     0.014 A 
ATOM     36  C   UNL A   1      42.172  22.009  25.611  1.00  0.00     0.014 A 
ATOM     37  C   UNL A   1      42.100  22.377  28.373  1.00  0.00     0.010 A 
ATOM     38  C   UNL A   1      42.465  23.258  26.162  1.00  0.00     0.010 A 
ATOM     39  C   UNL A   1      42.447  23.462  27.548  1.00  0.00    -0.014 A 
BRANCH  39  40
ATOM     40  C   UNL A   1      42.807  24.794  28.118  1.00  0.00     0.031 A 
ATOM     41  C   UNL A   1      41.755  25.853  28.341  1.00  0.00     0.074 A 
ATOM     42  C   UNL A   1      44.098  25.089  28.378  1.00  0.00     0.049 A 
ATOM     43  N   UNL A   1      41.895  27.073  28.802  1.00  0.00    -0.248 NA
ATOM     44  C   UNL A   1      40.373  25.515  27.966  1.00  0.00     0.031 C 
ATOM     45  C   UNL A   1      45.237  24.195  28.152  1.00  0.00     0.029 A 
ATOM     46  N   UNL A   1      44.673  26.226  28.895  1.00  0.00    -0.354 N 
ATOM     47  C   UNL A   1      40.629  27.646  28.755  1.00  0.00     0.074 A 
ATOM     48  C   UNL A   1      39.749  26.667  28.156  1.00  0.00     0.031 C 
ATOM     49  C   UNL A   1      46.361  24.796  28.576  1.00  0.00     0.029 A 
ATOM     50  C   UNL A   1      46.034  26.133  29.059  1.00  0.00     0.049 A 
ATOM     51  H   UNL A   1      44.157  27.032  29.125  1.00  0.00     0.167 HD
ATOM     52  C   UNL A   1      40.222  28.861  29.192  1.00  0.00     0.031 A 
ATOM     53  C   UNL A   1      46.927  27.018  29.546  1.00  0.00     0.031 A 
ATOM     54  C   UNL A   1      41.084  29.837  29.804  1.00  0.00     0.049 A 
ATOM     55  C   UNL A   1      46.454  28.363  30.023  1.00  0.00     0.074 A 
ATOM     56  C   UNL A   1      40.747  31.067  30.344  1.00  0.00     0.029 A 
ATOM     57  N   UNL A   1      42.455  29.698  29.954  1.00  0.00    -0.354 N 
ATOM     58  N   UNL A   1      45.237  28.850  30.053  1.00  0.00    -0.248 NA
ATOM     59  C   UNL A   1      47.479  29.278  30.547  1.00  0.00     0.031 C 
ATOM     60  C   UNL A   1      41.921  31.698  30.765  1.00  0.00     0.029 A 
ATOM     61  C   UNL A   1      42.981  30.832  30.552  1.00  0.00     0.049 A 
ATOM     62  H   UNL A   1      42.977  28.911  29.678  1.00  0.00     0.167 HD
ATOM     63  C   UNL A   1      45.347  30.112  30.624  1.00  0.00     0.074 A 
ATOM     64  C   UNL A   1      46.745  30.309  30.943  1.00  0.00     0.031 C 
ATOM     65  C   UNL A   1      44.374  31.023  30.864  1.00  0.00     0.031 A 
BRANCH  52  66
ATOM     66  C   UNL A   1      38.765  29.206  29.024  1.00  0.00    -0.014 A 
ATOM     67  C   UNL A   1      38.258  29.651  27.791  1.00  0.00     0.009 A 
ATOM     68  C   UNL A   1      37.880  29.052  30.103  1.00  0.00     0.009 A 
ATOM     69  C   UNL A   1      36.908  29.980  27.657  1.00  0.00     0.001 A 
ATOM     70  C   UNL A   1      36.524  29.347  29.956  1.00  0.00     0.001 A 
ATOM     71  C   UNL A   1      36.040  29.824  28.738  1.00  0.00     0.000 A 
ENDBRANCH  52  66
BRANCH  53  72
ATOM     72  C   UNL A   1      48.368  26.654  29.634  1.00  0.00    -0.014 A 
ATOM     73  C   UNL A   1      49.248  26.972  28.588  1.00  0.00     0.009 A 
ATOM     74  C   UNL A   1      48.867  25.975  30.756  1.00  0.00     0.009 A 
ATOM     75  C   UNL A   1      50.591  26.593  28.652  1.00  0.00     0.001 A 
ATOM     76  C   UNL A   1      50.218  25.625  30.831  1.00  0.00     0.001 A 
ATOM     77  C   UNL A   1      51.076  25.925  29.775  1.00  0.00     0.000 A 
ENDBRANCH  53  72
BRANCH  65  78
ATOM     78  C   UNL A   1      44.777  32.306  31.540  1.00  0.00    -0.014 A 
ATOM     79  C   UNL A   1      44.808  32.421  32.938  1.00  0.00     0.009 A 
ATOM     80  C   UNL A   1      45.175  33.404  30.760  1.00  0.00     0.009 A 
ATOM     81  C   UNL A   1      45.196  33.621  33.541  1.00  0.00     0.001 A 
ATOM     82  C   UNL A   1      45.593  34.591  31.365  1.00  0.00     0.001 A 
ATOM     83  C   UNL A   1      45.593  34.701  32.754  1.00  0.00     0.000 A 
ENDBRANCH  65  78
ENDBRANCH  39  40
ENDBRANCH  31  34
ENDBRANCH  29  30
ENDBRANCH  28  29
ENDBRANCH  27  28
ENDBRANCH   1  27
TORSDOF 16
ENDMDL
MODEL 2
REMARK VINA RESULT:     -10.4      5.369     11.759
REMARK SMILES C[N@H+]1CCO[C@H](CNC(=O)N2CC[C@@](C)(C(=O)NCCCCCCNC(=O)c3ccc(-c4c5nc(c(-c6ccccc6)c6ccc([nH]6)c(-c6ccccc6)c6nc(c(-c7ccccc7)c7ccc4[nH]7)C=C6)C=C5)cc3)C2)C1
REMARK SMILES IDX 21 1 20 2 19 3 18 4 16 5 17 6 14 8 11 9 12 10 76 11 13 12
REMARK SMILES IDX 15 13 9 14 8 15 10 17 7 18 6 19 1 20 2 21 3 22 77 23 4 25
REMARK SMILES IDX 5 26 22 27 23 28 24 29 25 30 26 31 27 33 28 34 29 35 75 36
REMARK SMILES IDX 30 37 74 38 31 39 32 40 33 41 68 42 34 43 73 44 67 45 69 46
REMARK SMILES IDX 35 47 72 48 66 49 65 50 36 52 58 53 43 54 57 55 44 56 47 57
REMARK SMILES IDX 56 58 70 59 45 60 46 61 55 63 71 64 48 65 37 66 38 67 42 68
REMARK SMILES IDX 39 69 41 70 40 71 59 72 60 73 64 74 61 75 63 76 62 77 49 78
REMARK SMILES IDX 50 79 54 80 51 81 53 82 52 83
REMARK H PARENT 18 7 8 16 2 24 25 32 69 51 47 62
REMARK Flexibility Score: inf
ROOT
ATOM      1  C   UNL A   1      34.916  35.431  32.935  1.00  0.00     0.002 C 
ENDROOT
BRANCH   1   2
ATOM      2  C   UNL A   1      34.608  34.206  33.804  1.00  0.00     0.021 C 
BRANCH   2   3
ATOM      3  C   UNL A   1      35.821  33.322  34.100  1.00  0.00     0.116 C 
BRANCH   3   4
ATOM      4  N   UNL A   1      36.974  34.122  34.462  1.00  0.00    -0.356 N 
ATOM      5  C   UNL A   1      37.990  33.978  35.346  1.00  0.00     0.227 C 
ATOM      6  O   UNL A   1      38.693  34.988  35.479  1.00  0.00    -0.274 OA
ATOM      7  H   UNL A   1      37.032  34.960  33.949  1.00  0.00     0.163 HD
BRANCH   5   8
ATOM      8  C   UNL A   1      38.375  32.664  36.060  1.00  0.00     0.066 C 
ATOM      9  N   UNL A   1      39.460  30.909  34.841  1.00  0.00    -0.324 N 
ATOM     10  C   UNL A   1      40.511  31.798  35.305  1.00  0.00     0.122 C 
ATOM     11  C   UNL A   1      38.144  31.367  35.278  1.00  0.00     0.138 C 
ATOM     12  C   UNL A   1      39.881  32.661  36.377  1.00  0.00     0.040 C 
ATOM     13  C   UNL A   1      37.579  32.589  37.382  1.00  0.00     0.024 C 
BRANCH   9  14
ATOM     14  C   UNL A   1      39.805  29.707  34.305  1.00  0.00     0.317 C 
ATOM     15  N   UNL A   1      40.917  29.059  34.698  1.00  0.00    -0.335 N 
ATOM     16  H   UNL A   1      41.398  28.609  33.966  1.00  0.00     0.165 HD
ATOM     17  O   UNL A   1      39.126  29.166  33.430  1.00  0.00    -0.249 OA
BRANCH  15  18
ATOM     18  C   UNL A   1      41.540  28.898  36.002  1.00  0.00     0.155 C 
BRANCH  18  19
ATOM     19  C   UNL A   1      41.919  27.426  36.279  1.00  0.00     0.192 C 
ATOM     20  C   UNL A   1      43.977  25.107  35.845  1.00  0.00     0.332 C 
ATOM     21  N   UNL A   1      42.734  25.313  35.124  1.00  0.00    -0.333 N 
ATOM     22  C   UNL A   1      41.602  24.635  35.794  1.00  0.00     0.290 C 
ATOM     23  C   UNL A   1      42.433  26.752  34.982  1.00  0.00     0.296 C 
ATOM     24  H   UNL A   1      42.857  24.907  34.195  1.00  0.00     0.348 HD
ATOM     25  C   UNL A   1      41.126  25.344  37.069  1.00  0.00     0.222 C 
ATOM     26  O   UNL A   1      40.773  26.703  36.777  1.00  0.00    -0.365 OA
ENDBRANCH  18  19
ENDBRANCH  15  18
ENDBRANCH   9  14
ENDBRANCH   5   8
ENDBRANCH   3   4
ENDBRANCH   2   3
ENDBRANCH   1   2
BRANCH   1  27
ATOM     27  C   UNL A   1      33.797  36.477  32.855  1.00  0.00     0.002 C 
BRANCH  27  28
ATOM     28  C   UNL A   1      32.747  36.240  31.765  1.00  0.00     0.021 C 
BRANCH  28  29
ATOM     29  C   UNL A   1      33.246  36.446  30.337  1.00  0.00     0.116 C 
BRANCH  29  30
ATOM     30  N   UNL A   1      32.645  35.523  29.391  1.00  0.00    -0.352 N 
ATOM     31  C   UNL A   1      33.190  34.411  28.793  1.00  0.00     0.251 C 
ATOM     32  H   UNL A   1      31.715  35.723  29.141  1.00  0.00     0.163 HD
ATOM     33  O   UNL A   1      32.588  33.836  27.894  1.00  0.00    -0.269 OA
BRANCH  31  34
ATOM     34  C   UNL A   1      34.516  33.916  29.222  1.00  0.00     0.039 A 
ATOM     35  C   UNL A   1      34.595  32.972  30.247  1.00  0.00     0.014 A 
ATOM     36  C   UNL A   1      35.682  34.393  28.626  1.00  0.00     0.014 A 
ATOM     37  C   UNL A   1      35.840  32.452  30.621  1.00  0.00     0.010 A 
ATOM     38  C   UNL A   1      36.913  33.820  28.955  1.00  0.00     0.010 A 
ATOM     39  C   UNL A   1      37.013  32.834  29.947  1.00  0.00    -0.014 A 
BRANCH  39  40
ATOM     40  C   UNL A   1      38.331  32.204  30.251  1.00  0.00     0.031 A 
ATOM     41  C   UNL A   1      39.346  32.907  31.119  1.00  0.00     0.074 A 
ATOM     42  C   UNL A   1      38.656  31.019  29.692  1.00  0.00     0.049 A 
ATOM     43  N   UNL A   1      40.550  32.517  31.465  1.00  0.00    -0.248 NA
ATOM     44  C   UNL A   1      38.978  34.233  31.639  1.00  0.00     0.031 C 
ATOM     45  C   UNL A   1      37.810  30.248  28.777  1.00  0.00     0.029 A 
ATOM     46  N   UNL A   1      39.790  30.249  29.816  1.00  0.00    -0.354 N 
ATOM     47  C   UNL A   1      41.083  33.553  32.223  1.00  0.00     0.074 A 
ATOM     48  C   UNL A   1      40.101  34.616  32.228  1.00  0.00     0.031 C 
ATOM     49  C   UNL A   1      38.429  29.098  28.467  1.00  0.00     0.029 A 
ATOM     50  C   UNL A   1      39.734  29.066  29.118  1.00  0.00     0.049 A 
ATOM     51  H   UNL A   1      40.569  30.521  30.352  1.00  0.00     0.167 HD
ATOM     52  C   UNL A   1      42.265  33.614  32.880  1.00  0.00     0.031 A 
ATOM     53  C   UNL A   1      40.627  28.061  29.011  1.00  0.00     0.031 A 
ATOM     54  C   UNL A   1      43.243  32.558  32.897  1.00  0.00     0.049 A 
ATOM     55  C   UNL A   1      41.935  28.150  29.747  1.00  0.00     0.074 A 
ATOM     56  C   UNL A   1      44.437  32.501  33.594  1.00  0.00     0.029 A 
ATOM     57  N   UNL A   1      43.141  31.376  32.180  1.00  0.00    -0.354 N 
ATOM     58  N   UNL A   1      42.380  29.101  30.532  1.00  0.00    -0.248 NA
ATOM     59  C   UNL A   1      42.860  27.018  29.592  1.00  0.00     0.031 C 
ATOM     60  C   UNL A   1      45.088  31.311  33.252  1.00  0.00     0.029 A 
ATOM     61  C   UNL A   1      44.266  30.596  32.396  1.00  0.00     0.049 A 
ATOM     62  H   UNL A   1      42.383  31.127  31.604  1.00  0.00     0.167 HD
ATOM     63  C   UNL A   1      43.621  28.669  30.986  1.00  0.00     0.074 A 
ATOM     64  C   UNL A   1      43.850  27.363  30.404  1.00  0.00     0.031 C 
ATOM     65  C   UNL A   1      44.490  29.299  31.813  1.00  0.00     0.031 A 
BRANCH  52  66
ATOM     66  C   UNL A   1      42.569  34.876  33.645  1.00  0.00    -0.014 A 
ATOM     67  C   UNL A   1      43.189  35.974  33.026  1.00  0.00     0.009 A 
ATOM     68  C   UNL A   1      42.201  34.981  34.996  1.00  0.00     0.009 A 
ATOM     69  C   UNL A   1      43.476  37.130  33.753  1.00  0.00     0.001 A 
ATOM     70  C   UNL A   1      42.457  36.152  35.712  1.00  0.00     0.001 A 
ATOM     71  C   UNL A   1      43.106  37.221  35.094  1.00  0.00     0.000 A 
ENDBRANCH  52  66
BRANCH  53  72
ATOM     72  C   UNL A   1      40.306  26.861  28.192  1.00  0.00    -0.014 A 
ATOM     73  C   UNL A   1      40.782  26.750  26.875  1.00  0.00     0.009 A 
ATOM     74  C   UNL A   1      39.512  25.829  28.714  1.00  0.00     0.009 A 
ATOM     75  C   UNL A   1      40.446  25.643  26.092  1.00  0.00     0.001 A 
ATOM     76  C   UNL A   1      39.204  24.708  27.938  1.00  0.00     0.001 A 
ATOM     77  C   UNL A   1      39.662  24.622  26.625  1.00  0.00     0.000 A 
ENDBRANCH  53  72
BRANCH  65  78
ATOM     78  C   UNL A   1      45.756  28.570  32.173  1.00  0.00    -0.014 A 
ATOM     79  C   UNL A   1      46.958  28.804  31.487  1.00  0.00     0.009 A 
ATOM     80  C   UNL A   1      45.753  27.668  33.249  1.00  0.00     0.009 A 
ATOM     81  C   UNL A   1      48.122  28.121  31.849  1.00  0.00     0.001 A 
ATOM     82  C   UNL A   1      46.925  27.011  33.629  1.00  0.00     0.001 A 
ATOM     83  C   UNL A   1      48.106  27.231  32.922  1.00  0.00     0.000 A 
ENDBRANCH  65  78
ENDBRANCH  39  40
ENDBRANCH  31  34
ENDBRANCH  29  30
ENDBRANCH  28  29
ENDBRANCH  27  28
ENDBRANCH   1  27
TORSDOF 16
ENDMDL
MODEL 3
REMARK VINA RESULT:     -10.3      5.450     11.739
REMARK SMILES C[N@H+]1CCO[C@H](CNC(=O)N2CC[C@@](C)(C(=O)NCCCCCCNC(=O)c3ccc(-c4c5nc(c(-c6ccccc6)c6ccc([nH]6)c(-c6ccccc6)c6nc(c(-c7ccccc7)c7ccc4[nH]7)C=C6)C=C5)cc3)C2)C1
REMARK SMILES IDX 21 1 20 2 19 3 18 4 16 5 17 6 14 8 11 9 12 10 76 11 13 12
REMARK SMILES IDX 15 13 9 14 8 15 10 17 7 18 6 19 1 20 2 21 3 22 77 23 4 25
REMARK SMILES IDX 5 26 22 27 23 28 24 29 25 30 26 31 27 33 28 34 29 35 75 36
REMARK SMILES IDX 30 37 74 38 31 39 32 40 33 41 68 42 34 43 73 44 67 45 69 46
REMARK SMILES IDX 35 47 72 48 66 49 65 50 36 52 58 53 43 54 57 55 44 56 47 57
REMARK SMILES IDX 56 58 70 59 45 60 46 61 55 63 71 64 48 65 37 66 38 67 42 68
REMARK SMILES IDX 39 69 41 70 40 71 59 72 60 73 64 74 61 75 63 76 62 77 49 78
REMARK SMILES IDX 50 79 54 80 51 81 53 82 52 83
REMARK H PARENT 18 7 8 16 2 24 25 32 69 51 47 62
REMARK Flexibility Score: inf
ROOT
ATOM      1  C   UNL A   1      35.185  35.198  33.178  1.00  0.00     0.002 C 
ENDROOT
BRANCH   1   2
ATOM      2  C   UNL A   1      34.913  33.944  34.017  1.00  0.00     0.021 C 
BRANCH   2   3
ATOM      3  C   UNL A   1      36.144  33.071  34.266  1.00  0.00     0.116 C 
BRANCH   3   4
ATOM      4  N   UNL A   1      37.191  33.822  34.930  1.00  0.00    -0.356 N 
ATOM      5  C   UNL A   1      38.113  33.530  35.878  1.00  0.00     0.227 C 
ATOM      6  O   UNL A   1      38.723  34.516  36.312  1.00  0.00    -0.274 OA
ATOM      7  H   UNL A   1      37.244  34.756  34.623  1.00  0.00     0.163 HD
BRANCH   5   8
ATOM      8  C   UNL A   1      38.513  32.109  36.331  1.00  0.00     0.066 C 
ATOM      9  N   UNL A   1      39.716  30.669  34.839  1.00  0.00    -0.324 N 
ATOM     10  C   UNL A   1      40.711  31.472  35.528  1.00  0.00     0.122 C 
ATOM     11  C   UNL A   1      38.365  30.993  35.291  1.00  0.00     0.138 C 
ATOM     12  C   UNL A   1      40.002  32.081  36.718  1.00  0.00     0.040 C 
ATOM     13  C   UNL A   1      37.660  31.745  37.566  1.00  0.00     0.024 C 
BRANCH   9  14
ATOM     14  C   UNL A   1      40.129  29.611  34.089  1.00  0.00     0.317 C 
ATOM     15  N   UNL A   1      41.408  29.195  34.111  1.00  0.00    -0.335 N 
ATOM     16  H   UNL A   1      41.752  28.913  33.233  1.00  0.00     0.165 HD
ATOM     17  O   UNL A   1      39.356  28.997  33.350  1.00  0.00    -0.249 OA
BRANCH  15  18
ATOM     18  C   UNL A   1      42.376  29.084  35.190  1.00  0.00     0.155 C 
BRANCH  18  19
ATOM     19  C   UNL A   1      42.418  27.655  35.779  1.00  0.00     0.192 C 
ATOM     20  C   UNL A   1      43.792  24.841  35.775  1.00  0.00     0.332 C 
ATOM     21  N   UNL A   1      42.561  25.209  35.098  1.00  0.00    -0.333 N 
ATOM     22  C   UNL A   1      41.384  25.005  35.972  1.00  0.00     0.290 C 
ATOM     23  C   UNL A   1      42.602  26.614  34.645  1.00  0.00     0.296 C 
ATOM     24  H   UNL A   1      42.475  24.600  34.284  1.00  0.00     0.348 HD
ATOM     25  C   UNL A   1      41.243  26.065  37.072  1.00  0.00     0.222 C 
ATOM     26  O   UNL A   1      41.197  27.377  36.495  1.00  0.00    -0.365 OA
ENDBRANCH  18  19
ENDBRANCH  15  18
ENDBRANCH   9  14
ENDBRANCH   5   8
ENDBRANCH   3   4
ENDBRANCH   2   3
ENDBRANCH   1   2
BRANCH   1  27
ATOM     27  C   UNL A   1      34.116  36.293  33.269  1.00  0.00     0.002 C 
BRANCH  27  28
ATOM     28  C   UNL A   1      33.030  36.248  32.189  1.00  0.00     0.021 C 
BRANCH  28  29
ATOM     29  C   UNL A   1      33.531  36.470  30.764  1.00  0.00     0.116 C 
BRANCH  29  30
ATOM     30  N   UNL A   1      32.763  35.735  29.775  1.00  0.00    -0.352 N 
ATOM     31  C   UNL A   1      33.134  34.652  29.014  1.00  0.00     0.251 C 
ATOM     32  H   UNL A   1      31.845  36.059  29.629  1.00  0.00     0.163 HD
ATOM     33  O   UNL A   1      32.408  34.254  28.111  1.00  0.00    -0.269 OA
BRANCH  31  34
ATOM     34  C   UNL A   1      34.423  33.973  29.272  1.00  0.00     0.039 A 
ATOM     35  C   UNL A   1      35.530  34.284  28.483  1.00  0.00     0.014 A 
ATOM     36  C   UNL A   1      34.536  33.018  30.282  1.00  0.00     0.014 A 
ATOM     37  C   UNL A   1      36.770  33.693  28.756  1.00  0.00     0.010 A 
ATOM     38  C   UNL A   1      35.789  32.484  30.594  1.00  0.00     0.010 A 
ATOM     39  C   UNL A   1      36.927  32.820  29.847  1.00  0.00    -0.014 A 
BRANCH  39  40
ATOM     40  C   UNL A   1      38.263  32.273  30.225  1.00  0.00     0.031 A 
ATOM     41  C   UNL A   1      38.737  30.944  29.690  1.00  0.00     0.074 A 
ATOM     42  C   UNL A   1      39.037  32.936  31.110  1.00  0.00     0.049 A 
ATOM     43  N   UNL A   1      39.858  30.307  29.934  1.00  0.00    -0.248 NA
ATOM     44  C   UNL A   1      37.825  30.218  28.793  1.00  0.00     0.031 C 
ATOM     45  C   UNL A   1      38.687  34.199  31.767  1.00  0.00     0.029 A 
ATOM     46  N   UNL A   1      40.285  32.642  31.609  1.00  0.00    -0.354 N 
ATOM     47  C   UNL A   1      39.773  29.106  29.237  1.00  0.00     0.074 A 
ATOM     48  C   UNL A   1      38.466  29.073  28.619  1.00  0.00     0.031 C 
ATOM     49  C   UNL A   1      39.714  34.594  32.537  1.00  0.00     0.029 A 
ATOM     50  C   UNL A   1      40.775  33.595  32.469  1.00  0.00     0.049 A 
ATOM     51  H   UNL A   1      40.779  31.825  31.372  1.00  0.00     0.167 HD
ATOM     52  C   UNL A   1      40.701  28.130  29.096  1.00  0.00     0.031 A 
ATOM     53  C   UNL A   1      41.947  33.667  33.131  1.00  0.00     0.031 A 
ATOM     54  C   UNL A   1      42.011  28.160  29.692  1.00  0.00     0.049 A 
ATOM     55  C   UNL A   1      42.962  32.570  32.962  1.00  0.00     0.074 A 
ATOM     56  C   UNL A   1      43.044  27.250  29.546  1.00  0.00     0.029 A 
ATOM     57  N   UNL A   1      42.466  29.147  30.552  1.00  0.00    -0.354 N 
ATOM     58  N   UNL A   1      42.897  31.488  32.226  1.00  0.00    -0.248 NA
ATOM     59  C   UNL A   1      44.222  32.714  33.709  1.00  0.00     0.031 C 
ATOM     60  C   UNL A   1      44.103  27.655  30.365  1.00  0.00     0.029 A 
ATOM     61  C   UNL A   1      43.755  28.852  30.966  1.00  0.00     0.049 A 
ATOM     62  H   UNL A   1      41.951  29.939  30.827  1.00  0.00     0.167 HD
ATOM     63  C   UNL A   1      44.114  30.839  32.398  1.00  0.00     0.074 A 
ATOM     64  C   UNL A   1      44.906  31.657  33.292  1.00  0.00     0.031 C 
ATOM     65  C   UNL A   1      44.537  29.670  31.859  1.00  0.00     0.031 A 
BRANCH  52  66
ATOM     66  C   UNL A   1      40.330  26.937  28.255  1.00  0.00    -0.014 A 
ATOM     67  C   UNL A   1      40.778  26.810  26.930  1.00  0.00     0.009 A 
ATOM     68  C   UNL A   1      39.548  25.908  28.805  1.00  0.00     0.009 A 
ATOM     69  C   UNL A   1      40.413  25.705  26.160  1.00  0.00     0.001 A 
ATOM     70  C   UNL A   1      39.215  24.786  28.045  1.00  0.00     0.001 A 
ATOM     71  C   UNL A   1      39.636  24.691  26.719  1.00  0.00     0.000 A 
ENDBRANCH  52  66
BRANCH  53  72
ATOM     72  C   UNL A   1      42.243  34.837  34.001  1.00  0.00    -0.014 A 
ATOM     73  C   UNL A   1      41.945  34.799  35.373  1.00  0.00     0.009 A 
ATOM     74  C   UNL A   1      42.811  36.003  33.465  1.00  0.00     0.009 A 
ATOM     75  C   UNL A   1      42.184  35.912  36.182  1.00  0.00     0.001 A 
ATOM     76  C   UNL A   1      43.078  37.104  34.283  1.00  0.00     0.001 A 
ATOM     77  C   UNL A   1      42.754  37.062  35.637  1.00  0.00     0.000 A 
ENDBRANCH  53  72
BRANCH  65  78
ATOM     78  C   UNL A   1      45.934  29.219  32.188  1.00  0.00    -0.014 A 
ATOM     79  C   UNL A   1      46.193  28.357  33.264  1.00  0.00     0.009 A 
ATOM     80  C   UNL A   1      47.004  29.631  31.376  1.00  0.00     0.009 A 
ATOM     81  C   UNL A   1      47.499  27.945  33.543  1.00  0.00     0.001 A 
ATOM     82  C   UNL A   1      48.303  29.193  31.637  1.00  0.00     0.001 A 
ATOM     83  C   UNL A   1      48.551  28.359  32.725  1.00  0.00     0.000 A 
ENDBRANCH  65  78
ENDBRANCH  39  40
ENDBRANCH  31  34
ENDBRANCH  29  30
ENDBRANCH  28  29
ENDBRANCH  27  28
ENDBRANCH   1  27
TORSDOF 16
ENDMDL
