MODEL 1
REMARK VINA RESULT:     -10.8      0.000      0.000
REMARK SMILES Cc1cccc(Cl)c1Nc1ccccc1CC(=O)NCCCCCCNC(=O)c1ccc(-c2c3nc(c(-c4ccccc4)c4ccc([nH]4)c(-c4ccccc4)c4nc(c(-c5ccccc5)c5ccc2[nH]5)C=C4)C=C3)cc1
REMARK SMILES IDX 22 1 21 2 20 3 19 4 17 5 18 6 16 8 15 9 10 10 11 11 12 12
REMARK SMILES IDX 14 13 13 14 9 15 8 17 1 18 2 19 3 20 4 21 6 22 5 23 7 24
REMARK SMILES IDX 23 25 24 26 25 27 26 28 27 29 28 31 29 32 30 33 76 34 31 35
REMARK SMILES IDX 75 36 32 37 33 38 34 39 69 40 35 41 74 42 68 43 70 44 36 45
REMARK SMILES IDX 73 46 67 47 66 48 37 50 59 51 44 52 58 53 45 54 48 55 57 56
REMARK SMILES IDX 71 57 46 58 47 59 56 61 72 62 49 63 38 64 39 65 43 66 40 67
REMARK SMILES IDX 42 68 41 69 60 70 61 71 65 72 62 73 64 74 63 75 50 76 51 77
REMARK SMILES IDX 55 78 52 79 54 80 53 81
REMARK H PARENT 19 7 9 16 26 30 70 49 48 60
REMARK Flexibility Score: inf
ROOT
ATOM      1  C   UNL A   1      33.167  26.080  24.105  1.00  0.00     0.002 C 
ENDROOT
BRANCH   1   2
ATOM      2  C   UNL A   1      31.776  26.119  23.458  1.00  0.00     0.021 C 
BRANCH   2   3
ATOM      3  C   UNL A   1      31.235  24.737  23.089  1.00  0.00     0.116 C 
BRANCH   3   4
ATOM      4  N   UNL A   1      30.997  23.942  24.276  1.00  0.00    -0.356 N 
ATOM      5  C   UNL A   1      31.572  22.753  24.625  1.00  0.00     0.224 C 
ATOM      6  O   UNL A   1      31.126  22.149  25.602  1.00  0.00    -0.275 OA
ATOM      7  H   UNL A   1      30.338  24.304  24.912  1.00  0.00     0.163 HD
BRANCH   5   8
ATOM      8  C   UNL A   1      32.775  22.241  23.849  1.00  0.00     0.137 C 
BRANCH   8   9
ATOM      9  C   UNL A   1      32.977  20.740  23.913  1.00  0.00    -0.015 A 
ATOM     10  C   UNL A   1      33.895  20.118  24.789  1.00  0.00     0.042 A 
ATOM     11  C   UNL A   1      34.071  18.724  24.701  1.00  0.00     0.026 A 
ATOM     12  C   UNL A   1      33.340  17.951  23.799  1.00  0.00     0.002 A 
ATOM     13  C   UNL A   1      32.226  19.939  23.027  1.00  0.00     0.006 A 
ATOM     14  C   UNL A   1      32.407  18.559  22.969  1.00  0.00     0.000 A 
BRANCH  10  15
ATOM     15  N   UNL A   1      34.627  20.787  25.793  1.00  0.00    -0.354 N 
ATOM     16  H   UNL A   1      34.246  20.685  26.695  1.00  0.00     0.167 HD
BRANCH  15  17
ATOM     17  C   UNL A   1      35.801  21.578  25.758  1.00  0.00     0.060 A 
ATOM     18  C   UNL A   1      34.382  23.568  26.519  1.00  0.00     0.046 C 
ATOM     19  C   UNL A   1      35.701  22.942  26.141  1.00  0.00    -0.026 A 
ATOM     20  C   UNL A   1      36.857  23.741  26.217  1.00  0.00     0.005 A 
ATOM     21  C   UNL A   1      38.107  23.217  25.909  1.00  0.00     0.002 A 
ATOM     22  C   UNL A   1      37.081  21.079  25.419  1.00  0.00     0.064 A 
ATOM     23  C   UNL A   1      38.218  21.893  25.504  1.00  0.00     0.023 A 
ATOM     24  Cl  UNL A   1      37.338  19.492  24.774  1.00  0.00    -0.082 Cl
ENDBRANCH  15  17
ENDBRANCH  10  15
ENDBRANCH   8   9
ENDBRANCH   5   8
ENDBRANCH   3   4
ENDBRANCH   2   3
ENDBRANCH   1   2
BRANCH   1  25
ATOM     25  C   UNL A   1      33.602  27.389  24.773  1.00  0.00     0.002 C 
BRANCH  25  26
ATOM     26  C   UNL A   1      32.817  27.763  26.033  1.00  0.00     0.021 C 
BRANCH  26  27
ATOM     27  C   UNL A   1      33.677  28.272  27.185  1.00  0.00     0.116 C 
BRANCH  27  28
ATOM     28  N   UNL A   1      33.531  29.706  27.379  1.00  0.00    -0.352 N 
ATOM     29  C   UNL A   1      34.392  30.601  27.956  1.00  0.00     0.251 C 
ATOM     30  H   UNL A   1      32.689  30.091  27.046  1.00  0.00     0.163 HD
ATOM     31  O   UNL A   1      34.010  31.740  28.221  1.00  0.00    -0.269 OA
BRANCH  29  32
ATOM     32  C   UNL A   1      35.779  30.203  28.274  1.00  0.00     0.039 A 
ATOM     33  C   UNL A   1      36.061  29.713  29.552  1.00  0.00     0.014 A 
ATOM     34  C   UNL A   1      36.803  30.340  27.332  1.00  0.00     0.014 A 
ATOM     35  C   UNL A   1      37.362  29.317  29.869  1.00  0.00     0.010 A 
ATOM     36  C   UNL A   1      38.083  29.879  27.627  1.00  0.00     0.010 A 
ATOM     37  C   UNL A   1      38.378  29.371  28.901  1.00  0.00    -0.014 A 
BRANCH  37  38
ATOM     38  C   UNL A   1      39.749  28.899  29.212  1.00  0.00     0.031 A 
ATOM     39  C   UNL A   1      40.714  29.787  29.946  1.00  0.00     0.074 A 
ATOM     40  C   UNL A   1      40.141  27.680  28.791  1.00  0.00     0.049 A 
ATOM     41  N   UNL A   1      41.953  29.547  30.298  1.00  0.00    -0.248 NA
ATOM     42  C   UNL A   1      40.237  31.130  30.313  1.00  0.00     0.031 C 
ATOM     43  C   UNL A   1      39.315  26.742  28.027  1.00  0.00     0.029 A 
ATOM     44  N   UNL A   1      41.335  27.023  28.948  1.00  0.00    -0.354 N 
ATOM     45  C   UNL A   1      42.404  30.708  30.911  1.00  0.00     0.074 A 
ATOM     46  C   UNL A   1      41.325  31.670  30.840  1.00  0.00     0.031 C 
ATOM     47  C   UNL A   1      40.017  25.618  27.810  1.00  0.00     0.029 A 
ATOM     48  C   UNL A   1      41.347  25.768  28.388  1.00  0.00     0.049 A 
ATOM     49  H   UNL A   1      42.107  27.413  29.416  1.00  0.00     0.167 HD
ATOM     50  C   UNL A   1      43.600  30.948  31.499  1.00  0.00     0.031 A 
ATOM     51  C   UNL A   1      42.322  24.841  28.348  1.00  0.00     0.031 A 
ATOM     52  C   UNL A   1      44.671  29.989  31.579  1.00  0.00     0.049 A 
ATOM     53  C   UNL A   1      43.639  25.128  29.013  1.00  0.00     0.074 A 
ATOM     54  C   UNL A   1      45.897  30.115  32.208  1.00  0.00     0.029 A 
ATOM     55  N   UNL A   1      44.641  28.726  31.009  1.00  0.00    -0.354 N 
ATOM     56  N   UNL A   1      44.022  26.205  29.656  1.00  0.00    -0.248 NA
ATOM     57  C   UNL A   1      44.650  24.065  28.958  1.00  0.00     0.031 C 
ATOM     58  C   UNL A   1      46.631  28.947  31.974  1.00  0.00     0.029 A 
ATOM     59  C   UNL A   1      45.838  28.071  31.249  1.00  0.00     0.049 A 
ATOM     60  H   UNL A   1      43.882  28.349  30.508  1.00  0.00     0.167 HD
ATOM     61  C   UNL A   1      45.308  25.938  30.104  1.00  0.00     0.074 A 
ATOM     62  C   UNL A   1      45.632  24.593  29.676  1.00  0.00     0.031 C 
ATOM     63  C   UNL A   1      46.149  26.736  30.808  1.00  0.00     0.031 A 
BRANCH  50  64
ATOM     64  C   UNL A   1      43.816  32.311  32.098  1.00  0.00    -0.014 A 
ATOM     65  C   UNL A   1      44.350  33.364  31.338  1.00  0.00     0.009 A 
ATOM     66  C   UNL A   1      43.453  32.554  33.431  1.00  0.00     0.009 A 
ATOM     67  C   UNL A   1      44.551  34.620  31.912  1.00  0.00     0.001 A 
ATOM     68  C   UNL A   1      43.628  33.820  33.995  1.00  0.00     0.001 A 
ATOM     69  C   UNL A   1      44.187  34.849  33.238  1.00  0.00     0.000 A 
ENDBRANCH  50  64
BRANCH  51  70
ATOM     70  C   UNL A   1      42.081  23.540  27.672  1.00  0.00    -0.014 A 
ATOM     71  C   UNL A   1      42.441  23.359  26.327  1.00  0.00     0.009 A 
ATOM     72  C   UNL A   1      41.490  22.474  28.366  1.00  0.00     0.009 A 
ATOM     73  C   UNL A   1      42.188  22.145  25.685  1.00  0.00     0.001 A 
ATOM     74  C   UNL A   1      41.264  21.252  27.728  1.00  0.00     0.001 A 
ATOM     75  C   UNL A   1      41.604  21.092  26.386  1.00  0.00     0.000 A 
ENDBRANCH  51  70
BRANCH  63  76
ATOM     76  C   UNL A   1      47.487  26.161  31.178  1.00  0.00    -0.014 A 
ATOM     77  C   UNL A   1      47.716  25.609  32.447  1.00  0.00     0.009 A 
ATOM     78  C   UNL A   1      48.524  26.152  30.234  1.00  0.00     0.009 A 
ATOM     79  C   UNL A   1      48.973  25.097  32.777  1.00  0.00     0.001 A 
ATOM     80  C   UNL A   1      49.770  25.612  30.555  1.00  0.00     0.001 A 
ATOM     81  C   UNL A   1      49.997  25.095  31.830  1.00  0.00     0.000 A 
ENDBRANCH  63  76
ENDBRANCH  37  38
ENDBRANCH  29  32
ENDBRANCH  27  28
ENDBRANCH  26  27
ENDBRANCH  25  26
ENDBRANCH   1  25
TORSDOF 16
ENDMDL
MODEL 2
REMARK VINA RESULT:     -10.7      0.457      5.955
REMARK SMILES Cc1cccc(Cl)c1Nc1ccccc1CC(=O)NCCCCCCNC(=O)c1ccc(-c2c3nc(c(-c4ccccc4)c4ccc([nH]4)c(-c4ccccc4)c4nc(c(-c5ccccc5)c5ccc2[nH]5)C=C4)C=C3)cc1
REMARK SMILES IDX 22 1 21 2 20 3 19 4 17 5 18 6 16 8 15 9 10 10 11 11 12 12
REMARK SMILES IDX 14 13 13 14 9 15 8 17 1 18 2 19 3 20 4 21 6 22 5 23 7 24
REMARK SMILES IDX 23 25 24 26 25 27 26 28 27 29 28 31 29 32 30 33 76 34 31 35
REMARK SMILES IDX 75 36 32 37 33 38 34 39 69 40 35 41 74 42 68 43 70 44 36 45
REMARK SMILES IDX 73 46 67 47 66 48 37 50 59 51 44 52 58 53 45 54 48 55 57 56
REMARK SMILES IDX 71 57 46 58 47 59 56 61 72 62 49 63 38 64 39 65 43 66 40 67
REMARK SMILES IDX 42 68 41 69 60 70 61 71 65 72 62 73 64 74 63 75 50 76 51 77
REMARK SMILES IDX 55 78 52 79 54 80 53 81
REMARK H PARENT 19 7 9 16 26 30 70 49 48 60
REMARK Flexibility Score: inf
ROOT
ATOM      1  C   UNL A   1      33.391  26.393  24.078  1.00  0.00     0.002 C 
ENDROOT
BRANCH   1   2
ATOM      2  C   UNL A   1      32.066  26.348  23.306  1.00  0.00     0.021 C 
BRANCH   2   3
ATOM      3  C   UNL A   1      31.658  24.939  22.874  1.00  0.00     0.116 C 
BRANCH   3   4
ATOM      4  N   UNL A   1      31.255  24.145  24.016  1.00  0.00    -0.356 N 
ATOM      5  C   UNL A   1      31.666  22.887  24.356  1.00  0.00     0.224 C 
ATOM      6  O   UNL A   1      31.092  22.312  25.284  1.00  0.00    -0.275 OA
ATOM      7  H   UNL A   1      30.604  24.564  24.624  1.00  0.00     0.163 HD
BRANCH   5   8
ATOM      8  C   UNL A   1      32.848  22.260  23.637  1.00  0.00     0.137 C 
BRANCH   8   9
ATOM      9  C   UNL A   1      32.973  20.759  23.813  1.00  0.00    -0.015 A 
ATOM     10  C   UNL A   1      33.813  20.159  24.778  1.00  0.00     0.042 A 
ATOM     11  C   UNL A   1      33.924  18.756  24.795  1.00  0.00     0.026 A 
ATOM     12  C   UNL A   1      33.204  17.955  23.908  1.00  0.00     0.002 A 
ATOM     13  C   UNL A   1      32.230  19.933  22.944  1.00  0.00     0.006 A 
ATOM     14  C   UNL A   1      32.346  18.545  22.989  1.00  0.00     0.000 A 
BRANCH  10  15
ATOM     15  N   UNL A   1      34.523  20.863  25.774  1.00  0.00    -0.354 N 
ATOM     16  H   UNL A   1      34.124  20.791  26.671  1.00  0.00     0.167 HD
BRANCH  15  17
ATOM     17  C   UNL A   1      35.697  21.654  25.735  1.00  0.00     0.060 A 
ATOM     18  C   UNL A   1      34.270  23.654  26.457  1.00  0.00     0.046 C 
ATOM     19  C   UNL A   1      35.593  23.024  26.098  1.00  0.00    -0.026 A 
ATOM     20  C   UNL A   1      36.747  23.825  26.170  1.00  0.00     0.005 A 
ATOM     21  C   UNL A   1      38.001  23.298  25.879  1.00  0.00     0.002 A 
ATOM     22  C   UNL A   1      36.980  21.152  25.412  1.00  0.00     0.064 A 
ATOM     23  C   UNL A   1      38.115  21.969  25.494  1.00  0.00     0.023 A 
ATOM     24  Cl  UNL A   1      37.243  19.556  24.793  1.00  0.00    -0.082 Cl
ENDBRANCH  15  17
ENDBRANCH  10  15
ENDBRANCH   8   9
ENDBRANCH   5   8
ENDBRANCH   3   4
ENDBRANCH   2   3
ENDBRANCH   1   2
BRANCH   1  25
ATOM     25  C   UNL A   1      33.709  27.743  24.731  1.00  0.00     0.002 C 
BRANCH  25  26
ATOM     26  C   UNL A   1      32.881  28.068  25.977  1.00  0.00     0.021 C 
BRANCH  26  27
ATOM     27  C   UNL A   1      33.706  28.417  27.212  1.00  0.00     0.116 C 
BRANCH  27  28
ATOM     28  N   UNL A   1      33.639  29.835  27.526  1.00  0.00    -0.352 N 
ATOM     29  C   UNL A   1      34.558  30.634  28.152  1.00  0.00     0.251 C 
ATOM     30  H   UNL A   1      32.811  30.288  27.248  1.00  0.00     0.163 HD
ATOM     31  O   UNL A   1      34.241  31.765  28.520  1.00  0.00    -0.269 OA
BRANCH  29  32
ATOM     32  C   UNL A   1      35.928  30.142  28.401  1.00  0.00     0.039 A 
ATOM     33  C   UNL A   1      36.872  30.230  27.375  1.00  0.00     0.014 A 
ATOM     34  C   UNL A   1      36.275  29.567  29.628  1.00  0.00     0.014 A 
ATOM     35  C   UNL A   1      38.177  29.785  27.594  1.00  0.00     0.010 A 
ATOM     36  C   UNL A   1      37.593  29.188  29.868  1.00  0.00     0.010 A 
ATOM     37  C   UNL A   1      38.556  29.285  28.852  1.00  0.00    -0.014 A 
BRANCH  37  38
ATOM     38  C   UNL A   1      39.954  28.864  29.112  1.00  0.00     0.031 A 
ATOM     39  C   UNL A   1      40.425  27.495  28.707  1.00  0.00     0.074 A 
ATOM     40  C   UNL A   1      40.789  29.702  29.755  1.00  0.00     0.049 A 
ATOM     41  N   UNL A   1      41.608  26.951  28.860  1.00  0.00    -0.248 NA
ATOM     42  C   UNL A   1      39.436  26.610  28.071  1.00  0.00     0.031 C 
ATOM     43  C   UNL A   1      40.440  31.038  30.243  1.00  0.00     0.029 A 
ATOM     44  N   UNL A   1      42.107  29.552  30.108  1.00  0.00    -0.354 N 
ATOM     45  C   UNL A   1      41.499  25.662  28.353  1.00  0.00     0.074 A 
ATOM     46  C   UNL A   1      40.125  25.487  27.935  1.00  0.00     0.031 C 
ATOM     47  C   UNL A   1      41.524  31.597  30.803  1.00  0.00     0.029 A 
ATOM     48  C   UNL A   1      42.632  30.651  30.744  1.00  0.00     0.049 A 
ATOM     49  H   UNL A   1      42.625  28.736  29.924  1.00  0.00     0.167 HD
ATOM     50  C   UNL A   1      42.460  24.716  28.227  1.00  0.00     0.031 A 
ATOM     51  C   UNL A   1      43.870  30.872  31.224  1.00  0.00     0.031 A 
ATOM     52  C   UNL A   1      43.829  24.893  28.634  1.00  0.00     0.049 A 
ATOM     53  C   UNL A   1      44.920  29.808  31.067  1.00  0.00     0.074 A 
ATOM     54  C   UNL A   1      44.891  24.017  28.492  1.00  0.00     0.029 A 
ATOM     55  N   UNL A   1      44.325  26.023  29.264  1.00  0.00    -0.354 N 
ATOM     56  N   UNL A   1      44.820  28.623  30.516  1.00  0.00    -0.248 NA
ATOM     57  C   UNL A   1      46.258  30.122  31.586  1.00  0.00     0.031 C 
ATOM     58  C   UNL A   1      46.019  24.597  29.084  1.00  0.00     0.029 A 
ATOM     59  C   UNL A   1      45.671  25.858  29.543  1.00  0.00     0.049 A 
ATOM     60  H   UNL A   1      43.797  26.826  29.483  1.00  0.00     0.167 HD
ATOM     61  C   UNL A   1      46.086  28.061  30.599  1.00  0.00     0.074 A 
ATOM     62  C   UNL A   1      46.941  29.042  31.236  1.00  0.00     0.031 C 
ATOM     63  C   UNL A   1      46.506  26.839  30.185  1.00  0.00     0.031 A 
BRANCH  50  64
ATOM     64  C   UNL A   1      42.057  23.396  27.630  1.00  0.00    -0.014 A 
ATOM     65  C   UNL A   1      41.434  22.404  28.406  1.00  0.00     0.009 A 
ATOM     66  C   UNL A   1      42.275  23.150  26.266  1.00  0.00     0.009 A 
ATOM     67  C   UNL A   1      41.074  21.182  27.837  1.00  0.00     0.001 A 
ATOM     68  C   UNL A   1      41.887  21.937  25.693  1.00  0.00     0.001 A 
ATOM     69  C   UNL A   1      41.297  20.950  26.481  1.00  0.00     0.000 A 
ENDBRANCH  50  64
BRANCH  51  70
ATOM     70  C   UNL A   1      44.192  32.167  31.878  1.00  0.00    -0.014 A 
ATOM     71  C   UNL A   1      44.050  32.317  33.266  1.00  0.00     0.009 A 
ATOM     72  C   UNL A   1      44.642  33.257  31.119  1.00  0.00     0.009 A 
ATOM     73  C   UNL A   1      44.326  33.543  33.876  1.00  0.00     0.001 A 
ATOM     74  C   UNL A   1      44.943  34.473  31.736  1.00  0.00     0.001 A 
ATOM     75  C   UNL A   1      44.776  34.618  33.112  1.00  0.00     0.000 A 
ENDBRANCH  51  70
BRANCH  63  76
ATOM     76  C   UNL A   1      47.959  26.512  30.387  1.00  0.00    -0.014 A 
ATOM     77  C   UNL A   1      48.924  26.865  29.433  1.00  0.00     0.009 A 
ATOM     78  C   UNL A   1      48.367  25.860  31.560  1.00  0.00     0.009 A 
ATOM     79  C   UNL A   1      50.266  26.534  29.632  1.00  0.00     0.001 A 
ATOM     80  C   UNL A   1      49.713  25.557  31.770  1.00  0.00     0.001 A 
ATOM     81  C   UNL A   1      50.660  25.884  30.801  1.00  0.00     0.000 A 
ENDBRANCH  63  76
ENDBRANCH  37  38
ENDBRANCH  29  32
ENDBRANCH  27  28
ENDBRANCH  26  27
ENDBRANCH  25  26
ENDBRANCH   1  25
TORSDOF 16
ENDMDL
MODEL 3
REMARK VINA RESULT:     -10.7      2.067      7.504
REMARK SMILES Cc1cccc(Cl)c1Nc1ccccc1CC(=O)NCCCCCCNC(=O)c1ccc(-c2c3nc(c(-c4ccccc4)c4ccc([nH]4)c(-c4ccccc4)c4nc(c(-c5ccccc5)c5ccc2[nH]5)C=C4)C=C3)cc1
REMARK SMILES IDX 22 1 21 2 20 3 19 4 17 5 18 6 16 8 15 9 10 10 11 11 12 12
REMARK SMILES IDX 14 13 13 14 9 15 8 17 1 18 2 19 3 20 4 21 6 22 5 23 7 24
REMARK SMILES IDX 23 25 24 26 25 27 26 28 27 29 28 31 29 32 30 33 76 34 31 35
REMARK SMILES IDX 75 36 32 37 33 38 34 39 69 40 35 41 74 42 68 43 70 44 36 45
REMARK SMILES IDX 73 46 67 47 66 48 37 50 59 51 44 52 58 53 45 54 48 55 57 56
REMARK SMILES IDX 71 57 46 58 47 59 56 61 72 62 49 63 38 64 39 65 43 66 40 67
REMARK SMILES IDX 42 68 41 69 60 70 61 71 65 72 62 73 64 74 63 75 50 76 51 77
REMARK SMILES IDX 55 78 52 79 54 80 53 81
REMARK H PARENT 19 7 9 16 26 30 70 49 48 60
REMARK Flexibility Score: inf
ROOT
ATOM      1  C   UNL A   1      36.122  21.957  24.873  1.00  0.00     0.002 C 
ENDROOT
BRANCH   1   2
ATOM      2  C   UNL A   1      35.419  22.738  25.991  1.00  0.00     0.021 C 
BRANCH   2   3
ATOM      3  C   UNL A   1      34.266  21.971  26.641  1.00  0.00     0.116 C 
BRANCH   3   4
ATOM      4  N   UNL A   1      33.305  22.883  27.227  1.00  0.00    -0.356 N 
ATOM      5  C   UNL A   1      32.131  23.333  26.690  1.00  0.00     0.224 C 
ATOM      6  O   UNL A   1      31.523  24.229  27.278  1.00  0.00    -0.275 OA
ATOM      7  H   UNL A   1      33.525  23.221  28.126  1.00  0.00     0.163 HD
BRANCH   5   8
ATOM      8  C   UNL A   1      31.579  22.681  25.434  1.00  0.00     0.137 C 
BRANCH   8   9
ATOM      9  C   UNL A   1      32.105  23.260  24.136  1.00  0.00    -0.015 A 
ATOM     10  C   UNL A   1      31.907  24.605  23.751  1.00  0.00     0.042 A 
ATOM     11  C   UNL A   1      32.359  25.015  22.482  1.00  0.00     0.026 A 
ATOM     12  C   UNL A   1      33.020  24.137  21.623  1.00  0.00     0.002 A 
ATOM     13  C   UNL A   1      32.801  22.394  23.266  1.00  0.00     0.006 A 
ATOM     14  C   UNL A   1      33.252  22.828  22.021  1.00  0.00     0.000 A 
BRANCH  10  15
ATOM     15  N   UNL A   1      31.326  25.598  24.568  1.00  0.00    -0.354 N 
ATOM     16  H   UNL A   1      30.542  25.284  25.075  1.00  0.00     0.167 HD
BRANCH  15  17
ATOM     17  C   UNL A   1      31.647  26.957  24.801  1.00  0.00     0.060 A 
ATOM     18  C   UNL A   1      29.532  27.590  23.505  1.00  0.00     0.046 C 
ATOM     19  C   UNL A   1      30.757  27.949  24.308  1.00  0.00    -0.026 A 
ATOM     20  C   UNL A   1      30.982  29.307  24.599  1.00  0.00     0.005 A 
ATOM     21  C   UNL A   1      32.078  29.701  25.359  1.00  0.00     0.002 A 
ATOM     22  C   UNL A   1      32.772  27.388  25.543  1.00  0.00     0.064 A 
ATOM     23  C   UNL A   1      32.974  28.746  25.822  1.00  0.00     0.023 A 
ATOM     24  Cl  UNL A   1      34.030  26.317  26.063  1.00  0.00    -0.082 Cl
ENDBRANCH  15  17
ENDBRANCH  10  15
ENDBRANCH   8   9
ENDBRANCH   5   8
ENDBRANCH   3   4
ENDBRANCH   2   3
ENDBRANCH   1   2
BRANCH   1  25
ATOM     25  C   UNL A   1      36.026  20.432  24.997  1.00  0.00     0.002 C 
BRANCH  25  26
ATOM     26  C   UNL A   1      37.352  19.687  24.823  1.00  0.00     0.021 C 
BRANCH  26  27
ATOM     27  C   UNL A   1      38.517  20.277  25.612  1.00  0.00     0.116 C 
BRANCH  27  28
ATOM     28  N   UNL A   1      39.636  19.352  25.700  1.00  0.00    -0.352 N 
ATOM     29  C   UNL A   1      40.943  19.593  26.028  1.00  0.00     0.251 C 
ATOM     30  H   UNL A   1      39.422  18.414  25.493  1.00  0.00     0.163 HD
ATOM     31  O   UNL A   1      41.794  18.722  25.845  1.00  0.00    -0.269 OA
BRANCH  29  32
ATOM     32  C   UNL A   1      41.343  20.899  26.589  1.00  0.00     0.039 A 
ATOM     33  C   UNL A   1      41.892  21.859  25.735  1.00  0.00     0.014 A 
ATOM     34  C   UNL A   1      41.207  21.170  27.954  1.00  0.00     0.014 A 
ATOM     35  C   UNL A   1      42.263  23.105  26.241  1.00  0.00     0.010 A 
ATOM     36  C   UNL A   1      41.512  22.437  28.444  1.00  0.00     0.010 A 
ATOM     37  C   UNL A   1      42.051  23.415  27.595  1.00  0.00    -0.014 A 
BRANCH  37  38
ATOM     38  C   UNL A   1      42.388  24.757  28.129  1.00  0.00     0.031 A 
ATOM     39  C   UNL A   1      43.798  25.084  28.534  1.00  0.00     0.074 A 
ATOM     40  C   UNL A   1      41.411  25.670  28.292  1.00  0.00     0.049 A 
ATOM     41  N   UNL A   1      44.277  26.200  29.027  1.00  0.00    -0.248 NA
ATOM     42  C   UNL A   1      44.798  24.013  28.392  1.00  0.00     0.031 C 
ATOM     43  C   UNL A   1      39.994  25.459  27.982  1.00  0.00     0.029 A 
ATOM     44  N   UNL A   1      41.462  26.959  28.757  1.00  0.00    -0.354 N 
ATOM     45  C   UNL A   1      45.624  25.960  29.265  1.00  0.00     0.074 A 
ATOM     46  C   UNL A   1      45.877  24.580  28.911  1.00  0.00     0.031 C 
ATOM     47  C   UNL A   1      39.318  26.590  28.236  1.00  0.00     0.029 A 
ATOM     48  C   UNL A   1      40.242  27.591  28.756  1.00  0.00     0.049 A 
ATOM     49  H   UNL A   1      42.293  27.389  29.063  1.00  0.00     0.167 HD
ATOM     50  C   UNL A   1      46.572  26.815  29.718  1.00  0.00     0.031 A 
ATOM     51  C   UNL A   1      39.907  28.840  29.130  1.00  0.00     0.031 A 
ATOM     52  C   UNL A   1      46.323  28.191  30.061  1.00  0.00     0.049 A 
ATOM     53  C   UNL A   1      40.977  29.772  29.624  1.00  0.00     0.074 A 
ATOM     54  C   UNL A   1      47.228  29.155  30.471  1.00  0.00     0.029 A 
ATOM     55  N   UNL A   1      45.077  28.797  30.037  1.00  0.00    -0.354 N 
ATOM     56  N   UNL A   1      42.261  29.553  29.770  1.00  0.00    -0.248 NA
ATOM     57  C   UNL A   1      40.550  31.130  29.989  1.00  0.00     0.031 C 
ATOM     58  C   UNL A   1      46.521  30.331  30.744  1.00  0.00     0.029 A 
ATOM     59  C   UNL A   1      45.184  30.115  30.450  1.00  0.00     0.049 A 
ATOM     60  H   UNL A   1      44.239  28.356  29.767  1.00  0.00     0.167 HD
ATOM     61  C   UNL A   1      42.799  30.751  30.219  1.00  0.00     0.074 A 
ATOM     62  C   UNL A   1      41.707  31.698  30.302  1.00  0.00     0.031 C 
ATOM     63  C   UNL A   1      44.085  31.042  30.536  1.00  0.00     0.031 A 
BRANCH  50  64
ATOM     64  C   UNL A   1      47.968  26.281  29.876  1.00  0.00    -0.014 A 
ATOM     65  C   UNL A   1      48.881  26.298  28.809  1.00  0.00     0.009 A 
ATOM     66  C   UNL A   1      48.388  25.780  31.118  1.00  0.00     0.009 A 
ATOM     67  C   UNL A   1      50.170  25.790  28.972  1.00  0.00     0.001 A 
ATOM     68  C   UNL A   1      49.688  25.299  31.286  1.00  0.00     0.001 A 
ATOM     69  C   UNL A   1      50.575  25.295  30.210  1.00  0.00     0.000 A 
ENDBRANCH  50  64
BRANCH  51  70
ATOM     70  C   UNL A   1      38.494  29.291  29.028  1.00  0.00    -0.014 A 
ATOM     71  C   UNL A   1      37.990  29.781  27.813  1.00  0.00     0.009 A 
ATOM     72  C   UNL A   1      37.645  29.234  30.143  1.00  0.00     0.009 A 
ATOM     73  C   UNL A   1      36.670  30.231  27.726  1.00  0.00     0.001 A 
ATOM     74  C   UNL A   1      36.318  29.658  30.044  1.00  0.00     0.001 A 
ATOM     75  C   UNL A   1      35.835  30.165  28.840  1.00  0.00     0.000 A 
ENDBRANCH  51  70
BRANCH  63  76
ATOM     76  C   UNL A   1      44.379  32.449  30.975  1.00  0.00    -0.014 A 
ATOM     77  C   UNL A   1      44.354  32.809  32.330  1.00  0.00     0.009 A 
ATOM     78  C   UNL A   1      44.706  33.421  30.018  1.00  0.00     0.009 A 
ATOM     79  C   UNL A   1      44.611  34.127  32.715  1.00  0.00     0.001 A 
ATOM     80  C   UNL A   1      44.992  34.730  30.407  1.00  0.00     0.001 A 
ATOM     81  C   UNL A   1      44.933  35.085  31.753  1.00  0.00     0.000 A 
ENDBRANCH  63  76
ENDBRANCH  37  38
ENDBRANCH  29  32
ENDBRANCH  27  28
ENDBRANCH  26  27
ENDBRANCH  25  26
ENDBRANCH   1  25
TORSDOF 16
ENDMDL
