MODEL 1
REMARK VINA RESULT:     -11.1      0.000      0.000
REMARK SMILES C[C@H](c1ccc(C(=O)NCCCCCCNC(=O)c2ccc(-c3c4nc(c(-c5ccccc5)c5ccc([nH]5)c(-c5ccccc5)c5nc(c(-c6ccccc6)c6ccc3[nH]6)C=C5)C=C4)cc2)o1)[NH+]1Cc2ccccc2C1
REMARK SMILES IDX 12 1 11 2 10 3 9 4 7 5 8 6 6 8 3 9 4 10 67 11 5 12 2 13 1 14
REMARK SMILES IDX 68 15 69 16 76 17 70 19 75 20 71 21 74 22 72 23 73 24 13 25
REMARK SMILES IDX 14 26 15 27 16 28 17 29 18 31 19 32 20 33 66 34 21 35 65 36
REMARK SMILES IDX 22 37 23 38 24 39 59 40 25 41 64 42 58 43 60 44 26 45 63 46
REMARK SMILES IDX 57 47 56 48 27 50 49 51 34 52 48 53 35 54 38 55 47 56 61 57
REMARK SMILES IDX 36 58 37 59 46 61 62 62 39 63 28 64 29 65 33 66 30 67 32 68
REMARK SMILES IDX 31 69 50 70 51 71 55 72 52 73 54 74 53 75 40 76 41 77 45 78
REMARK SMILES IDX 42 79 44 80 43 81
REMARK H PARENT 9 7 68 18 16 30 60 49 38 60
REMARK Flexibility Score: inf
ROOT
ATOM      1  C   UNL A   1      34.836  33.209  29.050  1.00  0.00     0.002 C 
ENDROOT
BRANCH   1   2
ATOM      2  C   UNL A   1      35.437  32.250  28.012  1.00  0.00     0.021 C 
BRANCH   2   3
ATOM      3  C   UNL A   1      34.618  30.978  27.802  1.00  0.00     0.116 C 
BRANCH   3   4
ATOM      4  N   UNL A   1      33.324  31.281  27.242  1.00  0.00    -0.349 N 
ATOM      5  C   UNL A   1      32.462  30.510  26.501  1.00  0.00     0.287 C 
ATOM      6  O   UNL A   1      31.372  31.031  26.252  1.00  0.00    -0.266 OA
ATOM      7  H   UNL A   1      33.004  32.195  27.423  1.00  0.00     0.163 HD
BRANCH   5   8
ATOM      8  C   UNL A   1      32.820  29.178  26.043  1.00  0.00     0.191 A 
ATOM      9  C   UNL A   1      32.232  27.172  25.276  1.00  0.00     0.162 A 
ATOM     10  C   UNL A   1      33.607  27.220  25.219  1.00  0.00     0.053 A 
ATOM     11  O   UNL A   1      31.766  28.334  25.815  1.00  0.00    -0.450 OA
ATOM     12  C   UNL A   1      33.982  28.508  25.696  1.00  0.00     0.057 A 
BRANCH   9  13
ATOM     13  C   UNL A   1      31.146  26.271  24.765  1.00  0.00     0.248 C 
ATOM     14  C   UNL A   1      30.256  25.948  25.986  1.00  0.00     0.084 C 
BRANCH  13  15
ATOM     15  N   UNL A   1      30.414  26.663  23.558  1.00  0.00    -0.319 N 
ATOM     16  C   UNL A   1      30.986  27.653  22.628  1.00  0.00     0.300 C 
ATOM     17  C   UNL A   1      28.964  26.867  23.626  1.00  0.00     0.300 C 
ATOM     18  H   UNL A   1      30.584  25.742  23.153  1.00  0.00     0.349 HD
ATOM     19  C   UNL A   1      29.906  28.687  22.468  1.00  0.00     0.015 A 
ATOM     20  C   UNL A   1      28.746  28.242  23.099  1.00  0.00     0.015 A 
ATOM     21  C   UNL A   1      29.923  29.906  21.814  1.00  0.00     0.010 A 
ATOM     22  C   UNL A   1      27.595  29.009  23.151  1.00  0.00     0.010 A 
ATOM     23  C   UNL A   1      28.763  30.691  21.848  1.00  0.00     0.001 A 
ATOM     24  C   UNL A   1      27.614  30.253  22.526  1.00  0.00     0.001 A 
ENDBRANCH  13  15
ENDBRANCH   9  13
ENDBRANCH   5   8
ENDBRANCH   3   4
ENDBRANCH   2   3
ENDBRANCH   1   2
BRANCH   1  25
ATOM     25  C   UNL A   1      34.531  34.623  28.538  1.00  0.00     0.002 C 
BRANCH  25  26
ATOM     26  C   UNL A   1      33.178  35.197  28.968  1.00  0.00     0.021 C 
BRANCH  26  27
ATOM     27  C   UNL A   1      33.265  36.475  29.796  1.00  0.00     0.116 C 
BRANCH  27  28
ATOM     28  N   UNL A   1      32.430  36.406  30.982  1.00  0.00    -0.352 N 
ATOM     29  C   UNL A   1      32.572  35.626  32.101  1.00  0.00     0.251 C 
ATOM     30  H   UNL A   1      31.648  37.003  30.983  1.00  0.00     0.163 HD
ATOM     31  O   UNL A   1      31.656  35.544  32.912  1.00  0.00    -0.269 OA
BRANCH  29  32
ATOM     32  C   UNL A   1      33.827  34.879  32.336  1.00  0.00     0.039 A 
ATOM     33  C   UNL A   1      33.749  33.522  32.659  1.00  0.00     0.014 A 
ATOM     34  C   UNL A   1      35.068  35.524  32.304  1.00  0.00     0.014 A 
ATOM     35  C   UNL A   1      34.916  32.804  32.928  1.00  0.00     0.010 A 
ATOM     36  C   UNL A   1      36.235  34.793  32.518  1.00  0.00     0.010 A 
ATOM     37  C   UNL A   1      36.168  33.433  32.854  1.00  0.00    -0.014 A 
BRANCH  37  38
ATOM     38  C   UNL A   1      37.411  32.694  33.178  1.00  0.00     0.031 A 
ATOM     39  C   UNL A   1      38.131  32.965  34.470  1.00  0.00     0.074 A 
ATOM     40  C   UNL A   1      37.915  31.808  32.298  1.00  0.00     0.049 A 
ATOM     41  N   UNL A   1      39.246  32.449  34.919  1.00  0.00    -0.248 NA
ATOM     42  C   UNL A   1      37.530  33.968  35.364  1.00  0.00     0.031 C 
ATOM     43  C   UNL A   1      37.332  31.480  30.996  1.00  0.00     0.029 A 
ATOM     44  N   UNL A   1      39.037  31.023  32.369  1.00  0.00    -0.354 N 
ATOM     45  C   UNL A   1      39.491  33.078  36.134  1.00  0.00     0.074 A 
ATOM     46  C   UNL A   1      38.432  34.043  36.332  1.00  0.00     0.031 C 
ATOM     47  C   UNL A   1      38.088  30.542  30.401  1.00  0.00     0.029 A 
ATOM     48  C   UNL A   1      39.219  30.224  31.268  1.00  0.00     0.049 A 
ATOM     49  H   UNL A   1      39.653  31.031  33.137  1.00  0.00     0.167 HD
ATOM     50  C   UNL A   1      40.497  32.862  37.013  1.00  0.00     0.031 A 
ATOM     51  C   UNL A   1      40.187  29.331  30.989  1.00  0.00     0.031 A 
ATOM     52  C   UNL A   1      41.538  31.888  36.831  1.00  0.00     0.049 A 
ATOM     53  C   UNL A   1      41.276  29.087  31.995  1.00  0.00     0.074 A 
ATOM     54  C   UNL A   1      42.574  31.559  37.689  1.00  0.00     0.029 A 
ATOM     55  N   UNL A   1      41.669  31.077  35.715  1.00  0.00    -0.354 N 
ATOM     56  N   UNL A   1      41.465  29.654  33.162  1.00  0.00    -0.248 NA
ATOM     57  C   UNL A   1      42.277  28.067  31.651  1.00  0.00     0.031 C 
ATOM     58  C   UNL A   1      43.350  30.568  37.076  1.00  0.00     0.029 A 
ATOM     59  C   UNL A   1      42.772  30.254  35.857  1.00  0.00     0.049 A 
ATOM     60  H   UNL A   1      41.066  31.086  34.937  1.00  0.00     0.167 HD
ATOM     61  C   UNL A   1      42.585  29.040  33.704  1.00  0.00     0.074 A 
ATOM     62  C   UNL A   1      43.028  28.051  32.743  1.00  0.00     0.031 C 
ATOM     63  C   UNL A   1      43.193  29.273  34.892  1.00  0.00     0.031 A 
BRANCH  50  64
ATOM     64  C   UNL A   1      40.516  33.709  38.255  1.00  0.00    -0.014 A 
ATOM     65  C   UNL A   1      39.854  33.298  39.423  1.00  0.00     0.009 A 
ATOM     66  C   UNL A   1      41.219  34.923  38.263  1.00  0.00     0.009 A 
ATOM     67  C   UNL A   1      39.862  34.106  40.562  1.00  0.00     0.001 A 
ATOM     68  C   UNL A   1      41.247  35.717  39.411  1.00  0.00     0.001 A 
ATOM     69  C   UNL A   1      40.561  35.312  40.555  1.00  0.00     0.000 A 
ENDBRANCH  50  64
BRANCH  51  70
ATOM     70  C   UNL A   1      40.148  28.569  29.717  1.00  0.00    -0.014 A 
ATOM     71  C   UNL A   1      40.748  29.091  28.560  1.00  0.00     0.009 A 
ATOM     72  C   UNL A   1      39.513  27.319  29.652  1.00  0.00     0.009 A 
ATOM     73  C   UNL A   1      40.692  28.386  27.357  1.00  0.00     0.001 A 
ATOM     74  C   UNL A   1      39.480  26.607  28.451  1.00  0.00     0.001 A 
ATOM     75  C   UNL A   1      40.062  27.143  27.303  1.00  0.00     0.000 A 
ENDBRANCH  51  70
BRANCH  63  76
ATOM     76  C   UNL A   1      44.377  28.415  35.233  1.00  0.00    -0.014 A 
ATOM     77  C   UNL A   1      44.237  27.257  36.010  1.00  0.00     0.009 A 
ATOM     78  C   UNL A   1      45.646  28.759  34.740  1.00  0.00     0.009 A 
ATOM     79  C   UNL A   1      45.352  26.473  36.314  1.00  0.00     0.001 A 
ATOM     80  C   UNL A   1      46.754  27.961  35.026  1.00  0.00     0.001 A 
ATOM     81  C   UNL A   1      46.608  26.825  35.820  1.00  0.00     0.000 A 
ENDBRANCH  63  76
ENDBRANCH  37  38
ENDBRANCH  29  32
ENDBRANCH  27  28
ENDBRANCH  26  27
ENDBRANCH  25  26
ENDBRANCH   1  25
TORSDOF 15
ENDMDL
MODEL 2
REMARK VINA RESULT:     -11.0      3.521      7.721
REMARK SMILES C[C@H](c1ccc(C(=O)NCCCCCCNC(=O)c2ccc(-c3c4nc(c(-c5ccccc5)c5ccc([nH]5)c(-c5ccccc5)c5nc(c(-c6ccccc6)c6ccc3[nH]6)C=C5)C=C4)cc2)o1)[NH+]1Cc2ccccc2C1
REMARK SMILES IDX 12 1 11 2 10 3 9 4 7 5 8 6 6 8 3 9 4 10 67 11 5 12 2 13 1 14
REMARK SMILES IDX 68 15 69 16 76 17 70 19 75 20 71 21 74 22 72 23 73 24 13 25
REMARK SMILES IDX 14 26 15 27 16 28 17 29 18 31 19 32 20 33 66 34 21 35 65 36
REMARK SMILES IDX 22 37 23 38 24 39 59 40 25 41 64 42 58 43 60 44 26 45 63 46
REMARK SMILES IDX 57 47 56 48 27 50 49 51 34 52 48 53 35 54 38 55 47 56 61 57
REMARK SMILES IDX 36 58 37 59 46 61 62 62 39 63 28 64 29 65 33 66 30 67 32 68
REMARK SMILES IDX 31 69 50 70 51 71 55 72 52 73 54 74 53 75 40 76 41 77 45 78
REMARK SMILES IDX 42 79 44 80 43 81
REMARK H PARENT 9 7 68 18 16 30 60 49 38 60
REMARK Flexibility Score: inf
ROOT
ATOM      1  C   UNL A   1      31.970  29.700  25.206  1.00  0.00     0.002 C 
ENDROOT
BRANCH   1   2
ATOM      2  C   UNL A   1      30.825  29.362  24.241  1.00  0.00     0.021 C 
BRANCH   2   3
ATOM      3  C   UNL A   1      30.999  28.025  23.524  1.00  0.00     0.116 C 
BRANCH   3   4
ATOM      4  N   UNL A   1      32.130  28.059  22.630  1.00  0.00    -0.349 N 
ATOM      5  C   UNL A   1      33.268  27.291  22.589  1.00  0.00     0.287 C 
ATOM      6  O   UNL A   1      34.011  27.503  21.629  1.00  0.00    -0.266 OA
ATOM      7  H   UNL A   1      32.077  28.749  21.929  1.00  0.00     0.163 HD
BRANCH   5   8
ATOM      8  C   UNL A   1      33.566  26.302  23.612  1.00  0.00     0.191 A 
ATOM      9  C   UNL A   1      34.114  24.224  24.195  1.00  0.00     0.162 A 
ATOM     10  C   UNL A   1      34.152  24.972  25.350  1.00  0.00     0.053 A 
ATOM     11  O   UNL A   1      33.717  25.019  23.160  1.00  0.00    -0.450 OA
ATOM     12  C   UNL A   1      33.816  26.304  24.975  1.00  0.00     0.057 A 
BRANCH   9  13
ATOM     13  C   UNL A   1      34.539  22.850  23.766  1.00  0.00     0.248 C 
ATOM     14  C   UNL A   1      36.068  22.929  23.554  1.00  0.00     0.084 C 
BRANCH  13  15
ATOM     15  N   UNL A   1      34.087  21.696  24.547  1.00  0.00    -0.319 N 
ATOM     16  C   UNL A   1      35.052  20.676  24.997  1.00  0.00     0.300 C 
ATOM     17  C   UNL A   1      32.832  21.029  24.191  1.00  0.00     0.300 C 
ATOM     18  H   UNL A   1      33.905  22.306  25.345  1.00  0.00     0.349 HD
ATOM     19  C   UNL A   1      34.473  19.374  24.518  1.00  0.00     0.015 A 
ATOM     20  C   UNL A   1      33.199  19.599  24.001  1.00  0.00     0.015 A 
ATOM     21  C   UNL A   1      35.003  18.096  24.542  1.00  0.00     0.010 A 
ATOM     22  C   UNL A   1      32.439  18.585  23.446  1.00  0.00     0.010 A 
ATOM     23  C   UNL A   1      34.243  17.055  23.994  1.00  0.00     0.001 A 
ATOM     24  C   UNL A   1      32.978  17.301  23.434  1.00  0.00     0.001 A 
ENDBRANCH  13  15
ENDBRANCH   9  13
ENDBRANCH   5   8
ENDBRANCH   3   4
ENDBRANCH   2   3
ENDBRANCH   1   2
BRANCH   1  25
ATOM     25  C   UNL A   1      31.537  30.272  26.563  1.00  0.00     0.002 C 
BRANCH  25  26
ATOM     26  C   UNL A   1      31.396  31.796  26.615  1.00  0.00     0.021 C 
BRANCH  26  27
ATOM     27  C   UNL A   1      32.702  32.546  26.858  1.00  0.00     0.116 C 
BRANCH  27  28
ATOM     28  N   UNL A   1      32.486  33.778  27.596  1.00  0.00    -0.352 N 
ATOM     29  C   UNL A   1      33.182  34.288  28.661  1.00  0.00     0.251 C 
ATOM     30  H   UNL A   1      31.729  34.327  27.287  1.00  0.00     0.163 HD
ATOM     31  O   UNL A   1      32.730  35.236  29.294  1.00  0.00    -0.269 OA
BRANCH  29  32
ATOM     32  C   UNL A   1      34.481  33.697  29.055  1.00  0.00     0.039 A 
ATOM     33  C   UNL A   1      34.509  32.787  30.115  1.00  0.00     0.014 A 
ATOM     34  C   UNL A   1      35.671  34.086  28.431  1.00  0.00     0.014 A 
ATOM     35  C   UNL A   1      35.727  32.248  30.535  1.00  0.00     0.010 A 
ATOM     36  C   UNL A   1      36.878  33.505  28.814  1.00  0.00     0.010 A 
ATOM     37  C   UNL A   1      36.919  32.599  29.884  1.00  0.00    -0.014 A 
BRANCH  37  38
ATOM     38  C   UNL A   1      38.223  32.067  30.346  1.00  0.00     0.031 A 
ATOM     39  C   UNL A   1      38.758  30.785  29.769  1.00  0.00     0.074 A 
ATOM     40  C   UNL A   1      38.908  32.711  31.310  1.00  0.00     0.049 A 
ATOM     41  N   UNL A   1      39.858  30.141  30.064  1.00  0.00    -0.248 NA
ATOM     42  C   UNL A   1      37.934  30.128  28.741  1.00  0.00     0.031 C 
ATOM     43  C   UNL A   1      38.482  33.943  31.975  1.00  0.00     0.029 A 
ATOM     44  N   UNL A   1      40.111  32.413  31.898  1.00  0.00    -0.354 N 
ATOM     45  C   UNL A   1      39.848  28.996  29.278  1.00  0.00     0.074 A 
ATOM     46  C   UNL A   1      38.614  29.012  28.523  1.00  0.00     0.031 C 
ATOM     47  C   UNL A   1      39.422  34.309  32.863  1.00  0.00     0.029 A 
ATOM     48  C   UNL A   1      40.501  33.325  32.845  1.00  0.00     0.049 A 
ATOM     49  H   UNL A   1      40.644  31.619  31.661  1.00  0.00     0.167 HD
ATOM     50  C   UNL A   1      40.787  28.026  29.179  1.00  0.00     0.031 A 
ATOM     51  C   UNL A   1      41.606  33.368  33.612  1.00  0.00     0.031 A 
ATOM     52  C   UNL A   1      42.025  28.019  29.910  1.00  0.00     0.049 A 
ATOM     53  C   UNL A   1      42.648  32.296  33.462  1.00  0.00     0.074 A 
ATOM     54  C   UNL A   1      43.063  27.106  29.841  1.00  0.00     0.029 A 
ATOM     55  N   UNL A   1      42.395  28.979  30.838  1.00  0.00    -0.354 N 
ATOM     56  N   UNL A   1      42.647  31.247  32.676  1.00  0.00    -0.248 NA
ATOM     57  C   UNL A   1      43.853  32.424  34.295  1.00  0.00     0.031 C 
ATOM     58  C   UNL A   1      44.051  27.500  30.752  1.00  0.00     0.029 A 
ATOM     59  C   UNL A   1      43.642  28.678  31.356  1.00  0.00     0.049 A 
ATOM     60  H   UNL A   1      41.850  29.759  31.091  1.00  0.00     0.167 HD
ATOM     61  C   UNL A   1      43.859  30.608  32.897  1.00  0.00     0.074 A 
ATOM     62  C   UNL A   1      44.574  31.392  33.882  1.00  0.00     0.031 C 
ATOM     63  C   UNL A   1      44.339  29.473  32.332  1.00  0.00     0.031 A 
BRANCH  50  64
ATOM     64  C   UNL A   1      40.499  26.885  28.244  1.00  0.00    -0.014 A 
ATOM     65  C   UNL A   1      39.784  25.757  28.675  1.00  0.00     0.009 A 
ATOM     66  C   UNL A   1      40.935  26.946  26.912  1.00  0.00     0.009 A 
ATOM     67  C   UNL A   1      39.543  24.695  27.801  1.00  0.00     0.001 A 
ATOM     68  C   UNL A   1      40.672  25.894  26.033  1.00  0.00     0.001 A 
ATOM     69  C   UNL A   1      39.985  24.766  26.480  1.00  0.00     0.000 A 
ENDBRANCH  50  64
BRANCH  51  70
ATOM     70  C   UNL A   1      41.805  34.489  34.564  1.00  0.00    -0.014 A 
ATOM     71  C   UNL A   1      41.353  34.382  35.888  1.00  0.00     0.009 A 
ATOM     72  C   UNL A   1      42.446  35.668  34.155  1.00  0.00     0.009 A 
ATOM     73  C   UNL A   1      41.519  35.444  36.778  1.00  0.00     0.001 A 
ATOM     74  C   UNL A   1      42.631  36.720  35.055  1.00  0.00     0.001 A 
ATOM     75  C   UNL A   1      42.161  36.610  36.363  1.00  0.00     0.000 A 
ENDBRANCH  51  70
BRANCH  63  76
ATOM     76  C   UNL A   1      45.716  29.038  32.739  1.00  0.00    -0.014 A 
ATOM     77  C   UNL A   1      46.845  29.402  31.993  1.00  0.00     0.009 A 
ATOM     78  C   UNL A   1      45.884  28.276  33.907  1.00  0.00     0.009 A 
ATOM     79  C   UNL A   1      48.117  28.987  32.391  1.00  0.00     0.001 A 
ATOM     80  C   UNL A   1      47.160  27.882  34.315  1.00  0.00     0.001 A 
ATOM     81  C   UNL A   1      48.273  28.230  33.553  1.00  0.00     0.000 A 
ENDBRANCH  63  76
ENDBRANCH  37  38
ENDBRANCH  29  32
ENDBRANCH  27  28
ENDBRANCH  26  27
ENDBRANCH  25  26
ENDBRANCH   1  25
TORSDOF 15
ENDMDL
MODEL 3
REMARK VINA RESULT:     -11.0      5.090     10.121
REMARK SMILES C[C@H](c1ccc(C(=O)NCCCCCCNC(=O)c2ccc(-c3c4nc(c(-c5ccccc5)c5ccc([nH]5)c(-c5ccccc5)c5nc(c(-c6ccccc6)c6ccc3[nH]6)C=C5)C=C4)cc2)o1)[NH+]1Cc2ccccc2C1
REMARK SMILES IDX 12 1 11 2 10 3 9 4 7 5 8 6 6 8 3 9 4 10 67 11 5 12 2 13 1 14
REMARK SMILES IDX 68 15 69 16 76 17 70 19 75 20 71 21 74 22 72 23 73 24 13 25
REMARK SMILES IDX 14 26 15 27 16 28 17 29 18 31 19 32 20 33 66 34 21 35 65 36
REMARK SMILES IDX 22 37 23 38 24 39 59 40 25 41 64 42 58 43 60 44 26 45 63 46
REMARK SMILES IDX 57 47 56 48 27 50 49 51 34 52 48 53 35 54 38 55 47 56 61 57
REMARK SMILES IDX 36 58 37 59 46 61 62 62 39 63 28 64 29 65 33 66 30 67 32 68
REMARK SMILES IDX 31 69 50 70 51 71 55 72 52 73 54 74 53 75 40 76 41 77 45 78
REMARK SMILES IDX 42 79 44 80 43 81
REMARK H PARENT 9 7 68 18 16 30 60 49 38 60
REMARK Flexibility Score: inf
ROOT
ATOM      1  C   UNL A   1      38.566  22.332  25.855  1.00  0.00     0.002 C 
ENDROOT
BRANCH   1   2
ATOM      2  C   UNL A   1      37.737  23.586  26.164  1.00  0.00     0.021 C 
BRANCH   2   3
ATOM      3  C   UNL A   1      36.261  23.457  25.793  1.00  0.00     0.116 C 
BRANCH   3   4
ATOM      4  N   UNL A   1      35.548  22.671  26.769  1.00  0.00    -0.349 N 
ATOM      5  C   UNL A   1      34.296  22.108  26.730  1.00  0.00     0.287 C 
ATOM      6  O   UNL A   1      34.006  21.401  27.698  1.00  0.00    -0.266 OA
ATOM      7  H   UNL A   1      36.042  22.511  27.606  1.00  0.00     0.163 HD
BRANCH   5   8
ATOM      8  C   UNL A   1      33.382  22.338  25.622  1.00  0.00     0.191 A 
ATOM      9  C   UNL A   1      31.844  23.588  24.610  1.00  0.00     0.162 A 
ATOM     10  C   UNL A   1      32.153  22.572  23.734  1.00  0.00     0.053 A 
ATOM     11  O   UNL A   1      32.552  23.417  25.762  1.00  0.00    -0.450 OA
ATOM     12  C   UNL A   1      33.148  21.780  24.376  1.00  0.00     0.057 A 
BRANCH   9  13
ATOM     13  C   UNL A   1      31.081  24.879  24.562  1.00  0.00     0.248 C 
ATOM     14  C   UNL A   1      30.354  24.991  25.920  1.00  0.00     0.084 C 
BRANCH  13  15
ATOM     15  N   UNL A   1      31.779  26.096  24.138  1.00  0.00    -0.319 N 
ATOM     16  C   UNL A   1      33.088  26.444  24.718  1.00  0.00     0.300 C 
ATOM     17  C   UNL A   1      31.017  27.329  23.925  1.00  0.00     0.300 C 
ATOM     18  H   UNL A   1      31.960  25.676  23.226  1.00  0.00     0.349 HD
ATOM     19  C   UNL A   1      32.918  27.856  25.209  1.00  0.00     0.015 A 
ATOM     20  C   UNL A   1      31.684  28.345  24.786  1.00  0.00     0.015 A 
ATOM     21  C   UNL A   1      33.771  28.654  25.949  1.00  0.00     0.010 A 
ATOM     22  C   UNL A   1      31.236  29.608  25.128  1.00  0.00     0.010 A 
ATOM     23  C   UNL A   1      33.339  29.941  26.295  1.00  0.00     0.001 A 
ATOM     24  C   UNL A   1      32.073  30.408  25.901  1.00  0.00     0.001 A 
ENDBRANCH  13  15
ENDBRANCH   9  13
ENDBRANCH   5   8
ENDBRANCH   3   4
ENDBRANCH   2   3
ENDBRANCH   1   2
BRANCH   1  25
ATOM     25  C   UNL A   1      37.858  21.272  25.000  1.00  0.00     0.002 C 
BRANCH  25  26
ATOM     26  C   UNL A   1      38.557  19.911  24.933  1.00  0.00     0.021 C 
BRANCH  26  27
ATOM     27  C   UNL A   1      39.379  19.559  26.169  1.00  0.00     0.116 C 
BRANCH  27  28
ATOM     28  N   UNL A   1      40.679  19.018  25.814  1.00  0.00    -0.352 N 
ATOM     29  C   UNL A   1      41.900  19.640  25.781  1.00  0.00     0.251 C 
ATOM     30  H   UNL A   1      40.685  18.068  25.558  1.00  0.00     0.163 HD
ATOM     31  O   UNL A   1      42.858  19.086  25.253  1.00  0.00    -0.269 OA
BRANCH  29  32
ATOM     32  C   UNL A   1      42.071  20.983  26.380  1.00  0.00     0.039 A 
ATOM     33  C   UNL A   1      42.371  22.058  25.540  1.00  0.00     0.014 A 
ATOM     34  C   UNL A   1      42.000  21.171  27.764  1.00  0.00     0.014 A 
ATOM     35  C   UNL A   1      42.579  23.327  26.084  1.00  0.00     0.010 A 
ATOM     36  C   UNL A   1      42.152  22.448  28.300  1.00  0.00     0.010 A 
ATOM     37  C   UNL A   1      42.466  23.532  27.467  1.00  0.00    -0.014 A 
BRANCH  37  38
ATOM     38  C   UNL A   1      42.725  24.865  28.062  1.00  0.00     0.031 A 
ATOM     39  C   UNL A   1      44.115  25.231  28.507  1.00  0.00     0.074 A 
ATOM     40  C   UNL A   1      41.709  25.731  28.240  1.00  0.00     0.049 A 
ATOM     41  N   UNL A   1      44.537  26.330  29.078  1.00  0.00    -0.248 NA
ATOM     42  C   UNL A   1      45.163  24.217  28.304  1.00  0.00     0.031 C 
ATOM     43  C   UNL A   1      40.312  25.484  27.883  1.00  0.00     0.029 A 
ATOM     44  N   UNL A   1      41.701  26.996  28.768  1.00  0.00    -0.354 N 
ATOM     45  C   UNL A   1      45.890  26.131  29.323  1.00  0.00     0.074 A 
ATOM     46  C   UNL A   1      46.210  24.793  28.876  1.00  0.00     0.031 C 
ATOM     47  C   UNL A   1      39.585  26.574  28.181  1.00  0.00     0.029 A 
ATOM     48  C   UNL A   1      40.460  27.582  28.770  1.00  0.00     0.049 A 
ATOM     49  H   UNL A   1      42.509  27.442  29.112  1.00  0.00     0.167 HD
ATOM     50  C   UNL A   1      46.791  26.990  29.856  1.00  0.00     0.031 A 
ATOM     51  C   UNL A   1      40.071  28.799  29.194  1.00  0.00     0.031 A 
ATOM     52  C   UNL A   1      46.482  28.329  30.279  1.00  0.00     0.049 A 
ATOM     53  C   UNL A   1      41.095  29.746  29.755  1.00  0.00     0.074 A 
ATOM     54  C   UNL A   1      47.336  29.294  30.786  1.00  0.00     0.029 A 
ATOM     55  N   UNL A   1      45.218  28.895  30.235  1.00  0.00    -0.354 N 
ATOM     56  N   UNL A   1      42.381  29.561  29.931  1.00  0.00    -0.248 NA
ATOM     57  C   UNL A   1      40.615  31.075  30.158  1.00  0.00     0.031 C 
ATOM     58  C   UNL A   1      46.580  30.436  31.076  1.00  0.00     0.029 A 
ATOM     59  C   UNL A   1      45.265  30.193  30.713  1.00  0.00     0.049 A 
ATOM     60  H   UNL A   1      44.406  28.440  29.912  1.00  0.00     0.167 HD
ATOM     61  C   UNL A   1      42.868  30.759  30.437  1.00  0.00     0.074 A 
ATOM     62  C   UNL A   1      41.742  31.665  30.530  1.00  0.00     0.031 C 
ATOM     63  C   UNL A   1      44.136  31.080  30.792  1.00  0.00     0.031 A 
BRANCH  50  64
ATOM     64  C   UNL A   1      48.200  26.495  30.015  1.00  0.00    -0.014 A 
ATOM     65  C   UNL A   1      48.613  25.845  31.188  1.00  0.00     0.009 A 
ATOM     66  C   UNL A   1      49.123  26.666  28.972  1.00  0.00     0.009 A 
ATOM     67  C   UNL A   1      49.932  25.409  31.330  1.00  0.00     0.001 A 
ATOM     68  C   UNL A   1      50.435  26.208  29.106  1.00  0.00     0.001 A 
ATOM     69  C   UNL A   1      50.841  25.589  30.288  1.00  0.00     0.000 A 
ENDBRANCH  50  64
BRANCH  51  70
ATOM     70  C   UNL A   1      38.651  29.209  29.069  1.00  0.00    -0.014 A 
ATOM     71  C   UNL A   1      37.779  29.087  30.162  1.00  0.00     0.009 A 
ATOM     72  C   UNL A   1      38.160  29.723  27.859  1.00  0.00     0.009 A 
ATOM     73  C   UNL A   1      36.437  29.450  30.038  1.00  0.00     0.001 A 
ATOM     74  C   UNL A   1      36.822  30.107  27.747  1.00  0.00     0.001 A 
ATOM     75  C   UNL A   1      35.960  29.963  28.833  1.00  0.00     0.000 A 
ENDBRANCH  51  70
BRANCH  63  76
ATOM     76  C   UNL A   1      44.375  32.481  31.275  1.00  0.00    -0.014 A 
ATOM     77  C   UNL A   1      44.299  32.804  32.637  1.00  0.00     0.009 A 
ATOM     78  C   UNL A   1      44.712  33.483  30.351  1.00  0.00     0.009 A 
ATOM     79  C   UNL A   1      44.526  34.114  33.063  1.00  0.00     0.001 A 
ATOM     80  C   UNL A   1      44.962  34.787  30.784  1.00  0.00     0.001 A 
ATOM     81  C   UNL A   1      44.860  35.102  32.137  1.00  0.00     0.000 A 
ENDBRANCH  63  76
ENDBRANCH  37  38
ENDBRANCH  29  32
ENDBRANCH  27  28
ENDBRANCH  26  27
ENDBRANCH  25  26
ENDBRANCH   1  25
TORSDOF 15
ENDMDL
