MODEL 1
REMARK VINA RESULT:     -10.6      0.000      0.000
REMARK SMILES C[C@@H]([NH3+])CCC(=O)N1CC(n2cc(C(=O)NCCCCCCNC(=O)c3ccc(-c4c5nc(c(-c6ccccc6)c6ccc([nH]6)c(-c6ccccc6)c6nc(c(-c7ccccc7)c7ccc4[nH]7)C=C6)C=C5)cc3)nn2)C1
REMARK SMILES IDX 18 1 17 2 16 3 14 4 15 5 13 7 11 8 12 9 75 10 74 11 10 12
REMARK SMILES IDX 6 13 7 14 8 15 9 16 76 17 5 18 4 19 2 20 1 21 3 22 19 26
REMARK SMILES IDX 20 27 21 28 22 29 23 30 24 31 25 33 26 34 27 35 73 36 28 37
REMARK SMILES IDX 72 38 29 39 30 40 31 41 66 42 32 43 71 44 65 45 67 46 33 47
REMARK SMILES IDX 70 48 64 49 63 50 34 52 56 53 41 54 55 55 42 56 45 57 54 58
REMARK SMILES IDX 68 59 43 60 44 61 53 63 69 64 46 65 35 66 36 67 40 68 37 69
REMARK SMILES IDX 39 70 38 71 57 72 58 73 62 74 59 75 61 76 60 77 47 78 48 79
REMARK SMILES IDX 52 80 49 81 51 82 50 83
REMARK H PARENT 16 6 3 23 3 24 3 25 23 32 67 51 45 62
REMARK Flexibility Score: inf
ROOT
ATOM      1  C   UNL A   1      35.441  30.167  27.747  1.00  0.00     0.021 C 
ENDROOT
BRANCH   1   2
ATOM      2  C   UNL A   1      34.565  29.022  27.236  1.00  0.00     0.116 C 
BRANCH   2   3
ATOM      3  N   UNL A   1      34.199  29.218  25.847  1.00  0.00    -0.351 N 
ATOM      4  C   UNL A   1      33.619  28.392  24.911  1.00  0.00     0.273 C 
ATOM      5  O   UNL A   1      33.305  28.917  23.842  1.00  0.00    -0.267 OA
ATOM      6  H   UNL A   1      34.406  30.118  25.506  1.00  0.00     0.163 HD
BRANCH   4   7
ATOM      7  C   UNL A   1      33.355  26.981  25.176  1.00  0.00     0.170 A 
ATOM      8  N   UNL A   1      33.324  24.812  25.364  1.00  0.00    -0.245 N 
ATOM      9  C   UNL A   1      33.941  25.831  24.684  1.00  0.00     0.145 A 
ATOM     10  N   UNL A   1      32.367  25.280  26.171  1.00  0.00    -0.066 NA
ATOM     11  N   UNL A   1      32.345  26.599  26.039  1.00  0.00    -0.125 NA
BRANCH   8  12
ATOM     12  C   UNL A   1      33.810  23.466  25.363  1.00  0.00     0.148 C 
ATOM     13  C   UNL A   1      33.706  20.423  24.475  1.00  0.00     0.222 C 
ATOM     14  O   UNL A   1      34.791  20.100  24.952  1.00  0.00    -0.275 OA
ATOM     15  N   UNL A   1      33.341  21.741  24.279  1.00  0.00    -0.338 N 
ATOM     16  C   UNL A   1      34.283  22.862  24.045  1.00  0.00     0.148 C 
ATOM     17  C   UNL A   1      32.620  22.514  25.293  1.00  0.00     0.148 C 
BRANCH  13  18
ATOM     18  C   UNL A   1      32.699  19.395  23.973  1.00  0.00     0.106 C 
BRANCH  18  19
ATOM     19  C   UNL A   1      33.221  17.985  23.676  1.00  0.00     0.074 C 
BRANCH  19  20
ATOM     20  C   UNL A   1      33.272  16.989  24.846  1.00  0.00     0.178 C 
ATOM     21  C   UNL A   1      34.593  16.242  24.988  1.00  0.00     0.075 C 
BRANCH  20  22
ATOM     22  N   UNL A   1      32.968  17.675  26.104  1.00  0.00    -0.355 N 
ATOM     23  H   UNL A   1      33.434  18.581  26.118  1.00  0.00     0.344 HD
ATOM     24  H   UNL A   1      33.296  17.110  26.887  1.00  0.00     0.344 HD
ATOM     25  H   UNL A   1      31.960  17.810  26.181  1.00  0.00     0.344 HD
ENDBRANCH  20  22
ENDBRANCH  19  20
ENDBRANCH  18  19
ENDBRANCH  13  18
ENDBRANCH   8  12
ENDBRANCH   4   7
ENDBRANCH   2   3
ENDBRANCH   1   2
BRANCH   1  26
ATOM     26  C   UNL A   1      36.649  29.722  28.585  1.00  0.00     0.002 C 
BRANCH  26  27
ATOM     27  C   UNL A   1      37.833  30.702  28.650  1.00  0.00     0.002 C 
BRANCH  27  28
ATOM     28  C   UNL A   1      37.489  32.191  28.799  1.00  0.00     0.021 C 
BRANCH  28  29
ATOM     29  C   UNL A   1      37.307  32.649  30.238  1.00  0.00     0.116 C 
BRANCH  29  30
ATOM     30  N   UNL A   1      38.252  33.694  30.622  1.00  0.00    -0.352 N 
ATOM     31  C   UNL A   1      39.475  33.558  31.256  1.00  0.00     0.251 C 
ATOM     32  H   UNL A   1      37.984  34.615  30.403  1.00  0.00     0.163 HD
ATOM     33  O   UNL A   1      39.985  34.492  31.848  1.00  0.00    -0.269 OA
BRANCH  31  34
ATOM     34  C   UNL A   1      40.153  32.250  31.202  1.00  0.00     0.039 A 
ATOM     35  C   UNL A   1      39.698  31.167  31.957  1.00  0.00     0.014 A 
ATOM     36  C   UNL A   1      41.250  32.116  30.356  1.00  0.00     0.014 A 
ATOM     37  C   UNL A   1      40.304  29.925  31.781  1.00  0.00     0.010 A 
ATOM     38  C   UNL A   1      41.740  30.867  30.069  1.00  0.00     0.010 A 
ATOM     39  C   UNL A   1      41.310  29.774  30.814  1.00  0.00    -0.014 A 
BRANCH  39  40
ATOM     40  C   UNL A   1      41.841  28.454  30.488  1.00  0.00     0.031 A 
ATOM     41  C   UNL A   1      42.632  27.812  31.571  1.00  0.00     0.074 A 
ATOM     42  C   UNL A   1      41.482  27.756  29.388  1.00  0.00     0.049 A 
ATOM     43  N   UNL A   1      43.895  27.550  31.560  1.00  0.00    -0.248 NA
ATOM     44  C   UNL A   1      41.973  27.530  32.857  1.00  0.00     0.031 C 
ATOM     45  C   UNL A   1      40.488  28.108  28.369  1.00  0.00     0.029 A 
ATOM     46  N   UNL A   1      41.852  26.498  29.021  1.00  0.00    -0.354 N 
ATOM     47  C   UNL A   1      44.162  26.884  32.752  1.00  0.00     0.074 A 
ATOM     48  C   UNL A   1      42.992  27.053  33.576  1.00  0.00     0.031 C 
ATOM     49  C   UNL A   1      40.151  27.003  27.667  1.00  0.00     0.029 A 
ATOM     50  C   UNL A   1      41.028  25.917  28.065  1.00  0.00     0.049 A 
ATOM     51  H   UNL A   1      42.636  26.039  29.400  1.00  0.00     0.167 HD
ATOM     52  C   UNL A   1      45.219  26.032  32.860  1.00  0.00     0.031 A 
ATOM     53  C   UNL A   1      41.045  24.628  27.647  1.00  0.00     0.031 A 
ATOM     54  C   UNL A   1      46.153  26.198  31.773  1.00  0.00     0.049 A 
ATOM     55  C   UNL A   1      42.371  24.068  27.992  1.00  0.00     0.074 A 
ATOM     56  C   UNL A   1      46.874  27.260  31.262  1.00  0.00     0.029 A 
ATOM     57  N   UNL A   1      46.138  25.247  30.779  1.00  0.00    -0.354 N 
ATOM     58  N   UNL A   1      43.474  24.444  27.414  1.00  0.00    -0.248 NA
ATOM     59  C   UNL A   1      42.533  23.423  29.285  1.00  0.00     0.031 C 
ATOM     60  C   UNL A   1      46.800  27.101  29.844  1.00  0.00     0.029 A 
ATOM     61  C   UNL A   1      46.117  25.913  29.581  1.00  0.00     0.049 A 
ATOM     62  H   UNL A   1      46.143  24.271  30.904  1.00  0.00     0.167 HD
ATOM     63  C   UNL A   1      44.396  24.526  28.446  1.00  0.00     0.074 A 
ATOM     64  C   UNL A   1      43.796  23.774  29.548  1.00  0.00     0.031 C 
ATOM     65  C   UNL A   1      45.415  25.437  28.411  1.00  0.00     0.031 A 
BRANCH  52  66
ATOM     66  C   UNL A   1      45.184  24.767  33.683  1.00  0.00    -0.014 A 
ATOM     67  C   UNL A   1      44.144  23.845  33.455  1.00  0.00     0.009 A 
ATOM     68  C   UNL A   1      45.936  24.593  34.859  1.00  0.00     0.009 A 
ATOM     69  C   UNL A   1      43.820  22.866  34.403  1.00  0.00     0.001 A 
ATOM     70  C   UNL A   1      45.644  23.589  35.786  1.00  0.00     0.001 A 
ATOM     71  C   UNL A   1      44.563  22.747  35.572  1.00  0.00     0.000 A 
ENDBRANCH  52  66
BRANCH  53  72
ATOM     72  C   UNL A   1      39.931  23.786  27.165  1.00  0.00    -0.014 A 
ATOM     73  C   UNL A   1      38.706  24.361  26.796  1.00  0.00     0.009 A 
ATOM     74  C   UNL A   1      40.161  22.445  26.805  1.00  0.00     0.009 A 
ATOM     75  C   UNL A   1      37.766  23.637  26.050  1.00  0.00     0.001 A 
ATOM     76  C   UNL A   1      39.220  21.721  26.064  1.00  0.00     0.001 A 
ATOM     77  C   UNL A   1      38.031  22.324  25.671  1.00  0.00     0.000 A 
ENDBRANCH  53  72
BRANCH  65  78
ATOM     78  C   UNL A   1      45.655  26.185  27.120  1.00  0.00    -0.014 A 
ATOM     79  C   UNL A   1      46.666  25.844  26.202  1.00  0.00     0.009 A 
ATOM     80  C   UNL A   1      44.748  27.191  26.757  1.00  0.00     0.009 A 
ATOM     81  C   UNL A   1      46.794  26.524  24.987  1.00  0.00     0.001 A 
ATOM     82  C   UNL A   1      44.860  27.852  25.531  1.00  0.00     0.001 A 
ATOM     83  C   UNL A   1      45.889  27.528  24.652  1.00  0.00     0.000 A 
ENDBRANCH  65  78
ENDBRANCH  39  40
ENDBRANCH  31  34
ENDBRANCH  29  30
ENDBRANCH  28  29
ENDBRANCH  27  28
ENDBRANCH  26  27
ENDBRANCH   1  26
TORSDOF 18
ENDMDL
MODEL 2
REMARK VINA RESULT:     -10.6      3.629      7.456
REMARK SMILES C[C@@H]([NH3+])CCC(=O)N1CC(n2cc(C(=O)NCCCCCCNC(=O)c3ccc(-c4c5nc(c(-c6ccccc6)c6ccc([nH]6)c(-c6ccccc6)c6nc(c(-c7ccccc7)c7ccc4[nH]7)C=C6)C=C5)cc3)nn2)C1
REMARK SMILES IDX 18 1 17 2 16 3 14 4 15 5 13 7 11 8 12 9 75 10 74 11 10 12
REMARK SMILES IDX 6 13 7 14 8 15 9 16 76 17 5 18 4 19 2 20 1 21 3 22 19 26
REMARK SMILES IDX 20 27 21 28 22 29 23 30 24 31 25 33 26 34 27 35 73 36 28 37
REMARK SMILES IDX 72 38 29 39 30 40 31 41 66 42 32 43 71 44 65 45 67 46 33 47
REMARK SMILES IDX 70 48 64 49 63 50 34 52 56 53 41 54 55 55 42 56 45 57 54 58
REMARK SMILES IDX 68 59 43 60 44 61 53 63 69 64 46 65 35 66 36 67 40 68 37 69
REMARK SMILES IDX 39 70 38 71 57 72 58 73 62 74 59 75 61 76 60 77 47 78 48 79
REMARK SMILES IDX 52 80 49 81 51 82 50 83
REMARK H PARENT 16 6 3 23 3 24 3 25 23 32 67 51 45 62
REMARK Flexibility Score: inf
ROOT
ATOM      1  C   UNL A   1      33.174  29.268  24.717  1.00  0.00     0.021 C 
ENDROOT
BRANCH   1   2
ATOM      2  C   UNL A   1      33.477  29.105  23.226  1.00  0.00     0.116 C 
BRANCH   2   3
ATOM      3  N   UNL A   1      32.308  28.657  22.497  1.00  0.00    -0.351 N 
ATOM      4  C   UNL A   1      31.773  27.409  22.269  1.00  0.00     0.273 C 
ATOM      5  O   UNL A   1      30.672  27.380  21.719  1.00  0.00    -0.267 OA
ATOM      6  H   UNL A   1      31.795  29.388  22.082  1.00  0.00     0.163 HD
BRANCH   4   7
ATOM      7  C   UNL A   1      32.453  26.185  22.685  1.00  0.00     0.170 A 
ATOM      8  N   UNL A   1      33.237  24.402  23.656  1.00  0.00    -0.245 N 
ATOM      9  C   UNL A   1      32.524  25.546  23.907  1.00  0.00     0.145 A 
ATOM     10  N   UNL A   1      33.651  24.359  22.386  1.00  0.00    -0.066 NA
ATOM     11  N   UNL A   1      33.215  25.460  21.789  1.00  0.00    -0.125 NA
BRANCH   8  12
ATOM     12  C   UNL A   1      33.319  23.313  24.582  1.00  0.00     0.148 C 
ATOM     13  C   UNL A   1      33.186  20.240  25.352  1.00  0.00     0.222 C 
ATOM     14  O   UNL A   1      33.615  20.363  26.496  1.00  0.00    -0.275 OA
ATOM     15  N   UNL A   1      33.313  21.231  24.398  1.00  0.00    -0.338 N 
ATOM     16  C   UNL A   1      34.390  22.250  24.363  1.00  0.00     0.148 C 
ATOM     17  C   UNL A   1      32.289  22.258  24.193  1.00  0.00     0.148 C 
BRANCH  13  18
ATOM     18  C   UNL A   1      32.551  18.947  24.855  1.00  0.00     0.106 C 
BRANCH  18  19
ATOM     19  C   UNL A   1      32.795  17.679  25.683  1.00  0.00     0.074 C 
BRANCH  19  20
ATOM     20  C   UNL A   1      33.208  16.408  24.922  1.00  0.00     0.178 C 
ATOM     21  C   UNL A   1      34.608  15.900  25.247  1.00  0.00     0.075 C 
BRANCH  20  22
ATOM     22  N   UNL A   1      32.238  15.339  25.164  1.00  0.00    -0.355 N 
ATOM     23  H   UNL A   1      32.501  14.824  26.004  1.00  0.00     0.344 HD
ATOM     24  H   UNL A   1      32.225  14.704  24.366  1.00  0.00     0.344 HD
ATOM     25  H   UNL A   1      31.310  15.744  25.291  1.00  0.00     0.344 HD
ENDBRANCH  20  22
ENDBRANCH  19  20
ENDBRANCH  18  19
ENDBRANCH  13  18
ENDBRANCH   8  12
ENDBRANCH   4   7
ENDBRANCH   2   3
ENDBRANCH   1   2
BRANCH   1  26
ATOM     26  C   UNL A   1      31.786  29.850  25.026  1.00  0.00     0.002 C 
BRANCH  26  27
ATOM     27  C   UNL A   1      31.554  30.333  26.468  1.00  0.00     0.002 C 
BRANCH  27  28
ATOM     28  C   UNL A   1      31.397  31.847  26.671  1.00  0.00     0.021 C 
BRANCH  28  29
ATOM     29  C   UNL A   1      32.670  32.552  27.116  1.00  0.00     0.116 C 
BRANCH  29  30
ATOM     30  N   UNL A   1      32.417  33.880  27.666  1.00  0.00    -0.352 N 
ATOM     31  C   UNL A   1      33.047  34.507  28.727  1.00  0.00     0.251 C 
ATOM     32  H   UNL A   1      31.705  34.398  27.226  1.00  0.00     0.163 HD
ATOM     33  O   UNL A   1      32.517  35.429  29.320  1.00  0.00    -0.269 OA
BRANCH  31  34
ATOM     34  C   UNL A   1      34.384  34.032  29.131  1.00  0.00     0.039 A 
ATOM     35  C   UNL A   1      34.557  33.238  30.267  1.00  0.00     0.014 A 
ATOM     36  C   UNL A   1      35.470  34.377  28.333  1.00  0.00     0.014 A 
ATOM     37  C   UNL A   1      35.822  32.721  30.538  1.00  0.00     0.010 A 
ATOM     38  C   UNL A   1      36.675  33.744  28.511  1.00  0.00     0.010 A 
ATOM     39  C   UNL A   1      36.874  32.957  29.640  1.00  0.00    -0.014 A 
BRANCH  39  40
ATOM     40  C   UNL A   1      38.162  32.289  29.806  1.00  0.00     0.031 A 
ATOM     41  C   UNL A   1      38.185  30.861  29.394  1.00  0.00     0.074 A 
ATOM     42  C   UNL A   1      39.307  32.940  30.103  1.00  0.00     0.049 A 
ATOM     43  N   UNL A   1      38.346  29.834  30.159  1.00  0.00    -0.248 NA
ATOM     44  C   UNL A   1      37.882  30.524  27.993  1.00  0.00     0.031 C 
ATOM     45  C   UNL A   1      39.525  34.384  30.247  1.00  0.00     0.029 A 
ATOM     46  N   UNL A   1      40.568  32.438  30.210  1.00  0.00    -0.354 N 
ATOM     47  C   UNL A   1      38.371  28.726  29.317  1.00  0.00     0.074 A 
ATOM     48  C   UNL A   1      37.913  29.189  28.031  1.00  0.00     0.031 C 
ATOM     49  C   UNL A   1      40.847  34.652  30.160  1.00  0.00     0.029 A 
ATOM     50  C   UNL A   1      41.573  33.396  30.135  1.00  0.00     0.049 A 
ATOM     51  H   UNL A   1      40.753  31.478  30.330  1.00  0.00     0.167 HD
ATOM     52  C   UNL A   1      39.012  27.581  29.681  1.00  0.00     0.031 A 
ATOM     53  C   UNL A   1      42.906  33.174  30.033  1.00  0.00     0.031 A 
ATOM     54  C   UNL A   1      39.309  27.560  31.093  1.00  0.00     0.049 A 
ATOM     55  C   UNL A   1      43.163  31.795  30.504  1.00  0.00     0.074 A 
ATOM     56  C   UNL A   1      38.560  27.680  32.248  1.00  0.00     0.029 A 
ATOM     57  N   UNL A   1      40.609  27.808  31.467  1.00  0.00    -0.354 N 
ATOM     58  N   UNL A   1      43.029  31.431  31.745  1.00  0.00    -0.248 NA
ATOM     59  C   UNL A   1      43.130  30.715  29.531  1.00  0.00     0.031 C 
ATOM     60  C   UNL A   1      39.357  28.487  33.116  1.00  0.00     0.029 A 
ATOM     61  C   UNL A   1      40.572  28.735  32.476  1.00  0.00     0.049 A 
ATOM     62  H   UNL A   1      41.417  27.395  31.083  1.00  0.00     0.167 HD
ATOM     63  C   UNL A   1      42.427  30.184  31.679  1.00  0.00     0.074 A 
ATOM     64  C   UNL A   1      42.622  29.745  30.298  1.00  0.00     0.031 C 
ATOM     65  C   UNL A   1      41.575  29.759  32.660  1.00  0.00     0.031 A 
BRANCH  52  66
ATOM     66  C   UNL A   1      39.756  26.701  28.706  1.00  0.00    -0.014 A 
ATOM     67  C   UNL A   1      40.791  27.271  27.940  1.00  0.00     0.009 A 
ATOM     68  C   UNL A   1      39.287  25.440  28.295  1.00  0.00     0.009 A 
ATOM     69  C   UNL A   1      41.258  26.652  26.774  1.00  0.00     0.001 A 
ATOM     70  C   UNL A   1      39.782  24.798  27.157  1.00  0.00     0.001 A 
ATOM     71  C   UNL A   1      40.745  25.422  26.378  1.00  0.00     0.000 A 
ENDBRANCH  52  66
BRANCH  53  72
ATOM     72  C   UNL A   1      43.941  33.987  29.362  1.00  0.00    -0.014 A 
ATOM     73  C   UNL A   1      45.059  34.452  30.073  1.00  0.00     0.009 A 
ATOM     74  C   UNL A   1      43.975  34.075  27.958  1.00  0.00     0.009 A 
ATOM     75  C   UNL A   1      46.187  34.940  29.401  1.00  0.00     0.001 A 
ATOM     76  C   UNL A   1      45.100  34.566  27.288  1.00  0.00     0.001 A 
ATOM     77  C   UNL A   1      46.214  34.981  28.009  1.00  0.00     0.000 A 
ENDBRANCH  53  72
BRANCH  65  78
ATOM     78  C   UNL A   1      41.491  30.574  33.931  1.00  0.00    -0.014 A 
ATOM     79  C   UNL A   1      42.261  30.302  35.078  1.00  0.00     0.009 A 
ATOM     80  C   UNL A   1      40.701  31.733  33.926  1.00  0.00     0.009 A 
ATOM     81  C   UNL A   1      42.199  31.135  36.200  1.00  0.00     0.001 A 
ATOM     82  C   UNL A   1      40.660  32.579  35.037  1.00  0.00     0.001 A 
ATOM     83  C   UNL A   1      41.399  32.274  36.177  1.00  0.00     0.000 A 
ENDBRANCH  65  78
ENDBRANCH  39  40
ENDBRANCH  31  34
ENDBRANCH  29  30
ENDBRANCH  28  29
ENDBRANCH  27  28
ENDBRANCH  26  27
ENDBRANCH   1  26
TORSDOF 18
ENDMDL
MODEL 3
REMARK VINA RESULT:     -10.5      3.237      8.775
REMARK SMILES C[C@@H]([NH3+])CCC(=O)N1CC(n2cc(C(=O)NCCCCCCNC(=O)c3ccc(-c4c5nc(c(-c6ccccc6)c6ccc([nH]6)c(-c6ccccc6)c6nc(c(-c7ccccc7)c7ccc4[nH]7)C=C6)C=C5)cc3)nn2)C1
REMARK SMILES IDX 18 1 17 2 16 3 14 4 15 5 13 7 11 8 12 9 75 10 74 11 10 12
REMARK SMILES IDX 6 13 7 14 8 15 9 16 76 17 5 18 4 19 2 20 1 21 3 22 19 26
REMARK SMILES IDX 20 27 21 28 22 29 23 30 24 31 25 33 26 34 27 35 73 36 28 37
REMARK SMILES IDX 72 38 29 39 30 40 31 41 66 42 32 43 71 44 65 45 67 46 33 47
REMARK SMILES IDX 70 48 64 49 63 50 34 52 56 53 41 54 55 55 42 56 45 57 54 58
REMARK SMILES IDX 68 59 43 60 44 61 53 63 69 64 46 65 35 66 36 67 40 68 37 69
REMARK SMILES IDX 39 70 38 71 57 72 58 73 62 74 59 75 61 76 60 77 47 78 48 79
REMARK SMILES IDX 52 80 49 81 51 82 50 83
REMARK H PARENT 16 6 3 23 3 24 3 25 23 32 67 51 45 62
REMARK Flexibility Score: inf
ROOT
ATOM      1  C   UNL A   1      35.918  21.716  24.777  1.00  0.00     0.021 C 
ENDROOT
BRANCH   1   2
ATOM      2  C   UNL A   1      35.228  21.132  26.011  1.00  0.00     0.116 C 
BRANCH   2   3
ATOM      3  N   UNL A   1      33.933  20.572  25.675  1.00  0.00    -0.351 N 
ATOM      4  C   UNL A   1      32.674  21.121  25.590  1.00  0.00     0.273 C 
ATOM      5  O   UNL A   1      31.793  20.394  25.132  1.00  0.00    -0.267 OA
ATOM      6  H   UNL A   1      33.960  19.610  25.467  1.00  0.00     0.163 HD
BRANCH   4   7
ATOM      7  C   UNL A   1      32.399  22.499  25.987  1.00  0.00     0.170 A 
ATOM      8  N   UNL A   1      32.091  24.645  26.181  1.00  0.00    -0.245 N 
ATOM      9  C   UNL A   1      32.651  23.702  25.357  1.00  0.00     0.145 A 
ATOM     10  N   UNL A   1      31.588  24.086  27.286  1.00  0.00    -0.066 NA
ATOM     11  N   UNL A   1      31.803  22.780  27.202  1.00  0.00    -0.125 NA
BRANCH   8  12
ATOM     12  C   UNL A   1      31.883  26.005  25.784  1.00  0.00     0.148 C 
ATOM     13  C   UNL A   1      30.663  28.246  23.901  1.00  0.00     0.222 C 
ATOM     14  O   UNL A   1      30.985  29.205  24.597  1.00  0.00    -0.275 OA
ATOM     15  N   UNL A   1      30.660  26.949  24.375  1.00  0.00    -0.338 N 
ATOM     16  C   UNL A   1      30.462  26.558  25.792  1.00  0.00     0.148 C 
ATOM     17  C   UNL A   1      31.826  26.069  24.261  1.00  0.00     0.148 C 
BRANCH  13  18
ATOM     18  C   UNL A   1      30.152  28.411  22.475  1.00  0.00     0.106 C 
BRANCH  18  19
ATOM     19  C   UNL A   1      29.921  29.840  21.970  1.00  0.00     0.074 C 
BRANCH  19  20
ATOM     20  C   UNL A   1      28.507  30.423  22.122  1.00  0.00     0.178 C 
ATOM     21  C   UNL A   1      28.058  31.313  20.969  1.00  0.00     0.075 C 
BRANCH  20  22
ATOM     22  N   UNL A   1      27.535  29.344  22.306  1.00  0.00    -0.355 N 
ATOM     23  H   UNL A   1      26.844  29.377  21.556  1.00  0.00     0.344 HD
ATOM     24  H   UNL A   1      27.067  29.457  23.205  1.00  0.00     0.344 HD
ATOM     25  H   UNL A   1      28.016  28.445  22.283  1.00  0.00     0.344 HD
ENDBRANCH  20  22
ENDBRANCH  19  20
ENDBRANCH  18  19
ENDBRANCH  13  18
ENDBRANCH   8  12
ENDBRANCH   4   7
ENDBRANCH   2   3
ENDBRANCH   1   2
BRANCH   1  26
ATOM     26  C   UNL A   1      36.372  23.175  24.929  1.00  0.00     0.002 C 
BRANCH  26  27
ATOM     27  C   UNL A   1      37.663  23.409  25.730  1.00  0.00     0.002 C 
BRANCH  27  28
ATOM     28  C   UNL A   1      38.651  22.236  25.804  1.00  0.00     0.021 C 
BRANCH  28  29
ATOM     29  C   UNL A   1      39.830  22.470  26.737  1.00  0.00     0.116 C 
BRANCH  29  30
ATOM     30  N   UNL A   1      41.114  22.160  26.113  1.00  0.00    -0.352 N 
ATOM     31  C   UNL A   1      42.106  23.035  25.705  1.00  0.00     0.251 C 
ATOM     32  H   UNL A   1      41.298  21.205  25.962  1.00  0.00     0.163 HD
ATOM     33  O   UNL A   1      42.939  22.704  24.881  1.00  0.00    -0.269 OA
BRANCH  31  34
ATOM     34  C   UNL A   1      42.135  24.388  26.292  1.00  0.00     0.039 A 
ATOM     35  C   UNL A   1      41.456  25.451  25.692  1.00  0.00     0.014 A 
ATOM     36  C   UNL A   1      42.840  24.573  27.477  1.00  0.00     0.014 A 
ATOM     37  C   UNL A   1      41.420  26.680  26.347  1.00  0.00     0.010 A 
ATOM     38  C   UNL A   1      42.674  25.730  28.194  1.00  0.00     0.010 A 
ATOM     39  C   UNL A   1      42.011  26.807  27.614  1.00  0.00    -0.014 A 
BRANCH  39  40
ATOM     40  C   UNL A   1      41.842  28.027  28.398  1.00  0.00     0.031 A 
ATOM     41  C   UNL A   1      42.832  29.098  28.111  1.00  0.00     0.074 A 
ATOM     42  C   UNL A   1      40.761  28.275  29.169  1.00  0.00     0.049 A 
ATOM     43  N   UNL A   1      43.742  29.550  28.907  1.00  0.00    -0.248 NA
ATOM     44  C   UNL A   1      42.897  29.656  26.750  1.00  0.00     0.031 C 
ATOM     45  C   UNL A   1      39.551  27.461  29.333  1.00  0.00     0.029 A 
ATOM     46  N   UNL A   1      40.463  29.397  29.880  1.00  0.00    -0.354 N 
ATOM     47  C   UNL A   1      44.367  30.590  28.228  1.00  0.00     0.074 A 
ATOM     48  C   UNL A   1      43.928  30.497  26.858  1.00  0.00     0.031 C 
ATOM     49  C   UNL A   1      38.567  28.218  29.867  1.00  0.00     0.029 A 
ATOM     50  C   UNL A   1      39.125  29.503  30.244  1.00  0.00     0.049 A 
ATOM     51  H   UNL A   1      41.136  30.075  30.117  1.00  0.00     0.167 HD
ATOM     52  C   UNL A   1      44.990  31.596  28.903  1.00  0.00     0.031 A 
ATOM     53  C   UNL A   1      38.512  30.580  30.792  1.00  0.00     0.031 A 
ATOM     54  C   UNL A   1      45.210  31.255  30.288  1.00  0.00     0.049 A 
ATOM     55  C   UNL A   1      39.563  31.432  31.391  1.00  0.00     0.074 A 
ATOM     56  C   UNL A   1      45.848  30.221  30.946  1.00  0.00     0.029 A 
ATOM     57  N   UNL A   1      44.376  31.829  31.218  1.00  0.00    -0.354 N 
ATOM     58  N   UNL A   1      40.251  31.082  32.438  1.00  0.00    -0.248 NA
ATOM     59  C   UNL A   1      40.166  32.468  30.567  1.00  0.00     0.031 C 
ATOM     60  C   UNL A   1      44.995  29.913  32.050  1.00  0.00     0.029 A 
ATOM     61  C   UNL A   1      43.942  30.828  32.047  1.00  0.00     0.049 A 
ATOM     62  H   UNL A   1      44.136  32.782  31.279  1.00  0.00     0.167 HD
ATOM     63  C   UNL A   1      41.547  31.483  32.152  1.00  0.00     0.074 A 
ATOM     64  C   UNL A   1      41.413  32.432  31.048  1.00  0.00     0.031 C 
ATOM     65  C   UNL A   1      42.622  30.789  32.635  1.00  0.00     0.031 A 
BRANCH  52  66
ATOM     66  C   UNL A   1      44.994  33.031  28.435  1.00  0.00    -0.014 A 
ATOM     67  C   UNL A   1      46.227  33.700  28.326  1.00  0.00     0.009 A 
ATOM     68  C   UNL A   1      43.836  33.830  28.394  1.00  0.00     0.009 A 
ATOM     69  C   UNL A   1      46.295  35.098  28.276  1.00  0.00     0.001 A 
ATOM     70  C   UNL A   1      43.898  35.223  28.300  1.00  0.00     0.001 A 
ATOM     71  C   UNL A   1      45.131  35.858  28.276  1.00  0.00     0.000 A 
ENDBRANCH  52  66
BRANCH  53  72
ATOM     72  C   UNL A   1      37.112  31.032  30.652  1.00  0.00    -0.014 A 
ATOM     73  C   UNL A   1      36.364  31.407  31.779  1.00  0.00     0.009 A 
ATOM     74  C   UNL A   1      36.597  31.361  29.385  1.00  0.00     0.009 A 
ATOM     75  C   UNL A   1      35.170  32.127  31.644  1.00  0.00     0.001 A 
ATOM     76  C   UNL A   1      35.402  32.077  29.250  1.00  0.00     0.001 A 
ATOM     77  C   UNL A   1      34.699  32.476  30.380  1.00  0.00     0.000 A 
ENDBRANCH  53  72
BRANCH  65  78
ATOM     78  C   UNL A   1      42.371  29.724  33.678  1.00  0.00    -0.014 A 
ATOM     79  C   UNL A   1      42.399  29.973  35.063  1.00  0.00     0.009 A 
ATOM     80  C   UNL A   1      41.967  28.453  33.245  1.00  0.00     0.009 A 
ATOM     81  C   UNL A   1      42.084  28.967  35.982  1.00  0.00     0.001 A 
ATOM     82  C   UNL A   1      41.627  27.456  34.162  1.00  0.00     0.001 A 
ATOM     83  C   UNL A   1      41.697  27.708  35.530  1.00  0.00     0.000 A 
ENDBRANCH  65  78
ENDBRANCH  39  40
ENDBRANCH  31  34
ENDBRANCH  29  30
ENDBRANCH  28  29
ENDBRANCH  27  28
ENDBRANCH  26  27
ENDBRANCH   1  26
TORSDOF 18
ENDMDL
