MODEL 1
REMARK VINA RESULT:     -12.0      0.000      0.000
REMARK SMILES Cc1cc(OCC(=O)NCCCCCCNC(=O)c2ccc(-c3c4nc(c(-c5ccccc5)c5ccc([nH]5)c(-c5ccccc5)c5nc(c(-c6ccccc6)c6ccc3[nH]6)C=C5)C=C4)cc2)ccc1NC(=O)c1ccc(N2C(=O)[C@@H]3[C@H](C2=O)[C@H]2C=C[C@@H]3C2)cc1
REMARK SMILES IDX 11 1 10 2 9 3 7 4 8 5 6 7 5 8 4 9 1 10 2 11 3 12 69 13 68 14
REMARK SMILES IDX 67 15 70 16 71 17 72 19 73 20 74 21 90 22 75 23 89 24 76 25
REMARK SMILES IDX 77 26 78 27 82 28 79 29 80 30 81 31 83 32 87 33 84 34 86 35
REMARK SMILES IDX 88 36 85 37 12 38 13 39 14 40 15 41 16 42 17 43 18 45 19 46
REMARK SMILES IDX 20 47 66 48 21 49 65 50 22 51 23 52 24 53 59 54 25 55 64 56
REMARK SMILES IDX 58 57 60 58 26 59 63 60 57 61 56 62 27 64 49 65 34 66 48 67
REMARK SMILES IDX 35 68 38 69 47 70 61 71 36 72 37 73 46 75 62 76 39 77 28 78
REMARK SMILES IDX 29 79 33 80 30 81 32 82 31 83 50 84 51 85 55 86 52 87 54 88
REMARK SMILES IDX 53 89 40 90 41 91 45 92 42 93 44 94 43 95
REMARK H PARENT 9 6 70 18 16 44 60 63 38 74
REMARK Flexibility Score: inf
ROOT
ATOM      1  C   UNL A   1      39.375  26.723  27.955  1.00  0.00     0.021 C 
ENDROOT
BRANCH   1   2
ATOM      2  C   UNL A   1      40.707  26.441  27.261  1.00  0.00     0.116 C 
BRANCH   2   3
ATOM      3  N   UNL A   1      40.984  27.362  26.181  1.00  0.00    -0.353 N 
ATOM      4  C   UNL A   1      42.190  27.665  25.618  1.00  0.00     0.257 C 
ATOM      5  O   UNL A   1      42.210  28.391  24.621  1.00  0.00    -0.271 OA
ATOM      6  H   UNL A   1      40.205  27.830  25.804  1.00  0.00     0.163 HD
BRANCH   4   7
ATOM      7  C   UNL A   1      43.478  27.073  26.208  1.00  0.00     0.329 C 
BRANCH   7   8
ATOM      8  O   UNL A   1      44.168  26.121  25.410  1.00  0.00    -0.484 OA
BRANCH   8   9
ATOM      9  C   UNL A   1      43.910  24.799  25.636  1.00  0.00     0.120 A 
ATOM     10  C   UNL A   1      43.541  22.824  28.855  1.00  0.00     0.047 C 
ATOM     11  C   UNL A   1      43.605  23.097  27.376  1.00  0.00    -0.024 A 
ATOM     12  C   UNL A   1      43.818  24.435  26.981  1.00  0.00     0.052 A 
ATOM     13  C   UNL A   1      43.495  22.110  26.383  1.00  0.00     0.044 A 
ATOM     14  C   UNL A   1      43.529  22.494  25.037  1.00  0.00     0.030 A 
ATOM     15  C   UNL A   1      43.734  23.824  24.664  1.00  0.00     0.048 A 
BRANCH  13  16
ATOM     16  N   UNL A   1      43.295  20.760  26.737  1.00  0.00    -0.322 N 
ATOM     17  C   UNL A   1      42.140  20.106  27.110  1.00  0.00     0.255 C 
ATOM     18  H   UNL A   1      44.105  20.199  26.714  1.00  0.00     0.170 HD
ATOM     19  O   UNL A   1      42.197  19.040  27.721  1.00  0.00    -0.269 OA
BRANCH  17  20
ATOM     20  C   UNL A   1      40.814  20.610  26.677  1.00  0.00     0.040 A 
ATOM     21  C   UNL A   1      40.026  19.831  25.828  1.00  0.00     0.016 A 
ATOM     22  C   UNL A   1      40.369  21.877  27.062  1.00  0.00     0.016 A 
ATOM     23  C   UNL A   1      38.772  20.298  25.410  1.00  0.00     0.027 A 
ATOM     24  C   UNL A   1      39.128  22.348  26.619  1.00  0.00     0.027 A 
ATOM     25  C   UNL A   1      38.306  21.568  25.791  1.00  0.00     0.052 A 
BRANCH  25  26
ATOM     26  N   UNL A   1      37.047  22.059  25.343  1.00  0.00    -0.250 N 
ATOM     27  C   UNL A   1      36.003  21.247  24.946  1.00  0.00     0.238 C 
ATOM     28  C   UNL A   1      36.720  23.399  25.295  1.00  0.00     0.238 C 
ATOM     29  O   UNL A   1      35.948  20.023  24.929  1.00  0.00    -0.274 OA
ATOM     30  C   UNL A   1      34.821  22.103  24.585  1.00  0.00     0.099 C 
ATOM     31  C   UNL A   1      35.325  23.547  24.759  1.00  0.00     0.099 C 
ATOM     32  O   UNL A   1      37.398  24.370  25.603  1.00  0.00    -0.274 OA
ATOM     33  C   UNL A   1      33.650  22.028  25.591  1.00  0.00     0.025 C 
ATOM     34  C   UNL A   1      34.360  24.140  25.804  1.00  0.00     0.025 C 
ATOM     35  C   UNL A   1      32.557  22.926  25.046  1.00  0.00    -0.027 C 
ATOM     36  C   UNL A   1      34.123  22.940  26.732  1.00  0.00     0.017 C 
ATOM     37  C   UNL A   1      32.988  24.194  25.166  1.00  0.00    -0.027 C 
ENDBRANCH  25  26
ENDBRANCH  17  20
ENDBRANCH  13  16
ENDBRANCH   8   9
ENDBRANCH   7   8
ENDBRANCH   4   7
ENDBRANCH   2   3
ENDBRANCH   1   2
BRANCH   1  38
ATOM     38  C   UNL A   1      39.229  28.102  28.611  1.00  0.00     0.002 C 
BRANCH  38  39
ATOM     39  C   UNL A   1      38.475  29.186  27.822  1.00  0.00     0.002 C 
BRANCH  39  40
ATOM     40  C   UNL A   1      36.985  29.356  28.123  1.00  0.00     0.021 C 
BRANCH  40  41
ATOM     41  C   UNL A   1      36.401  30.705  27.731  1.00  0.00     0.116 C 
BRANCH  41  42
ATOM     42  N   UNL A   1      35.545  31.308  28.743  1.00  0.00    -0.352 N 
ATOM     43  C   UNL A   1      35.890  31.997  29.903  1.00  0.00     0.251 C 
ATOM     44  H   UNL A   1      34.579  31.215  28.583  1.00  0.00     0.163 HD
ATOM     45  O   UNL A   1      35.037  32.412  30.642  1.00  0.00    -0.269 OA
BRANCH  43  46
ATOM     46  C   UNL A   1      37.324  32.334  30.138  1.00  0.00     0.039 A 
ATOM     47  C   UNL A   1      38.109  31.371  30.783  1.00  0.00     0.014 A 
ATOM     48  C   UNL A   1      37.824  33.615  29.928  1.00  0.00     0.014 A 
ATOM     49  C   UNL A   1      39.265  31.771  31.450  1.00  0.00     0.010 A 
ATOM     50  C   UNL A   1      38.915  34.035  30.662  1.00  0.00     0.010 A 
ATOM     51  C   UNL A   1      39.587  33.128  31.483  1.00  0.00    -0.014 A 
BRANCH  51  52
ATOM     52  C   UNL A   1      40.493  33.699  32.471  1.00  0.00     0.031 A 
ATOM     53  C   UNL A   1      39.977  34.319  33.706  1.00  0.00     0.074 A 
ATOM     54  C   UNL A   1      41.826  33.655  32.255  1.00  0.00     0.049 A 
ATOM     55  N   UNL A   1      40.573  35.277  34.334  1.00  0.00    -0.248 NA
ATOM     56  C   UNL A   1      38.713  33.922  34.317  1.00  0.00     0.031 C 
ATOM     57  C   UNL A   1      42.895  33.984  33.196  1.00  0.00     0.029 A 
ATOM     58  N   UNL A   1      42.514  33.448  31.075  1.00  0.00    -0.354 N 
ATOM     59  C   UNL A   1      39.952  35.415  35.551  1.00  0.00     0.074 A 
ATOM     60  C   UNL A   1      38.754  34.609  35.464  1.00  0.00     0.031 C 
ATOM     61  C   UNL A   1      44.022  34.227  32.504  1.00  0.00     0.029 A 
ATOM     62  C   UNL A   1      43.683  34.203  31.090  1.00  0.00     0.049 A 
ATOM     63  H   UNL A   1      42.223  32.861  30.340  1.00  0.00     0.167 HD
ATOM     64  C   UNL A   1      40.578  36.070  36.567  1.00  0.00     0.031 A 
ATOM     65  C   UNL A   1      43.903  35.234  30.220  1.00  0.00     0.031 A 
ATOM     66  C   UNL A   1      41.878  36.597  36.167  1.00  0.00     0.049 A 
ATOM     67  C   UNL A   1      44.028  36.587  30.902  1.00  0.00     0.074 A 
ATOM     68  C   UNL A   1      43.173  36.130  36.327  1.00  0.00     0.029 A 
ATOM     69  N   UNL A   1      41.940  37.608  35.218  1.00  0.00    -0.354 N 
ATOM     70  N   UNL A   1      43.690  36.813  32.142  1.00  0.00    -0.248 NA
ATOM     71  C   UNL A   1      44.483  37.802  30.225  1.00  0.00     0.031 C 
ATOM     72  C   UNL A   1      44.001  36.806  35.394  1.00  0.00     0.029 A 
ATOM     73  C   UNL A   1      43.216  37.706  34.696  1.00  0.00     0.049 A 
ATOM     74  H   UNL A   1      41.180  38.176  34.952  1.00  0.00     0.167 HD
ATOM     75  C   UNL A   1      43.841  38.144  32.428  1.00  0.00     0.074 A 
ATOM     76  C   UNL A   1      44.362  38.720  31.201  1.00  0.00     0.031 C 
ATOM     77  C   UNL A   1      43.502  38.667  33.641  1.00  0.00     0.031 A 
BRANCH  64  78
ATOM     78  C   UNL A   1      40.120  35.936  37.993  1.00  0.00    -0.014 A 
ATOM     79  C   UNL A   1      39.424  36.992  38.607  1.00  0.00     0.009 A 
ATOM     80  C   UNL A   1      40.396  34.816  38.796  1.00  0.00     0.009 A 
ATOM     81  C   UNL A   1      39.115  36.977  39.973  1.00  0.00     0.001 A 
ATOM     82  C   UNL A   1      40.127  34.812  40.172  1.00  0.00     0.001 A 
ATOM     83  C   UNL A   1      39.495  35.899  40.762  1.00  0.00     0.000 A 
ENDBRANCH  64  78
BRANCH  65  84
ATOM     84  C   UNL A   1      43.310  35.026  28.870  1.00  0.00    -0.014 A 
ATOM     85  C   UNL A   1      42.173  35.781  28.521  1.00  0.00     0.009 A 
ATOM     86  C   UNL A   1      44.032  34.393  27.850  1.00  0.00     0.009 A 
ATOM     87  C   UNL A   1      41.839  35.997  27.180  1.00  0.00     0.001 A 
ATOM     88  C   UNL A   1      43.686  34.602  26.507  1.00  0.00     0.001 A 
ATOM     89  C   UNL A   1      42.616  35.432  26.174  1.00  0.00     0.000 A 
ENDBRANCH  65  84
BRANCH  77  90
ATOM     90  C   UNL A   1      43.452  40.132  33.981  1.00  0.00    -0.014 A 
ATOM     91  C   UNL A   1      42.562  41.042  33.396  1.00  0.00     0.009 A 
ATOM     92  C   UNL A   1      44.241  40.608  35.052  1.00  0.00     0.009 A 
ATOM     93  C   UNL A   1      42.496  42.373  33.831  1.00  0.00     0.001 A 
ATOM     94  C   UNL A   1      44.147  41.921  35.517  1.00  0.00     0.001 A 
ATOM     95  C   UNL A   1      43.279  42.809  34.897  1.00  0.00     0.000 A 
ENDBRANCH  77  90
ENDBRANCH  51  52
ENDBRANCH  43  46
ENDBRANCH  41  42
ENDBRANCH  40  41
ENDBRANCH  39  40
ENDBRANCH  38  39
ENDBRANCH   1  38
TORSDOF 18
ENDMDL
MODEL 2
REMARK VINA RESULT:     -11.8      5.365     15.097
REMARK SMILES Cc1cc(OCC(=O)NCCCCCCNC(=O)c2ccc(-c3c4nc(c(-c5ccccc5)c5ccc([nH]5)c(-c5ccccc5)c5nc(c(-c6ccccc6)c6ccc3[nH]6)C=C5)C=C4)cc2)ccc1NC(=O)c1ccc(N2C(=O)[C@@H]3[C@H](C2=O)[C@H]2C=C[C@@H]3C2)cc1
REMARK SMILES IDX 11 1 10 2 9 3 7 4 8 5 6 7 5 8 4 9 1 10 2 11 3 12 69 13 68 14
REMARK SMILES IDX 67 15 70 16 71 17 72 19 73 20 74 21 90 22 75 23 89 24 76 25
REMARK SMILES IDX 77 26 78 27 82 28 79 29 80 30 81 31 83 32 87 33 84 34 86 35
REMARK SMILES IDX 88 36 85 37 12 38 13 39 14 40 15 41 16 42 17 43 18 45 19 46
REMARK SMILES IDX 20 47 66 48 21 49 65 50 22 51 23 52 24 53 59 54 25 55 64 56
REMARK SMILES IDX 58 57 60 58 26 59 63 60 57 61 56 62 27 64 49 65 34 66 48 67
REMARK SMILES IDX 35 68 38 69 47 70 61 71 36 72 37 73 46 75 62 76 39 77 28 78
REMARK SMILES IDX 29 79 33 80 30 81 32 82 31 83 50 84 51 85 55 86 52 87 54 88
REMARK SMILES IDX 53 89 40 90 41 91 45 92 42 93 44 94 43 95
REMARK H PARENT 9 6 70 18 16 44 60 63 38 74
REMARK Flexibility Score: inf
ROOT
ATOM      1  C   UNL A   1      43.211  34.549  30.180  1.00  0.00     0.021 C 
ENDROOT
BRANCH   1   2
ATOM      2  C   UNL A   1      43.525  33.443  29.174  1.00  0.00     0.116 C 
BRANCH   2   3
ATOM      3  N   UNL A   1      44.933  33.117  29.118  1.00  0.00    -0.353 N 
ATOM      4  C   UNL A   1      45.779  33.207  28.051  1.00  0.00     0.257 C 
ATOM      5  O   UNL A   1      46.980  32.996  28.231  1.00  0.00    -0.271 OA
ATOM      6  H   UNL A   1      45.331  32.788  29.955  1.00  0.00     0.163 HD
BRANCH   4   7
ATOM      7  C   UNL A   1      45.230  33.604  26.672  1.00  0.00     0.329 C 
BRANCH   7   8
ATOM      8  O   UNL A   1      45.397  34.959  26.284  1.00  0.00    -0.484 OA
BRANCH   8   9
ATOM      9  C   UNL A   1      44.473  35.864  26.724  1.00  0.00     0.120 A 
ATOM     10  C   UNL A   1      44.674  38.576  29.371  1.00  0.00     0.047 C 
ATOM     11  C   UNL A   1      44.076  37.699  28.303  1.00  0.00    -0.024 A 
ATOM     12  C   UNL A   1      44.927  36.740  27.713  1.00  0.00     0.052 A 
ATOM     13  C   UNL A   1      42.736  37.760  27.888  1.00  0.00     0.044 A 
ATOM     14  C   UNL A   1      42.307  36.918  26.854  1.00  0.00     0.030 A 
ATOM     15  C   UNL A   1      43.164  35.979  26.276  1.00  0.00     0.048 A 
BRANCH  13  16
ATOM     16  N   UNL A   1      41.852  38.694  28.463  1.00  0.00    -0.322 N 
ATOM     17  C   UNL A   1      41.819  40.068  28.346  1.00  0.00     0.255 C 
ATOM     18  H   UNL A   1      41.149  38.306  29.034  1.00  0.00     0.170 HD
ATOM     19  O   UNL A   1      41.223  40.750  29.178  1.00  0.00    -0.269 OA
BRANCH  17  20
ATOM     20  C   UNL A   1      42.397  40.738  27.155  1.00  0.00     0.040 A 
ATOM     21  C   UNL A   1      43.591  41.450  27.279  1.00  0.00     0.016 A 
ATOM     22  C   UNL A   1      41.732  40.713  25.928  1.00  0.00     0.016 A 
ATOM     23  C   UNL A   1      44.145  42.090  26.161  1.00  0.00     0.027 A 
ATOM     24  C   UNL A   1      42.276  41.377  24.823  1.00  0.00     0.027 A 
ATOM     25  C   UNL A   1      43.493  42.072  24.917  1.00  0.00     0.052 A 
BRANCH  25  26
ATOM     26  N   UNL A   1      44.035  42.747  23.787  1.00  0.00    -0.250 N 
ATOM     27  C   UNL A   1      43.438  43.835  23.182  1.00  0.00     0.238 C 
ATOM     28  C   UNL A   1      45.237  42.411  23.197  1.00  0.00     0.238 C 
ATOM     29  O   UNL A   1      42.405  44.414  23.496  1.00  0.00    -0.274 OA
ATOM     30  C   UNL A   1      44.310  44.314  22.055  1.00  0.00     0.099 C 
ATOM     31  C   UNL A   1      45.483  43.319  22.027  1.00  0.00     0.099 C 
ATOM     32  O   UNL A   1      46.025  41.525  23.503  1.00  0.00    -0.274 OA
ATOM     33  C   UNL A   1      45.014  45.663  22.325  1.00  0.00     0.025 C 
ATOM     34  C   UNL A   1      46.719  44.216  22.237  1.00  0.00     0.025 C 
ATOM     35  C   UNL A   1      45.815  45.987  21.080  1.00  0.00    -0.027 C 
ATOM     36  C   UNL A   1      46.188  45.259  23.229  1.00  0.00     0.017 C 
ATOM     37  C   UNL A   1      46.833  45.112  21.023  1.00  0.00    -0.027 C 
ENDBRANCH  25  26
ENDBRANCH  17  20
ENDBRANCH  13  16
ENDBRANCH   8   9
ENDBRANCH   7   8
ENDBRANCH   4   7
ENDBRANCH   2   3
ENDBRANCH   1   2
BRANCH   1  38
ATOM     38  C   UNL A   1      41.726  34.879  30.387  1.00  0.00     0.002 C 
BRANCH  38  39
ATOM     39  C   UNL A   1      40.696  33.986  29.676  1.00  0.00     0.002 C 
BRANCH  39  40
ATOM     40  C   UNL A   1      39.383  33.715  30.413  1.00  0.00     0.021 C 
BRANCH  40  41
ATOM     41  C   UNL A   1      38.795  32.330  30.188  1.00  0.00     0.116 C 
BRANCH  41  42
ATOM     42  N   UNL A   1      37.384  32.327  29.828  1.00  0.00    -0.352 N 
ATOM     43  C   UNL A   1      36.648  31.375  29.127  1.00  0.00     0.251 C 
ATOM     44  H   UNL A   1      36.874  33.114  30.125  1.00  0.00     0.163 HD
ATOM     45  O   UNL A   1      35.480  31.552  28.901  1.00  0.00    -0.269 OA
BRANCH  43  46
ATOM     46  C   UNL A   1      37.294  30.074  28.787  1.00  0.00     0.039 A 
ATOM     47  C   UNL A   1      37.428  29.138  29.819  1.00  0.00     0.014 A 
ATOM     48  C   UNL A   1      37.930  29.864  27.568  1.00  0.00     0.014 A 
ATOM     49  C   UNL A   1      38.405  28.151  29.721  1.00  0.00     0.010 A 
ATOM     50  C   UNL A   1      38.962  28.949  27.501  1.00  0.00     0.010 A 
ATOM     51  C   UNL A   1      39.248  28.148  28.608  1.00  0.00    -0.014 A 
BRANCH  51  52
ATOM     52  C   UNL A   1      40.534  27.464  28.596  1.00  0.00     0.031 A 
ATOM     53  C   UNL A   1      40.618  26.009  28.371  1.00  0.00     0.074 A 
ATOM     54  C   UNL A   1      41.667  28.174  28.789  1.00  0.00     0.049 A 
ATOM     55  N   UNL A   1      41.551  25.258  28.855  1.00  0.00    -0.248 NA
ATOM     56  C   UNL A   1      39.622  25.273  27.598  1.00  0.00     0.031 C 
ATOM     57  C   UNL A   1      43.046  27.720  28.618  1.00  0.00     0.029 A 
ATOM     58  N   UNL A   1      41.828  29.432  29.338  1.00  0.00    -0.354 N 
ATOM     59  C   UNL A   1      41.453  24.037  28.234  1.00  0.00     0.074 A 
ATOM     60  C   UNL A   1      40.194  24.066  27.522  1.00  0.00     0.031 C 
ATOM     61  C   UNL A   1      43.861  28.545  29.298  1.00  0.00     0.029 A 
ATOM     62  C   UNL A   1      43.026  29.471  30.045  1.00  0.00     0.049 A 
ATOM     63  H   UNL A   1      41.195  30.180  29.244  1.00  0.00     0.167 HD
ATOM     64  C   UNL A   1      42.507  23.175  28.253  1.00  0.00     0.031 A 
ATOM     65  C   UNL A   1      43.073  29.641  31.401  1.00  0.00     0.031 A 
ATOM     66  C   UNL A   1      43.635  23.697  29.017  1.00  0.00     0.049 A 
ATOM     67  C   UNL A   1      43.657  28.449  32.141  1.00  0.00     0.074 A 
ATOM     68  C   UNL A   1      44.803  24.344  28.647  1.00  0.00     0.029 A 
ATOM     69  N   UNL A   1      43.505  23.874  30.387  1.00  0.00    -0.354 N 
ATOM     70  N   UNL A   1      43.842  27.275  31.604  1.00  0.00    -0.248 NA
ATOM     71  C   UNL A   1      44.022  28.468  33.559  1.00  0.00     0.031 C 
ATOM     72  C   UNL A   1      45.326  24.994  29.795  1.00  0.00     0.029 A 
ATOM     73  C   UNL A   1      44.496  24.710  30.865  1.00  0.00     0.049 A 
ATOM     74  H   UNL A   1      42.803  23.461  30.943  1.00  0.00     0.167 HD
ATOM     75  C   UNL A   1      44.302  26.398  32.551  1.00  0.00     0.074 A 
ATOM     76  C   UNL A   1      44.420  27.199  33.756  1.00  0.00     0.031 C 
ATOM     77  C   UNL A   1      44.524  25.082  32.271  1.00  0.00     0.031 A 
BRANCH  64  78
ATOM     78  C   UNL A   1      42.593  22.011  27.304  1.00  0.00    -0.014 A 
ATOM     79  C   UNL A   1      41.861  20.840  27.565  1.00  0.00     0.009 A 
ATOM     80  C   UNL A   1      43.421  21.993  26.169  1.00  0.00     0.009 A 
ATOM     81  C   UNL A   1      42.027  19.679  26.799  1.00  0.00     0.001 A 
ATOM     82  C   UNL A   1      43.624  20.824  25.423  1.00  0.00     0.001 A 
ATOM     83  C   UNL A   1      42.933  19.662  25.747  1.00  0.00     0.000 A 
ENDBRANCH  64  78
BRANCH  65  84
ATOM     84  C   UNL A   1      41.998  30.519  31.940  1.00  0.00    -0.014 A 
ATOM     85  C   UNL A   1      40.776  29.923  32.308  1.00  0.00     0.009 A 
ATOM     86  C   UNL A   1      42.281  31.808  32.410  1.00  0.00     0.009 A 
ATOM     87  C   UNL A   1      39.918  30.549  33.217  1.00  0.00     0.001 A 
ATOM     88  C   UNL A   1      41.412  32.437  33.311  1.00  0.00     0.001 A 
ATOM     89  C   UNL A   1      40.252  31.793  33.742  1.00  0.00     0.000 A 
ENDBRANCH  65  84
BRANCH  77  90
ATOM     90  C   UNL A   1      44.841  24.012  33.283  1.00  0.00    -0.014 A 
ATOM     91  C   UNL A   1      43.915  23.064  33.737  1.00  0.00     0.009 A 
ATOM     92  C   UNL A   1      46.180  23.850  33.701  1.00  0.00     0.009 A 
ATOM     93  C   UNL A   1      44.301  22.031  34.602  1.00  0.00     0.001 A 
ATOM     94  C   UNL A   1      46.576  22.796  34.527  1.00  0.00     0.001 A 
ATOM     95  C   UNL A   1      45.631  21.891  34.988  1.00  0.00     0.000 A 
ENDBRANCH  77  90
ENDBRANCH  51  52
ENDBRANCH  43  46
ENDBRANCH  41  42
ENDBRANCH  40  41
ENDBRANCH  39  40
ENDBRANCH  38  39
ENDBRANCH   1  38
TORSDOF 18
ENDMDL
MODEL 3
REMARK VINA RESULT:     -11.8      3.652      9.431
REMARK SMILES Cc1cc(OCC(=O)NCCCCCCNC(=O)c2ccc(-c3c4nc(c(-c5ccccc5)c5ccc([nH]5)c(-c5ccccc5)c5nc(c(-c6ccccc6)c6ccc3[nH]6)C=C5)C=C4)cc2)ccc1NC(=O)c1ccc(N2C(=O)[C@@H]3[C@H](C2=O)[C@H]2C=C[C@@H]3C2)cc1
REMARK SMILES IDX 11 1 10 2 9 3 7 4 8 5 6 7 5 8 4 9 1 10 2 11 3 12 69 13 68 14
REMARK SMILES IDX 67 15 70 16 71 17 72 19 73 20 74 21 90 22 75 23 89 24 76 25
REMARK SMILES IDX 77 26 78 27 82 28 79 29 80 30 81 31 83 32 87 33 84 34 86 35
REMARK SMILES IDX 88 36 85 37 12 38 13 39 14 40 15 41 16 42 17 43 18 45 19 46
REMARK SMILES IDX 20 47 66 48 21 49 65 50 22 51 23 52 24 53 59 54 25 55 64 56
REMARK SMILES IDX 58 57 60 58 26 59 63 60 57 61 56 62 27 64 49 65 34 66 48 67
REMARK SMILES IDX 35 68 38 69 47 70 61 71 36 72 37 73 46 75 62 76 39 77 28 78
REMARK SMILES IDX 29 79 33 80 30 81 32 82 31 83 50 84 51 85 55 86 52 87 54 88
REMARK SMILES IDX 53 89 40 90 41 91 45 92 42 93 44 94 43 95
REMARK H PARENT 9 6 70 18 16 44 60 63 38 74
REMARK Flexibility Score: inf
ROOT
ATOM      1  C   UNL A   1      33.843  34.800  28.468  1.00  0.00     0.021 C 
ENDROOT
BRANCH   1   2
ATOM      2  C   UNL A   1      33.520  33.337  28.166  1.00  0.00     0.116 C 
BRANCH   2   3
ATOM      3  N   UNL A   1      34.576  32.434  28.569  1.00  0.00    -0.353 N 
ATOM      4  C   UNL A   1      34.732  31.118  28.241  1.00  0.00     0.257 C 
ATOM      5  O   UNL A   1      35.767  30.543  28.586  1.00  0.00    -0.271 OA
ATOM      6  H   UNL A   1      35.269  32.816  29.153  1.00  0.00     0.163 HD
BRANCH   4   7
ATOM      7  C   UNL A   1      33.647  30.401  27.425  1.00  0.00     0.329 C 
BRANCH   7   8
ATOM      8  O   UNL A   1      34.005  29.976  26.118  1.00  0.00    -0.484 OA
BRANCH   8   9
ATOM      9  C   UNL A   1      33.698  28.694  25.761  1.00  0.00     0.120 A 
ATOM     10  C   UNL A   1      33.624  26.979  22.377  1.00  0.00     0.047 C 
ATOM     11  C   UNL A   1      33.479  27.153  23.865  1.00  0.00    -0.024 A 
ATOM     12  C   UNL A   1      33.810  28.418  24.396  1.00  0.00     0.052 A 
ATOM     13  C   UNL A   1      33.015  26.155  24.737  1.00  0.00     0.044 A 
ATOM     14  C   UNL A   1      32.964  26.424  26.111  1.00  0.00     0.030 A 
ATOM     15  C   UNL A   1      33.301  27.679  26.620  1.00  0.00     0.048 A 
BRANCH  13  16
ATOM     16  N   UNL A   1      32.662  24.883  24.244  1.00  0.00    -0.322 N 
ATOM     17  C   UNL A   1      33.460  23.800  23.941  1.00  0.00     0.255 C 
ATOM     18  H   UNL A   1      31.697  24.746  24.094  1.00  0.00     0.170 HD
ATOM     19  O   UNL A   1      33.048  22.911  23.198  1.00  0.00    -0.269 OA
BRANCH  17  20
ATOM     20  C   UNL A   1      34.779  23.626  24.598  1.00  0.00     0.040 A 
ATOM     21  C   UNL A   1      35.944  23.727  23.837  1.00  0.00     0.016 A 
ATOM     22  C   UNL A   1      34.866  23.307  25.954  1.00  0.00     0.016 A 
ATOM     23  C   UNL A   1      37.196  23.562  24.446  1.00  0.00     0.027 A 
ATOM     24  C   UNL A   1      36.117  23.117  26.551  1.00  0.00     0.027 A 
ATOM     25  C   UNL A   1      37.303  23.245  25.811  1.00  0.00     0.052 A 
BRANCH  25  26
ATOM     26  N   UNL A   1      38.571  23.046  26.427  1.00  0.00    -0.250 N 
ATOM     27  C   UNL A   1      39.302  21.879  26.322  1.00  0.00     0.238 C 
ATOM     28  C   UNL A   1      39.226  24.012  27.164  1.00  0.00     0.238 C 
ATOM     29  O   UNL A   1      39.033  20.861  25.695  1.00  0.00    -0.274 OA
ATOM     30  C   UNL A   1      40.602  22.042  27.057  1.00  0.00     0.099 C 
ATOM     31  C   UNL A   1      40.521  23.450  27.674  1.00  0.00     0.099 C 
ATOM     32  O   UNL A   1      38.874  25.156  27.421  1.00  0.00    -0.274 OA
ATOM     33  C   UNL A   1      41.843  22.143  26.140  1.00  0.00     0.025 C 
ATOM     34  C   UNL A   1      41.745  24.173  27.077  1.00  0.00     0.025 C 
ATOM     35  C   UNL A   1      43.044  22.274  27.055  1.00  0.00    -0.027 C 
ATOM     36  C   UNL A   1      41.789  23.598  25.654  1.00  0.00     0.017 C 
ATOM     37  C   UNL A   1      42.980  23.490  27.624  1.00  0.00    -0.027 C 
ENDBRANCH  25  26
ENDBRANCH  17  20
ENDBRANCH  13  16
ENDBRANCH   8   9
ENDBRANCH   7   8
ENDBRANCH   4   7
ENDBRANCH   2   3
ENDBRANCH   1   2
BRANCH   1  38
ATOM     38  C   UNL A   1      32.981  35.479  29.541  1.00  0.00     0.002 C 
BRANCH  38  39
ATOM     39  C   UNL A   1      33.621  36.623  30.345  1.00  0.00     0.002 C 
BRANCH  39  40
ATOM     40  C   UNL A   1      33.265  36.713  31.830  1.00  0.00     0.021 C 
BRANCH  40  41
ATOM     41  C   UNL A   1      33.916  35.657  32.712  1.00  0.00     0.116 C 
BRANCH  41  42
ATOM     42  N   UNL A   1      33.611  34.285  32.333  1.00  0.00    -0.352 N 
ATOM     43  C   UNL A   1      34.473  33.239  32.013  1.00  0.00     0.251 C 
ATOM     44  H   UNL A   1      32.653  34.063  32.298  1.00  0.00     0.163 HD
ATOM     45  O   UNL A   1      34.036  32.164  31.697  1.00  0.00    -0.269 OA
BRANCH  43  46
ATOM     46  C   UNL A   1      35.939  33.433  32.204  1.00  0.00     0.039 A 
ATOM     47  C   UNL A   1      36.651  34.012  31.147  1.00  0.00     0.014 A 
ATOM     48  C   UNL A   1      36.621  32.879  33.283  1.00  0.00     0.014 A 
ATOM     49  C   UNL A   1      38.022  33.790  31.047  1.00  0.00     0.010 A 
ATOM     50  C   UNL A   1      37.961  32.576  33.144  1.00  0.00     0.010 A 
ATOM     51  C   UNL A   1      38.640  32.965  31.988  1.00  0.00    -0.014 A 
BRANCH  51  52
ATOM     52  C   UNL A   1      39.930  32.331  31.753  1.00  0.00     0.031 A 
ATOM     53  C   UNL A   1      40.072  31.238  30.772  1.00  0.00     0.074 A 
ATOM     54  C   UNL A   1      41.015  32.754  32.439  1.00  0.00     0.049 A 
ATOM     55  N   UNL A   1      40.949  30.295  30.867  1.00  0.00    -0.248 NA
ATOM     56  C   UNL A   1      39.199  31.106  29.610  1.00  0.00     0.031 C 
ATOM     57  C   UNL A   1      42.413  32.394  32.211  1.00  0.00     0.029 A 
ATOM     58  N   UNL A   1      41.078  33.490  33.606  1.00  0.00    -0.354 N 
ATOM     59  C   UNL A   1      40.956  29.625  29.668  1.00  0.00     0.074 A 
ATOM     60  C   UNL A   1      39.799  30.111  28.949  1.00  0.00     0.031 C 
ATOM     61  C   UNL A   1      43.117  32.662  33.325  1.00  0.00     0.029 A 
ATOM     62  C   UNL A   1      42.173  33.068  34.353  1.00  0.00     0.049 A 
ATOM     63  H   UNL A   1      40.448  34.201  33.867  1.00  0.00     0.167 HD
ATOM     64  C   UNL A   1      42.016  28.839  29.333  1.00  0.00     0.031 A 
ATOM     65  C   UNL A   1      42.042  32.460  35.571  1.00  0.00     0.031 A 
ATOM     66  C   UNL A   1      43.025  28.790  30.385  1.00  0.00     0.049 A 
ATOM     67  C   UNL A   1      42.549  31.028  35.592  1.00  0.00     0.074 A 
ATOM     68  C   UNL A   1      44.218  29.468  30.577  1.00  0.00     0.029 A 
ATOM     69  N   UNL A   1      42.715  28.190  31.598  1.00  0.00    -0.354 N 
ATOM     70  N   UNL A   1      42.825  30.335  34.521  1.00  0.00    -0.248 NA
ATOM     71  C   UNL A   1      42.726  30.244  36.815  1.00  0.00     0.031 C 
ATOM     72  C   UNL A   1      44.575  29.349  31.945  1.00  0.00     0.029 A 
ATOM     73  C   UNL A   1      43.619  28.570  32.572  1.00  0.00     0.049 A 
ATOM     74  H   UNL A   1      41.956  27.580  31.745  1.00  0.00     0.167 HD
ATOM     75  C   UNL A   1      43.175  29.058  34.873  1.00  0.00     0.074 A 
ATOM     76  C   UNL A   1      43.120  29.055  36.323  1.00  0.00     0.031 C 
ATOM     77  C   UNL A   1      43.458  28.103  33.940  1.00  0.00     0.031 A 
BRANCH  64  78
ATOM     78  C   UNL A   1      42.247  28.386  27.917  1.00  0.00    -0.014 A 
ATOM     79  C   UNL A   1      41.158  27.984  27.124  1.00  0.00     0.009 A 
ATOM     80  C   UNL A   1      43.521  28.283  27.332  1.00  0.00     0.009 A 
ATOM     81  C   UNL A   1      41.338  27.412  25.859  1.00  0.00     0.001 A 
ATOM     82  C   UNL A   1      43.711  27.673  26.085  1.00  0.00     0.001 A 
ATOM     83  C   UNL A   1      42.618  27.226  25.352  1.00  0.00     0.000 A 
ENDBRANCH  64  78
BRANCH  65  84
ATOM     84  C   UNL A   1      40.889  32.955  36.373  1.00  0.00    -0.014 A 
ATOM     85  C   UNL A   1      40.805  34.336  36.635  1.00  0.00     0.009 A 
ATOM     86  C   UNL A   1      39.744  32.169  36.560  1.00  0.00     0.009 A 
ATOM     87  C   UNL A   1      39.582  34.934  36.955  1.00  0.00     0.001 A 
ATOM     88  C   UNL A   1      38.522  32.770  36.893  1.00  0.00     0.001 A 
ATOM     89  C   UNL A   1      38.435  34.153  37.054  1.00  0.00     0.000 A 
ENDBRANCH  65  84
BRANCH  77  90
ATOM     90  C   UNL A   1      43.662  26.638  34.221  1.00  0.00    -0.014 A 
ATOM     91  C   UNL A   1      44.910  26.002  34.192  1.00  0.00     0.009 A 
ATOM     92  C   UNL A   1      42.566  25.876  34.682  1.00  0.00     0.009 A 
ATOM     93  C   UNL A   1      45.046  24.657  34.564  1.00  0.00     0.001 A 
ATOM     94  C   UNL A   1      42.706  24.550  35.095  1.00  0.00     0.001 A 
ATOM     95  C   UNL A   1      43.948  23.936  35.026  1.00  0.00     0.000 A 
ENDBRANCH  77  90
ENDBRANCH  51  52
ENDBRANCH  43  46
ENDBRANCH  41  42
ENDBRANCH  40  41
ENDBRANCH  39  40
ENDBRANCH  38  39
ENDBRANCH   1  38
TORSDOF 18
ENDMDL
