MODEL 1
REMARK VINA RESULT:     -10.2      0.000      0.000
REMARK SMILES COc1c(Br)cc(C)cc1C(=O)NCCCCCCNC(=O)c1ccc(-c2c3nc(c(-c4ccccc4)c4ccc([nH]4)c(-c4ccccc4)c4nc(c(-c5ccccc5)c5ccc2[nH]5)C=C4)C=C3)cc1
REMARK SMILES IDX 17 1 16 2 15 3 14 4 13 5 11 6 12 7 10 9 3 10 4 11 5 12 6 13
REMARK SMILES IDX 9 14 7 15 8 16 2 17 1 18 18 19 19 20 20 21 21 22 22 24 23 25
REMARK SMILES IDX 24 26 70 27 25 28 69 29 26 30 27 31 28 32 63 33 29 34 68 35
REMARK SMILES IDX 62 36 64 37 30 38 67 39 61 40 60 41 31 43 53 44 38 45 52 46
REMARK SMILES IDX 39 47 42 48 51 49 65 50 40 51 41 52 50 54 66 55 43 56 32 57
REMARK SMILES IDX 33 58 37 59 34 60 36 61 35 62 54 63 55 64 59 65 56 66 58 67
REMARK SMILES IDX 57 68 44 69 45 70 49 71 46 72 48 73 47 74
REMARK H PARENT 13 8 20 23 64 42 42 53
REMARK Flexibility Score: inf
ROOT
ATOM      1  C   UNL A   1      31.780  30.430  25.946  1.00  0.00     0.002 C 
ENDROOT
BRANCH   1   2
ATOM      2  C   UNL A   1      33.092  29.811  26.446  1.00  0.00     0.002 C 
BRANCH   2   3
ATOM      3  C   UNL A   1      32.931  28.473  27.187  1.00  0.00     0.021 C 
BRANCH   3   4
ATOM      4  C   UNL A   1      31.494  28.213  27.638  1.00  0.00     0.116 C 
BRANCH   4   5
ATOM      5  N   UNL A   1      31.028  26.939  27.141  1.00  0.00    -0.352 N 
ATOM      6  C   UNL A   1      30.756  26.388  25.917  1.00  0.00     0.255 C 
ATOM      7  O   UNL A   1      30.420  25.205  25.985  1.00  0.00    -0.269 OA
ATOM      8  H   UNL A   1      30.861  26.302  27.873  1.00  0.00     0.163 HD
BRANCH   6   9
ATOM      9  C   UNL A   1      30.889  27.087  24.588  1.00  0.00     0.083 A 
ATOM     10  C   UNL A   1      32.148  27.165  23.952  1.00  0.00     0.145 A 
ATOM     11  C   UNL A   1      32.335  28.017  22.847  1.00  0.00     0.061 A 
ATOM     12  Br  UNL A   1      34.028  28.203  22.002  1.00  0.00    -0.047 Br
ATOM     13  C   UNL A   1      31.278  28.773  22.342  1.00  0.00     0.023 A 
ATOM     14  C   UNL A   1      29.821  27.750  23.965  1.00  0.00     0.021 A 
ATOM     15  C   UNL A   1      30.008  28.640  22.895  1.00  0.00    -0.049 A 
ATOM     16  C   UNL A   1      28.867  29.476  22.388  1.00  0.00     0.044 C 
BRANCH  10  17
ATOM     17  O   UNL A   1      33.249  26.477  24.405  1.00  0.00    -0.495 OA
ATOM     18  C   UNL A   1      33.317  25.169  23.828  1.00  0.00     0.278 C 
ENDBRANCH  10  17
ENDBRANCH   6   9
ENDBRANCH   4   5
ENDBRANCH   3   4
ENDBRANCH   2   3
ENDBRANCH   1   2
BRANCH   1  19
ATOM     19  C   UNL A   1      31.484  31.825  26.501  1.00  0.00     0.021 C 
BRANCH  19  20
ATOM     20  C   UNL A   1      32.655  32.442  27.253  1.00  0.00     0.116 C 
BRANCH  20  21
ATOM     21  N   UNL A   1      32.426  33.853  27.523  1.00  0.00    -0.352 N 
ATOM     22  C   UNL A   1      33.004  34.648  28.479  1.00  0.00     0.251 C 
ATOM     23  H   UNL A   1      31.768  34.298  26.942  1.00  0.00     0.163 HD
ATOM     24  O   UNL A   1      32.528  35.747  28.751  1.00  0.00    -0.269 OA
BRANCH  22  25
ATOM     25  C   UNL A   1      34.202  34.162  29.188  1.00  0.00     0.039 A 
ATOM     26  C   UNL A   1      34.047  33.426  30.364  1.00  0.00     0.014 A 
ATOM     27  C   UNL A   1      35.475  34.422  28.674  1.00  0.00     0.014 A 
ATOM     28  C   UNL A   1      35.174  32.902  30.997  1.00  0.00     0.010 A 
ATOM     29  C   UNL A   1      36.588  33.829  29.259  1.00  0.00     0.010 A 
ATOM     30  C   UNL A   1      36.449  33.070  30.431  1.00  0.00    -0.014 A 
BRANCH  30  31
ATOM     31  C   UNL A   1      37.651  32.461  31.049  1.00  0.00     0.031 A 
ATOM     32  C   UNL A   1      38.285  31.246  30.429  1.00  0.00     0.074 A 
ATOM     33  C   UNL A   1      38.135  32.964  32.201  1.00  0.00     0.049 A 
ATOM     34  N   UNL A   1      39.305  30.542  30.851  1.00  0.00    -0.248 NA
ATOM     35  C   UNL A   1      37.677  30.739  29.187  1.00  0.00     0.031 C 
ATOM     36  C   UNL A   1      37.584  34.115  32.922  1.00  0.00     0.029 A 
ATOM     37  N   UNL A   1      39.198  32.569  32.972  1.00  0.00    -0.354 N 
ATOM     38  C   UNL A   1      39.450  29.506  29.937  1.00  0.00     0.074 A 
ATOM     39  C   UNL A   1      38.381  29.637  28.973  1.00  0.00     0.031 C 
ATOM     40  C   UNL A   1      38.334  34.352  34.011  1.00  0.00     0.029 A 
ATOM     41  C   UNL A   1      39.386  33.343  34.091  1.00  0.00     0.049 A 
ATOM     42  H   UNL A   1      39.773  31.802  32.745  1.00  0.00     0.167 HD
ATOM     43  C   UNL A   1      40.401  28.543  29.892  1.00  0.00     0.031 A 
ATOM     44  C   UNL A   1      40.300  33.250  35.075  1.00  0.00     0.031 A 
ATOM     45  C   UNL A   1      41.466  28.417  30.850  1.00  0.00     0.049 A 
ATOM     46  C   UNL A   1      41.328  32.154  35.015  1.00  0.00     0.074 A 
ATOM     47  C   UNL A   1      42.510  27.508  30.863  1.00  0.00     0.029 A 
ATOM     48  N   UNL A   1      41.621  29.222  31.968  1.00  0.00    -0.354 N 
ATOM     49  N   UNL A   1      41.496  31.226  34.105  1.00  0.00    -0.248 NA
ATOM     50  C   UNL A   1      42.304  32.104  36.114  1.00  0.00     0.031 C 
ATOM     51  C   UNL A   1      43.261  27.724  32.022  1.00  0.00     0.029 A 
ATOM     52  C   UNL A   1      42.726  28.811  32.694  1.00  0.00     0.049 A 
ATOM     53  H   UNL A   1      41.033  29.973  32.210  1.00  0.00     0.167 HD
ATOM     54  C   UNL A   1      42.611  30.501  34.505  1.00  0.00     0.074 A 
ATOM     55  C   UNL A   1      43.091  31.110  35.728  1.00  0.00     0.031 C 
ATOM     56  C   UNL A   1      43.190  29.429  33.910  1.00  0.00     0.031 A 
BRANCH  43  57
ATOM     57  C   UNL A   1      40.324  27.543  28.770  1.00  0.00    -0.014 A 
ATOM     58  C   UNL A   1      40.945  27.784  27.534  1.00  0.00     0.009 A 
ATOM     59  C   UNL A   1      39.653  26.326  28.964  1.00  0.00     0.009 A 
ATOM     60  C   UNL A   1      40.863  26.845  26.504  1.00  0.00     0.001 A 
ATOM     61  C   UNL A   1      39.600  25.375  27.944  1.00  0.00     0.001 A 
ATOM     62  C   UNL A   1      40.195  25.639  26.712  1.00  0.00     0.000 A 
ENDBRANCH  43  57
BRANCH  44  63
ATOM     63  C   UNL A   1      40.292  34.223  36.199  1.00  0.00    -0.014 A 
ATOM     64  C   UNL A   1      41.041  35.408  36.123  1.00  0.00     0.009 A 
ATOM     65  C   UNL A   1      39.548  33.967  37.362  1.00  0.00     0.009 A 
ATOM     66  C   UNL A   1      41.073  36.298  37.199  1.00  0.00     0.001 A 
ATOM     67  C   UNL A   1      39.555  34.874  38.423  1.00  0.00     0.001 A 
ATOM     68  C   UNL A   1      40.326  36.032  38.346  1.00  0.00     0.000 A 
ENDBRANCH  44  63
BRANCH  56  69
ATOM     69  C   UNL A   1      44.430  28.871  34.553  1.00  0.00    -0.014 A 
ATOM     70  C   UNL A   1      44.367  27.819  35.478  1.00  0.00     0.009 A 
ATOM     71  C   UNL A   1      45.686  29.382  34.190  1.00  0.00     0.009 A 
ATOM     72  C   UNL A   1      45.535  27.316  36.055  1.00  0.00     0.001 A 
ATOM     73  C   UNL A   1      46.854  28.855  34.741  1.00  0.00     0.001 A 
ATOM     74  C   UNL A   1      46.777  27.829  35.682  1.00  0.00     0.000 A 
ENDBRANCH  56  69
ENDBRANCH  30  31
ENDBRANCH  22  25
ENDBRANCH  20  21
ENDBRANCH  19  20
ENDBRANCH   1  19
TORSDOF 14
ENDMDL
MODEL 2
REMARK VINA RESULT:     -10.1      1.285      6.200
REMARK SMILES COc1c(Br)cc(C)cc1C(=O)NCCCCCCNC(=O)c1ccc(-c2c3nc(c(-c4ccccc4)c4ccc([nH]4)c(-c4ccccc4)c4nc(c(-c5ccccc5)c5ccc2[nH]5)C=C4)C=C3)cc1
REMARK SMILES IDX 17 1 16 2 15 3 14 4 13 5 11 6 12 7 10 9 3 10 4 11 5 12 6 13
REMARK SMILES IDX 9 14 7 15 8 16 2 17 1 18 18 19 19 20 20 21 21 22 22 24 23 25
REMARK SMILES IDX 24 26 70 27 25 28 69 29 26 30 27 31 28 32 63 33 29 34 68 35
REMARK SMILES IDX 62 36 64 37 30 38 67 39 61 40 60 41 31 43 53 44 38 45 52 46
REMARK SMILES IDX 39 47 42 48 51 49 65 50 40 51 41 52 50 54 66 55 43 56 32 57
REMARK SMILES IDX 33 58 37 59 34 60 36 61 35 62 54 63 55 64 59 65 56 66 58 67
REMARK SMILES IDX 57 68 44 69 45 70 49 71 46 72 48 73 47 74
REMARK H PARENT 13 8 20 23 64 42 42 53
REMARK Flexibility Score: inf
ROOT
ATOM      1  C   UNL A   1      31.618  30.446  26.274  1.00  0.00     0.002 C 
ENDROOT
BRANCH   1   2
ATOM      2  C   UNL A   1      32.931  29.792  26.725  1.00  0.00     0.002 C 
BRANCH   2   3
ATOM      3  C   UNL A   1      32.784  28.361  27.267  1.00  0.00     0.021 C 
BRANCH   3   4
ATOM      4  C   UNL A   1      31.353  28.029  27.689  1.00  0.00     0.116 C 
BRANCH   4   5
ATOM      5  N   UNL A   1      30.931  26.774  27.114  1.00  0.00    -0.352 N 
ATOM      6  C   UNL A   1      30.709  26.282  25.855  1.00  0.00     0.255 C 
ATOM      7  O   UNL A   1      30.398  25.090  25.851  1.00  0.00    -0.269 OA
ATOM      8  H   UNL A   1      30.756  26.096  27.805  1.00  0.00     0.163 HD
BRANCH   6   9
ATOM      9  C   UNL A   1      30.868  27.051  24.569  1.00  0.00     0.083 A 
ATOM     10  C   UNL A   1      32.147  27.212  23.992  1.00  0.00     0.145 A 
ATOM     11  C   UNL A   1      32.344  28.125  22.940  1.00  0.00     0.061 A 
ATOM     12  Br  UNL A   1      34.061  28.422  22.179  1.00  0.00    -0.047 Br
ATOM     13  C   UNL A   1      31.277  28.863  22.425  1.00  0.00     0.023 A 
ATOM     14  C   UNL A   1      29.799  27.701  23.932  1.00  0.00     0.021 A 
ATOM     15  C   UNL A   1      29.992  28.650  22.916  1.00  0.00    -0.049 A 
ATOM     16  C   UNL A   1      28.839  29.464  22.400  1.00  0.00     0.044 C 
BRANCH  10  17
ATOM     17  O   UNL A   1      33.257  26.548  24.459  1.00  0.00    -0.495 OA
ATOM     18  C   UNL A   1      33.397  25.269  23.831  1.00  0.00     0.278 C 
ENDBRANCH  10  17
ENDBRANCH   6   9
ENDBRANCH   4   5
ENDBRANCH   3   4
ENDBRANCH   2   3
ENDBRANCH   1   2
BRANCH   1  19
ATOM     19  C   UNL A   1      31.499  31.933  26.614  1.00  0.00     0.021 C 
BRANCH  19  20
ATOM     20  C   UNL A   1      32.768  32.525  27.211  1.00  0.00     0.116 C 
BRANCH  20  21
ATOM     21  N   UNL A   1      32.537  33.866  27.724  1.00  0.00    -0.352 N 
ATOM     22  C   UNL A   1      33.200  34.528  28.725  1.00  0.00     0.251 C 
ATOM     23  H   UNL A   1      31.806  34.367  27.296  1.00  0.00     0.163 HD
ATOM     24  O   UNL A   1      32.732  35.550  29.218  1.00  0.00    -0.269 OA
BRANCH  22  25
ATOM     25  C   UNL A   1      34.483  33.988  29.213  1.00  0.00     0.039 A 
ATOM     26  C   UNL A   1      34.499  33.207  30.369  1.00  0.00     0.014 A 
ATOM     27  C   UNL A   1      35.665  34.246  28.513  1.00  0.00     0.014 A 
ATOM     28  C   UNL A   1      35.699  32.634  30.792  1.00  0.00     0.010 A 
ATOM     29  C   UNL A   1      36.841  33.607  28.888  1.00  0.00     0.010 A 
ATOM     30  C   UNL A   1      36.871  32.802  30.036  1.00  0.00    -0.014 A 
BRANCH  30  31
ATOM     31  C   UNL A   1      38.141  32.144  30.429  1.00  0.00     0.031 A 
ATOM     32  C   UNL A   1      39.069  32.817  31.402  1.00  0.00     0.074 A 
ATOM     33  C   UNL A   1      38.486  30.972  29.862  1.00  0.00     0.049 A 
ATOM     34  N   UNL A   1      40.245  32.426  31.825  1.00  0.00    -0.248 NA
ATOM     35  C   UNL A   1      38.633  34.112  31.952  1.00  0.00     0.031 C 
ATOM     36  C   UNL A   1      37.689  30.239  28.875  1.00  0.00     0.029 A 
ATOM     37  N   UNL A   1      39.601  30.192  30.033  1.00  0.00    -0.354 N 
ATOM     38  C   UNL A   1      40.691  33.430  32.675  1.00  0.00     0.074 A 
ATOM     39  C   UNL A   1      39.690  34.472  32.663  1.00  0.00     0.031 C 
ATOM     40  C   UNL A   1      38.326  29.101  28.553  1.00  0.00     0.029 A 
ATOM     41  C   UNL A   1      39.595  29.047  29.274  1.00  0.00     0.049 A 
ATOM     42  H   UNL A   1      40.338  30.429  30.643  1.00  0.00     0.167 HD
ATOM     43  C   UNL A   1      41.823  33.471  33.417  1.00  0.00     0.031 A 
ATOM     44  C   UNL A   1      40.510  28.066  29.164  1.00  0.00     0.031 A 
ATOM     45  C   UNL A   1      42.816  32.430  33.431  1.00  0.00     0.049 A 
ATOM     46  C   UNL A   1      41.771  28.149  29.978  1.00  0.00     0.074 A 
ATOM     47  C   UNL A   1      43.972  32.353  34.187  1.00  0.00     0.029 A 
ATOM     48  N   UNL A   1      42.771  31.287  32.647  1.00  0.00    -0.354 N 
ATOM     49  N   UNL A   1      42.145  29.070  30.832  1.00  0.00    -0.248 NA
ATOM     50  C   UNL A   1      42.732  27.048  29.822  1.00  0.00     0.031 C 
ATOM     51  C   UNL A   1      44.658  31.193  33.816  1.00  0.00     0.029 A 
ATOM     52  C   UNL A   1      43.895  30.513  32.880  1.00  0.00     0.049 A 
ATOM     53  H   UNL A   1      42.048  31.061  32.018  1.00  0.00     0.167 HD
ATOM     54  C   UNL A   1      43.367  28.645  31.337  1.00  0.00     0.074 A 
ATOM     55  C   UNL A   1      43.662  27.374  30.708  1.00  0.00     0.031 C 
ATOM     56  C   UNL A   1      44.173  29.250  32.244  1.00  0.00     0.031 A 
BRANCH  43  57
ATOM     57  C   UNL A   1      42.050  34.689  34.270  1.00  0.00    -0.014 A 
ATOM     58  C   UNL A   1      41.676  34.713  35.623  1.00  0.00     0.009 A 
ATOM     59  C   UNL A   1      42.683  35.816  33.723  1.00  0.00     0.009 A 
ATOM     60  C   UNL A   1      41.894  35.852  36.400  1.00  0.00     0.001 A 
ATOM     61  C   UNL A   1      42.931  36.943  34.510  1.00  0.00     0.001 A 
ATOM     62  C   UNL A   1      42.527  36.964  35.844  1.00  0.00     0.000 A 
ENDBRANCH  43  57
BRANCH  44  63
ATOM     63  C   UNL A   1      40.268  26.915  28.255  1.00  0.00    -0.014 A 
ATOM     64  C   UNL A   1      40.776  26.919  26.946  1.00  0.00     0.009 A 
ATOM     65  C   UNL A   1      39.514  25.810  28.684  1.00  0.00     0.009 A 
ATOM     66  C   UNL A   1      40.507  25.860  26.076  1.00  0.00     0.001 A 
ATOM     67  C   UNL A   1      39.275  24.737  27.823  1.00  0.00     0.001 A 
ATOM     68  C   UNL A   1      39.760  24.768  26.517  1.00  0.00     0.000 A 
ENDBRANCH  44  63
BRANCH  56  69
ATOM     69  C   UNL A   1      45.430  28.526  32.641  1.00  0.00    -0.014 A 
ATOM     70  C   UNL A   1      45.441  27.597  33.691  1.00  0.00     0.009 A 
ATOM     71  C   UNL A   1      46.613  28.750  31.919  1.00  0.00     0.009 A 
ATOM     72  C   UNL A   1      46.622  26.935  34.036  1.00  0.00     0.001 A 
ATOM     73  C   UNL A   1      47.783  28.062  32.242  1.00  0.00     0.001 A 
ATOM     74  C   UNL A   1      47.789  27.163  33.307  1.00  0.00     0.000 A 
ENDBRANCH  56  69
ENDBRANCH  30  31
ENDBRANCH  22  25
ENDBRANCH  20  21
ENDBRANCH  19  20
ENDBRANCH   1  19
TORSDOF 14
ENDMDL
MODEL 3
REMARK VINA RESULT:      -9.9      5.431      9.772
REMARK SMILES COc1c(Br)cc(C)cc1C(=O)NCCCCCCNC(=O)c1ccc(-c2c3nc(c(-c4ccccc4)c4ccc([nH]4)c(-c4ccccc4)c4nc(c(-c5ccccc5)c5ccc2[nH]5)C=C4)C=C3)cc1
REMARK SMILES IDX 17 1 16 2 15 3 14 4 13 5 11 6 12 7 10 9 3 10 4 11 5 12 6 13
REMARK SMILES IDX 9 14 7 15 8 16 2 17 1 18 18 19 19 20 20 21 21 22 22 24 23 25
REMARK SMILES IDX 24 26 70 27 25 28 69 29 26 30 27 31 28 32 63 33 29 34 68 35
REMARK SMILES IDX 62 36 64 37 30 38 67 39 61 40 60 41 31 43 53 44 38 45 52 46
REMARK SMILES IDX 39 47 42 48 51 49 65 50 40 51 41 52 50 54 66 55 43 56 32 57
REMARK SMILES IDX 33 58 37 59 34 60 36 61 35 62 54 63 55 64 59 65 56 66 58 67
REMARK SMILES IDX 57 68 44 69 45 70 49 71 46 72 48 73 47 74
REMARK H PARENT 13 8 20 23 64 42 42 53
REMARK Flexibility Score: inf
ROOT
ATOM      1  C   UNL A   1      37.261  20.651  24.625  1.00  0.00     0.002 C 
ENDROOT
BRANCH   1   2
ATOM      2  C   UNL A   1      37.773  22.047  25.007  1.00  0.00     0.002 C 
BRANCH   2   3
ATOM      3  C   UNL A   1      36.775  23.189  24.758  1.00  0.00     0.021 C 
BRANCH   3   4
ATOM      4  C   UNL A   1      36.307  23.861  26.049  1.00  0.00     0.116 C 
BRANCH   4   5
ATOM      5  N   UNL A   1      35.554  22.934  26.861  1.00  0.00    -0.352 N 
ATOM      6  C   UNL A   1      34.469  22.116  26.689  1.00  0.00     0.255 C 
ATOM      7  O   UNL A   1      34.209  21.443  27.687  1.00  0.00    -0.269 OA
ATOM      8  H   UNL A   1      35.913  22.875  27.776  1.00  0.00     0.163 HD
BRANCH   6   9
ATOM      9  C   UNL A   1      33.669  21.969  25.420  1.00  0.00     0.083 A 
ATOM     10  C   UNL A   1      32.911  23.056  24.931  1.00  0.00     0.145 A 
ATOM     11  C   UNL A   1      31.974  22.863  23.898  1.00  0.00     0.061 A 
ATOM     12  Br  UNL A   1      30.885  24.283  23.255  1.00  0.00    -0.047 Br
ATOM     13  C   UNL A   1      31.800  21.606  23.317  1.00  0.00     0.023 A 
ATOM     14  C   UNL A   1      33.570  20.759  24.716  1.00  0.00     0.021 A 
ATOM     15  C   UNL A   1      32.604  20.544  23.719  1.00  0.00    -0.049 A 
ATOM     16  C   UNL A   1      32.404  19.175  23.132  1.00  0.00     0.044 C 
BRANCH  10  17
ATOM     17  O   UNL A   1      32.998  24.319  25.468  1.00  0.00    -0.495 OA
ATOM     18  C   UNL A   1      32.045  24.501  26.521  1.00  0.00     0.278 C 
ENDBRANCH  10  17
ENDBRANCH   6   9
ENDBRANCH   4   5
ENDBRANCH   3   4
ENDBRANCH   2   3
ENDBRANCH   1   2
BRANCH   1  19
ATOM     19  C   UNL A   1      38.206  19.505  24.993  1.00  0.00     0.021 C 
BRANCH  19  20
ATOM     20  C   UNL A   1      39.290  19.904  25.984  1.00  0.00     0.116 C 
BRANCH  20  21
ATOM     21  N   UNL A   1      40.365  18.924  26.015  1.00  0.00    -0.352 N 
ATOM     22  C   UNL A   1      41.718  19.137  26.081  1.00  0.00     0.251 C 
ATOM     23  H   UNL A   1      40.084  17.981  25.987  1.00  0.00     0.163 HD
ATOM     24  O   UNL A   1      42.507  18.227  25.843  1.00  0.00    -0.269 OA
BRANCH  22  25
ATOM     25  C   UNL A   1      42.216  20.481  26.428  1.00  0.00     0.039 A 
ATOM     26  C   UNL A   1      42.625  21.342  25.409  1.00  0.00     0.014 A 
ATOM     27  C   UNL A   1      42.261  20.889  27.764  1.00  0.00     0.014 A 
ATOM     28  C   UNL A   1      43.027  22.639  25.729  1.00  0.00     0.010 A 
ATOM     29  C   UNL A   1      42.582  22.205  28.071  1.00  0.00     0.010 A 
ATOM     30  C   UNL A   1      42.976  23.091  27.058  1.00  0.00    -0.014 A 
BRANCH  30  31
ATOM     31  C   UNL A   1      43.331  24.487  27.410  1.00  0.00     0.031 A 
ATOM     32  C   UNL A   1      44.770  24.923  27.405  1.00  0.00     0.074 A 
ATOM     33  C   UNL A   1      42.364  25.343  27.794  1.00  0.00     0.049 A 
ATOM     34  N   UNL A   1      45.282  26.082  27.735  1.00  0.00    -0.248 NA
ATOM     35  C   UNL A   1      45.769  23.918  27.004  1.00  0.00     0.031 C 
ATOM     36  C   UNL A   1      40.936  25.028  27.878  1.00  0.00     0.029 A 
ATOM     37  N   UNL A   1      42.439  26.655  28.189  1.00  0.00    -0.354 N 
ATOM     38  C   UNL A   1      46.656  25.940  27.594  1.00  0.00     0.074 A 
ATOM     39  C   UNL A   1      46.904  24.569  27.207  1.00  0.00     0.031 C 
ATOM     40  C   UNL A   1      40.266  26.126  28.267  1.00  0.00     0.029 A 
ATOM     41  C   UNL A   1      41.220  27.205  28.505  1.00  0.00     0.049 A 
ATOM     42  H   UNL A   1      43.285  27.155  28.242  1.00  0.00     0.167 HD
ATOM     43  C   UNL A   1      47.625  26.873  27.751  1.00  0.00     0.031 A 
ATOM     44  C   UNL A   1      40.905  28.438  28.942  1.00  0.00     0.031 A 
ATOM     45  C   UNL A   1      47.376  28.238  28.132  1.00  0.00     0.049 A 
ATOM     46  C   UNL A   1      42.003  29.447  29.136  1.00  0.00     0.074 A 
ATOM     47  C   UNL A   1      48.284  29.273  28.267  1.00  0.00     0.029 A 
ATOM     48  N   UNL A   1      46.127  28.755  28.442  1.00  0.00    -0.354 N 
ATOM     49  N   UNL A   1      43.291  29.318  28.929  1.00  0.00    -0.248 NA
ATOM     50  C   UNL A   1      41.600  30.779  29.610  1.00  0.00     0.031 C 
ATOM     51  C   UNL A   1      47.593  30.401  28.719  1.00  0.00     0.029 A 
ATOM     52  C   UNL A   1      46.245  30.087  28.798  1.00  0.00     0.049 A 
ATOM     53  H   UNL A   1      45.283  28.249  28.414  1.00  0.00     0.167 HD
ATOM     54  C   UNL A   1      43.847  30.557  29.218  1.00  0.00     0.074 A 
ATOM     55  C   UNL A   1      42.754  31.430  29.596  1.00  0.00     0.031 C 
ATOM     56  C   UNL A   1      45.146  30.941  29.171  1.00  0.00     0.031 A 
BRANCH  43  57
ATOM     57  C   UNL A   1      49.048  26.442  27.520  1.00  0.00    -0.014 A 
ATOM     58  C   UNL A   1      49.618  26.467  26.236  1.00  0.00     0.009 A 
ATOM     59  C   UNL A   1      49.842  26.042  28.605  1.00  0.00     0.009 A 
ATOM     60  C   UNL A   1      50.940  26.063  26.040  1.00  0.00     0.001 A 
ATOM     61  C   UNL A   1      51.174  25.670  28.411  1.00  0.00     0.001 A 
ATOM     62  C   UNL A   1      51.719  25.671  27.128  1.00  0.00     0.000 A 
ENDBRANCH  43  57
BRANCH  44  63
ATOM     63  C   UNL A   1      39.489  28.794  29.222  1.00  0.00    -0.014 A 
ATOM     64  C   UNL A   1      38.948  28.616  30.505  1.00  0.00     0.009 A 
ATOM     65  C   UNL A   1      38.664  29.301  28.205  1.00  0.00     0.009 A 
ATOM     66  C   UNL A   1      37.604  28.904  30.755  1.00  0.00     0.001 A 
ATOM     67  C   UNL A   1      37.330  29.620  28.465  1.00  0.00     0.001 A 
ATOM     68  C   UNL A   1      36.798  29.410  29.736  1.00  0.00     0.000 A 
ENDBRANCH  44  63
BRANCH  56  69
ATOM     69  C   UNL A   1      45.453  32.377  29.499  1.00  0.00    -0.014 A 
ATOM     70  C   UNL A   1      45.784  32.778  30.801  1.00  0.00     0.009 A 
ATOM     71  C   UNL A   1      45.451  33.335  28.473  1.00  0.00     0.009 A 
ATOM     72  C   UNL A   1      46.069  34.117  31.076  1.00  0.00     0.001 A 
ATOM     73  C   UNL A   1      45.771  34.666  28.743  1.00  0.00     0.001 A 
ATOM     74  C   UNL A   1      46.069  35.058  30.047  1.00  0.00     0.000 A 
ENDBRANCH  56  69
ENDBRANCH  30  31
ENDBRANCH  22  25
ENDBRANCH  20  21
ENDBRANCH  19  20
ENDBRANCH   1  19
TORSDOF 14
ENDMDL
