MODEL 1
REMARK VINA RESULT:     -10.1      0.000      0.000
REMARK SMILES CCC(CC)(NC(=O)C[C@@H]1CCC[NH2+]C1)C(=O)NCCCCCCNC(=O)c1ccc(-c2c3nc(c(-c4ccccc4)c4ccc([nH]4)c(-c4ccccc4)c4nc(c(-c5ccccc5)c5ccc2[nH]5)C=C4)C=C3)cc1
REMARK SMILES IDX 21 1 20 2 19 3 18 4 16 5 17 6 3 8 2 9 1 10 4 11 5 12 6 13
REMARK SMILES IDX 7 14 8 16 9 17 10 18 11 19 15 20 12 21 14 22 13 23 22 26
REMARK SMILES IDX 23 27 24 28 25 29 26 30 27 32 28 33 29 34 75 35 30 36 74 37
REMARK SMILES IDX 31 38 32 39 33 40 68 41 34 42 73 43 67 44 69 45 35 46 72 47
REMARK SMILES IDX 66 48 65 49 36 51 58 52 43 53 57 54 44 55 47 56 56 57 70 58
REMARK SMILES IDX 45 59 46 60 55 62 71 63 48 64 37 65 38 66 42 67 39 68 41 69
REMARK SMILES IDX 40 70 59 71 60 72 64 73 61 74 63 75 62 76 49 77 50 78 54 79
REMARK SMILES IDX 51 80 53 81 52 82
REMARK H PARENT 18 7 6 15 14 24 14 25 25 31 69 50 47 61
REMARK Flexibility Score: inf
ROOT
ATOM      1  C   UNL A   1      37.036  21.801  24.312  1.00  0.00     0.002 C 
ENDROOT
BRANCH   1   2
ATOM      2  C   UNL A   1      36.903  23.014  25.238  1.00  0.00     0.021 C 
BRANCH   2   3
ATOM      3  C   UNL A   1      35.911  24.076  24.761  1.00  0.00     0.116 C 
BRANCH   3   4
ATOM      4  N   UNL A   1      35.292  23.769  23.480  1.00  0.00    -0.354 N 
ATOM      5  C   UNL A   1      34.001  23.483  23.133  1.00  0.00     0.245 C 
ATOM      6  O   UNL A   1      33.782  23.322  21.930  1.00  0.00    -0.272 OA
ATOM      7  H   UNL A   1      35.921  23.766  22.721  1.00  0.00     0.163 HD
BRANCH   5   8
ATOM      8  C   UNL A   1      32.854  23.498  24.188  1.00  0.00     0.118 C 
BRANCH   8   9
ATOM      9  C   UNL A   1      31.503  22.964  23.633  1.00  0.00     0.035 C 
ATOM     10  C   UNL A   1      30.390  23.975  23.369  1.00  0.00     0.007 C 
ENDBRANCH   8   9
BRANCH   8  11
ATOM     11  C   UNL A   1      32.712  24.997  24.626  1.00  0.00     0.035 C 
ATOM     12  C   UNL A   1      32.611  25.260  26.124  1.00  0.00     0.007 C 
ENDBRANCH   8  11
BRANCH   8  13
ATOM     13  N   UNL A   1      33.224  22.672  25.366  1.00  0.00    -0.342 N 
ATOM     14  C   UNL A   1      33.213  21.334  25.602  1.00  0.00     0.221 C 
ATOM     15  H   UNL A   1      33.545  23.200  26.132  1.00  0.00     0.164 HD
ATOM     16  O   UNL A   1      33.225  20.994  26.790  1.00  0.00    -0.275 OA
BRANCH  14  17
ATOM     17  C   UNL A   1      33.327  20.283  24.509  1.00  0.00     0.109 C 
BRANCH  17  18
ATOM     18  C   UNL A   1      32.564  18.967  24.663  1.00  0.00     0.054 C 
ATOM     19  C   UNL A   1      33.369  17.879  25.378  1.00  0.00     0.016 C 
ATOM     20  C   UNL A   1      32.126  18.456  23.273  1.00  0.00     0.264 C 
ATOM     21  C   UNL A   1      34.520  17.386  24.512  1.00  0.00     0.062 C 
ATOM     22  N   UNL A   1      33.265  18.011  22.465  1.00  0.00    -0.346 N 
ATOM     23  C   UNL A   1      34.023  16.954  23.135  1.00  0.00     0.260 C 
ATOM     24  H   UNL A   1      32.918  17.656  21.574  1.00  0.00     0.346 HD
ATOM     25  H   UNL A   1      33.886  18.808  22.324  1.00  0.00     0.346 HD
ENDBRANCH  17  18
ENDBRANCH  14  17
ENDBRANCH   8  13
ENDBRANCH   5   8
ENDBRANCH   3   4
ENDBRANCH   2   3
ENDBRANCH   1   2
BRANCH   1  26
ATOM     26  C   UNL A   1      36.811  20.457  25.008  1.00  0.00     0.002 C 
BRANCH  26  27
ATOM     27  C   UNL A   1      38.022  19.524  24.972  1.00  0.00     0.021 C 
BRANCH  27  28
ATOM     28  C   UNL A   1      39.224  20.037  25.753  1.00  0.00     0.116 C 
BRANCH  28  29
ATOM     29  N   UNL A   1      40.232  19.007  25.925  1.00  0.00    -0.352 N 
ATOM     30  C   UNL A   1      41.582  19.169  26.122  1.00  0.00     0.251 C 
ATOM     31  H   UNL A   1      39.909  18.077  25.896  1.00  0.00     0.163 HD
ATOM     32  O   UNL A   1      42.353  18.226  26.027  1.00  0.00    -0.269 OA
BRANCH  30  33
ATOM     33  C   UNL A   1      42.089  20.522  26.432  1.00  0.00     0.039 A 
ATOM     34  C   UNL A   1      42.516  21.344  25.387  1.00  0.00     0.014 A 
ATOM     35  C   UNL A   1      42.092  20.985  27.751  1.00  0.00     0.014 A 
ATOM     36  C   UNL A   1      42.902  22.656  25.663  1.00  0.00     0.010 A 
ATOM     37  C   UNL A   1      42.402  22.316  28.011  1.00  0.00     0.010 A 
ATOM     38  C   UNL A   1      42.818  23.162  26.972  1.00  0.00    -0.014 A 
BRANCH  38  39
ATOM     39  C   UNL A   1      43.171  24.570  27.279  1.00  0.00     0.031 A 
ATOM     40  C   UNL A   1      44.612  25.007  27.233  1.00  0.00     0.074 A 
ATOM     41  C   UNL A   1      42.213  25.436  27.664  1.00  0.00     0.049 A 
ATOM     42  N   UNL A   1      45.132  26.168  27.540  1.00  0.00    -0.248 NA
ATOM     43  C   UNL A   1      45.601  24.001  26.810  1.00  0.00     0.031 C 
ATOM     44  C   UNL A   1      40.785  25.129  27.778  1.00  0.00     0.029 A 
ATOM     45  N   UNL A   1      42.298  26.754  28.040  1.00  0.00    -0.354 N 
ATOM     46  C   UNL A   1      46.503  26.023  27.374  1.00  0.00     0.074 A 
ATOM     47  C   UNL A   1      46.742  24.653  26.978  1.00  0.00     0.031 C 
ATOM     48  C   UNL A   1      40.128  26.232  28.170  1.00  0.00     0.029 A 
ATOM     49  C   UNL A   1      41.088  27.310  28.384  1.00  0.00     0.049 A 
ATOM     50  H   UNL A   1      43.145  27.254  28.063  1.00  0.00     0.167 HD
ATOM     51  C   UNL A   1      47.476  26.951  27.525  1.00  0.00     0.031 A 
ATOM     52  C   UNL A   1      40.790  28.544  28.833  1.00  0.00     0.031 A 
ATOM     53  C   UNL A   1      47.236  28.319  27.894  1.00  0.00     0.049 A 
ATOM     54  C   UNL A   1      41.899  29.546  29.013  1.00  0.00     0.074 A 
ATOM     55  C   UNL A   1      48.150  29.354  27.995  1.00  0.00     0.029 A 
ATOM     56  N   UNL A   1      45.997  28.842  28.226  1.00  0.00    -0.354 N 
ATOM     57  N   UNL A   1      43.180  29.417  28.767  1.00  0.00    -0.248 NA
ATOM     58  C   UNL A   1      41.518  30.870  29.528  1.00  0.00     0.031 C 
ATOM     59  C   UNL A   1      47.474  30.487  28.456  1.00  0.00     0.029 A 
ATOM     60  C   UNL A   1      46.129  30.176  28.571  1.00  0.00     0.049 A 
ATOM     61  H   UNL A   1      45.150  28.340  28.219  1.00  0.00     0.167 HD
ATOM     62  C   UNL A   1      43.748  30.651  29.056  1.00  0.00     0.074 A 
ATOM     63  C   UNL A   1      42.672  31.520  29.482  1.00  0.00     0.031 C 
ATOM     64  C   UNL A   1      45.045  31.032  28.975  1.00  0.00     0.031 A 
BRANCH  51  65
ATOM     65  C   UNL A   1      48.901  26.523  27.306  1.00  0.00    -0.014 A 
ATOM     66  C   UNL A   1      49.701  26.067  28.365  1.00  0.00     0.009 A 
ATOM     67  C   UNL A   1      49.424  26.505  26.002  1.00  0.00     0.009 A 
ATOM     68  C   UNL A   1      51.002  25.622  28.125  1.00  0.00     0.001 A 
ATOM     69  C   UNL A   1      50.714  26.032  25.763  1.00  0.00     0.001 A 
ATOM     70  C   UNL A   1      51.505  25.597  26.824  1.00  0.00     0.000 A 
ENDBRANCH  51  65
BRANCH  52  71
ATOM     71  C   UNL A   1      39.386  28.916  29.158  1.00  0.00    -0.014 A 
ATOM     72  C   UNL A   1      38.882  28.738  30.457  1.00  0.00     0.009 A 
ATOM     73  C   UNL A   1      38.525  29.399  28.160  1.00  0.00     0.009 A 
ATOM     74  C   UNL A   1      37.537  28.989  30.737  1.00  0.00     0.001 A 
ATOM     75  C   UNL A   1      37.188  29.683  28.452  1.00  0.00     0.001 A 
ATOM     76  C   UNL A   1      36.692  29.462  29.735  1.00  0.00     0.000 A 
ENDBRANCH  52  71
BRANCH  64  77
ATOM     77  C   UNL A   1      45.370  32.464  29.297  1.00  0.00    -0.014 A 
ATOM     78  C   UNL A   1      45.820  32.848  30.569  1.00  0.00     0.009 A 
ATOM     79  C   UNL A   1      45.273  33.436  28.287  1.00  0.00     0.009 A 
ATOM     80  C   UNL A   1      46.136  34.183  30.831  1.00  0.00     0.001 A 
ATOM     81  C   UNL A   1      45.622  34.762  28.543  1.00  0.00     0.001 A 
ATOM     82  C   UNL A   1      46.044  35.136  29.817  1.00  0.00     0.000 A 
ENDBRANCH  64  77
ENDBRANCH  38  39
ENDBRANCH  30  33
ENDBRANCH  28  29
ENDBRANCH  27  28
ENDBRANCH  26  27
ENDBRANCH   1  26
TORSDOF 18
ENDMDL
MODEL 2
REMARK VINA RESULT:     -10.0      5.147      9.938
REMARK SMILES CCC(CC)(NC(=O)C[C@@H]1CCC[NH2+]C1)C(=O)NCCCCCCNC(=O)c1ccc(-c2c3nc(c(-c4ccccc4)c4ccc([nH]4)c(-c4ccccc4)c4nc(c(-c5ccccc5)c5ccc2[nH]5)C=C4)C=C3)cc1
REMARK SMILES IDX 21 1 20 2 19 3 18 4 16 5 17 6 3 8 2 9 1 10 4 11 5 12 6 13
REMARK SMILES IDX 7 14 8 16 9 17 10 18 11 19 15 20 12 21 14 22 13 23 22 26
REMARK SMILES IDX 23 27 24 28 25 29 26 30 27 32 28 33 29 34 75 35 30 36 74 37
REMARK SMILES IDX 31 38 32 39 33 40 68 41 34 42 73 43 67 44 69 45 35 46 72 47
REMARK SMILES IDX 66 48 65 49 36 51 58 52 43 53 57 54 44 55 47 56 56 57 70 58
REMARK SMILES IDX 45 59 46 60 55 62 71 63 48 64 37 65 38 66 42 67 39 68 41 69
REMARK SMILES IDX 40 70 59 71 60 72 64 73 61 74 63 75 62 76 49 77 50 78 54 79
REMARK SMILES IDX 51 80 53 81 52 82
REMARK H PARENT 18 7 6 15 14 24 14 25 25 31 69 50 47 61
REMARK Flexibility Score: inf
ROOT
ATOM      1  C   UNL A   1      31.981  29.727  27.247  1.00  0.00     0.002 C 
ENDROOT
BRANCH   1   2
ATOM      2  C   UNL A   1      32.781  28.525  26.740  1.00  0.00     0.021 C 
BRANCH   2   3
ATOM      3  C   UNL A   1      32.107  27.739  25.613  1.00  0.00     0.116 C 
BRANCH   3   4
ATOM      4  N   UNL A   1      30.981  26.929  26.054  1.00  0.00    -0.354 N 
ATOM      5  C   UNL A   1      30.730  25.587  25.972  1.00  0.00     0.245 C 
ATOM      6  O   UNL A   1      29.689  25.193  26.502  1.00  0.00    -0.272 OA
ATOM      7  H   UNL A   1      30.265  27.444  26.494  1.00  0.00     0.163 HD
BRANCH   5   8
ATOM      8  C   UNL A   1      31.773  24.603  25.362  1.00  0.00     0.118 C 
BRANCH   8   9
ATOM      9  C   UNL A   1      31.143  23.267  24.874  1.00  0.00     0.035 C 
ATOM     10  C   UNL A   1      30.937  23.081  23.373  1.00  0.00     0.007 C 
ENDBRANCH   8   9
BRANCH   8  11
ATOM     11  C   UNL A   1      32.810  24.333  26.507  1.00  0.00     0.035 C 
ATOM     12  C   UNL A   1      32.668  23.012  27.254  1.00  0.00     0.007 C 
ENDBRANCH   8  11
BRANCH   8  13
ATOM     13  N   UNL A   1      32.464  25.232  24.206  1.00  0.00    -0.342 N 
ATOM     14  C   UNL A   1      33.772  25.348  23.858  1.00  0.00     0.221 C 
ATOM     15  H   UNL A   1      31.849  25.649  23.561  1.00  0.00     0.164 HD
ATOM     16  O   UNL A   1      34.038  26.239  23.043  1.00  0.00    -0.275 OA
BRANCH  14  17
ATOM     17  C   UNL A   1      34.853  24.376  24.301  1.00  0.00     0.109 C 
BRANCH  17  18
ATOM     18  C   UNL A   1      35.062  23.087  23.507  1.00  0.00     0.054 C 
ATOM     19  C   UNL A   1      34.609  21.832  24.257  1.00  0.00     0.016 C 
ATOM     20  C   UNL A   1      36.551  22.949  23.122  1.00  0.00     0.264 C 
ATOM     21  C   UNL A   1      35.526  21.534  25.436  1.00  0.00     0.062 C 
ATOM     22  N   UNL A   1      37.399  22.685  24.287  1.00  0.00    -0.346 N 
ATOM     23  C   UNL A   1      36.985  21.472  24.994  1.00  0.00     0.260 C 
ATOM     24  H   UNL A   1      38.364  22.572  23.974  1.00  0.00     0.346 HD
ATOM     25  H   UNL A   1      37.313  23.473  24.929  1.00  0.00     0.346 HD
ENDBRANCH  17  18
ENDBRANCH  14  17
ENDBRANCH   8  13
ENDBRANCH   5   8
ENDBRANCH   3   4
ENDBRANCH   2   3
ENDBRANCH   1   2
BRANCH   1  26
ATOM     26  C   UNL A   1      31.627  30.746  26.162  1.00  0.00     0.002 C 
BRANCH  26  27
ATOM     27  C   UNL A   1      31.403  32.165  26.684  1.00  0.00     0.021 C 
BRANCH  27  28
ATOM     28  C   UNL A   1      32.654  32.822  27.250  1.00  0.00     0.116 C 
BRANCH  28  29
ATOM     29  N   UNL A   1      32.413  34.203  27.626  1.00  0.00    -0.352 N 
ATOM     30  C   UNL A   1      32.993  34.916  28.648  1.00  0.00     0.251 C 
ATOM     31  H   UNL A   1      31.752  34.690  27.082  1.00  0.00     0.163 HD
ATOM     32  O   UNL A   1      32.542  35.995  29.002  1.00  0.00    -0.269 OA
BRANCH  30  33
ATOM     33  C   UNL A   1      34.167  34.335  29.331  1.00  0.00     0.039 A 
ATOM     34  C   UNL A   1      33.981  33.626  30.519  1.00  0.00     0.014 A 
ATOM     35  C   UNL A   1      35.439  34.456  28.764  1.00  0.00     0.014 A 
ATOM     36  C   UNL A   1      35.071  32.991  31.115  1.00  0.00     0.010 A 
ATOM     37  C   UNL A   1      36.507  33.758  29.317  1.00  0.00     0.010 A 
ATOM     38  C   UNL A   1      36.337  33.026  30.503  1.00  0.00    -0.014 A 
BRANCH  38  39
ATOM     39  C   UNL A   1      37.498  32.313  31.090  1.00  0.00     0.031 A 
ATOM     40  C   UNL A   1      38.122  32.822  32.362  1.00  0.00     0.074 A 
ATOM     41  C   UNL A   1      38.033  31.255  30.448  1.00  0.00     0.049 A 
ATOM     42  N   UNL A   1      39.184  32.387  32.992  1.00  0.00    -0.248 NA
ATOM     43  C   UNL A   1      37.484  33.987  32.999  1.00  0.00     0.031 C 
ATOM     44  C   UNL A   1      37.541  30.683  29.193  1.00  0.00     0.029 A 
ATOM     45  N   UNL A   1      39.119  30.476  30.763  1.00  0.00    -0.354 N 
ATOM     46  C   UNL A   1      39.355  33.238  34.076  1.00  0.00     0.074 A 
ATOM     47  C   UNL A   1      38.314  34.238  34.001  1.00  0.00     0.031 C 
ATOM     48  C   UNL A   1      38.305  29.631  28.859  1.00  0.00     0.029 A 
ATOM     49  C   UNL A   1      39.370  29.483  29.846  1.00  0.00     0.049 A 
ATOM     50  H   UNL A   1      39.667  30.615  31.568  1.00  0.00     0.167 HD
ATOM     51  C   UNL A   1      40.288  33.185  35.055  1.00  0.00     0.031 A 
ATOM     52  C   UNL A   1      40.356  28.565  29.799  1.00  0.00     0.031 A 
ATOM     53  C   UNL A   1      41.307  32.174  35.143  1.00  0.00     0.049 A 
ATOM     54  C   UNL A   1      41.391  28.547  30.891  1.00  0.00     0.074 A 
ATOM     55  C   UNL A   1      42.249  31.990  36.140  1.00  0.00     0.029 A 
ATOM     56  N   UNL A   1      41.522  31.184  34.198  1.00  0.00    -0.354 N 
ATOM     57  N   UNL A   1      41.486  29.305  31.957  1.00  0.00    -0.248 NA
ATOM     58  C   UNL A   1      42.456  27.539  30.777  1.00  0.00     0.031 C 
ATOM     59  C   UNL A   1      43.078  30.930  35.765  1.00  0.00     0.029 A 
ATOM     60  C   UNL A   1      42.607  30.409  34.572  1.00  0.00     0.049 A 
ATOM     61  H   UNL A   1      40.984  31.052  33.384  1.00  0.00     0.167 HD
ATOM     62  C   UNL A   1      42.591  28.839  32.657  1.00  0.00     0.074 A 
ATOM     63  C   UNL A   1      43.126  27.724  31.905  1.00  0.00     0.031 C 
ATOM     64  C   UNL A   1      43.116  29.292  33.821  1.00  0.00     0.031 A 
BRANCH  51  65
ATOM     65  C   UNL A   1      40.266  34.254  36.111  1.00  0.00    -0.014 A 
ATOM     66  C   UNL A   1      40.982  35.451  35.957  1.00  0.00     0.009 A 
ATOM     67  C   UNL A   1      39.453  34.089  37.244  1.00  0.00     0.009 A 
ATOM     68  C   UNL A   1      40.900  36.452  36.927  1.00  0.00     0.001 A 
ATOM     69  C   UNL A   1      39.350  35.104  38.196  1.00  0.00     0.001 A 
ATOM     70  C   UNL A   1      40.078  36.281  38.041  1.00  0.00     0.000 A 
ENDBRANCH  51  65
BRANCH  52  71
ATOM     71  C   UNL A   1      40.430  27.585  28.681  1.00  0.00    -0.014 A 
ATOM     72  C   UNL A   1      41.154  27.886  27.516  1.00  0.00     0.009 A 
ATOM     73  C   UNL A   1      39.733  26.369  28.748  1.00  0.00     0.009 A 
ATOM     74  C   UNL A   1      41.138  27.012  26.426  1.00  0.00     0.001 A 
ATOM     75  C   UNL A   1      39.748  25.481  27.670  1.00  0.00     0.001 A 
ATOM     76  C   UNL A   1      40.437  25.811  26.504  1.00  0.00     0.000 A 
ENDBRANCH  52  71
BRANCH  64  77
ATOM     77  C   UNL A   1      44.295  28.550  34.386  1.00  0.00    -0.014 A 
ATOM     78  C   UNL A   1      45.612  28.917  34.075  1.00  0.00     0.009 A 
ATOM     79  C   UNL A   1      44.077  27.498  35.290  1.00  0.00     0.009 A 
ATOM     80  C   UNL A   1      46.688  28.224  34.635  1.00  0.00     0.001 A 
ATOM     81  C   UNL A   1      45.153  26.830  35.874  1.00  0.00     0.001 A 
ATOM     82  C   UNL A   1      46.457  27.187  35.538  1.00  0.00     0.000 A 
ENDBRANCH  64  77
ENDBRANCH  38  39
ENDBRANCH  30  33
ENDBRANCH  28  29
ENDBRANCH  27  28
ENDBRANCH  26  27
ENDBRANCH   1  26
TORSDOF 18
ENDMDL
MODEL 3
REMARK VINA RESULT:     -10.0      1.980      6.995
REMARK SMILES CCC(CC)(NC(=O)C[C@@H]1CCC[NH2+]C1)C(=O)NCCCCCCNC(=O)c1ccc(-c2c3nc(c(-c4ccccc4)c4ccc([nH]4)c(-c4ccccc4)c4nc(c(-c5ccccc5)c5ccc2[nH]5)C=C4)C=C3)cc1
REMARK SMILES IDX 21 1 20 2 19 3 18 4 16 5 17 6 3 8 2 9 1 10 4 11 5 12 6 13
REMARK SMILES IDX 7 14 8 16 9 17 10 18 11 19 15 20 12 21 14 22 13 23 22 26
REMARK SMILES IDX 23 27 24 28 25 29 26 30 27 32 28 33 29 34 75 35 30 36 74 37
REMARK SMILES IDX 31 38 32 39 33 40 68 41 34 42 73 43 67 44 69 45 35 46 72 47
REMARK SMILES IDX 66 48 65 49 36 51 58 52 43 53 57 54 44 55 47 56 56 57 70 58
REMARK SMILES IDX 45 59 46 60 55 62 71 63 48 64 37 65 38 66 42 67 39 68 41 69
REMARK SMILES IDX 40 70 59 71 60 72 64 73 61 74 63 75 62 76 49 77 50 78 54 79
REMARK SMILES IDX 51 80 53 81 52 82
REMARK H PARENT 18 7 6 15 14 24 14 25 25 31 69 50 47 61
REMARK Flexibility Score: inf
ROOT
ATOM      1  C   UNL A   1      37.760  23.038  25.329  1.00  0.00     0.002 C 
ENDROOT
BRANCH   1   2
ATOM      2  C   UNL A   1      36.721  23.635  26.282  1.00  0.00     0.021 C 
BRANCH   2   3
ATOM      3  C   UNL A   1      35.425  24.092  25.610  1.00  0.00     0.116 C 
BRANCH   3   4
ATOM      4  N   UNL A   1      34.227  23.791  26.379  1.00  0.00    -0.354 N 
ATOM      5  C   UNL A   1      32.901  23.781  26.043  1.00  0.00     0.245 C 
ATOM      6  O   UNL A   1      32.117  23.419  26.924  1.00  0.00    -0.272 OA
ATOM      7  H   UNL A   1      34.404  23.548  27.318  1.00  0.00     0.163 HD
BRANCH   5   8
ATOM      8  C   UNL A   1      32.431  24.081  24.588  1.00  0.00     0.118 C 
BRANCH   8   9
ATOM      9  C   UNL A   1      30.898  24.324  24.477  1.00  0.00     0.035 C 
ATOM     10  C   UNL A   1      30.250  24.172  23.104  1.00  0.00     0.007 C 
ENDBRANCH   8   9
BRANCH   8  11
ATOM     11  C   UNL A   1      32.848  22.825  23.749  1.00  0.00     0.035 C 
ATOM     12  C   UNL A   1      33.879  23.054  22.649  1.00  0.00     0.007 C 
ENDBRANCH   8  11
BRANCH   8  13
ATOM     13  N   UNL A   1      33.125  25.284  24.058  1.00  0.00    -0.342 N 
ATOM     14  C   UNL A   1      32.853  26.614  24.116  1.00  0.00     0.221 C 
ATOM     15  H   UNL A   1      33.951  25.075  23.565  1.00  0.00     0.164 HD
ATOM     16  O   UNL A   1      33.415  27.318  23.270  1.00  0.00    -0.275 OA
BRANCH  14  17
ATOM     17  C   UNL A   1      32.035  27.260  25.222  1.00  0.00     0.109 C 
BRANCH  17  18
ATOM     18  C   UNL A   1      32.687  27.497  26.584  1.00  0.00     0.054 C 
ATOM     19  C   UNL A   1      31.844  28.370  27.517  1.00  0.00     0.016 C 
ATOM     20  C   UNL A   1      34.077  28.142  26.390  1.00  0.00     0.264 C 
ATOM     21  C   UNL A   1      31.792  29.810  27.025  1.00  0.00     0.062 C 
ATOM     22  N   UNL A   1      33.981  29.519  25.897  1.00  0.00    -0.346 N 
ATOM     23  C   UNL A   1      33.196  30.363  26.798  1.00  0.00     0.260 C 
ATOM     24  H   UNL A   1      34.922  29.906  25.817  1.00  0.00     0.346 HD
ATOM     25  H   UNL A   1      33.515  29.500  24.990  1.00  0.00     0.346 HD
ENDBRANCH  17  18
ENDBRANCH  14  17
ENDBRANCH   8  13
ENDBRANCH   5   8
ENDBRANCH   3   4
ENDBRANCH   2   3
ENDBRANCH   1   2
BRANCH   1  26
ATOM     26  C   UNL A   1      37.230  21.890  24.468  1.00  0.00     0.002 C 
BRANCH  26  27
ATOM     27  C   UNL A   1      37.819  20.523  24.816  1.00  0.00     0.021 C 
BRANCH  27  28
ATOM     28  C   UNL A   1      38.799  20.549  25.980  1.00  0.00     0.116 C 
BRANCH  28  29
ATOM     29  N   UNL A   1      39.805  19.509  25.860  1.00  0.00    -0.352 N 
ATOM     30  C   UNL A   1      41.168  19.631  25.985  1.00  0.00     0.251 C 
ATOM     31  H   UNL A   1      39.469  18.604  25.665  1.00  0.00     0.163 HD
ATOM     32  O   UNL A   1      41.917  18.731  25.639  1.00  0.00    -0.269 OA
BRANCH  30  33
ATOM     33  C   UNL A   1      41.712  20.893  26.528  1.00  0.00     0.039 A 
ATOM     34  C   UNL A   1      42.129  21.890  25.644  1.00  0.00     0.014 A 
ATOM     35  C   UNL A   1      41.762  21.099  27.910  1.00  0.00     0.014 A 
ATOM     36  C   UNL A   1      42.551  23.120  26.149  1.00  0.00     0.010 A 
ATOM     37  C   UNL A   1      42.108  22.351  28.406  1.00  0.00     0.010 A 
ATOM     38  C   UNL A   1      42.515  23.371  27.532  1.00  0.00    -0.014 A 
BRANCH  38  39
ATOM     39  C   UNL A   1      42.908  24.690  28.087  1.00  0.00     0.031 A 
ATOM     40  C   UNL A   1      41.855  25.734  28.349  1.00  0.00     0.074 A 
ATOM     41  C   UNL A   1      44.210  24.973  28.292  1.00  0.00     0.049 A 
ATOM     42  N   UNL A   1      42.002  26.968  28.760  1.00  0.00    -0.248 NA
ATOM     43  C   UNL A   1      40.456  25.351  28.094  1.00  0.00     0.031 C 
ATOM     44  C   UNL A   1      45.328  24.058  28.050  1.00  0.00     0.029 A 
ATOM     45  N   UNL A   1      44.814  26.119  28.745  1.00  0.00    -0.354 N 
ATOM     46  C   UNL A   1      40.725  27.512  28.784  1.00  0.00     0.074 A 
ATOM     47  C   UNL A   1      39.817  26.491  28.312  1.00  0.00     0.031 C 
ATOM     48  C   UNL A   1      46.476  24.670  28.380  1.00  0.00     0.029 A 
ATOM     49  C   UNL A   1      46.184  26.034  28.809  1.00  0.00     0.049 A 
ATOM     50  H   UNL A   1      44.313  26.928  28.999  1.00  0.00     0.167 HD
ATOM     51  C   UNL A   1      40.339  28.748  29.178  1.00  0.00     0.031 A 
ATOM     52  C   UNL A   1      47.103  26.955  29.161  1.00  0.00     0.031 A 
ATOM     53  C   UNL A   1      41.238  29.755  29.673  1.00  0.00     0.049 A 
ATOM     54  C   UNL A   1      46.642  28.328  29.572  1.00  0.00     0.074 A 
ATOM     55  C   UNL A   1      40.932  31.009  30.170  1.00  0.00     0.029 A 
ATOM     56  N   UNL A   1      42.616  29.624  29.728  1.00  0.00    -0.354 N 
ATOM     57  N   UNL A   1      45.422  28.796  29.674  1.00  0.00    -0.248 NA
ATOM     58  C   UNL A   1      47.688  29.300  29.924  1.00  0.00     0.031 C 
ATOM     59  C   UNL A   1      42.131  31.665  30.462  1.00  0.00     0.029 A 
ATOM     60  C   UNL A   1      43.177  30.793  30.215  1.00  0.00     0.049 A 
ATOM     61  H   UNL A   1      43.121  28.822  29.460  1.00  0.00     0.167 HD
ATOM     62  C   UNL A   1      45.553  30.098  30.140  1.00  0.00     0.074 A 
ATOM     63  C   UNL A   1      46.969  30.342  30.315  1.00  0.00     0.031 C 
ATOM     64  C   UNL A   1      44.587  31.012  30.400  1.00  0.00     0.031 A 
BRANCH  51  65
ATOM     65  C   UNL A   1      38.879  29.097  29.083  1.00  0.00    -0.014 A 
ATOM     66  C   UNL A   1      38.009  28.910  30.168  1.00  0.00     0.009 A 
ATOM     67  C   UNL A   1      38.387  29.695  27.912  1.00  0.00     0.009 A 
ATOM     68  C   UNL A   1      36.670  29.295  30.073  1.00  0.00     0.001 A 
ATOM     69  C   UNL A   1      37.056  30.106  27.832  1.00  0.00     0.001 A 
ATOM     70  C   UNL A   1      36.197  29.900  28.908  1.00  0.00     0.000 A 
ENDBRANCH  51  65
BRANCH  52  71
ATOM     71  C   UNL A   1      48.554  26.629  29.139  1.00  0.00    -0.014 A 
ATOM     72  C   UNL A   1      49.184  26.100  30.277  1.00  0.00     0.009 A 
ATOM     73  C   UNL A   1      49.330  26.895  28.000  1.00  0.00     0.009 A 
ATOM     74  C   UNL A   1      50.566  25.892  30.291  1.00  0.00     0.001 A 
ATOM     75  C   UNL A   1      50.706  26.651  28.005  1.00  0.00     0.001 A 
ATOM     76  C   UNL A   1      51.324  26.166  29.155  1.00  0.00     0.000 A 
ENDBRANCH  52  71
BRANCH  64  77
ATOM     77  C   UNL A   1      45.020  32.339  30.959  1.00  0.00    -0.014 A 
ATOM     78  C   UNL A   1      45.168  32.542  32.339  1.00  0.00     0.009 A 
ATOM     79  C   UNL A   1      45.335  33.387  30.079  1.00  0.00     0.009 A 
ATOM     80  C   UNL A   1      45.594  33.780  32.827  1.00  0.00     0.001 A 
ATOM     81  C   UNL A   1      45.793  34.611  30.568  1.00  0.00     0.001 A 
ATOM     82  C   UNL A   1      45.913  34.809  31.942  1.00  0.00     0.000 A 
ENDBRANCH  64  77
ENDBRANCH  38  39
ENDBRANCH  30  33
ENDBRANCH  28  29
ENDBRANCH  27  28
ENDBRANCH  26  27
ENDBRANCH   1  26
TORSDOF 18
ENDMDL
