MODEL 1
REMARK VINA RESULT:     -10.9      0.000      0.000
REMARK SMILES O=C(NCCCCCCNC(=O)[C@@H]1CSCN1C(=O)c1cccc(Cl)c1)c1ccc(-c2c3nc(c(-c4ccccc4)c4ccc([nH]4)c(-c4ccccc4)c4nc(c(-c5ccccc5)c5ccc2[nH]5)C=C4)C=C3)cc1
REMARK SMILES IDX 6 1 5 2 4 3 3 4 1 5 2 6 27 8 28 9 74 10 29 11 73 12 30 13
REMARK SMILES IDX 31 14 32 15 67 16 33 17 72 18 66 19 68 20 34 21 71 22 65 23
REMARK SMILES IDX 64 24 35 26 57 27 42 28 56 29 43 30 46 31 55 32 69 33 44 34
REMARK SMILES IDX 45 35 54 37 70 38 47 39 36 40 37 41 41 42 38 43 40 44 39 45
REMARK SMILES IDX 58 46 59 47 63 48 60 49 62 50 61 51 48 52 49 53 53 54 50 55
REMARK SMILES IDX 52 56 51 57 7 58 8 59 9 60 10 61 11 62 12 64 13 65 14 66
REMARK SMILES IDX 17 67 15 68 16 69 18 70 19 71 20 72 21 73 26 74 22 75 24 76
REMARK SMILES IDX 23 77 25 78
REMARK H PARENT 3 7 68 25 46 36 10 63
REMARK Flexibility Score: inf
ROOT
ATOM      1  C   UNL A   1      31.563  30.728  26.307  1.00  0.00     0.002 C 
ENDROOT
BRANCH   1   2
ATOM      2  C   UNL A   1      31.406  32.200  26.697  1.00  0.00     0.021 C 
BRANCH   2   3
ATOM      3  C   UNL A   1      32.693  32.914  27.094  1.00  0.00     0.116 C 
BRANCH   3   4
ATOM      4  N   UNL A   1      32.451  34.242  27.630  1.00  0.00    -0.352 N 
ATOM      5  O   UNL A   1      32.634  35.963  29.075  1.00  0.00    -0.269 OA
ATOM      6  C   UNL A   1      33.079  34.891  28.660  1.00  0.00     0.251 C 
ATOM      7  H   UNL A   1      31.732  34.749  27.190  1.00  0.00     0.163 HD
BRANCH   6   8
ATOM      8  C   UNL A   1      34.277  34.305  29.295  1.00  0.00     0.039 A 
ATOM      9  C   UNL A   1      34.175  33.504  30.437  1.00  0.00     0.014 A 
ATOM     10  C   UNL A   1      35.525  34.531  28.704  1.00  0.00     0.014 A 
ATOM     11  C   UNL A   1      35.328  33.006  31.041  1.00  0.00     0.010 A 
ATOM     12  C   UNL A   1      36.673  33.987  29.281  1.00  0.00     0.010 A 
ATOM     13  C   UNL A   1      36.585  33.236  30.463  1.00  0.00    -0.014 A 
BRANCH  13  14
ATOM     14  C   UNL A   1      37.808  32.646  31.057  1.00  0.00     0.031 A 
ATOM     15  C   UNL A   1      38.464  31.450  30.433  1.00  0.00     0.074 A 
ATOM     16  C   UNL A   1      38.299  33.168  32.197  1.00  0.00     0.049 A 
ATOM     17  N   UNL A   1      39.483  30.751  30.865  1.00  0.00    -0.248 NA
ATOM     18  C   UNL A   1      37.896  30.971  29.164  1.00  0.00     0.031 C 
ATOM     19  C   UNL A   1      37.745  34.324  32.902  1.00  0.00     0.029 A 
ATOM     20  N   UNL A   1      39.363  32.781  32.969  1.00  0.00    -0.354 N 
ATOM     21  C   UNL A   1      39.663  29.734  29.937  1.00  0.00     0.074 A 
ATOM     22  C   UNL A   1      38.640  29.899  28.926  1.00  0.00     0.031 C 
ATOM     23  C   UNL A   1      38.475  34.555  34.004  1.00  0.00     0.029 A 
ATOM     24  C   UNL A   1      39.512  33.535  34.107  1.00  0.00     0.049 A 
ATOM     25  H   UNL A   1      39.962  32.036  32.733  1.00  0.00     0.167 HD
ATOM     26  C   UNL A   1      40.596  28.751  29.930  1.00  0.00     0.031 A 
ATOM     27  C   UNL A   1      40.366  33.402  35.139  1.00  0.00     0.031 A 
ATOM     28  C   UNL A   1      41.611  28.588  30.937  1.00  0.00     0.049 A 
ATOM     29  C   UNL A   1      41.369  32.288  35.128  1.00  0.00     0.074 A 
ATOM     30  C   UNL A   1      42.630  27.651  30.992  1.00  0.00     0.029 A 
ATOM     31  N   UNL A   1      41.728  29.373  32.073  1.00  0.00    -0.354 N 
ATOM     32  N   UNL A   1      41.556  31.361  34.221  1.00  0.00    -0.248 NA
ATOM     33  C   UNL A   1      42.279  32.204  36.277  1.00  0.00     0.031 C 
ATOM     34  C   UNL A   1      43.336  27.843  32.185  1.00  0.00     0.029 A 
ATOM     35  C   UNL A   1      42.784  28.928  32.849  1.00  0.00     0.049 A 
ATOM     36  H   UNL A   1      41.146  30.136  32.296  1.00  0.00     0.167 HD
ATOM     37  C   UNL A   1      42.615  30.590  34.681  1.00  0.00     0.074 A 
ATOM     38  C   UNL A   1      43.035  31.166  35.943  1.00  0.00     0.031 C 
ATOM     39  C   UNL A   1      43.188  29.507  34.104  1.00  0.00     0.031 A 
BRANCH  26  40
ATOM     40  C   UNL A   1      40.534  27.751  28.810  1.00  0.00    -0.014 A 
ATOM     41  C   UNL A   1      41.278  27.926  27.633  1.00  0.00     0.009 A 
ATOM     42  C   UNL A   1      39.737  26.605  28.946  1.00  0.00     0.009 A 
ATOM     43  C   UNL A   1      41.193  26.990  26.598  1.00  0.00     0.001 A 
ATOM     44  C   UNL A   1      39.672  25.660  27.921  1.00  0.00     0.001 A 
ATOM     45  C   UNL A   1      40.392  25.858  26.744  1.00  0.00     0.000 A 
ENDBRANCH  26  40
BRANCH  27  46
ATOM     46  C   UNL A   1      40.277  34.353  36.275  1.00  0.00    -0.014 A 
ATOM     47  C   UNL A   1      39.506  34.045  37.403  1.00  0.00     0.009 A 
ATOM     48  C   UNL A   1      41.016  35.547  36.257  1.00  0.00     0.009 A 
ATOM     49  C   UNL A   1      39.473  34.919  38.493  1.00  0.00     0.001 A 
ATOM     50  C   UNL A   1      40.999  36.406  37.357  1.00  0.00     0.001 A 
ATOM     51  C   UNL A   1      40.226  36.093  38.473  1.00  0.00     0.000 A 
ENDBRANCH  27  46
BRANCH  39  52
ATOM     52  C   UNL A   1      44.353  28.886  34.818  1.00  0.00    -0.014 A 
ATOM     53  C   UNL A   1      45.663  29.330  34.589  1.00  0.00     0.009 A 
ATOM     54  C   UNL A   1      44.127  27.885  35.774  1.00  0.00     0.009 A 
ATOM     55  C   UNL A   1      46.730  28.768  35.293  1.00  0.00     0.001 A 
ATOM     56  C   UNL A   1      45.193  27.339  36.492  1.00  0.00     0.001 A 
ATOM     57  C   UNL A   1      46.493  27.778  36.248  1.00  0.00     0.000 A 
ENDBRANCH  39  52
ENDBRANCH  13  14
ENDBRANCH   6   8
ENDBRANCH   3   4
ENDBRANCH   2   3
ENDBRANCH   1   2
BRANCH   1  58
ATOM     58  C   UNL A   1      32.369  29.861  27.278  1.00  0.00     0.002 C 
BRANCH  58  59
ATOM     59  C   UNL A   1      32.729  28.457  26.783  1.00  0.00     0.021 C 
BRANCH  59  60
ATOM     60  C   UNL A   1      34.067  28.342  26.059  1.00  0.00     0.116 C 
BRANCH  60  61
ATOM     61  N   UNL A   1      34.012  28.870  24.708  1.00  0.00    -0.354 N 
ATOM     62  C   UNL A   1      33.450  28.331  23.587  1.00  0.00     0.243 C 
ATOM     63  H   UNL A   1      34.443  29.747  24.582  1.00  0.00     0.163 HD
ATOM     64  O   UNL A   1      33.329  29.066  22.602  1.00  0.00    -0.273 OA
BRANCH  62  65
ATOM     65  C   UNL A   1      32.927  26.880  23.580  1.00  0.00     0.185 C 
ATOM     66  C   UNL A   1      33.772  26.045  22.612  1.00  0.00     0.106 C 
ATOM     67  N   UNL A   1      31.527  26.873  23.140  1.00  0.00    -0.317 N 
ATOM     68  S   UNL A   1      32.708  25.585  21.217  1.00  0.00    -0.138 SA
ATOM     69  C   UNL A   1      31.366  26.677  21.717  1.00  0.00     0.190 C 
BRANCH  67  70
ATOM     70  C   UNL A   1      30.527  27.188  24.037  1.00  0.00     0.255 C 
ATOM     71  O   UNL A   1      30.430  26.689  25.157  1.00  0.00    -0.269 OA
BRANCH  70  72
ATOM     72  C   UNL A   1      29.506  28.174  23.650  1.00  0.00     0.041 A 
ATOM     73  C   UNL A   1      28.200  27.752  23.376  1.00  0.00     0.014 A 
ATOM     74  C   UNL A   1      29.840  29.530  23.648  1.00  0.00     0.034 A 
ATOM     75  C   UNL A   1      27.225  28.698  23.061  1.00  0.00     0.002 A 
ATOM     76  C   UNL A   1      28.857  30.465  23.335  1.00  0.00     0.041 A 
ATOM     77  C   UNL A   1      27.554  30.054  23.038  1.00  0.00     0.020 A 
ATOM     78  Cl  UNL A   1      29.245  32.141  23.323  1.00  0.00    -0.084 Cl
ENDBRANCH  70  72
ENDBRANCH  67  70
ENDBRANCH  62  65
ENDBRANCH  60  61
ENDBRANCH  59  60
ENDBRANCH  58  59
ENDBRANCH   1  58
TORSDOF 15
ENDMDL
MODEL 2
REMARK VINA RESULT:     -10.7      4.347      8.515
REMARK SMILES O=C(NCCCCCCNC(=O)[C@@H]1CSCN1C(=O)c1cccc(Cl)c1)c1ccc(-c2c3nc(c(-c4ccccc4)c4ccc([nH]4)c(-c4ccccc4)c4nc(c(-c5ccccc5)c5ccc2[nH]5)C=C4)C=C3)cc1
REMARK SMILES IDX 6 1 5 2 4 3 3 4 1 5 2 6 27 8 28 9 74 10 29 11 73 12 30 13
REMARK SMILES IDX 31 14 32 15 67 16 33 17 72 18 66 19 68 20 34 21 71 22 65 23
REMARK SMILES IDX 64 24 35 26 57 27 42 28 56 29 43 30 46 31 55 32 69 33 44 34
REMARK SMILES IDX 45 35 54 37 70 38 47 39 36 40 37 41 41 42 38 43 40 44 39 45
REMARK SMILES IDX 58 46 59 47 63 48 60 49 62 50 61 51 48 52 49 53 53 54 50 55
REMARK SMILES IDX 52 56 51 57 7 58 8 59 9 60 10 61 11 62 12 64 13 65 14 66
REMARK SMILES IDX 17 67 15 68 16 69 18 70 19 71 20 72 21 73 26 74 22 75 24 76
REMARK SMILES IDX 23 77 25 78
REMARK H PARENT 3 7 68 25 46 36 10 63
REMARK Flexibility Score: inf
ROOT
ATOM      1  C   UNL A   1      32.266  28.832  25.032  1.00  0.00     0.002 C 
ENDROOT
BRANCH   1   2
ATOM      2  C   UNL A   1      33.638  28.503  25.626  1.00  0.00     0.021 C 
BRANCH   2   3
ATOM      3  C   UNL A   1      33.741  28.613  27.143  1.00  0.00     0.116 C 
BRANCH   3   4
ATOM      4  N   UNL A   1      33.645  29.984  27.611  1.00  0.00    -0.352 N 
ATOM      5  O   UNL A   1      34.254  31.844  28.730  1.00  0.00    -0.269 OA
ATOM      6  C   UNL A   1      34.571  30.743  28.278  1.00  0.00     0.251 C 
ATOM      7  H   UNL A   1      32.790  30.435  27.422  1.00  0.00     0.163 HD
BRANCH   6   8
ATOM      8  C   UNL A   1      35.945  30.240  28.479  1.00  0.00     0.039 A 
ATOM      9  C   UNL A   1      36.896  30.298  27.455  1.00  0.00     0.014 A 
ATOM     10  C   UNL A   1      36.295  29.739  29.737  1.00  0.00     0.014 A 
ATOM     11  C   UNL A   1      38.170  29.771  27.661  1.00  0.00     0.010 A 
ATOM     12  C   UNL A   1      37.587  29.261  29.956  1.00  0.00     0.010 A 
ATOM     13  C   UNL A   1      38.528  29.256  28.915  1.00  0.00    -0.014 A 
BRANCH  13  14
ATOM     14  C   UNL A   1      39.904  28.764  29.163  1.00  0.00     0.031 A 
ATOM     15  C   UNL A   1      40.952  29.670  29.739  1.00  0.00     0.074 A 
ATOM     16  C   UNL A   1      40.219  27.500  28.819  1.00  0.00     0.049 A 
ATOM     17  N   UNL A   1      42.224  29.436  29.939  1.00  0.00    -0.248 NA
ATOM     18  C   UNL A   1      40.516  31.018  30.134  1.00  0.00     0.031 C 
ATOM     19  C   UNL A   1      39.290  26.527  28.245  1.00  0.00     0.029 A 
ATOM     20  N   UNL A   1      41.411  26.828  28.888  1.00  0.00    -0.354 N 
ATOM     21  C   UNL A   1      42.748  30.613  30.456  1.00  0.00     0.074 A 
ATOM     22  C   UNL A   1      41.658  31.564  30.528  1.00  0.00     0.031 C 
ATOM     23  C   UNL A   1      39.947  25.380  28.013  1.00  0.00     0.029 A 
ATOM     24  C   UNL A   1      41.349  25.556  28.375  1.00  0.00     0.049 A 
ATOM     25  H   UNL A   1      42.232  27.219  29.266  1.00  0.00     0.167 HD
ATOM     26  C   UNL A   1      44.021  30.877  30.836  1.00  0.00     0.031 A 
ATOM     27  C   UNL A   1      42.317  24.641  28.185  1.00  0.00     0.031 A 
ATOM     28  C   UNL A   1      45.103  29.931  30.762  1.00  0.00     0.049 A 
ATOM     29  C   UNL A   1      43.726  24.964  28.581  1.00  0.00     0.074 A 
ATOM     30  C   UNL A   1      46.418  30.089  31.168  1.00  0.00     0.029 A 
ATOM     31  N   UNL A   1      44.998  28.651  30.238  1.00  0.00    -0.354 N 
ATOM     32  N   UNL A   1      44.197  26.067  29.111  1.00  0.00    -0.248 NA
ATOM     33  C   UNL A   1      44.734  23.920  28.357  1.00  0.00     0.031 C 
ATOM     34  C   UNL A   1      47.118  28.921  30.846  1.00  0.00     0.029 A 
ATOM     35  C   UNL A   1      46.228  28.019  30.283  1.00  0.00     0.049 A 
ATOM     36  H   UNL A   1      44.170  28.252  29.885  1.00  0.00     0.167 HD
ATOM     37  C   UNL A   1      45.554  25.845  29.299  1.00  0.00     0.074 A 
ATOM     38  C   UNL A   1      45.828  24.500  28.836  1.00  0.00     0.031 C 
ATOM     39  C   UNL A   1      46.486  26.682  29.815  1.00  0.00     0.031 A 
BRANCH  26  40
ATOM     40  C   UNL A   1      44.319  32.264  31.332  1.00  0.00    -0.014 A 
ATOM     41  C   UNL A   1      44.220  32.589  32.693  1.00  0.00     0.009 A 
ATOM     42  C   UNL A   1      44.726  33.253  30.424  1.00  0.00     0.009 A 
ATOM     43  C   UNL A   1      44.487  33.890  33.129  1.00  0.00     0.001 A 
ATOM     44  C   UNL A   1      45.015  34.545  30.865  1.00  0.00     0.001 A 
ATOM     45  C   UNL A   1      44.886  34.865  32.216  1.00  0.00     0.000 A 
ENDBRANCH  26  40
BRANCH  27  46
ATOM     46  C   UNL A   1      41.967  23.339  27.565  1.00  0.00    -0.014 A 
ATOM     47  C   UNL A   1      42.207  23.110  26.203  1.00  0.00     0.009 A 
ATOM     48  C   UNL A   1      41.446  22.299  28.352  1.00  0.00     0.009 A 
ATOM     49  C   UNL A   1      41.928  21.862  25.640  1.00  0.00     0.001 A 
ATOM     50  C   UNL A   1      41.191  21.047  27.790  1.00  0.00     0.001 A 
ATOM     51  C   UNL A   1      41.429  20.830  26.434  1.00  0.00     0.000 A 
ENDBRANCH  27  46
BRANCH  39  52
ATOM     52  C   UNL A   1      47.888  26.159  29.933  1.00  0.00    -0.014 A 
ATOM     53  C   UNL A   1      48.769  26.195  28.843  1.00  0.00     0.009 A 
ATOM     54  C   UNL A   1      48.348  25.680  31.169  1.00  0.00     0.009 A 
ATOM     55  C   UNL A   1      50.083  25.743  28.984  1.00  0.00     0.001 A 
ATOM     56  C   UNL A   1      49.667  25.248  31.314  1.00  0.00     0.001 A 
ATOM     57  C   UNL A   1      50.532  25.276  30.221  1.00  0.00     0.000 A 
ENDBRANCH  39  52
ENDBRANCH  13  14
ENDBRANCH   6   8
ENDBRANCH   3   4
ENDBRANCH   2   3
ENDBRANCH   1   2
BRANCH   1  58
ATOM     58  C   UNL A   1      31.613  27.723  24.204  1.00  0.00     0.002 C 
BRANCH  58  59
ATOM     59  C   UNL A   1      30.582  26.857  24.937  1.00  0.00     0.021 C 
BRANCH  59  60
ATOM     60  C   UNL A   1      31.105  26.118  26.165  1.00  0.00     0.116 C 
BRANCH  60  61
ATOM     61  N   UNL A   1      30.531  24.791  26.297  1.00  0.00    -0.354 N 
ATOM     62  C   UNL A   1      31.000  23.593  25.841  1.00  0.00     0.243 C 
ATOM     63  H   UNL A   1      29.679  24.749  26.788  1.00  0.00     0.163 HD
ATOM     64  O   UNL A   1      30.456  22.570  26.269  1.00  0.00    -0.273 OA
BRANCH  62  65
ATOM     65  C   UNL A   1      32.205  23.525  24.881  1.00  0.00     0.185 C 
ATOM     66  C   UNL A   1      31.696  23.475  23.436  1.00  0.00     0.106 C 
ATOM     67  N   UNL A   1      32.984  22.315  25.167  1.00  0.00    -0.317 N 
ATOM     68  S   UNL A   1      32.097  21.836  22.772  1.00  0.00    -0.138 SA
ATOM     69  C   UNL A   1      32.598  21.173  24.369  1.00  0.00     0.190 C 
BRANCH  67  70
ATOM     70  C   UNL A   1      33.874  22.308  26.222  1.00  0.00     0.255 C 
ATOM     71  O   UNL A   1      33.534  22.268  27.403  1.00  0.00    -0.269 OA
BRANCH  70  72
ATOM     72  C   UNL A   1      35.317  22.353  25.939  1.00  0.00     0.041 A 
ATOM     73  C   UNL A   1      36.021  23.550  26.106  1.00  0.00     0.014 A 
ATOM     74  C   UNL A   1      35.976  21.172  25.590  1.00  0.00     0.034 A 
ATOM     75  C   UNL A   1      37.398  23.573  25.886  1.00  0.00     0.002 A 
ATOM     76  C   UNL A   1      37.351  21.207  25.377  1.00  0.00     0.041 A 
ATOM     77  C   UNL A   1      38.063  22.401  25.519  1.00  0.00     0.020 A 
ATOM     78  Cl  UNL A   1      38.185  19.765  24.944  1.00  0.00    -0.084 Cl
ENDBRANCH  70  72
ENDBRANCH  67  70
ENDBRANCH  62  65
ENDBRANCH  60  61
ENDBRANCH  59  60
ENDBRANCH  58  59
ENDBRANCH   1  58
TORSDOF 15
ENDMDL
MODEL 3
REMARK VINA RESULT:     -10.6      5.348      9.881
REMARK SMILES O=C(NCCCCCCNC(=O)[C@@H]1CSCN1C(=O)c1cccc(Cl)c1)c1ccc(-c2c3nc(c(-c4ccccc4)c4ccc([nH]4)c(-c4ccccc4)c4nc(c(-c5ccccc5)c5ccc2[nH]5)C=C4)C=C3)cc1
REMARK SMILES IDX 6 1 5 2 4 3 3 4 1 5 2 6 27 8 28 9 74 10 29 11 73 12 30 13
REMARK SMILES IDX 31 14 32 15 67 16 33 17 72 18 66 19 68 20 34 21 71 22 65 23
REMARK SMILES IDX 64 24 35 26 57 27 42 28 56 29 43 30 46 31 55 32 69 33 44 34
REMARK SMILES IDX 45 35 54 37 70 38 47 39 36 40 37 41 41 42 38 43 40 44 39 45
REMARK SMILES IDX 58 46 59 47 63 48 60 49 62 50 61 51 48 52 49 53 53 54 50 55
REMARK SMILES IDX 52 56 51 57 7 58 8 59 9 60 10 61 11 62 12 64 13 65 14 66
REMARK SMILES IDX 17 67 15 68 16 69 18 70 19 71 20 72 21 73 26 74 22 75 24 76
REMARK SMILES IDX 23 77 25 78
REMARK H PARENT 3 7 68 25 46 36 10 63
REMARK Flexibility Score: inf
ROOT
ATOM      1  C   UNL A   1      36.273  20.237  24.997  1.00  0.00     0.002 C 
ENDROOT
BRANCH   1   2
ATOM      2  C   UNL A   1      37.651  19.612  24.764  1.00  0.00     0.021 C 
BRANCH   2   3
ATOM      3  C   UNL A   1      38.774  20.149  25.645  1.00  0.00     0.116 C 
BRANCH   3   4
ATOM      4  N   UNL A   1      39.911  19.249  25.709  1.00  0.00    -0.352 N 
ATOM      5  O   UNL A   1      42.074  18.649  25.915  1.00  0.00    -0.269 OA
ATOM      6  C   UNL A   1      41.207  19.511  26.067  1.00  0.00     0.251 C 
ATOM      7  H   UNL A   1      39.725  18.316  25.459  1.00  0.00     0.163 HD
BRANCH   6   8
ATOM      8  C   UNL A   1      41.581  20.831  26.615  1.00  0.00     0.039 A 
ATOM      9  C   UNL A   1      41.547  21.081  27.991  1.00  0.00     0.014 A 
ATOM     10  C   UNL A   1      42.016  21.823  25.731  1.00  0.00     0.014 A 
ATOM     11  C   UNL A   1      41.858  22.351  28.474  1.00  0.00     0.010 A 
ATOM     12  C   UNL A   1      42.378  23.078  26.222  1.00  0.00     0.010 A 
ATOM     13  C   UNL A   1      42.283  23.357  27.594  1.00  0.00    -0.014 A 
BRANCH  13  14
ATOM     14  C   UNL A   1      42.689  24.686  28.108  1.00  0.00     0.031 A 
ATOM     15  C   UNL A   1      41.668  25.756  28.364  1.00  0.00     0.074 A 
ATOM     16  C   UNL A   1      43.997  24.943  28.299  1.00  0.00     0.049 A 
ATOM     17  N   UNL A   1      41.851  27.000  28.726  1.00  0.00    -0.248 NA
ATOM     18  C   UNL A   1      40.258  25.381  28.178  1.00  0.00     0.031 C 
ATOM     19  C   UNL A   1      45.084  23.988  28.078  1.00  0.00     0.029 A 
ATOM     20  N   UNL A   1      44.632  26.088  28.703  1.00  0.00    -0.354 N 
ATOM     21  C   UNL A   1      40.585  27.565  28.787  1.00  0.00     0.074 A 
ATOM     22  C   UNL A   1      39.642  26.532  28.412  1.00  0.00     0.031 C 
ATOM     23  C   UNL A   1      46.253  24.587  28.352  1.00  0.00     0.029 A 
ATOM     24  C   UNL A   1      46.000  25.977  28.715  1.00  0.00     0.049 A 
ATOM     25  H   UNL A   1      44.155  26.911  28.958  1.00  0.00     0.167 HD
ATOM     26  C   UNL A   1      40.239  28.832  29.124  1.00  0.00     0.031 A 
ATOM     27  C   UNL A   1      46.951  26.897  28.959  1.00  0.00     0.031 A 
ATOM     28  C   UNL A   1      41.178  29.858  29.495  1.00  0.00     0.049 A 
ATOM     29  C   UNL A   1      46.550  28.301  29.298  1.00  0.00     0.074 A 
ATOM     30  C   UNL A   1      40.921  31.157  29.899  1.00  0.00     0.029 A 
ATOM     31  N   UNL A   1      42.556  29.703  29.496  1.00  0.00    -0.354 N 
ATOM     32  N   UNL A   1      45.345  28.809  29.395  1.00  0.00    -0.248 NA
ATOM     33  C   UNL A   1      47.633  29.255  29.563  1.00  0.00     0.031 C 
ATOM     34  C   UNL A   1      42.147  31.802  30.101  1.00  0.00     0.029 A 
ATOM     35  C   UNL A   1      43.164  30.890  29.867  1.00  0.00     0.049 A 
ATOM     36  H   UNL A   1      43.031  28.872  29.267  1.00  0.00     0.167 HD
ATOM     37  C   UNL A   1      45.524  30.139  29.749  1.00  0.00     0.074 A 
ATOM     38  C   UNL A   1      46.953  30.356  29.858  1.00  0.00     0.031 C 
ATOM     39  C   UNL A   1      44.587  31.092  29.967  1.00  0.00     0.031 A 
BRANCH  26  40
ATOM     40  C   UNL A   1      38.780  29.185  29.069  1.00  0.00    -0.014 A 
ATOM     41  C   UNL A   1      37.958  29.070  30.199  1.00  0.00     0.009 A 
ATOM     42  C   UNL A   1      38.227  29.664  27.871  1.00  0.00     0.009 A 
ATOM     43  C   UNL A   1      36.599  29.390  30.120  1.00  0.00     0.001 A 
ATOM     44  C   UNL A   1      36.875  30.006  27.801  1.00  0.00     0.001 A 
ATOM     45  C   UNL A   1      36.061  29.859  28.923  1.00  0.00     0.000 A 
ENDBRANCH  26  40
BRANCH  27  46
ATOM     46  C   UNL A   1      48.379  26.502  28.864  1.00  0.00    -0.014 A 
ATOM     47  C   UNL A   1      49.049  25.978  29.978  1.00  0.00     0.009 A 
ATOM     48  C   UNL A   1      49.057  26.593  27.638  1.00  0.00     0.009 A 
ATOM     49  C   UNL A   1      50.376  25.555  29.866  1.00  0.00     0.001 A 
ATOM     50  C   UNL A   1      50.375  26.148  27.525  1.00  0.00     0.001 A 
ATOM     51  C   UNL A   1      51.035  25.632  28.639  1.00  0.00     0.000 A 
ENDBRANCH  27  46
BRANCH  39  52
ATOM     52  C   UNL A   1      45.072  32.452  30.375  1.00  0.00    -0.014 A 
ATOM     53  C   UNL A   1      45.300  32.767  31.722  1.00  0.00     0.009 A 
ATOM     54  C   UNL A   1      45.361  33.409  29.390  1.00  0.00     0.009 A 
ATOM     55  C   UNL A   1      45.791  34.024  32.078  1.00  0.00     0.001 A 
ATOM     56  C   UNL A   1      45.872  34.658  29.746  1.00  0.00     0.001 A 
ATOM     57  C   UNL A   1      46.082  34.966  31.089  1.00  0.00     0.000 A 
ENDBRANCH  39  52
ENDBRANCH  13  14
ENDBRANCH   6   8
ENDBRANCH   3   4
ENDBRANCH   2   3
ENDBRANCH   1   2
BRANCH   1  58
ATOM     58  C   UNL A   1      36.248  21.759  25.158  1.00  0.00     0.002 C 
BRANCH  58  59
ATOM     59  C   UNL A   1      36.274  22.571  23.860  1.00  0.00     0.021 C 
BRANCH  59  60
ATOM     60  C   UNL A   1      35.892  24.042  24.002  1.00  0.00     0.116 C 
BRANCH  60  61
ATOM     61  N   UNL A   1      35.147  24.305  25.220  1.00  0.00    -0.354 N 
ATOM     62  C   UNL A   1      33.856  24.720  25.376  1.00  0.00     0.243 C 
ATOM     63  H   UNL A   1      35.646  24.161  26.056  1.00  0.00     0.163 HD
ATOM     64  O   UNL A   1      33.372  24.657  26.510  1.00  0.00    -0.273 OA
BRANCH  62  65
ATOM     65  C   UNL A   1      33.020  25.185  24.166  1.00  0.00     0.185 C 
ATOM     66  C   UNL A   1      32.205  26.420  24.563  1.00  0.00     0.106 C 
ATOM     67  N   UNL A   1      32.109  24.107  23.764  1.00  0.00    -0.317 N 
ATOM     68  S   UNL A   1      30.455  25.942  24.569  1.00  0.00    -0.138 SA
ATOM     69  C   UNL A   1      30.806  24.185  24.384  1.00  0.00     0.190 C 
BRANCH  67  70
ATOM     70  C   UNL A   1      32.582  23.067  22.989  1.00  0.00     0.255 C 
ATOM     71  O   UNL A   1      32.991  23.203  21.837  1.00  0.00    -0.269 OA
BRANCH  70  72
ATOM     72  C   UNL A   1      32.602  21.708  23.553  1.00  0.00     0.041 A 
ATOM     73  C   UNL A   1      32.688  21.531  24.938  1.00  0.00     0.014 A 
ATOM     74  C   UNL A   1      32.444  20.616  22.696  1.00  0.00     0.034 A 
ATOM     75  C   UNL A   1      32.654  20.243  25.469  1.00  0.00     0.002 A 
ATOM     76  C   UNL A   1      32.407  19.335  23.239  1.00  0.00     0.041 A 
ATOM     77  C   UNL A   1      32.516  19.144  24.619  1.00  0.00     0.020 A 
ATOM     78  Cl  UNL A   1      32.218  17.974  22.203  1.00  0.00    -0.084 Cl
ENDBRANCH  70  72
ENDBRANCH  67  70
ENDBRANCH  62  65
ENDBRANCH  60  61
ENDBRANCH  59  60
ENDBRANCH  58  59
ENDBRANCH   1  58
TORSDOF 15
ENDMDL
