MODEL 1
REMARK VINA RESULT:     -11.2      0.000      0.000
REMARK SMILES Cc1ccc(Cl)c(Nc2ccccc2C(=O)NCC(=O)NCCCCCCNC(=O)c2ccc(-c3c4nc(c(-c5ccccc5)c5ccc([nH]5)c(-c5ccccc5)c5nc(c(-c6ccccc6)c6ccc3[nH]6)C=C5)C=C4)cc2)c1Cl
REMARK SMILES IDX 23 1 22 2 21 3 19 4 20 5 18 7 17 8 15 9 16 10 14 12 9 13
REMARK SMILES IDX 10 14 11 15 13 16 12 17 8 18 7 20 1 21 2 22 3 23 79 24 4 25
REMARK SMILES IDX 80 26 5 27 6 28 24 29 25 30 26 31 27 32 28 33 29 34 30 36
REMARK SMILES IDX 31 37 32 38 78 39 33 40 77 41 34 42 35 43 36 44 71 45 37 46
REMARK SMILES IDX 76 47 70 48 72 49 38 50 75 51 69 52 68 53 39 55 61 56 46 57
REMARK SMILES IDX 60 58 47 59 50 60 59 61 73 62 48 63 49 64 58 66 74 67 51 68
REMARK SMILES IDX 40 69 41 70 45 71 42 72 44 73 43 74 62 75 63 76 67 77 64 78
REMARK SMILES IDX 66 79 65 80 52 81 53 82 57 83 54 84 56 85 55 86
REMARK H PARENT 21 6 17 11 8 19 28 35 72 54 50 65
REMARK Flexibility Score: inf
ROOT
ATOM      1  C   UNL A   1      34.600  22.146  23.944  1.00  0.00     0.021 C 
ENDROOT
BRANCH   1   2
ATOM      2  C   UNL A   1      34.167  23.602  23.823  1.00  0.00     0.116 C 
BRANCH   2   3
ATOM      3  N   UNL A   1      32.757  23.651  23.536  1.00  0.00    -0.355 N 
ATOM      4  C   UNL A   1      32.122  24.578  22.768  1.00  0.00     0.239 C 
ATOM      5  O   UNL A   1      30.890  24.630  22.817  1.00  0.00    -0.273 OA
ATOM      6  H   UNL A   1      32.198  22.945  23.933  1.00  0.00     0.163 HD
BRANCH   4   7
ATOM      7  C   UNL A   1      32.899  25.298  21.669  1.00  0.00     0.216 C 
BRANCH   7   8
ATOM      8  N   UNL A   1      33.224  26.707  21.629  1.00  0.00    -0.343 N 
ATOM      9  C   UNL A   1      33.585  27.589  22.625  1.00  0.00     0.253 C 
ATOM     10  O   UNL A   1      34.336  28.499  22.251  1.00  0.00    -0.269 OA
ATOM     11  H   UNL A   1      33.180  27.107  20.730  1.00  0.00     0.164 HD
BRANCH   9  12
ATOM     12  C   UNL A   1      32.985  27.693  24.009  1.00  0.00     0.063 A 
ATOM     13  C   UNL A   1      31.645  27.726  24.466  1.00  0.00     0.051 A 
ATOM     14  C   UNL A   1      31.417  27.951  25.852  1.00  0.00     0.027 A 
ATOM     15  C   UNL A   1      32.448  28.061  26.783  1.00  0.00     0.002 A 
ATOM     16  C   UNL A   1      34.013  27.797  24.989  1.00  0.00     0.016 A 
ATOM     17  C   UNL A   1      33.756  27.959  26.351  1.00  0.00     0.001 A 
BRANCH  13  18
ATOM     18  N   UNL A   1      30.461  27.420  23.762  1.00  0.00    -0.352 N 
ATOM     19  H   UNL A   1      30.334  26.454  23.620  1.00  0.00     0.167 HD
BRANCH  18  20
ATOM     20  C   UNL A   1      29.415  28.205  23.214  1.00  0.00     0.077 A 
ATOM     21  C   UNL A   1      28.768  31.760  21.960  1.00  0.00     0.046 C 
ATOM     22  C   UNL A   1      28.541  30.363  22.466  1.00  0.00    -0.030 A 
ATOM     23  C   UNL A   1      27.254  29.978  22.869  1.00  0.00     0.006 A 
ATOM     24  C   UNL A   1      29.609  29.453  22.596  1.00  0.00     0.069 A 
ATOM     25  C   UNL A   1      27.016  28.694  23.352  1.00  0.00     0.023 A 
ATOM     26  Cl  UNL A   1      31.148  29.861  21.896  1.00  0.00    -0.082 Cl
ATOM     27  C   UNL A   1      28.082  27.814  23.509  1.00  0.00     0.066 A 
ATOM     28  Cl  UNL A   1      27.755  26.269  24.231  1.00  0.00    -0.082 Cl
ENDBRANCH  18  20
ENDBRANCH  13  18
ENDBRANCH   9  12
ENDBRANCH   7   8
ENDBRANCH   4   7
ENDBRANCH   2   3
ENDBRANCH   1   2
BRANCH   1  29
ATOM     29  C   UNL A   1      36.074  22.026  24.350  1.00  0.00     0.002 C 
BRANCH  29  30
ATOM     30  C   UNL A   1      36.375  20.794  25.209  1.00  0.00     0.002 C 
BRANCH  30  31
ATOM     31  C   UNL A   1      37.689  20.099  24.851  1.00  0.00     0.021 C 
BRANCH  31  32
ATOM     32  C   UNL A   1      38.870  20.563  25.694  1.00  0.00     0.116 C 
BRANCH  32  33
ATOM     33  N   UNL A   1      39.879  19.524  25.809  1.00  0.00    -0.352 N 
ATOM     34  C   UNL A   1      41.211  19.652  26.105  1.00  0.00     0.251 C 
ATOM     35  H   UNL A   1      39.564  18.604  25.654  1.00  0.00     0.163 HD
ATOM     36  O   UNL A   1      41.985  18.721  25.935  1.00  0.00    -0.269 OA
BRANCH  34  37
ATOM     37  C   UNL A   1      41.698  20.943  26.624  1.00  0.00     0.039 A 
ATOM     38  C   UNL A   1      42.190  21.891  25.726  1.00  0.00     0.014 A 
ATOM     39  C   UNL A   1      41.649  21.213  27.995  1.00  0.00     0.014 A 
ATOM     40  C   UNL A   1      42.596  23.136  26.203  1.00  0.00     0.010 A 
ATOM     41  C   UNL A   1      41.981  22.479  28.457  1.00  0.00     0.010 A 
ATOM     42  C   UNL A   1      42.469  23.447  27.568  1.00  0.00    -0.014 A 
BRANCH  42  43
ATOM     43  C   UNL A   1      42.852  24.781  28.085  1.00  0.00     0.031 A 
ATOM     44  C   UNL A   1      41.803  25.831  28.308  1.00  0.00     0.074 A 
ATOM     45  C   UNL A   1      44.152  25.064  28.292  1.00  0.00     0.049 A 
ATOM     46  N   UNL A   1      41.946  27.067  28.715  1.00  0.00    -0.248 NA
ATOM     47  C   UNL A   1      40.412  25.454  28.007  1.00  0.00     0.031 C 
ATOM     48  C   UNL A   1      45.267  24.141  28.066  1.00  0.00     0.029 A 
ATOM     49  N   UNL A   1      44.754  26.212  28.734  1.00  0.00    -0.354 N 
ATOM     50  C   UNL A   1      40.670  27.615  28.704  1.00  0.00     0.074 A 
ATOM     51  C   UNL A   1      39.776  26.599  28.195  1.00  0.00     0.031 C 
ATOM     52  C   UNL A   1      46.415  24.752  28.399  1.00  0.00     0.029 A 
ATOM     53  C   UNL A   1      46.121  26.117  28.822  1.00  0.00     0.049 A 
ATOM     54  H   UNL A   1      44.255  27.028  28.968  1.00  0.00     0.167 HD
ATOM     55  C   UNL A   1      40.275  28.848  29.101  1.00  0.00     0.031 A 
ATOM     56  C   UNL A   1      47.036  27.030  29.195  1.00  0.00     0.031 A 
ATOM     57  C   UNL A   1      41.167  29.856  29.606  1.00  0.00     0.049 A 
ATOM     58  C   UNL A   1      46.578  28.396  29.620  1.00  0.00     0.074 A 
ATOM     59  C   UNL A   1      40.862  31.117  30.088  1.00  0.00     0.029 A 
ATOM     60  N   UNL A   1      42.546  29.719  29.683  1.00  0.00    -0.354 N 
ATOM     61  N   UNL A   1      45.359  28.876  29.678  1.00  0.00    -0.248 NA
ATOM     62  C   UNL A   1      47.620  29.340  30.045  1.00  0.00     0.031 C 
ATOM     63  C   UNL A   1      42.062  31.764  30.404  1.00  0.00     0.029 A 
ATOM     64  C   UNL A   1      43.108  30.884  30.179  1.00  0.00     0.049 A 
ATOM     65  H   UNL A   1      43.049  28.915  29.425  1.00  0.00     0.167 HD
ATOM     66  C   UNL A   1      45.485  30.170  30.166  1.00  0.00     0.074 A 
ATOM     67  C   UNL A   1      46.898  30.391  30.405  1.00  0.00     0.031 C 
ATOM     68  C   UNL A   1      44.517  31.092  30.399  1.00  0.00     0.031 A 
BRANCH  55  69
ATOM     69  C   UNL A   1      38.810  29.170  28.983  1.00  0.00    -0.014 A 
ATOM     70  C   UNL A   1      37.934  28.998  30.068  1.00  0.00     0.009 A 
ATOM     71  C   UNL A   1      38.296  29.655  27.771  1.00  0.00     0.009 A 
ATOM     72  C   UNL A   1      36.569  29.257  29.926  1.00  0.00     0.001 A 
ATOM     73  C   UNL A   1      36.936  29.946  27.641  1.00  0.00     0.001 A 
ATOM     74  C   UNL A   1      36.072  29.733  28.715  1.00  0.00     0.000 A 
ENDBRANCH  55  69
BRANCH  56  75
ATOM     75  C   UNL A   1      48.476  26.667  29.201  1.00  0.00    -0.014 A 
ATOM     76  C   UNL A   1      49.063  26.097  30.341  1.00  0.00     0.009 A 
ATOM     77  C   UNL A   1      49.266  26.861  28.057  1.00  0.00     0.009 A 
ATOM     78  C   UNL A   1      50.416  25.746  30.341  1.00  0.00     0.001 A 
ATOM     79  C   UNL A   1      50.610  26.484  28.050  1.00  0.00     0.001 A 
ATOM     80  C   UNL A   1      51.186  25.934  29.194  1.00  0.00     0.000 A 
ENDBRANCH  56  75
BRANCH  68  81
ATOM     81  C   UNL A   1      44.953  32.414  30.964  1.00  0.00    -0.014 A 
ATOM     82  C   UNL A   1      45.283  33.493  30.128  1.00  0.00     0.009 A 
ATOM     83  C   UNL A   1      44.990  32.595  32.356  1.00  0.00     0.009 A 
ATOM     84  C   UNL A   1      45.675  34.716  30.677  1.00  0.00     0.001 A 
ATOM     85  C   UNL A   1      45.353  33.828  32.900  1.00  0.00     0.001 A 
ATOM     86  C   UNL A   1      45.704  34.883  32.061  1.00  0.00     0.000 A 
ENDBRANCH  68  81
ENDBRANCH  42  43
ENDBRANCH  34  37
ENDBRANCH  32  33
ENDBRANCH  31  32
ENDBRANCH  30  31
ENDBRANCH  29  30
ENDBRANCH   1  29
TORSDOF 17
ENDMDL
MODEL 2
REMARK VINA RESULT:     -11.1      5.109     10.116
REMARK SMILES Cc1ccc(Cl)c(Nc2ccccc2C(=O)NCC(=O)NCCCCCCNC(=O)c2ccc(-c3c4nc(c(-c5ccccc5)c5ccc([nH]5)c(-c5ccccc5)c5nc(c(-c6ccccc6)c6ccc3[nH]6)C=C5)C=C4)cc2)c1Cl
REMARK SMILES IDX 23 1 22 2 21 3 19 4 20 5 18 7 17 8 15 9 16 10 14 12 9 13
REMARK SMILES IDX 10 14 11 15 13 16 12 17 8 18 7 20 1 21 2 22 3 23 79 24 4 25
REMARK SMILES IDX 80 26 5 27 6 28 24 29 25 30 26 31 27 32 28 33 29 34 30 36
REMARK SMILES IDX 31 37 32 38 78 39 33 40 77 41 34 42 35 43 36 44 71 45 37 46
REMARK SMILES IDX 76 47 70 48 72 49 38 50 75 51 69 52 68 53 39 55 61 56 46 57
REMARK SMILES IDX 60 58 47 59 50 60 59 61 73 62 48 63 49 64 58 66 74 67 51 68
REMARK SMILES IDX 40 69 41 70 45 71 42 72 44 73 43 74 62 75 63 76 67 77 64 78
REMARK SMILES IDX 66 79 65 80 52 81 53 82 57 83 54 84 56 85 55 86
REMARK H PARENT 21 6 17 11 8 19 28 35 72 54 50 65
REMARK Flexibility Score: inf
ROOT
ATOM      1  C   UNL A   1      35.949  32.632  28.053  1.00  0.00     0.021 C 
ENDROOT
BRANCH   1   2
ATOM      2  C   UNL A   1      35.212  31.299  28.003  1.00  0.00     0.116 C 
BRANCH   2   3
ATOM      3  N   UNL A   1      33.801  31.547  27.872  1.00  0.00    -0.355 N 
ATOM      4  C   UNL A   1      32.948  30.925  27.013  1.00  0.00     0.239 C 
ATOM      5  O   UNL A   1      31.828  31.415  26.846  1.00  0.00    -0.273 OA
ATOM      6  H   UNL A   1      33.414  32.235  28.462  1.00  0.00     0.163 HD
BRANCH   4   7
ATOM      7  C   UNL A   1      33.271  29.514  26.531  1.00  0.00     0.216 C 
BRANCH   7   8
ATOM      8  N   UNL A   1      33.703  29.138  25.202  1.00  0.00    -0.343 N 
ATOM      9  C   UNL A   1      33.010  29.021  24.016  1.00  0.00     0.253 C 
ATOM     10  O   UNL A   1      33.684  29.263  23.007  1.00  0.00    -0.269 OA
ATOM     11  H   UNL A   1      34.663  28.928  25.133  1.00  0.00     0.164 HD
BRANCH   9  12
ATOM     12  C   UNL A   1      31.638  28.416  23.819  1.00  0.00     0.063 A 
ATOM     13  C   UNL A   1      31.175  27.078  23.850  1.00  0.00     0.051 A 
ATOM     14  C   UNL A   1      29.817  26.834  23.503  1.00  0.00     0.027 A 
ATOM     15  C   UNL A   1      28.912  27.853  23.213  1.00  0.00     0.002 A 
ATOM     16  C   UNL A   1      30.684  29.433  23.531  1.00  0.00     0.016 A 
ATOM     17  C   UNL A   1      29.343  29.164  23.250  1.00  0.00     0.001 A 
BRANCH  13  18
ATOM     18  N   UNL A   1      31.833  25.923  24.324  1.00  0.00    -0.352 N 
ATOM     19  H   UNL A   1      32.292  26.065  25.183  1.00  0.00     0.167 HD
BRANCH  18  20
ATOM     20  C   UNL A   1      31.975  24.602  23.828  1.00  0.00     0.077 A 
ATOM     21  C   UNL A   1      32.115  20.996  25.097  1.00  0.00     0.046 C 
ATOM     22  C   UNL A   1      32.256  22.204  24.213  1.00  0.00    -0.030 A 
ATOM     23  C   UNL A   1      33.001  22.104  23.028  1.00  0.00     0.006 A 
ATOM     24  C   UNL A   1      31.705  23.446  24.583  1.00  0.00     0.069 A 
ATOM     25  C   UNL A   1      33.159  23.209  22.195  1.00  0.00     0.023 A 
ATOM     26  Cl  UNL A   1      30.609  23.508  25.931  1.00  0.00    -0.082 Cl
ATOM     27  C   UNL A   1      32.639  24.440  22.584  1.00  0.00     0.066 A 
ATOM     28  Cl  UNL A   1      32.968  25.813  21.573  1.00  0.00    -0.082 Cl
ENDBRANCH  18  20
ENDBRANCH  13  18
ENDBRANCH   9  12
ENDBRANCH   7   8
ENDBRANCH   4   7
ENDBRANCH   2   3
ENDBRANCH   1   2
BRANCH   1  29
ATOM     29  C   UNL A   1      35.210  33.654  28.925  1.00  0.00     0.002 C 
BRANCH  29  30
ATOM     30  C   UNL A   1      34.859  34.950  28.187  1.00  0.00     0.002 C 
BRANCH  30  31
ATOM     31  C   UNL A   1      33.761  35.769  28.867  1.00  0.00     0.021 C 
BRANCH  31  32
ATOM     32  C   UNL A   1      32.895  34.952  29.817  1.00  0.00     0.116 C 
BRANCH  32  33
ATOM     33  N   UNL A   1      32.401  35.766  30.915  1.00  0.00    -0.352 N 
ATOM     34  C   UNL A   1      32.774  35.742  32.233  1.00  0.00     0.251 C 
ATOM     35  H   UNL A   1      31.706  36.423  30.681  1.00  0.00     0.163 HD
ATOM     36  O   UNL A   1      32.108  36.315  33.085  1.00  0.00    -0.269 OA
BRANCH  34  37
ATOM     37  C   UNL A   1      33.990  35.000  32.610  1.00  0.00     0.039 A 
ATOM     38  C   UNL A   1      33.868  33.694  33.085  1.00  0.00     0.014 A 
ATOM     39  C   UNL A   1      35.248  35.598  32.476  1.00  0.00     0.014 A 
ATOM     40  C   UNL A   1      35.017  32.967  33.387  1.00  0.00     0.010 A 
ATOM     41  C   UNL A   1      36.393  34.846  32.702  1.00  0.00     0.010 A 
ATOM     42  C   UNL A   1      36.288  33.529  33.172  1.00  0.00    -0.014 A 
BRANCH  42  43
ATOM     43  C   UNL A   1      37.520  32.754  33.443  1.00  0.00     0.031 A 
ATOM     44  C   UNL A   1      38.296  32.992  34.706  1.00  0.00     0.074 A 
ATOM     45  C   UNL A   1      37.972  31.883  32.521  1.00  0.00     0.049 A 
ATOM     46  N   UNL A   1      39.417  32.444  35.102  1.00  0.00    -0.248 NA
ATOM     47  C   UNL A   1      37.758  33.999  35.635  1.00  0.00     0.031 C 
ATOM     48  C   UNL A   1      37.331  31.602  31.235  1.00  0.00     0.029 A 
ATOM     49  N   UNL A   1      39.082  31.079  32.524  1.00  0.00    -0.354 N 
ATOM     50  C   UNL A   1      39.723  33.049  36.313  1.00  0.00     0.074 A 
ATOM     51  C   UNL A   1      38.705  34.046  36.559  1.00  0.00     0.031 C 
ATOM     52  C   UNL A   1      38.044  30.667  30.586  1.00  0.00     0.029 A 
ATOM     53  C   UNL A   1      39.209  30.316  31.391  1.00  0.00     0.049 A 
ATOM     54  H   UNL A   1      39.726  31.051  33.268  1.00  0.00     0.167 HD
ATOM     55  C   UNL A   1      40.750  32.786  37.156  1.00  0.00     0.031 A 
ATOM     56  C   UNL A   1      40.162  29.435  31.036  1.00  0.00     0.031 A 
ATOM     57  C   UNL A   1      41.761  31.794  36.907  1.00  0.00     0.049 A 
ATOM     58  C   UNL A   1      41.300  29.165  31.980  1.00  0.00     0.074 A 
ATOM     59  C   UNL A   1      42.811  31.409  37.722  1.00  0.00     0.029 A 
ATOM     60  N   UNL A   1      41.853  31.037  35.748  1.00  0.00    -0.354 N 
ATOM     61  N   UNL A   1      41.535  29.690  33.158  1.00  0.00    -0.248 NA
ATOM     62  C   UNL A   1      42.293  28.172  31.550  1.00  0.00     0.031 C 
ATOM     63  C   UNL A   1      43.571  30.458  37.031  1.00  0.00     0.029 A 
ATOM     64  C   UNL A   1      42.959  30.206  35.814  1.00  0.00     0.049 A 
ATOM     65  H   UNL A   1      41.225  31.083  34.992  1.00  0.00     0.167 HD
ATOM     66  C   UNL A   1      42.691  29.075  33.621  1.00  0.00     0.074 A 
ATOM     67  C   UNL A   1      43.096  28.126  32.604  1.00  0.00     0.031 C 
ATOM     68  C   UNL A   1      43.355  29.276  34.787  1.00  0.00     0.031 A 
BRANCH  55  69
ATOM     69  C   UNL A   1      40.829  33.602  38.417  1.00  0.00    -0.014 A 
ATOM     70  C   UNL A   1      40.199  33.182  39.601  1.00  0.00     0.009 A 
ATOM     71  C   UNL A   1      41.546  34.808  38.425  1.00  0.00     0.009 A 
ATOM     72  C   UNL A   1      40.244  33.976  40.748  1.00  0.00     0.001 A 
ATOM     73  C   UNL A   1      41.618  35.584  39.584  1.00  0.00     0.001 A 
ATOM     74  C   UNL A   1      40.956  35.174  40.740  1.00  0.00     0.000 A 
ENDBRANCH  55  69
BRANCH  56  75
ATOM     75  C   UNL A   1      40.063  28.730  29.732  1.00  0.00    -0.014 A 
ATOM     76  C   UNL A   1      40.591  29.308  28.567  1.00  0.00     0.009 A 
ATOM     77  C   UNL A   1      39.465  27.462  29.649  1.00  0.00     0.009 A 
ATOM     78  C   UNL A   1      40.506  28.639  27.344  1.00  0.00     0.001 A 
ATOM     79  C   UNL A   1      39.407  26.784  28.431  1.00  0.00     0.001 A 
ATOM     80  C   UNL A   1      39.920  27.375  27.278  1.00  0.00     0.000 A 
ENDBRANCH  56  75
BRANCH  68  81
ATOM     81  C   UNL A   1      44.575  28.435  35.034  1.00  0.00    -0.014 A 
ATOM     82  C   UNL A   1      44.482  27.176  35.648  1.00  0.00     0.009 A 
ATOM     83  C   UNL A   1      45.833  28.892  34.605  1.00  0.00     0.009 A 
ATOM     84  C   UNL A   1      45.630  26.408  35.858  1.00  0.00     0.001 A 
ATOM     85  C   UNL A   1      46.971  28.108  34.790  1.00  0.00     0.001 A 
ATOM     86  C   UNL A   1      46.871  26.871  35.424  1.00  0.00     0.000 A 
ENDBRANCH  68  81
ENDBRANCH  42  43
ENDBRANCH  34  37
ENDBRANCH  32  33
ENDBRANCH  31  32
ENDBRANCH  30  31
ENDBRANCH  29  30
ENDBRANCH   1  29
TORSDOF 17
ENDMDL
MODEL 3
REMARK VINA RESULT:     -11.0      4.965      9.669
REMARK SMILES Cc1ccc(Cl)c(Nc2ccccc2C(=O)NCC(=O)NCCCCCCNC(=O)c2ccc(-c3c4nc(c(-c5ccccc5)c5ccc([nH]5)c(-c5ccccc5)c5nc(c(-c6ccccc6)c6ccc3[nH]6)C=C5)C=C4)cc2)c1Cl
REMARK SMILES IDX 23 1 22 2 21 3 19 4 20 5 18 7 17 8 15 9 16 10 14 12 9 13
REMARK SMILES IDX 10 14 11 15 13 16 12 17 8 18 7 20 1 21 2 22 3 23 79 24 4 25
REMARK SMILES IDX 80 26 5 27 6 28 24 29 25 30 26 31 27 32 28 33 29 34 30 36
REMARK SMILES IDX 31 37 32 38 78 39 33 40 77 41 34 42 35 43 36 44 71 45 37 46
REMARK SMILES IDX 76 47 70 48 72 49 38 50 75 51 69 52 68 53 39 55 61 56 46 57
REMARK SMILES IDX 60 58 47 59 50 60 59 61 73 62 48 63 49 64 58 66 74 67 51 68
REMARK SMILES IDX 40 69 41 70 45 71 42 72 44 73 43 74 62 75 63 76 67 77 64 78
REMARK SMILES IDX 66 79 65 80 52 81 53 82 57 83 54 84 56 85 55 86
REMARK H PARENT 21 6 17 11 8 19 28 35 72 54 50 65
REMARK Flexibility Score: inf
ROOT
ATOM      1  C   UNL A   1      35.485  31.785  28.037  1.00  0.00     0.021 C 
ENDROOT
BRANCH   1   2
ATOM      2  C   UNL A   1      34.791  30.466  27.720  1.00  0.00     0.116 C 
BRANCH   2   3
ATOM      3  N   UNL A   1      33.382  30.705  27.552  1.00  0.00    -0.355 N 
ATOM      4  C   UNL A   1      32.516  29.945  26.827  1.00  0.00     0.239 C 
ATOM      5  O   UNL A   1      31.400  30.410  26.578  1.00  0.00    -0.273 OA
ATOM      6  H   UNL A   1      33.008  31.494  28.005  1.00  0.00     0.163 HD
BRANCH   4   7
ATOM      7  C   UNL A   1      32.818  28.464  26.615  1.00  0.00     0.216 C 
BRANCH   7   8
ATOM      8  N   UNL A   1      31.852  27.389  26.570  1.00  0.00    -0.343 N 
ATOM      9  C   UNL A   1      31.992  26.047  26.284  1.00  0.00     0.253 C 
ATOM     10  O   UNL A   1      31.185  25.315  26.871  1.00  0.00    -0.269 OA
ATOM     11  H   UNL A   1      30.930  27.664  26.781  1.00  0.00     0.164 HD
BRANCH   9  12
ATOM     12  C   UNL A   1      32.834  25.433  25.187  1.00  0.00     0.063 A 
ATOM     13  C   UNL A   1      32.647  25.334  23.788  1.00  0.00     0.051 A 
ATOM     14  C   UNL A   1      33.591  24.577  23.040  1.00  0.00     0.027 A 
ATOM     15  C   UNL A   1      34.724  24.001  23.610  1.00  0.00     0.002 A 
ATOM     16  C   UNL A   1      34.008  24.843  25.735  1.00  0.00     0.016 A 
ATOM     17  C   UNL A   1      34.947  24.154  24.964  1.00  0.00     0.001 A 
BRANCH  13  18
ATOM     18  N   UNL A   1      31.717  26.008  22.967  1.00  0.00    -0.352 N 
ATOM     19  H   UNL A   1      31.487  25.507  22.152  1.00  0.00     0.167 HD
BRANCH  18  20
ATOM     20  C   UNL A   1      31.044  27.252  23.064  1.00  0.00     0.077 A 
ATOM     21  C   UNL A   1      27.490  28.666  23.087  1.00  0.00     0.046 C 
ATOM     22  C   UNL A   1      28.986  28.571  22.980  1.00  0.00    -0.030 A 
ATOM     23  C   UNL A   1      29.710  29.664  22.482  1.00  0.00     0.006 A 
ATOM     24  C   UNL A   1      29.666  27.383  23.315  1.00  0.00     0.069 A 
ATOM     25  C   UNL A   1      31.096  29.601  22.361  1.00  0.00     0.023 A 
ATOM     26  Cl  UNL A   1      28.793  26.119  24.130  1.00  0.00    -0.082 Cl
ATOM     27  C   UNL A   1      31.756  28.413  22.662  1.00  0.00     0.066 A 
ATOM     28  Cl  UNL A   1      33.467  28.344  22.378  1.00  0.00    -0.082 Cl
ENDBRANCH  18  20
ENDBRANCH  13  18
ENDBRANCH   9  12
ENDBRANCH   7   8
ENDBRANCH   4   7
ENDBRANCH   2   3
ENDBRANCH   1   2
BRANCH   1  29
ATOM     29  C   UNL A   1      34.635  32.661  28.967  1.00  0.00     0.002 C 
BRANCH  29  30
ATOM     30  C   UNL A   1      34.504  34.112  28.493  1.00  0.00     0.002 C 
BRANCH  30  31
ATOM     31  C   UNL A   1      33.179  34.770  28.879  1.00  0.00     0.021 C 
BRANCH  31  32
ATOM     32  C   UNL A   1      33.349  36.114  29.575  1.00  0.00     0.116 C 
BRANCH  32  33
ATOM     33  N   UNL A   1      32.532  36.195  30.774  1.00  0.00    -0.352 N 
ATOM     34  C   UNL A   1      32.660  35.499  31.947  1.00  0.00     0.251 C 
ATOM     35  H   UNL A   1      31.786  36.838  30.740  1.00  0.00     0.163 HD
ATOM     36  O   UNL A   1      31.763  35.497  32.778  1.00  0.00    -0.269 OA
BRANCH  34  37
ATOM     37  C   UNL A   1      33.900  34.737  32.184  1.00  0.00     0.039 A 
ATOM     38  C   UNL A   1      35.128  35.388  32.067  1.00  0.00     0.014 A 
ATOM     39  C   UNL A   1      33.837  33.385  32.537  1.00  0.00     0.014 A 
ATOM     40  C   UNL A   1      36.300  34.688  32.349  1.00  0.00     0.010 A 
ATOM     41  C   UNL A   1      34.999  32.713  32.892  1.00  0.00     0.010 A 
ATOM     42  C   UNL A   1      36.241  33.355  32.789  1.00  0.00    -0.014 A 
BRANCH  42  43
ATOM     43  C   UNL A   1      37.473  32.612  33.137  1.00  0.00     0.031 A 
ATOM     44  C   UNL A   1      38.196  32.911  34.419  1.00  0.00     0.074 A 
ATOM     45  C   UNL A   1      37.974  31.713  32.269  1.00  0.00     0.049 A 
ATOM     46  N   UNL A   1      39.309  32.398  34.878  1.00  0.00    -0.248 NA
ATOM     47  C   UNL A   1      37.608  33.946  35.285  1.00  0.00     0.031 C 
ATOM     48  C   UNL A   1      37.387  31.370  30.971  1.00  0.00     0.029 A 
ATOM     49  N   UNL A   1      39.094  30.928  32.347  1.00  0.00    -0.354 N 
ATOM     50  C   UNL A   1      39.560  33.055  36.075  1.00  0.00     0.074 A 
ATOM     51  C   UNL A   1      38.518  34.044  36.242  1.00  0.00     0.031 C 
ATOM     52  C   UNL A   1      38.138  30.422  30.388  1.00  0.00     0.029 A 
ATOM     53  C   UNL A   1      39.277  30.122  31.250  1.00  0.00     0.049 A 
ATOM     54  H   UNL A   1      39.709  30.939  33.115  1.00  0.00     0.167 HD
ATOM     55  C   UNL A   1      40.556  32.842  36.967  1.00  0.00     0.031 A 
ATOM     56  C   UNL A   1      40.255  29.243  30.967  1.00  0.00     0.031 A 
ATOM     57  C   UNL A   1      41.591  31.858  36.796  1.00  0.00     0.049 A 
ATOM     58  C   UNL A   1      41.360  29.030  31.964  1.00  0.00     0.074 A 
ATOM     59  C   UNL A   1      42.614  31.522  37.665  1.00  0.00     0.029 A 
ATOM     60  N   UNL A   1      41.739  31.058  35.673  1.00  0.00    -0.354 N 
ATOM     61  N   UNL A   1      41.542  29.604  33.128  1.00  0.00    -0.248 NA
ATOM     62  C   UNL A   1      42.383  28.036  31.613  1.00  0.00     0.031 C 
ATOM     63  C   UNL A   1      43.415  30.557  37.043  1.00  0.00     0.029 A 
ATOM     64  C   UNL A   1      42.854  30.248  35.814  1.00  0.00     0.049 A 
ATOM     65  H   UNL A   1      41.140  31.063  34.892  1.00  0.00     0.167 HD
ATOM     66  C   UNL A   1      42.688  29.027  33.660  1.00  0.00     0.074 A 
ATOM     67  C   UNL A   1      43.146  28.045  32.697  1.00  0.00     0.031 C 
ATOM     68  C   UNL A   1      43.303  29.285  34.840  1.00  0.00     0.031 A 
BRANCH  55  69
ATOM     69  C   UNL A   1      40.575  33.709  38.196  1.00  0.00    -0.014 A 
ATOM     70  C   UNL A   1      39.877  33.342  39.359  1.00  0.00     0.009 A 
ATOM     71  C   UNL A   1      41.303  34.908  38.194  1.00  0.00     0.009 A 
ATOM     72  C   UNL A   1      39.867  34.182  40.475  1.00  0.00     0.001 A 
ATOM     73  C   UNL A   1      41.319  35.730  39.323  1.00  0.00     0.001 A 
ATOM     74  C   UNL A   1      40.590  35.373  40.457  1.00  0.00     0.000 A 
ENDBRANCH  55  69
BRANCH  56  75
ATOM     75  C   UNL A   1      40.217  28.487  29.690  1.00  0.00    -0.014 A 
ATOM     76  C   UNL A   1      40.863  28.983  28.547  1.00  0.00     0.009 A 
ATOM     77  C   UNL A   1      39.559  27.249  29.613  1.00  0.00     0.009 A 
ATOM     78  C   UNL A   1      40.835  28.264  27.350  1.00  0.00     0.001 A 
ATOM     79  C   UNL A   1      39.556  26.520  28.423  1.00  0.00     0.001 A 
ATOM     80  C   UNL A   1      40.187  27.031  27.290  1.00  0.00     0.000 A 
ENDBRANCH  56  75
BRANCH  68  81
ATOM     81  C   UNL A   1      44.525  28.473  35.167  1.00  0.00    -0.014 A 
ATOM     82  C   UNL A   1      44.423  27.207  35.763  1.00  0.00     0.009 A 
ATOM     83  C   UNL A   1      45.797  28.968  34.833  1.00  0.00     0.009 A 
ATOM     84  C   UNL A   1      45.573  26.467  36.048  1.00  0.00     0.001 A 
ATOM     85  C   UNL A   1      46.940  28.213  35.092  1.00  0.00     0.001 A 
ATOM     86  C   UNL A   1      46.829  26.968  35.708  1.00  0.00     0.000 A 
ENDBRANCH  68  81
ENDBRANCH  42  43
ENDBRANCH  34  37
ENDBRANCH  32  33
ENDBRANCH  31  32
ENDBRANCH  30  31
ENDBRANCH  29  30
ENDBRANCH   1  29
TORSDOF 17
ENDMDL
