MODEL 1
REMARK VINA RESULT:     -13.1      0.000      0.000
REMARK SMILES Cc1ccccc1[C@@H]1[NH2+][C@@H](C(=O)NCCCCCCNC(=O)c2ccc(-c3c4nc(c(-c5ccccc5)c5ccc([nH]5)c(-c5ccccc5)c5nc(c(-c6ccccc6)c6ccc3[nH]6)C=C5)C=C4)cc2)CC2=c3ccccc3=N[C@H]21
REMARK SMILES IDX 17 1 16 2 15 3 14 4 13 5 11 6 12 7 10 9 8 10 9 11 80 12
REMARK SMILES IDX 72 15 79 16 71 17 73 18 78 19 74 20 77 21 75 22 76 23 7 24
REMARK SMILES IDX 1 25 2 26 3 27 4 28 6 29 5 30 18 31 19 32 20 33 21 34 22 36
REMARK SMILES IDX 23 37 24 38 70 39 25 40 69 41 26 42 27 43 28 44 63 45 29 46
REMARK SMILES IDX 68 47 62 48 64 49 30 50 67 51 61 52 60 53 31 55 53 56 38 57
REMARK SMILES IDX 52 58 39 59 42 60 51 61 65 62 40 63 41 64 50 66 66 67 43 68
REMARK SMILES IDX 32 69 33 70 37 71 34 72 36 73 35 74 54 75 55 76 59 77 56 78
REMARK SMILES IDX 58 79 57 80 44 81 45 82 49 83 46 84 48 85 47 86
REMARK H PARENT 13 8 9 13 9 14 20 35 64 54 42 65
REMARK Flexibility Score: inf
ROOT
ATOM      1  C   UNL A   1      31.934  29.835  25.706  1.00  0.00     0.002 C 
ENDROOT
BRANCH   1   2
ATOM      2  C   UNL A   1      32.363  28.362  25.842  1.00  0.00     0.002 C 
BRANCH   2   3
ATOM      3  C   UNL A   1      31.368  27.388  26.492  1.00  0.00     0.021 C 
BRANCH   3   4
ATOM      4  C   UNL A   1      31.822  25.929  26.583  1.00  0.00     0.116 C 
BRANCH   4   5
ATOM      5  N   UNL A   1      30.781  24.944  26.805  1.00  0.00    -0.351 N 
ATOM      6  C   UNL A   1      30.825  23.576  26.817  1.00  0.00     0.278 C 
ATOM      7  O   UNL A   1      30.001  23.015  27.552  1.00  0.00    -0.268 OA
ATOM      8  H   UNL A   1      29.890  25.324  26.977  1.00  0.00     0.163 HD
BRANCH   6   9
ATOM      9  C   UNL A   1      31.688  22.740  25.821  1.00  0.00     0.277 C 
ATOM     10  C   UNL A   1      34.123  23.442  25.310  1.00  0.00     0.243 C 
ATOM     11  N   UNL A   1      33.129  22.813  26.222  1.00  0.00    -0.327 N 
ATOM     12  C   UNL A   1      33.740  23.631  23.807  1.00  0.00     0.196 C 
ATOM     13  H   UNL A   1      33.166  23.332  27.100  1.00  0.00     0.347 HD
ATOM     14  H   UNL A   1      33.417  21.835  26.245  1.00  0.00     0.347 HD
ATOM     15  C   UNL A   1      32.281  23.928  23.727  1.00  0.00    -0.024 C 
ATOM     16  N   UNL A   1      34.402  24.817  23.184  1.00  0.00    -0.270 NA
ATOM     17  C   UNL A   1      31.417  22.890  24.324  1.00  0.00     0.109 C 
ATOM     18  C   UNL A   1      32.045  25.123  23.203  1.00  0.00     0.002 A 
ATOM     19  C   UNL A   1      33.403  25.577  22.854  1.00  0.00     0.066 A 
ATOM     20  C   UNL A   1      30.900  25.948  23.005  1.00  0.00     0.010 A 
ATOM     21  C   UNL A   1      33.495  26.874  22.149  1.00  0.00     0.028 A 
ATOM     22  C   UNL A   1      31.069  27.148  22.426  1.00  0.00     0.001 A 
ATOM     23  C   UNL A   1      32.373  27.588  21.959  1.00  0.00     0.002 A 
BRANCH  10  24
ATOM     24  C   UNL A   1      35.462  22.691  25.395  1.00  0.00     0.015 A 
ATOM     25  C   UNL A   1      34.485  20.412  24.676  1.00  0.00     0.045 C 
ATOM     26  C   UNL A   1      35.619  21.320  25.069  1.00  0.00    -0.042 A 
ATOM     27  C   UNL A   1      36.913  20.764  25.034  1.00  0.00     0.004 A 
ATOM     28  C   UNL A   1      38.034  21.521  25.363  1.00  0.00     0.000 A 
ATOM     29  C   UNL A   1      36.612  23.429  25.747  1.00  0.00     0.010 A 
ATOM     30  C   UNL A   1      37.883  22.849  25.736  1.00  0.00     0.001 A 
ENDBRANCH  10  24
ENDBRANCH   6   9
ENDBRANCH   4   5
ENDBRANCH   3   4
ENDBRANCH   2   3
ENDBRANCH   1   2
BRANCH   1  31
ATOM     31  C   UNL A   1      32.378  30.793  26.815  1.00  0.00     0.021 C 
BRANCH  31  32
ATOM     32  C   UNL A   1      33.568  30.315  27.638  1.00  0.00     0.116 C 
BRANCH  32  33
ATOM     33  N   UNL A   1      34.359  31.386  28.234  1.00  0.00    -0.352 N 
ATOM     34  C   UNL A   1      35.628  31.355  28.794  1.00  0.00     0.251 C 
ATOM     35  H   UNL A   1      33.923  32.269  28.241  1.00  0.00     0.163 HD
ATOM     36  O   UNL A   1      36.088  32.361  29.305  1.00  0.00    -0.269 OA
BRANCH  34  37
ATOM     37  C   UNL A   1      36.485  30.149  28.634  1.00  0.00     0.039 A 
ATOM     38  C   UNL A   1      36.651  29.321  29.753  1.00  0.00     0.014 A 
ATOM     39  C   UNL A   1      37.283  29.961  27.512  1.00  0.00     0.014 A 
ATOM     40  C   UNL A   1      37.788  28.524  29.852  1.00  0.00     0.010 A 
ATOM     41  C   UNL A   1      38.462  29.262  27.648  1.00  0.00     0.010 A 
ATOM     42  C   UNL A   1      38.749  28.610  28.849  1.00  0.00    -0.014 A 
BRANCH  42  43
ATOM     43  C   UNL A   1      40.130  28.188  29.017  1.00  0.00     0.031 A 
ATOM     44  C   UNL A   1      40.601  26.909  28.468  1.00  0.00     0.074 A 
ATOM     45  C   UNL A   1      41.015  29.043  29.577  1.00  0.00     0.049 A 
ATOM     46  N   UNL A   1      41.670  26.307  28.865  1.00  0.00    -0.248 NA
ATOM     47  C   UNL A   1      39.872  26.173  27.445  1.00  0.00     0.031 C 
ATOM     48  C   UNL A   1      42.472  28.974  29.545  1.00  0.00     0.029 A 
ATOM     49  N   UNL A   1      40.743  30.061  30.482  1.00  0.00    -0.354 N 
ATOM     50  C   UNL A   1      41.938  25.308  27.963  1.00  0.00     0.074 A 
ATOM     51  C   UNL A   1      40.741  25.199  27.160  1.00  0.00     0.031 C 
ATOM     52  C   UNL A   1      42.965  29.729  30.541  1.00  0.00     0.029 A 
ATOM     53  C   UNL A   1      41.842  30.176  31.348  1.00  0.00     0.049 A 
ATOM     54  H   UNL A   1      39.923  30.606  30.512  1.00  0.00     0.167 HD
ATOM     55  C   UNL A   1      43.194  24.782  27.909  1.00  0.00     0.031 A 
ATOM     56  C   UNL A   1      41.687  29.913  32.682  1.00  0.00     0.031 A 
ATOM     57  C   UNL A   1      44.067  25.322  28.955  1.00  0.00     0.049 A 
ATOM     58  C   UNL A   1      42.439  28.688  33.172  1.00  0.00     0.074 A 
ATOM     59  C   UNL A   1      45.128  26.214  28.975  1.00  0.00     0.029 A 
ATOM     60  N   UNL A   1      43.700  25.143  30.279  1.00  0.00    -0.354 N 
ATOM     61  N   UNL A   1      43.162  27.908  32.413  1.00  0.00    -0.248 NA
ATOM     62  C   UNL A   1      42.355  28.188  34.546  1.00  0.00     0.031 C 
ATOM     63  C   UNL A   1      45.394  26.559  30.333  1.00  0.00     0.029 A 
ATOM     64  C   UNL A   1      44.507  25.865  31.133  1.00  0.00     0.049 A 
ATOM     65  H   UNL A   1      42.956  24.569  30.574  1.00  0.00     0.167 HD
ATOM     66  C   UNL A   1      43.569  26.816  33.130  1.00  0.00     0.074 A 
ATOM     67  C   UNL A   1      43.052  27.041  34.467  1.00  0.00     0.031 C 
ATOM     68  C   UNL A   1      44.257  25.783  32.563  1.00  0.00     0.031 A 
BRANCH  55  69
ATOM     69  C   UNL A   1      43.697  23.947  26.755  1.00  0.00    -0.014 A 
ATOM     70  C   UNL A   1      44.479  24.548  25.752  1.00  0.00     0.009 A 
ATOM     71  C   UNL A   1      43.410  22.585  26.570  1.00  0.00     0.009 A 
ATOM     72  C   UNL A   1      44.861  23.860  24.592  1.00  0.00     0.001 A 
ATOM     73  C   UNL A   1      43.753  21.898  25.397  1.00  0.00     0.001 A 
ATOM     74  C   UNL A   1      44.471  22.541  24.400  1.00  0.00     0.000 A 
ENDBRANCH  55  69
BRANCH  56  75
ATOM     75  C   UNL A   1      40.367  30.373  33.203  1.00  0.00    -0.014 A 
ATOM     76  C   UNL A   1      40.141  31.761  33.294  1.00  0.00     0.009 A 
ATOM     77  C   UNL A   1      39.261  29.512  33.217  1.00  0.00     0.009 A 
ATOM     78  C   UNL A   1      38.842  32.278  33.267  1.00  0.00     0.001 A 
ATOM     79  C   UNL A   1      37.961  30.036  33.203  1.00  0.00     0.001 A 
ATOM     80  C   UNL A   1      37.754  31.415  33.188  1.00  0.00     0.000 A 
ENDBRANCH  56  75
BRANCH  68  81
ATOM     81  C   UNL A   1      44.729  24.565  33.312  1.00  0.00    -0.014 A 
ATOM     82  C   UNL A   1      43.876  23.512  33.661  1.00  0.00     0.009 A 
ATOM     83  C   UNL A   1      46.049  24.512  33.809  1.00  0.00     0.009 A 
ATOM     84  C   UNL A   1      44.336  22.431  34.426  1.00  0.00     0.001 A 
ATOM     85  C   UNL A   1      46.506  23.450  34.591  1.00  0.00     0.001 A 
ATOM     86  C   UNL A   1      45.649  22.401  34.891  1.00  0.00     0.000 A 
ENDBRANCH  68  81
ENDBRANCH  42  43
ENDBRANCH  34  37
ENDBRANCH  32  33
ENDBRANCH  31  32
ENDBRANCH   1  31
TORSDOF 14
ENDMDL
MODEL 2
REMARK VINA RESULT:     -12.6      1.366      2.897
REMARK SMILES Cc1ccccc1[C@@H]1[NH2+][C@@H](C(=O)NCCCCCCNC(=O)c2ccc(-c3c4nc(c(-c5ccccc5)c5ccc([nH]5)c(-c5ccccc5)c5nc(c(-c6ccccc6)c6ccc3[nH]6)C=C5)C=C4)cc2)CC2=c3ccccc3=N[C@H]21
REMARK SMILES IDX 17 1 16 2 15 3 14 4 13 5 11 6 12 7 10 9 8 10 9 11 80 12
REMARK SMILES IDX 72 15 79 16 71 17 73 18 78 19 74 20 77 21 75 22 76 23 7 24
REMARK SMILES IDX 1 25 2 26 3 27 4 28 6 29 5 30 18 31 19 32 20 33 21 34 22 36
REMARK SMILES IDX 23 37 24 38 70 39 25 40 69 41 26 42 27 43 28 44 63 45 29 46
REMARK SMILES IDX 68 47 62 48 64 49 30 50 67 51 61 52 60 53 31 55 53 56 38 57
REMARK SMILES IDX 52 58 39 59 42 60 51 61 65 62 40 63 41 64 50 66 66 67 43 68
REMARK SMILES IDX 32 69 33 70 37 71 34 72 36 73 35 74 54 75 55 76 59 77 56 78
REMARK SMILES IDX 58 79 57 80 44 81 45 82 49 83 46 84 48 85 47 86
REMARK H PARENT 13 8 9 13 9 14 20 35 64 54 42 65
REMARK Flexibility Score: inf
ROOT
ATOM      1  C   UNL A   1      31.785  29.357  26.444  1.00  0.00     0.002 C 
ENDROOT
BRANCH   1   2
ATOM      2  C   UNL A   1      31.755  28.024  27.215  1.00  0.00     0.002 C 
BRANCH   2   3
ATOM      3  C   UNL A   1      32.337  26.785  26.519  1.00  0.00     0.021 C 
BRANCH   3   4
ATOM      4  C   UNL A   1      31.344  25.661  26.211  1.00  0.00     0.116 C 
BRANCH   4   5
ATOM      5  N   UNL A   1      31.441  24.472  27.036  1.00  0.00    -0.351 N 
ATOM      6  C   UNL A   1      32.193  23.337  26.892  1.00  0.00     0.278 C 
ATOM      7  O   UNL A   1      32.521  22.770  27.943  1.00  0.00    -0.268 OA
ATOM      8  H   UNL A   1      30.870  24.484  27.837  1.00  0.00     0.163 HD
BRANCH   6   9
ATOM      9  C   UNL A   1      32.450  22.651  25.515  1.00  0.00     0.277 C 
ATOM     10  C   UNL A   1      33.713  20.398  25.402  1.00  0.00     0.243 C 
ATOM     11  N   UNL A   1      32.469  21.164  25.689  1.00  0.00    -0.327 N 
ATOM     12  C   UNL A   1      34.824  21.078  24.540  1.00  0.00     0.196 C 
ATOM     13  H   UNL A   1      32.226  20.977  26.663  1.00  0.00     0.347 HD
ATOM     14  H   UNL A   1      31.820  20.835  24.975  1.00  0.00     0.347 HD
ATOM     15  C   UNL A   1      34.838  22.536  24.854  1.00  0.00    -0.024 C 
ATOM     16  N   UNL A   1      36.199  20.605  24.887  1.00  0.00    -0.270 NA
ATOM     17  C   UNL A   1      33.549  23.218  24.616  1.00  0.00     0.109 C 
ATOM     18  C   UNL A   1      35.995  22.923  25.372  1.00  0.00     0.002 A 
ATOM     19  C   UNL A   1      36.787  21.681  25.310  1.00  0.00     0.066 A 
ATOM     20  C   UNL A   1      36.512  24.119  25.947  1.00  0.00     0.010 A 
ATOM     21  C   UNL A   1      38.198  21.787  25.741  1.00  0.00     0.028 A 
ATOM     22  C   UNL A   1      37.781  24.121  26.388  1.00  0.00     0.001 A 
ATOM     23  C   UNL A   1      38.636  22.955  26.240  1.00  0.00     0.002 A 
BRANCH  10  24
ATOM     24  C   UNL A   1      33.360  19.037  24.781  1.00  0.00     0.015 A 
ATOM     25  C   UNL A   1      32.194  20.036  22.705  1.00  0.00     0.045 C 
ATOM     26  C   UNL A   1      32.700  18.886  23.535  1.00  0.00    -0.042 A 
ATOM     27  C   UNL A   1      32.557  17.599  22.982  1.00  0.00     0.004 A 
ATOM     28  C   UNL A   1      33.005  16.468  23.659  1.00  0.00     0.000 A 
ATOM     29  C   UNL A   1      33.782  17.873  25.457  1.00  0.00     0.010 A 
ATOM     30  C   UNL A   1      33.602  16.602  24.904  1.00  0.00     0.001 A 
ENDBRANCH  10  24
ENDBRANCH   6   9
ENDBRANCH   4   5
ENDBRANCH   3   4
ENDBRANCH   2   3
ENDBRANCH   1   2
BRANCH   1  31
ATOM     31  C   UNL A   1      32.490  30.535  27.120  1.00  0.00     0.021 C 
BRANCH  31  32
ATOM     32  C   UNL A   1      34.010  30.430  27.171  1.00  0.00     0.116 C 
BRANCH  32  33
ATOM     33  N   UNL A   1      34.655  31.417  28.029  1.00  0.00    -0.352 N 
ATOM     34  C   UNL A   1      35.813  31.322  28.788  1.00  0.00     0.251 C 
ATOM     35  H   UNL A   1      34.197  32.287  28.078  1.00  0.00     0.163 HD
ATOM     36  O   UNL A   1      36.148  32.253  29.499  1.00  0.00    -0.269 OA
BRANCH  34  37
ATOM     37  C   UNL A   1      36.723  30.157  28.619  1.00  0.00     0.039 A 
ATOM     38  C   UNL A   1      36.833  29.262  29.693  1.00  0.00     0.014 A 
ATOM     39  C   UNL A   1      37.609  30.069  27.553  1.00  0.00     0.014 A 
ATOM     40  C   UNL A   1      37.987  28.496  29.829  1.00  0.00     0.010 A 
ATOM     41  C   UNL A   1      38.800  29.399  27.735  1.00  0.00     0.010 A 
ATOM     42  C   UNL A   1      39.018  28.679  28.911  1.00  0.00    -0.014 A 
BRANCH  42  43
ATOM     43  C   UNL A   1      40.397  28.290  29.159  1.00  0.00     0.031 A 
ATOM     44  C   UNL A   1      40.955  27.066  28.566  1.00  0.00     0.074 A 
ATOM     45  C   UNL A   1      41.205  29.132  29.840  1.00  0.00     0.049 A 
ATOM     46  N   UNL A   1      42.012  26.472  29.006  1.00  0.00    -0.248 NA
ATOM     47  C   UNL A   1      40.332  26.378  27.443  1.00  0.00     0.031 C 
ATOM     48  C   UNL A   1      42.662  29.111  29.918  1.00  0.00     0.029 A 
ATOM     49  N   UNL A   1      40.828  30.077  30.785  1.00  0.00    -0.354 N 
ATOM     50  C   UNL A   1      42.384  25.545  28.064  1.00  0.00     0.074 A 
ATOM     51  C   UNL A   1      41.256  25.453  27.165  1.00  0.00     0.031 C 
ATOM     52  C   UNL A   1      43.050  29.812  30.996  1.00  0.00     0.029 A 
ATOM     53  C   UNL A   1      41.854  30.168  31.740  1.00  0.00     0.049 A 
ATOM     54  H   UNL A   1      39.989  30.593  30.787  1.00  0.00     0.167 HD
ATOM     55  C   UNL A   1      43.658  25.063  28.074  1.00  0.00     0.031 A 
ATOM     56  C   UNL A   1      41.608  29.811  33.038  1.00  0.00     0.031 A 
ATOM     57  C   UNL A   1      44.430  25.559  29.218  1.00  0.00     0.049 A 
ATOM     58  C   UNL A   1      42.365  28.580  33.504  1.00  0.00     0.074 A 
ATOM     59  C   UNL A   1      45.452  26.481  29.379  1.00  0.00     0.029 A 
ATOM     60  N   UNL A   1      43.970  25.280  30.495  1.00  0.00    -0.354 N 
ATOM     61  N   UNL A   1      43.170  27.877  32.755  1.00  0.00    -0.248 NA
ATOM     62  C   UNL A   1      42.195  27.986  34.832  1.00  0.00     0.031 C 
ATOM     63  C   UNL A   1      45.602  26.741  30.773  1.00  0.00     0.029 A 
ATOM     64  C   UNL A   1      44.683  25.968  31.455  1.00  0.00     0.049 A 
ATOM     65  H   UNL A   1      43.226  24.664  30.693  1.00  0.00     0.167 HD
ATOM     66  C   UNL A   1      43.562  26.752  33.429  1.00  0.00     0.074 A 
ATOM     67  C   UNL A   1      42.937  26.869  34.734  1.00  0.00     0.031 C 
ATOM     68  C   UNL A   1      44.328  25.781  32.852  1.00  0.00     0.031 A 
BRANCH  55  69
ATOM     69  C   UNL A   1      44.278  24.325  26.912  1.00  0.00    -0.014 A 
ATOM     70  C   UNL A   1      43.853  23.018  26.613  1.00  0.00     0.009 A 
ATOM     71  C   UNL A   1      45.305  24.833  26.099  1.00  0.00     0.009 A 
ATOM     72  C   UNL A   1      44.482  22.234  25.636  1.00  0.00     0.001 A 
ATOM     73  C   UNL A   1      45.967  24.046  25.146  1.00  0.00     0.001 A 
ATOM     74  C   UNL A   1      45.561  22.739  24.922  1.00  0.00     0.000 A 
ENDBRANCH  55  69
BRANCH  56  75
ATOM     75  C   UNL A   1      40.236  30.193  33.483  1.00  0.00    -0.014 A 
ATOM     76  C   UNL A   1      39.988  31.552  33.763  1.00  0.00     0.009 A 
ATOM     77  C   UNL A   1      39.143  29.348  33.248  1.00  0.00     0.009 A 
ATOM     78  C   UNL A   1      38.694  32.076  33.682  1.00  0.00     0.001 A 
ATOM     79  C   UNL A   1      37.847  29.876  33.180  1.00  0.00     0.001 A 
ATOM     80  C   UNL A   1      37.628  31.242  33.357  1.00  0.00     0.000 A 
ENDBRANCH  56  75
BRANCH  68  81
ATOM     81  C   UNL A   1      44.786  24.531  33.555  1.00  0.00    -0.014 A 
ATOM     82  C   UNL A   1      46.104  24.343  33.987  1.00  0.00     0.009 A 
ATOM     83  C   UNL A   1      43.907  23.434  33.684  1.00  0.00     0.009 A 
ATOM     84  C   UNL A   1      46.509  23.134  34.569  1.00  0.00     0.001 A 
ATOM     85  C   UNL A   1      44.311  22.220  34.241  1.00  0.00     0.001 A 
ATOM     86  C   UNL A   1      45.614  22.074  34.694  1.00  0.00     0.000 A 
ENDBRANCH  68  81
ENDBRANCH  42  43
ENDBRANCH  34  37
ENDBRANCH  32  33
ENDBRANCH  31  32
ENDBRANCH   1  31
TORSDOF 14
ENDMDL
MODEL 3
REMARK VINA RESULT:     -12.5      1.803      3.036
REMARK SMILES Cc1ccccc1[C@@H]1[NH2+][C@@H](C(=O)NCCCCCCNC(=O)c2ccc(-c3c4nc(c(-c5ccccc5)c5ccc([nH]5)c(-c5ccccc5)c5nc(c(-c6ccccc6)c6ccc3[nH]6)C=C5)C=C4)cc2)CC2=c3ccccc3=N[C@H]21
REMARK SMILES IDX 17 1 16 2 15 3 14 4 13 5 11 6 12 7 10 9 8 10 9 11 80 12
REMARK SMILES IDX 72 15 79 16 71 17 73 18 78 19 74 20 77 21 75 22 76 23 7 24
REMARK SMILES IDX 1 25 2 26 3 27 4 28 6 29 5 30 18 31 19 32 20 33 21 34 22 36
REMARK SMILES IDX 23 37 24 38 70 39 25 40 69 41 26 42 27 43 28 44 63 45 29 46
REMARK SMILES IDX 68 47 62 48 64 49 30 50 67 51 61 52 60 53 31 55 53 56 38 57
REMARK SMILES IDX 52 58 39 59 42 60 51 61 65 62 40 63 41 64 50 66 66 67 43 68
REMARK SMILES IDX 32 69 33 70 37 71 34 72 36 73 35 74 54 75 55 76 59 77 56 78
REMARK SMILES IDX 58 79 57 80 44 81 45 82 49 83 46 84 48 85 47 86
REMARK H PARENT 13 8 9 13 9 14 20 35 64 54 42 65
REMARK Flexibility Score: inf
ROOT
ATOM      1  C   UNL A   1      33.407  29.357  26.048  1.00  0.00     0.002 C 
ENDROOT
BRANCH   1   2
ATOM      2  C   UNL A   1      33.159  27.880  25.688  1.00  0.00     0.002 C 
BRANCH   2   3
ATOM      3  C   UNL A   1      32.049  27.138  26.449  1.00  0.00     0.021 C 
BRANCH   3   4
ATOM      4  C   UNL A   1      32.220  25.622  26.572  1.00  0.00     0.116 C 
BRANCH   4   5
ATOM      5  N   UNL A   1      31.009  24.852  26.781  1.00  0.00    -0.351 N 
ATOM      6  C   UNL A   1      30.771  23.507  26.693  1.00  0.00     0.278 C 
ATOM      7  O   UNL A   1      29.880  23.067  27.432  1.00  0.00    -0.268 OA
ATOM      8  H   UNL A   1      30.222  25.389  27.030  1.00  0.00     0.163 HD
BRANCH   6   9
ATOM      9  C   UNL A   1      31.403  22.598  25.595  1.00  0.00     0.277 C 
ATOM     10  C   UNL A   1      33.881  22.902  24.926  1.00  0.00     0.243 C 
ATOM     11  N   UNL A   1      32.859  22.399  25.883  1.00  0.00    -0.327 N 
ATOM     12  C   UNL A   1      33.434  23.244  23.469  1.00  0.00     0.196 C 
ATOM     13  H   UNL A   1      33.047  22.849  26.779  1.00  0.00     0.347 HD
ATOM     14  H   UNL A   1      32.972  21.386  25.837  1.00  0.00     0.347 HD
ATOM     15  C   UNL A   1      32.047  23.791  23.518  1.00  0.00    -0.024 C 
ATOM     16  N   UNL A   1      34.248  24.335  22.852  1.00  0.00    -0.270 NA
ATOM     17  C   UNL A   1      31.059  22.881  24.133  1.00  0.00     0.109 C 
ATOM     18  C   UNL A   1      31.988  25.039  23.072  1.00  0.00     0.002 A 
ATOM     19  C   UNL A   1      33.377  25.273  22.639  1.00  0.00     0.066 A 
ATOM     20  C   UNL A   1      30.995  26.058  23.004  1.00  0.00     0.010 A 
ATOM     21  C   UNL A   1      33.645  26.576  21.991  1.00  0.00     0.028 A 
ATOM     22  C   UNL A   1      31.330  27.244  22.472  1.00  0.00     0.001 A 
ATOM     23  C   UNL A   1      32.656  27.482  21.925  1.00  0.00     0.002 A 
BRANCH  10  24
ATOM     24  C   UNL A   1      35.071  21.930  24.869  1.00  0.00     0.015 A 
ATOM     25  C   UNL A   1      36.871  23.770  25.075  1.00  0.00     0.045 C 
ATOM     26  C   UNL A   1      36.426  22.335  24.974  1.00  0.00    -0.042 A 
ATOM     27  C   UNL A   1      37.433  21.355  25.062  1.00  0.00     0.004 A 
ATOM     28  C   UNL A   1      37.129  19.998  24.996  1.00  0.00     0.000 A 
ATOM     29  C   UNL A   1      34.793  20.550  24.780  1.00  0.00     0.010 A 
ATOM     30  C   UNL A   1      35.811  19.595  24.838  1.00  0.00     0.001 A 
ENDBRANCH  10  24
ENDBRANCH   6   9
ENDBRANCH   4   5
ENDBRANCH   3   4
ENDBRANCH   2   3
ENDBRANCH   1   2
BRANCH   1  31
ATOM     31  C   UNL A   1      33.904  29.651  27.466  1.00  0.00     0.021 C 
BRANCH  31  32
ATOM     32  C   UNL A   1      34.749  30.912  27.601  1.00  0.00     0.116 C 
BRANCH  32  33
ATOM     33  N   UNL A   1      33.987  32.122  27.886  1.00  0.00    -0.352 N 
ATOM     34  C   UNL A   1      34.203  33.114  28.832  1.00  0.00     0.251 C 
ATOM     35  H   UNL A   1      33.193  32.256  27.318  1.00  0.00     0.163 HD
ATOM     36  O   UNL A   1      33.397  34.021  28.953  1.00  0.00    -0.269 OA
BRANCH  34  37
ATOM     37  C   UNL A   1      35.485  33.159  29.587  1.00  0.00     0.039 A 
ATOM     38  C   UNL A   1      36.571  33.802  28.977  1.00  0.00     0.014 A 
ATOM     39  C   UNL A   1      35.685  32.401  30.734  1.00  0.00     0.014 A 
ATOM     40  C   UNL A   1      37.868  33.447  29.341  1.00  0.00     0.010 A 
ATOM     41  C   UNL A   1      36.959  31.964  31.025  1.00  0.00     0.010 A 
ATOM     42  C   UNL A   1      38.041  32.428  30.273  1.00  0.00    -0.014 A 
BRANCH  42  43
ATOM     43  C   UNL A   1      39.276  31.676  30.426  1.00  0.00     0.031 A 
ATOM     44  C   UNL A   1      39.475  30.398  29.727  1.00  0.00     0.074 A 
ATOM     45  C   UNL A   1      40.298  32.225  31.120  1.00  0.00     0.049 A 
ATOM     46  N   UNL A   1      40.352  29.519  30.073  1.00  0.00    -0.248 NA
ATOM     47  C   UNL A   1      38.659  29.984  28.593  1.00  0.00     0.031 C 
ATOM     48  C   UNL A   1      41.700  31.821  31.124  1.00  0.00     0.029 A 
ATOM     49  N   UNL A   1      40.211  33.161  32.143  1.00  0.00    -0.354 N 
ATOM     50  C   UNL A   1      40.438  28.602  29.056  1.00  0.00     0.074 A 
ATOM     51  C   UNL A   1      39.298  28.875  28.209  1.00  0.00     0.031 C 
ATOM     52  C   UNL A   1      42.291  32.313  32.225  1.00  0.00     0.029 A 
ATOM     53  C   UNL A   1      41.254  32.909  33.050  1.00  0.00     0.049 A 
ATOM     54  H   UNL A   1      39.538  33.875  32.220  1.00  0.00     0.167 HD
ATOM     55  C   UNL A   1      41.541  27.807  28.970  1.00  0.00     0.031 A 
ATOM     56  C   UNL A   1      40.963  32.530  34.331  1.00  0.00     0.031 A 
ATOM     57  C   UNL A   1      42.451  27.996  30.105  1.00  0.00     0.049 A 
ATOM     58  C   UNL A   1      41.384  31.112  34.678  1.00  0.00     0.074 A 
ATOM     59  C   UNL A   1      43.683  28.606  30.275  1.00  0.00     0.029 A 
ATOM     60  N   UNL A   1      41.973  27.749  31.382  1.00  0.00    -0.354 N 
ATOM     61  N   UNL A   1      41.953  30.283  33.845  1.00  0.00    -0.248 NA
ATOM     62  C   UNL A   1      41.105  30.482  35.971  1.00  0.00     0.031 C 
ATOM     63  C   UNL A   1      43.940  28.710  31.674  1.00  0.00     0.029 A 
ATOM     64  C   UNL A   1      42.871  28.153  32.348  1.00  0.00     0.049 A 
ATOM     65  H   UNL A   1      41.101  27.334  31.575  1.00  0.00     0.167 HD
ATOM     66  C   UNL A   1      42.057  29.047  34.423  1.00  0.00     0.074 A 
ATOM     67  C   UNL A   1      41.524  29.222  35.762  1.00  0.00     0.031 C 
ATOM     68  C   UNL A   1      42.523  27.958  33.746  1.00  0.00     0.031 A 
BRANCH  55  69
ATOM     69  C   UNL A   1      41.909  27.024  27.732  1.00  0.00    -0.014 A 
ATOM     70  C   UNL A   1      42.204  27.709  26.539  1.00  0.00     0.009 A 
ATOM     71  C   UNL A   1      41.945  25.622  27.656  1.00  0.00     0.009 A 
ATOM     72  C   UNL A   1      42.420  27.037  25.328  1.00  0.00     0.001 A 
ATOM     73  C   UNL A   1      42.121  24.941  26.443  1.00  0.00     0.001 A 
ATOM     74  C   UNL A   1      42.347  25.651  25.274  1.00  0.00     0.000 A 
ENDBRANCH  55  69
BRANCH  56  75
ATOM     75  C   UNL A   1      39.754  33.219  34.869  1.00  0.00    -0.014 A 
ATOM     76  C   UNL A   1      38.492  32.668  34.569  1.00  0.00     0.009 A 
ATOM     77  C   UNL A   1      39.854  34.114  35.943  1.00  0.00     0.009 A 
ATOM     78  C   UNL A   1      37.391  32.903  35.398  1.00  0.00     0.001 A 
ATOM     79  C   UNL A   1      38.745  34.357  36.763  1.00  0.00     0.001 A 
ATOM     80  C   UNL A   1      37.528  33.722  36.515  1.00  0.00     0.000 A 
ENDBRANCH  56  75
BRANCH  68  81
ATOM     81  C   UNL A   1      42.658  26.582  34.341  1.00  0.00    -0.014 A 
ATOM     82  C   UNL A   1      43.771  25.764  34.116  1.00  0.00     0.009 A 
ATOM     83  C   UNL A   1      41.579  26.014  35.053  1.00  0.00     0.009 A 
ATOM     84  C   UNL A   1      43.825  24.459  34.626  1.00  0.00     0.001 A 
ATOM     85  C   UNL A   1      41.618  24.708  35.543  1.00  0.00     0.001 A 
ATOM     86  C   UNL A   1      42.749  23.932  35.337  1.00  0.00     0.000 A 
ENDBRANCH  68  81
ENDBRANCH  42  43
ENDBRANCH  34  37
ENDBRANCH  32  33
ENDBRANCH  31  32
ENDBRANCH   1  31
TORSDOF 14
ENDMDL
