MODEL 1
REMARK VINA RESULT:     -11.0      0.000      0.000
REMARK SMILES CC(C)CCOCC[N@@H+]1[C@@H](C(=O)NCCCCCCNC(=O)c2ccc(-c3c4nc(c(-c5ccccc5)c5ccc([nH]5)c(-c5ccccc5)c5nc(c(-c6ccccc6)c6ccc3[nH]6)C=C5)C=C4)cc2)CC[C@H]2CCCC[C@H]21
REMARK SMILES IDX 14 1 13 2 11 3 12 4 10 6 9 7 78 8 71 10 73 11 77 12 72 13
REMARK SMILES IDX 74 14 76 15 75 16 8 17 7 18 6 19 5 20 4 21 2 22 1 23 3 24
REMARK SMILES IDX 15 25 16 26 17 27 18 28 19 29 20 30 21 31 22 33 23 34 24 35
REMARK SMILES IDX 70 36 25 37 69 38 26 39 27 40 28 41 63 42 29 43 68 44 62 45
REMARK SMILES IDX 64 46 30 47 67 48 61 49 60 50 31 52 53 53 38 54 52 55 39 56
REMARK SMILES IDX 42 57 51 58 65 59 40 60 41 61 50 63 66 64 43 65 32 66 33 67
REMARK SMILES IDX 37 68 34 69 36 70 35 71 54 72 55 73 59 74 56 75 58 76 57 77
REMARK SMILES IDX 44 78 45 79 49 80 46 81 48 82 47 83
REMARK H PARENT 13 5 9 9 20 32 64 51 42 62
REMARK Flexibility Score: inf
ROOT
ATOM      1  C   UNL A   1      31.848  27.869  26.249  1.00  0.00     0.116 C 
ENDROOT
BRANCH   1   2
ATOM      2  N   UNL A   1      31.312  26.626  26.726  1.00  0.00    -0.351 N 
ATOM      3  C   UNL A   1      31.534  25.392  26.217  1.00  0.00     0.278 C 
ATOM      4  O   UNL A   1      30.817  24.468  26.614  1.00  0.00    -0.268 OA
ATOM      5  H   UNL A   1      30.718  26.677  27.509  1.00  0.00     0.163 HD
BRANCH   3   6
ATOM      6  C   UNL A   1      32.682  25.139  25.217  1.00  0.00     0.274 C 
ATOM      7  N   UNL A   1      32.246  24.234  24.116  1.00  0.00    -0.320 N 
ATOM      8  C   UNL A   1      33.330  23.650  23.312  1.00  0.00     0.187 C 
ATOM      9  H   UNL A   1      31.844  23.429  24.597  1.00  0.00     0.349 HD
ATOM     10  C   UNL A   1      34.032  24.828  25.897  1.00  0.00     0.076 C 
ATOM     11  C   UNL A   1      34.549  23.130  24.087  1.00  0.00     0.048 C 
ATOM     12  C   UNL A   1      32.856  22.500  22.408  1.00  0.00     0.065 C 
ATOM     13  C   UNL A   1      35.099  24.241  24.980  1.00  0.00     0.016 C 
ATOM     14  C   UNL A   1      34.344  21.803  24.832  1.00  0.00     0.010 C 
ATOM     15  C   UNL A   1      32.313  21.351  23.243  1.00  0.00     0.006 C 
ATOM     16  C   UNL A   1      33.331  20.814  24.244  1.00  0.00     0.001 C 
BRANCH   7  17
ATOM     17  C   UNL A   1      31.162  24.845  23.275  1.00  0.00     0.291 C 
BRANCH  17  18
ATOM     18  C   UNL A   1      31.405  26.020  22.265  1.00  0.00     0.221 C 
BRANCH  18  19
ATOM     19  O   UNL A   1      31.166  27.380  22.625  1.00  0.00    -0.376 OA
BRANCH  19  20
ATOM     20  C   UNL A   1      29.916  27.870  23.073  1.00  0.00     0.160 C 
BRANCH  20  21
ATOM     21  C   UNL A   1      29.612  29.390  23.187  1.00  0.00     0.031 C 
BRANCH  21  22
ATOM     22  C   UNL A   1      28.204  29.941  22.919  1.00  0.00    -0.015 C 
ATOM     23  C   UNL A   1      28.071  30.412  21.491  1.00  0.00     0.007 C 
ATOM     24  C   UNL A   1      27.109  28.888  23.103  1.00  0.00     0.007 C 
ENDBRANCH  21  22
ENDBRANCH  20  21
ENDBRANCH  19  20
ENDBRANCH  18  19
ENDBRANCH  17  18
ENDBRANCH   7  17
ENDBRANCH   3   6
ENDBRANCH   1   2
BRANCH   1  25
ATOM     25  C   UNL A   1      32.655  28.535  27.364  1.00  0.00     0.021 C 
BRANCH  25  26
ATOM     26  C   UNL A   1      32.776  30.050  27.188  1.00  0.00     0.002 C 
BRANCH  26  27
ATOM     27  C   UNL A   1      31.606  30.676  26.426  1.00  0.00     0.002 C 
BRANCH  27  28
ATOM     28  C   UNL A   1      31.465  32.182  26.644  1.00  0.00     0.021 C 
BRANCH  28  29
ATOM     29  C   UNL A   1      32.657  32.798  27.354  1.00  0.00     0.116 C 
BRANCH  29  30
ATOM     30  N   UNL A   1      32.439  34.211  27.601  1.00  0.00    -0.352 N 
ATOM     31  C   UNL A   1      32.994  34.978  28.585  1.00  0.00     0.251 C 
ATOM     32  H   UNL A   1      31.818  34.669  26.989  1.00  0.00     0.163 HD
ATOM     33  O   UNL A   1      32.518  36.072  28.884  1.00  0.00    -0.269 OA
BRANCH  31  34
ATOM     34  C   UNL A   1      34.176  34.455  29.289  1.00  0.00     0.039 A 
ATOM     35  C   UNL A   1      34.013  33.825  30.521  1.00  0.00     0.014 A 
ATOM     36  C   UNL A   1      35.437  34.547  28.688  1.00  0.00     0.014 A 
ATOM     37  C   UNL A   1      35.122  33.258  31.144  1.00  0.00     0.010 A 
ATOM     38  C   UNL A   1      36.520  33.902  29.266  1.00  0.00     0.010 A 
ATOM     39  C   UNL A   1      36.377  33.272  30.509  1.00  0.00    -0.014 A 
BRANCH  39  40
ATOM     40  C   UNL A   1      37.562  32.658  31.149  1.00  0.00     0.031 A 
ATOM     41  C   UNL A   1      38.209  31.456  30.521  1.00  0.00     0.074 A 
ATOM     42  C   UNL A   1      38.018  33.151  32.316  1.00  0.00     0.049 A 
ATOM     43  N   UNL A   1      39.228  30.753  30.944  1.00  0.00    -0.248 NA
ATOM     44  C   UNL A   1      37.617  30.960  29.266  1.00  0.00     0.031 C 
ATOM     45  C   UNL A   1      37.443  34.286  33.042  1.00  0.00     0.029 A 
ATOM     46  N   UNL A   1      39.071  32.755  33.099  1.00  0.00    -0.354 N 
ATOM     47  C   UNL A   1      39.387  29.727  30.021  1.00  0.00     0.074 A 
ATOM     48  C   UNL A   1      38.326  29.862  29.048  1.00  0.00     0.031 C 
ATOM     49  C   UNL A   1      38.172  34.515  34.146  1.00  0.00     0.029 A 
ATOM     50  C   UNL A   1      39.233  33.517  34.230  1.00  0.00     0.049 A 
ATOM     51  H   UNL A   1      39.656  31.995  32.872  1.00  0.00     0.167 HD
ATOM     52  C   UNL A   1      40.341  28.771  29.977  1.00  0.00     0.031 A 
ATOM     53  C   UNL A   1      40.134  33.418  35.225  1.00  0.00     0.031 A 
ATOM     54  C   UNL A   1      41.400  28.649  30.941  1.00  0.00     0.049 A 
ATOM     55  C   UNL A   1      41.175  32.335  35.159  1.00  0.00     0.074 A 
ATOM     56  C   UNL A   1      42.456  27.755  30.953  1.00  0.00     0.029 A 
ATOM     57  N   UNL A   1      41.532  29.444  32.070  1.00  0.00    -0.354 N 
ATOM     58  N   UNL A   1      41.362  31.423  34.236  1.00  0.00    -0.248 NA
ATOM     59  C   UNL A   1      42.138  32.278  36.267  1.00  0.00     0.031 C 
ATOM     60  C   UNL A   1      43.191  27.967  32.123  1.00  0.00     0.029 A 
ATOM     61  C   UNL A   1      42.634  29.038  32.804  1.00  0.00     0.049 A 
ATOM     62  H   UNL A   1      40.932  30.185  32.314  1.00  0.00     0.167 HD
ATOM     63  C   UNL A   1      42.480  30.702  34.637  1.00  0.00     0.074 A 
ATOM     64  C   UNL A   1      42.938  31.297  35.875  1.00  0.00     0.031 C 
ATOM     65  C   UNL A   1      43.073  29.643  34.035  1.00  0.00     0.031 A 
BRANCH  52  66
ATOM     66  C   UNL A   1      40.276  27.772  28.854  1.00  0.00    -0.014 A 
ATOM     67  C   UNL A   1      40.909  28.012  27.623  1.00  0.00     0.009 A 
ATOM     68  C   UNL A   1      39.601  26.556  29.044  1.00  0.00     0.009 A 
ATOM     69  C   UNL A   1      40.836  27.069  26.595  1.00  0.00     0.001 A 
ATOM     70  C   UNL A   1      39.558  25.603  28.026  1.00  0.00     0.001 A 
ATOM     71  C   UNL A   1      40.167  25.864  26.799  1.00  0.00     0.000 A 
ENDBRANCH  52  66
BRANCH  53  72
ATOM     72  C   UNL A   1      40.094  34.370  36.366  1.00  0.00    -0.014 A 
ATOM     73  C   UNL A   1      39.371  34.063  37.530  1.00  0.00     0.009 A 
ATOM     74  C   UNL A   1      40.772  35.597  36.295  1.00  0.00     0.009 A 
ATOM     75  C   UNL A   1      39.298  34.980  38.581  1.00  0.00     0.001 A 
ATOM     76  C   UNL A   1      40.725  36.497  37.361  1.00  0.00     0.001 A 
ATOM     77  C   UNL A   1      39.978  36.194  38.497  1.00  0.00     0.000 A 
ENDBRANCH  53  72
BRANCH  65  78
ATOM     78  C   UNL A   1      44.306  29.082  34.688  1.00  0.00    -0.014 A 
ATOM     79  C   UNL A   1      44.231  28.033  35.615  1.00  0.00     0.009 A 
ATOM     80  C   UNL A   1      45.568  29.588  34.331  1.00  0.00     0.009 A 
ATOM     81  C   UNL A   1      45.392  27.523  36.200  1.00  0.00     0.001 A 
ATOM     82  C   UNL A   1      46.728  29.053  34.892  1.00  0.00     0.001 A 
ATOM     83  C   UNL A   1      46.639  28.029  35.833  1.00  0.00     0.000 A 
ENDBRANCH  65  78
ENDBRANCH  39  40
ENDBRANCH  31  34
ENDBRANCH  29  30
ENDBRANCH  28  29
ENDBRANCH  27  28
ENDBRANCH  26  27
ENDBRANCH  25  26
ENDBRANCH   1  25
TORSDOF 19
ENDMDL
MODEL 2
REMARK VINA RESULT:     -11.0      0.699      5.897
REMARK SMILES CC(C)CCOCC[N@@H+]1[C@@H](C(=O)NCCCCCCNC(=O)c2ccc(-c3c4nc(c(-c5ccccc5)c5ccc([nH]5)c(-c5ccccc5)c5nc(c(-c6ccccc6)c6ccc3[nH]6)C=C5)C=C4)cc2)CC[C@H]2CCCC[C@H]21
REMARK SMILES IDX 14 1 13 2 11 3 12 4 10 6 9 7 78 8 71 10 73 11 77 12 72 13
REMARK SMILES IDX 74 14 76 15 75 16 8 17 7 18 6 19 5 20 4 21 2 22 1 23 3 24
REMARK SMILES IDX 15 25 16 26 17 27 18 28 19 29 20 30 21 31 22 33 23 34 24 35
REMARK SMILES IDX 70 36 25 37 69 38 26 39 27 40 28 41 63 42 29 43 68 44 62 45
REMARK SMILES IDX 64 46 30 47 67 48 61 49 60 50 31 52 53 53 38 54 52 55 39 56
REMARK SMILES IDX 42 57 51 58 65 59 40 60 41 61 50 63 66 64 43 65 32 66 33 67
REMARK SMILES IDX 37 68 34 69 36 70 35 71 54 72 55 73 59 74 56 75 58 76 57 77
REMARK SMILES IDX 44 78 45 79 49 80 46 81 48 82 47 83
REMARK H PARENT 13 5 9 9 20 32 64 51 42 62
REMARK Flexibility Score: inf
ROOT
ATOM      1  C   UNL A   1      31.287  27.622  26.216  1.00  0.00     0.116 C 
ENDROOT
BRANCH   1   2
ATOM      2  N   UNL A   1      31.047  26.370  26.876  1.00  0.00    -0.351 N 
ATOM      3  C   UNL A   1      31.504  25.152  26.506  1.00  0.00     0.278 C 
ATOM      4  O   UNL A   1      31.017  24.161  27.060  1.00  0.00    -0.268 OA
ATOM      5  H   UNL A   1      30.489  26.402  27.686  1.00  0.00     0.163 HD
BRANCH   3   6
ATOM      6  C   UNL A   1      32.638  25.008  25.467  1.00  0.00     0.274 C 
ATOM      7  N   UNL A   1      32.169  24.274  24.258  1.00  0.00    -0.320 N 
ATOM      8  C   UNL A   1      33.231  23.778  23.370  1.00  0.00     0.187 C 
ATOM      9  H   UNL A   1      31.750  23.420  24.630  1.00  0.00     0.349 HD
ATOM     10  C   UNL A   1      33.984  24.575  26.083  1.00  0.00     0.076 C 
ATOM     11  C   UNL A   1      34.443  23.127  24.053  1.00  0.00     0.048 C 
ATOM     12  C   UNL A   1      32.721  22.774  22.323  1.00  0.00     0.065 C 
ATOM     13  C   UNL A   1      35.029  24.093  25.083  1.00  0.00     0.016 C 
ATOM     14  C   UNL A   1      34.209  21.717  24.613  1.00  0.00     0.010 C 
ATOM     15  C   UNL A   1      32.154  21.536  23.001  1.00  0.00     0.006 C 
ATOM     16  C   UNL A   1      33.166  20.842  23.907  1.00  0.00     0.001 C 
BRANCH   7  17
ATOM     17  C   UNL A   1      31.095  25.020  23.521  1.00  0.00     0.291 C 
BRANCH  17  18
ATOM     18  C   UNL A   1      31.382  26.210  22.539  1.00  0.00     0.221 C 
BRANCH  18  19
ATOM     19  O   UNL A   1      31.383  27.566  22.984  1.00  0.00    -0.376 OA
BRANCH  19  20
ATOM     20  C   UNL A   1      30.469  28.546  22.530  1.00  0.00     0.160 C 
BRANCH  20  21
ATOM     21  C   UNL A   1      29.027  28.666  23.100  1.00  0.00     0.031 C 
BRANCH  21  22
ATOM     22  C   UNL A   1      28.044  29.714  22.560  1.00  0.00    -0.015 C 
ATOM     23  C   UNL A   1      27.895  30.863  23.527  1.00  0.00     0.007 C 
ATOM     24  C   UNL A   1      28.512  30.347  21.248  1.00  0.00     0.007 C 
ENDBRANCH  21  22
ENDBRANCH  20  21
ENDBRANCH  19  20
ENDBRANCH  18  19
ENDBRANCH  17  18
ENDBRANCH   7  17
ENDBRANCH   3   6
ENDBRANCH   1   2
BRANCH   1  25
ATOM     25  C   UNL A   1      32.187  28.494  27.093  1.00  0.00     0.021 C 
BRANCH  25  26
ATOM     26  C   UNL A   1      32.638  29.776  26.391  1.00  0.00     0.002 C 
BRANCH  26  27
ATOM     27  C   UNL A   1      31.487  30.590  25.796  1.00  0.00     0.002 C 
BRANCH  27  28
ATOM     28  C   UNL A   1      31.245  31.924  26.503  1.00  0.00     0.021 C 
BRANCH  28  29
ATOM     29  C   UNL A   1      32.491  32.482  27.168  1.00  0.00     0.116 C 
BRANCH  29  30
ATOM     30  N   UNL A   1      32.338  33.898  27.446  1.00  0.00    -0.352 N 
ATOM     31  C   UNL A   1      32.971  34.628  28.411  1.00  0.00     0.251 C 
ATOM     32  H   UNL A   1      31.705  34.388  26.874  1.00  0.00     0.163 HD
ATOM     33  O   UNL A   1      32.553  35.734  28.751  1.00  0.00    -0.269 OA
BRANCH  31  34
ATOM     34  C   UNL A   1      34.168  34.051  29.045  1.00  0.00     0.039 A 
ATOM     35  C   UNL A   1      34.021  33.248  30.175  1.00  0.00     0.014 A 
ATOM     36  C   UNL A   1      35.428  34.269  28.474  1.00  0.00     0.014 A 
ATOM     37  C   UNL A   1      35.146  32.636  30.722  1.00  0.00     0.010 A 
ATOM     38  C   UNL A   1      36.530  33.585  28.966  1.00  0.00     0.010 A 
ATOM     39  C   UNL A   1      36.402  32.782  30.107  1.00  0.00    -0.014 A 
BRANCH  39  40
ATOM     40  C   UNL A   1      37.605  32.124  30.665  1.00  0.00     0.031 A 
ATOM     41  C   UNL A   1      38.266  32.693  31.888  1.00  0.00     0.074 A 
ATOM     42  C   UNL A   1      38.127  31.051  30.040  1.00  0.00     0.049 A 
ATOM     43  N   UNL A   1      39.346  32.287  32.507  1.00  0.00    -0.248 NA
ATOM     44  C   UNL A   1      37.650  33.893  32.482  1.00  0.00     0.031 C 
ATOM     45  C   UNL A   1      37.598  30.438  28.819  1.00  0.00     0.029 A 
ATOM     46  N   UNL A   1      39.225  30.289  30.347  1.00  0.00    -0.354 N 
ATOM     47  C   UNL A   1      39.546  33.189  33.545  1.00  0.00     0.074 A 
ATOM     48  C   UNL A   1      38.512  34.195  33.441  1.00  0.00     0.031 C 
ATOM     49  C   UNL A   1      38.352  29.374  28.501  1.00  0.00     0.029 A 
ATOM     50  C   UNL A   1      39.442  29.258  29.465  1.00  0.00     0.049 A 
ATOM     51  H   UNL A   1      39.803  30.464  31.125  1.00  0.00     0.167 HD
ATOM     52  C   UNL A   1      40.492  33.168  34.511  1.00  0.00     0.031 A 
ATOM     53  C   UNL A   1      40.414  28.328  29.436  1.00  0.00     0.031 A 
ATOM     54  C   UNL A   1      41.509  32.158  34.615  1.00  0.00     0.049 A 
ATOM     55  C   UNL A   1      41.463  28.338  30.513  1.00  0.00     0.074 A 
ATOM     56  C   UNL A   1      42.477  32.009  35.593  1.00  0.00     0.029 A 
ATOM     57  N   UNL A   1      41.693  31.128  33.706  1.00  0.00    -0.354 N 
ATOM     58  N   UNL A   1      41.591  29.149  31.535  1.00  0.00    -0.248 NA
ATOM     59  C   UNL A   1      42.496  27.295  30.437  1.00  0.00     0.031 C 
ATOM     60  C   UNL A   1      43.286  30.925  35.240  1.00  0.00     0.029 A 
ATOM     61  C   UNL A   1      42.781  30.358  34.081  1.00  0.00     0.049 A 
ATOM     62  H   UNL A   1      41.134  30.968  32.912  1.00  0.00     0.167 HD
ATOM     63  C   UNL A   1      42.699  28.697  32.241  1.00  0.00     0.074 A 
ATOM     64  C   UNL A   1      43.194  27.531  31.539  1.00  0.00     0.031 C 
ATOM     65  C   UNL A   1      43.258  29.201  33.368  1.00  0.00     0.031 A 
BRANCH  52  66
ATOM     66  C   UNL A   1      40.479  34.281  35.523  1.00  0.00    -0.014 A 
ATOM     67  C   UNL A   1      39.711  34.193  36.697  1.00  0.00     0.009 A 
ATOM     68  C   UNL A   1      41.274  35.418  35.317  1.00  0.00     0.009 A 
ATOM     69  C   UNL A   1      39.715  35.237  37.624  1.00  0.00     0.001 A 
ATOM     70  C   UNL A   1      41.301  36.445  36.261  1.00  0.00     0.001 A 
ATOM     71  C   UNL A   1      40.514  36.359  37.409  1.00  0.00     0.000 A 
ENDBRANCH  52  66
BRANCH  53  72
ATOM     72  C   UNL A   1      40.441  27.309  28.354  1.00  0.00    -0.014 A 
ATOM     73  C   UNL A   1      41.140  27.549  27.161  1.00  0.00     0.009 A 
ATOM     74  C   UNL A   1      39.757  26.093  28.504  1.00  0.00     0.009 A 
ATOM     75  C   UNL A   1      41.123  26.609  26.128  1.00  0.00     0.001 A 
ATOM     76  C   UNL A   1      39.771  25.139  27.484  1.00  0.00     0.001 A 
ATOM     77  C   UNL A   1      40.443  25.404  26.293  1.00  0.00     0.000 A 
ENDBRANCH  53  72
BRANCH  65  78
ATOM     78  C   UNL A   1      44.445  28.473  33.933  1.00  0.00    -0.014 A 
ATOM     79  C   UNL A   1      45.755  28.804  33.556  1.00  0.00     0.009 A 
ATOM     80  C   UNL A   1      44.246  27.467  34.893  1.00  0.00     0.009 A 
ATOM     81  C   UNL A   1      46.841  28.119  34.103  1.00  0.00     0.001 A 
ATOM     82  C   UNL A   1      45.335  26.807  35.464  1.00  0.00     0.001 A 
ATOM     83  C   UNL A   1      46.631  27.127  35.061  1.00  0.00     0.000 A 
ENDBRANCH  65  78
ENDBRANCH  39  40
ENDBRANCH  31  34
ENDBRANCH  29  30
ENDBRANCH  28  29
ENDBRANCH  27  28
ENDBRANCH  26  27
ENDBRANCH  25  26
ENDBRANCH   1  25
TORSDOF 19
ENDMDL
MODEL 3
REMARK VINA RESULT:     -10.9      4.106      9.395
REMARK SMILES CC(C)CCOCC[N@@H+]1[C@@H](C(=O)NCCCCCCNC(=O)c2ccc(-c3c4nc(c(-c5ccccc5)c5ccc([nH]5)c(-c5ccccc5)c5nc(c(-c6ccccc6)c6ccc3[nH]6)C=C5)C=C4)cc2)CC[C@H]2CCCC[C@H]21
REMARK SMILES IDX 14 1 13 2 11 3 12 4 10 6 9 7 78 8 71 10 73 11 77 12 72 13
REMARK SMILES IDX 74 14 76 15 75 16 8 17 7 18 6 19 5 20 4 21 2 22 1 23 3 24
REMARK SMILES IDX 15 25 16 26 17 27 18 28 19 29 20 30 21 31 22 33 23 34 24 35
REMARK SMILES IDX 70 36 25 37 69 38 26 39 27 40 28 41 63 42 29 43 68 44 62 45
REMARK SMILES IDX 64 46 30 47 67 48 61 49 60 50 31 52 53 53 38 54 52 55 39 56
REMARK SMILES IDX 42 57 51 58 65 59 40 60 41 61 50 63 66 64 43 65 32 66 33 67
REMARK SMILES IDX 37 68 34 69 36 70 35 71 54 72 55 73 59 74 56 75 58 76 57 77
REMARK SMILES IDX 44 78 45 79 49 80 46 81 48 82 47 83
REMARK H PARENT 13 5 9 9 20 32 64 51 42 62
REMARK Flexibility Score: inf
ROOT
ATOM      1  C   UNL A   1      35.625  22.795  25.263  1.00  0.00     0.116 C 
ENDROOT
BRANCH   1   2
ATOM      2  N   UNL A   1      35.335  23.532  24.066  1.00  0.00    -0.351 N 
ATOM      3  C   UNL A   1      34.401  24.498  23.907  1.00  0.00     0.278 C 
ATOM      4  O   UNL A   1      34.140  24.863  22.756  1.00  0.00    -0.268 OA
ATOM      5  H   UNL A   1      35.874  23.309  23.273  1.00  0.00     0.163 HD
BRANCH   3   6
ATOM      6  C   UNL A   1      33.727  25.161  25.127  1.00  0.00     0.274 C 
ATOM      7  N   UNL A   1      32.259  24.905  25.135  1.00  0.00    -0.320 N 
ATOM      8  C   UNL A   1      31.473  25.762  26.036  1.00  0.00     0.187 C 
ATOM      9  H   UNL A   1      31.949  25.188  24.205  1.00  0.00     0.349 HD
ATOM     10  C   UNL A   1      34.195  26.610  25.375  1.00  0.00     0.076 C 
ATOM     11  C   UNL A   1      31.836  27.253  26.046  1.00  0.00     0.048 C 
ATOM     12  C   UNL A   1      29.959  25.675  25.782  1.00  0.00     0.065 C 
ATOM     13  C   UNL A   1      33.327  27.415  26.337  1.00  0.00     0.016 C 
ATOM     14  C   UNL A   1      31.369  28.057  24.824  1.00  0.00     0.010 C 
ATOM     15  C   UNL A   1      29.625  26.156  24.378  1.00  0.00     0.006 C 
ATOM     16  C   UNL A   1      30.096  27.583  24.112  1.00  0.00     0.001 C 
BRANCH   7  17
ATOM     17  C   UNL A   1      31.937  23.446  25.293  1.00  0.00     0.291 C 
BRANCH  17  18
ATOM     18  C   UNL A   1      31.730  22.466  24.086  1.00  0.00     0.221 C 
BRANCH  18  19
ATOM     19  O   UNL A   1      32.746  21.548  23.682  1.00  0.00    -0.376 OA
BRANCH  19  20
ATOM     20  C   UNL A   1      32.691  20.155  23.922  1.00  0.00     0.160 C 
BRANCH  20  21
ATOM     21  C   UNL A   1      33.815  19.399  24.685  1.00  0.00     0.031 C 
BRANCH  21  22
ATOM     22  C   UNL A   1      33.980  17.878  24.552  1.00  0.00    -0.015 C 
ATOM     23  C   UNL A   1      33.076  17.150  25.517  1.00  0.00     0.007 C 
ATOM     24  C   UNL A   1      33.597  17.357  23.166  1.00  0.00     0.007 C 
ENDBRANCH  21  22
ENDBRANCH  20  21
ENDBRANCH  19  20
ENDBRANCH  18  19
ENDBRANCH  17  18
ENDBRANCH   7  17
ENDBRANCH   3   6
ENDBRANCH   1   2
BRANCH   1  25
ATOM     25  C   UNL A   1      37.007  23.195  25.782  1.00  0.00     0.021 C 
BRANCH  25  26
ATOM     26  C   UNL A   1      38.058  22.103  25.576  1.00  0.00     0.002 C 
BRANCH  26  27
ATOM     27  C   UNL A   1      37.546  20.899  24.783  1.00  0.00     0.002 C 
BRANCH  27  28
ATOM     28  C   UNL A   1      38.400  19.642  24.952  1.00  0.00     0.021 C 
BRANCH  28  29
ATOM     29  C   UNL A   1      39.317  19.701  26.160  1.00  0.00     0.116 C 
BRANCH  29  30
ATOM     30  N   UNL A   1      40.592  19.069  25.873  1.00  0.00    -0.352 N 
ATOM     31  C   UNL A   1      41.817  19.668  25.800  1.00  0.00     0.251 C 
ATOM     32  H   UNL A   1      40.571  18.098  25.712  1.00  0.00     0.163 HD
ATOM     33  O   UNL A   1      42.770  19.104  25.263  1.00  0.00    -0.269 OA
BRANCH  31  34
ATOM     34  C   UNL A   1      41.967  21.015  26.374  1.00  0.00     0.039 A 
ATOM     35  C   UNL A   1      41.900  21.179  27.756  1.00  0.00     0.014 A 
ATOM     36  C   UNL A   1      42.229  22.101  25.530  1.00  0.00     0.014 A 
ATOM     37  C   UNL A   1      42.125  22.441  28.300  1.00  0.00     0.010 A 
ATOM     38  C   UNL A   1      42.544  23.335  26.081  1.00  0.00     0.010 A 
ATOM     39  C   UNL A   1      42.472  23.520  27.468  1.00  0.00    -0.014 A 
BRANCH  39  40
ATOM     40  C   UNL A   1      42.732  24.864  28.032  1.00  0.00     0.031 A 
ATOM     41  C   UNL A   1      44.119  25.228  28.482  1.00  0.00     0.074 A 
ATOM     42  C   UNL A   1      41.713  25.731  28.184  1.00  0.00     0.049 A 
ATOM     43  N   UNL A   1      44.542  26.336  29.034  1.00  0.00    -0.248 NA
ATOM     44  C   UNL A   1      45.164  24.203  28.316  1.00  0.00     0.031 C 
ATOM     45  C   UNL A   1      40.316  25.472  27.825  1.00  0.00     0.029 A 
ATOM     46  N   UNL A   1      41.696  27.006  28.686  1.00  0.00    -0.354 N 
ATOM     47  C   UNL A   1      45.892  26.134  29.296  1.00  0.00     0.074 A 
ATOM     48  C   UNL A   1      46.205  24.780  28.897  1.00  0.00     0.031 C 
ATOM     49  C   UNL A   1      39.585  26.567  28.087  1.00  0.00     0.029 A 
ATOM     50  C   UNL A   1      40.451  27.586  28.674  1.00  0.00     0.049 A 
ATOM     51  H   UNL A   1      42.500  27.464  29.023  1.00  0.00     0.167 HD
ATOM     52  C   UNL A   1      46.793  27.004  29.804  1.00  0.00     0.031 A 
ATOM     53  C   UNL A   1      40.051  28.800  29.095  1.00  0.00     0.031 A 
ATOM     54  C   UNL A   1      46.477  28.352  30.188  1.00  0.00     0.049 A 
ATOM     55  C   UNL A   1      41.072  29.742  29.670  1.00  0.00     0.074 A 
ATOM     56  C   UNL A   1      47.331  29.337  30.653  1.00  0.00     0.029 A 
ATOM     57  N   UNL A   1      45.205  28.903  30.156  1.00  0.00    -0.354 N 
ATOM     58  N   UNL A   1      42.360  29.566  29.835  1.00  0.00    -0.248 NA
ATOM     59  C   UNL A   1      40.583  31.058  30.106  1.00  0.00     0.031 C 
ATOM     60  C   UNL A   1      46.564  30.464  30.964  1.00  0.00     0.029 A 
ATOM     61  C   UNL A   1      45.245  30.205  30.627  1.00  0.00     0.049 A 
ATOM     62  H   UNL A   1      44.395  28.438  29.846  1.00  0.00     0.167 HD
ATOM     63  C   UNL A   1      42.841  30.756  30.366  1.00  0.00     0.074 A 
ATOM     64  C   UNL A   1      41.708  31.652  30.476  1.00  0.00     0.031 C 
ATOM     65  C   UNL A   1      44.105  31.080  30.730  1.00  0.00     0.031 A 
BRANCH  52  66
ATOM     66  C   UNL A   1      48.205  26.518  29.986  1.00  0.00    -0.014 A 
ATOM     67  C   UNL A   1      49.181  26.719  28.996  1.00  0.00     0.009 A 
ATOM     68  C   UNL A   1      48.573  25.881  31.181  1.00  0.00     0.009 A 
ATOM     69  C   UNL A   1      50.487  26.261  29.187  1.00  0.00     0.001 A 
ATOM     70  C   UNL A   1      49.886  25.454  31.382  1.00  0.00     0.001 A 
ATOM     71  C   UNL A   1      50.839  25.635  30.381  1.00  0.00     0.000 A 
ENDBRANCH  52  66
BRANCH  53  72
ATOM     72  C   UNL A   1      38.623  29.196  28.986  1.00  0.00    -0.014 A 
ATOM     73  C   UNL A   1      38.116  29.725  27.788  1.00  0.00     0.009 A 
ATOM     74  C   UNL A   1      37.759  29.058  30.083  1.00  0.00     0.009 A 
ATOM     75  C   UNL A   1      36.785  30.140  27.703  1.00  0.00     0.001 A 
ATOM     76  C   UNL A   1      36.419  29.442  29.985  1.00  0.00     0.001 A 
ATOM     77  C   UNL A   1      35.937  29.994  28.800  1.00  0.00     0.000 A 
ENDBRANCH  53  72
BRANCH  65  78
ATOM     78  C   UNL A   1      44.338  32.472  31.247  1.00  0.00    -0.014 A 
ATOM     79  C   UNL A   1      44.624  33.537  30.380  1.00  0.00     0.009 A 
ATOM     80  C   UNL A   1      44.225  32.726  32.624  1.00  0.00     0.009 A 
ATOM     81  C   UNL A   1      44.827  34.823  30.885  1.00  0.00     0.001 A 
ATOM     82  C   UNL A   1      44.395  34.018  33.122  1.00  0.00     0.001 A 
ATOM     83  C   UNL A   1      44.705  35.063  32.253  1.00  0.00     0.000 A 
ENDBRANCH  65  78
ENDBRANCH  39  40
ENDBRANCH  31  34
ENDBRANCH  29  30
ENDBRANCH  28  29
ENDBRANCH  27  28
ENDBRANCH  26  27
ENDBRANCH  25  26
ENDBRANCH   1  25
TORSDOF 19
ENDMDL
