MODEL 1
REMARK VINA RESULT:     -11.5      0.000      0.000
REMARK SMILES CC(C)CN(C)c1cc2c(cc1Cl)C=C(C(=O)NCCCCCCNC(=O)c1ccc(-c3c4nc(c(-c5ccccc5)c5ccc([nH]5)c(-c5ccccc5)c5nc(c(-c6ccccc6)c6ccc3[nH]6)C=C5)C=C4)cc1)[C@H](C(F)(F)F)O2
REMARK SMILES IDX 21 1 20 2 19 3 18 4 16 5 17 6 15 8 7 9 8 10 12 11 9 12 11 13
REMARK SMILES IDX 13 14 10 15 81 16 14 17 76 18 5 19 6 20 4 21 2 22 1 23 3 24
REMARK SMILES IDX 77 25 78 26 79 27 80 28 22 29 23 30 24 31 25 32 26 33 27 35
REMARK SMILES IDX 28 36 29 37 75 38 30 39 74 40 31 41 32 42 33 43 68 44 34 45
REMARK SMILES IDX 73 46 67 47 69 48 35 49 72 50 66 51 65 52 36 54 58 55 43 56
REMARK SMILES IDX 57 57 44 58 47 59 56 60 70 61 45 62 46 63 55 65 71 66 48 67
REMARK SMILES IDX 37 68 38 69 42 70 39 71 41 72 40 73 59 74 60 75 64 76 61 77
REMARK SMILES IDX 63 78 62 79 49 80 50 81 54 82 51 83 53 84 52 85
REMARK H PARENT 18 7 25 34 69 53 47 64
REMARK Flexibility Score: inf
ROOT
ATOM      1  C   UNL A   1      33.304  30.199  26.334  1.00  0.00     0.002 C 
ENDROOT
BRANCH   1   2
ATOM      2  C   UNL A   1      33.745  28.997  27.175  1.00  0.00     0.021 C 
BRANCH   2   3
ATOM      3  C   UNL A   1      33.774  27.676  26.407  1.00  0.00     0.116 C 
BRANCH   3   4
ATOM      4  N   UNL A   1      33.825  27.917  24.980  1.00  0.00    -0.352 N 
ATOM      5  C   UNL A   1      33.682  27.174  23.858  1.00  0.00     0.251 C 
ATOM      6  O   UNL A   1      33.816  27.784  22.794  1.00  0.00    -0.270 OA
ATOM      7  H   UNL A   1      34.010  28.861  24.773  1.00  0.00     0.163 HD
BRANCH   5   8
ATOM      8  C   UNL A   1      33.351  25.720  23.840  1.00  0.00     0.067 C 
ATOM      9  C   UNL A   1      33.699  20.709  24.512  1.00  0.00     0.059 A 
ATOM     10  C   UNL A   1      32.698  21.585  24.061  1.00  0.00     0.074 A 
ATOM     11  C   UNL A   1      34.963  21.267  24.801  1.00  0.00     0.065 A 
ATOM     12  C   UNL A   1      32.926  22.958  23.956  1.00  0.00     0.130 A 
ATOM     13  C   UNL A   1      35.170  22.650  24.754  1.00  0.00     0.034 A 
ATOM     14  Cl  UNL A   1      36.335  20.287  25.192  1.00  0.00    -0.082 Cl
ATOM     15  C   UNL A   1      34.145  23.499  24.340  1.00  0.00     0.019 A 
ATOM     16  O   UNL A   1      31.895  23.694  23.462  1.00  0.00    -0.475 OA
ATOM     17  C   UNL A   1      34.341  24.936  24.298  1.00  0.00     0.025 C 
ATOM     18  C   UNL A   1      32.033  25.141  23.395  1.00  0.00     0.314 C 
BRANCH   9  19
ATOM     19  N   UNL A   1      33.416  19.346  24.688  1.00  0.00    -0.373 N 
ATOM     20  C   UNL A   1      32.837  18.998  25.986  1.00  0.00     0.143 C 
BRANCH  19  21
ATOM     21  C   UNL A   1      34.414  18.396  24.147  1.00  0.00     0.119 C 
BRANCH  21  22
ATOM     22  C   UNL A   1      33.783  17.323  23.234  1.00  0.00     0.002 C 
ATOM     23  C   UNL A   1      33.384  16.064  24.011  1.00  0.00     0.009 C 
ATOM     24  C   UNL A   1      32.548  17.868  22.510  1.00  0.00     0.009 C 
ENDBRANCH  21  22
ENDBRANCH  19  21
ENDBRANCH   9  19
BRANCH  18  25
ATOM     25  C   UNL A   1      30.795  25.740  24.086  1.00  0.00     0.429 C 
ATOM     26  F   UNL A   1      30.953  25.857  25.425  1.00  0.00    -0.167 F 
ATOM     27  F   UNL A   1      30.458  26.963  23.628  1.00  0.00    -0.167 F 
ATOM     28  F   UNL A   1      29.717  24.936  23.881  1.00  0.00    -0.167 F 
ENDBRANCH  18  25
ENDBRANCH   5   8
ENDBRANCH   3   4
ENDBRANCH   2   3
ENDBRANCH   1   2
BRANCH   1  29
ATOM     29  C   UNL A   1      31.820  30.564  26.444  1.00  0.00     0.002 C 
BRANCH  29  30
ATOM     30  C   UNL A   1      31.534  32.038  26.732  1.00  0.00     0.021 C 
BRANCH  30  31
ATOM     31  C   UNL A   1      32.719  32.816  27.289  1.00  0.00     0.116 C 
BRANCH  31  32
ATOM     32  N   UNL A   1      32.380  34.193  27.611  1.00  0.00    -0.352 N 
ATOM     33  C   UNL A   1      32.932  35.018  28.561  1.00  0.00     0.251 C 
ATOM     34  H   UNL A   1      31.654  34.588  27.076  1.00  0.00     0.163 HD
ATOM     35  O   UNL A   1      32.423  36.103  28.822  1.00  0.00    -0.269 OA
BRANCH  33  36
ATOM     36  C   UNL A   1      34.133  34.568  29.293  1.00  0.00     0.039 A 
ATOM     37  C   UNL A   1      35.395  34.678  28.706  1.00  0.00     0.014 A 
ATOM     38  C   UNL A   1      33.988  33.988  30.555  1.00  0.00     0.014 A 
ATOM     39  C   UNL A   1      36.484  34.053  29.302  1.00  0.00     0.010 A 
ATOM     40  C   UNL A   1      35.102  33.443  31.196  1.00  0.00     0.010 A 
ATOM     41  C   UNL A   1      36.351  33.428  30.553  1.00  0.00    -0.014 A 
BRANCH  41  42
ATOM     42  C   UNL A   1      37.536  32.780  31.170  1.00  0.00     0.031 A 
ATOM     43  C   UNL A   1      38.068  33.241  32.499  1.00  0.00     0.074 A 
ATOM     44  C   UNL A   1      38.099  31.726  30.546  1.00  0.00     0.049 A 
ATOM     45  N   UNL A   1      39.065  32.755  33.196  1.00  0.00    -0.248 NA
ATOM     46  C   UNL A   1      37.403  34.391  33.132  1.00  0.00     0.031 C 
ATOM     47  C   UNL A   1      37.658  31.177  29.262  1.00  0.00     0.029 A 
ATOM     48  N   UNL A   1      39.136  30.909  30.919  1.00  0.00    -0.354 N 
ATOM     49  C   UNL A   1      39.157  33.547  34.334  1.00  0.00     0.074 A 
ATOM     50  C   UNL A   1      38.134  34.565  34.224  1.00  0.00     0.031 C 
ATOM     51  C   UNL A   1      38.373  30.078  28.987  1.00  0.00     0.029 A 
ATOM     52  C   UNL A   1      39.372  29.886  30.033  1.00  0.00     0.049 A 
ATOM     53  H   UNL A   1      39.660  31.043  31.742  1.00  0.00     0.167 HD
ATOM     54  C   UNL A   1      40.009  33.429  35.380  1.00  0.00     0.031 A 
ATOM     55  C   UNL A   1      40.294  28.906  30.047  1.00  0.00     0.031 A 
ATOM     56  C   UNL A   1      41.018  32.407  35.488  1.00  0.00     0.049 A 
ATOM     57  C   UNL A   1      41.261  28.829  31.192  1.00  0.00     0.074 A 
ATOM     58  C   UNL A   1      41.911  32.192  36.525  1.00  0.00     0.029 A 
ATOM     59  N   UNL A   1      41.273  31.437  34.533  1.00  0.00    -0.354 N 
ATOM     60  N   UNL A   1      41.322  29.576  32.268  1.00  0.00    -0.248 NA
ATOM     61  C   UNL A   1      42.287  27.780  31.127  1.00  0.00     0.031 C 
ATOM     62  C   UNL A   1      42.748  31.135  36.166  1.00  0.00     0.029 A 
ATOM     63  C   UNL A   1      42.331  30.641  34.940  1.00  0.00     0.049 A 
ATOM     64  H   UNL A   1      40.775  31.328  33.689  1.00  0.00     0.167 HD
ATOM     65  C   UNL A   1      42.385  29.083  33.012  1.00  0.00     0.074 A 
ATOM     66  C   UNL A   1      42.925  27.957  32.277  1.00  0.00     0.031 C 
ATOM     67  C   UNL A   1      42.868  29.530  34.196  1.00  0.00     0.031 A 
BRANCH  54  68
ATOM     68  C   UNL A   1      39.909  34.432  36.496  1.00  0.00    -0.014 A 
ATOM     69  C   UNL A   1      40.687  35.601  36.454  1.00  0.00     0.009 A 
ATOM     70  C   UNL A   1      39.127  34.182  37.635  1.00  0.00     0.009 A 
ATOM     71  C   UNL A   1      40.698  36.488  37.532  1.00  0.00     0.001 A 
ATOM     72  C   UNL A   1      39.116  35.086  38.699  1.00  0.00     0.001 A 
ATOM     73  C   UNL A   1      39.910  36.233  38.651  1.00  0.00     0.000 A 
ENDBRANCH  54  68
BRANCH  55  74
ATOM     74  C   UNL A   1      40.324  27.924  28.932  1.00  0.00    -0.014 A 
ATOM     75  C   UNL A   1      41.016  28.215  27.744  1.00  0.00     0.009 A 
ATOM     76  C   UNL A   1      39.597  26.727  29.017  1.00  0.00     0.009 A 
ATOM     77  C   UNL A   1      40.950  27.348  26.653  1.00  0.00     0.001 A 
ATOM     78  C   UNL A   1      39.561  25.845  27.933  1.00  0.00     0.001 A 
ATOM     79  C   UNL A   1      40.225  26.162  26.749  1.00  0.00     0.000 A 
ENDBRANCH  55  74
BRANCH  67  80
ATOM     80  C   UNL A   1      44.045  28.807  34.790  1.00  0.00    -0.014 A 
ATOM     81  C   UNL A   1      45.349  29.191  34.441  1.00  0.00     0.009 A 
ATOM     82  C   UNL A   1      43.864  27.683  35.609  1.00  0.00     0.009 A 
ATOM     83  C   UNL A   1      46.449  28.454  34.882  1.00  0.00     0.001 A 
ATOM     84  C   UNL A   1      44.967  26.964  36.075  1.00  0.00     0.001 A 
ATOM     85  C   UNL A   1      46.256  27.343  35.702  1.00  0.00     0.000 A 
ENDBRANCH  67  80
ENDBRANCH  41  42
ENDBRANCH  33  36
ENDBRANCH  31  32
ENDBRANCH  30  31
ENDBRANCH  29  30
ENDBRANCH   1  29
TORSDOF 17
ENDMDL
MODEL 2
REMARK VINA RESULT:     -11.5      0.480      5.761
REMARK SMILES CC(C)CN(C)c1cc2c(cc1Cl)C=C(C(=O)NCCCCCCNC(=O)c1ccc(-c3c4nc(c(-c5ccccc5)c5ccc([nH]5)c(-c5ccccc5)c5nc(c(-c6ccccc6)c6ccc3[nH]6)C=C5)C=C4)cc1)[C@H](C(F)(F)F)O2
REMARK SMILES IDX 21 1 20 2 19 3 18 4 16 5 17 6 15 8 7 9 8 10 12 11 9 12 11 13
REMARK SMILES IDX 13 14 10 15 81 16 14 17 76 18 5 19 6 20 4 21 2 22 1 23 3 24
REMARK SMILES IDX 77 25 78 26 79 27 80 28 22 29 23 30 24 31 25 32 26 33 27 35
REMARK SMILES IDX 28 36 29 37 75 38 30 39 74 40 31 41 32 42 33 43 68 44 34 45
REMARK SMILES IDX 73 46 67 47 69 48 35 49 72 50 66 51 65 52 36 54 58 55 43 56
REMARK SMILES IDX 57 57 44 58 47 59 56 60 70 61 45 62 46 63 55 65 71 66 48 67
REMARK SMILES IDX 37 68 38 69 42 70 39 71 41 72 40 73 59 74 60 75 64 76 61 77
REMARK SMILES IDX 63 78 62 79 49 80 50 81 54 82 51 83 53 84 52 85
REMARK H PARENT 18 7 25 34 69 53 47 64
REMARK Flexibility Score: inf
ROOT
ATOM      1  C   UNL A   1      33.129  30.136  26.227  1.00  0.00     0.002 C 
ENDROOT
BRANCH   1   2
ATOM      2  C   UNL A   1      33.266  28.860  27.063  1.00  0.00     0.021 C 
BRANCH   2   3
ATOM      3  C   UNL A   1      33.922  27.696  26.320  1.00  0.00     0.116 C 
BRANCH   3   4
ATOM      4  N   UNL A   1      33.901  27.927  24.891  1.00  0.00    -0.352 N 
ATOM      5  C   UNL A   1      33.698  27.177  23.784  1.00  0.00     0.251 C 
ATOM      6  O   UNL A   1      33.780  27.779  22.709  1.00  0.00    -0.270 OA
ATOM      7  H   UNL A   1      34.079  28.869  24.668  1.00  0.00     0.163 HD
BRANCH   5   8
ATOM      8  C   UNL A   1      33.361  25.724  23.793  1.00  0.00     0.067 C 
ATOM      9  C   UNL A   1      33.709  20.721  24.518  1.00  0.00     0.059 A 
ATOM     10  C   UNL A   1      32.699  21.595  24.084  1.00  0.00     0.074 A 
ATOM     11  C   UNL A   1      34.982  21.277  24.767  1.00  0.00     0.065 A 
ATOM     12  C   UNL A   1      32.929  22.965  23.955  1.00  0.00     0.130 A 
ATOM     13  C   UNL A   1      35.193  22.658  24.696  1.00  0.00     0.034 A 
ATOM     14  Cl  UNL A   1      36.360  20.296  25.133  1.00  0.00    -0.082 Cl
ATOM     15  C   UNL A   1      34.160  23.507  24.300  1.00  0.00     0.019 A 
ATOM     16  O   UNL A   1      31.888  23.700  23.480  1.00  0.00    -0.475 OA
ATOM     17  C   UNL A   1      34.360  24.942  24.234  1.00  0.00     0.025 C 
ATOM     18  C   UNL A   1      32.030  25.145  23.390  1.00  0.00     0.314 C 
BRANCH   9  19
ATOM     19  N   UNL A   1      33.425  19.361  24.720  1.00  0.00    -0.373 N 
ATOM     20  C   UNL A   1      32.819  19.041  26.012  1.00  0.00     0.143 C 
BRANCH  19  21
ATOM     21  C   UNL A   1      34.437  18.402  24.222  1.00  0.00     0.119 C 
BRANCH  21  22
ATOM     22  C   UNL A   1      33.830  17.308  23.319  1.00  0.00     0.002 C 
ATOM     23  C   UNL A   1      33.348  16.095  24.122  1.00  0.00     0.009 C 
ATOM     24  C   UNL A   1      32.658  17.855  22.499  1.00  0.00     0.009 C 
ENDBRANCH  21  22
ENDBRANCH  19  21
ENDBRANCH   9  19
BRANCH  18  25
ATOM     25  C   UNL A   1      30.813  25.757  24.107  1.00  0.00     0.429 C 
ATOM     26  F   UNL A   1      29.720  24.961  24.047  1.00  0.00    -0.167 F 
ATOM     27  F   UNL A   1      31.029  26.019  25.412  1.00  0.00    -0.167 F 
ATOM     28  F   UNL A   1      30.478  26.939  23.523  1.00  0.00    -0.167 F 
ENDBRANCH  18  25
ENDBRANCH   5   8
ENDBRANCH   3   4
ENDBRANCH   2   3
ENDBRANCH   1   2
BRANCH   1  29
ATOM     29  C   UNL A   1      31.695  30.639  26.031  1.00  0.00     0.002 C 
BRANCH  29  30
ATOM     30  C   UNL A   1      31.391  31.997  26.662  1.00  0.00     0.021 C 
BRANCH  30  31
ATOM     31  C   UNL A   1      32.588  32.674  27.318  1.00  0.00     0.116 C 
BRANCH  31  32
ATOM     32  N   UNL A   1      32.352  34.082  27.592  1.00  0.00    -0.352 N 
ATOM     33  C   UNL A   1      32.983  34.903  28.494  1.00  0.00     0.251 C 
ATOM     34  H   UNL A   1      31.642  34.505  27.058  1.00  0.00     0.163 HD
ATOM     35  O   UNL A   1      32.556  36.030  28.723  1.00  0.00    -0.269 OA
BRANCH  33  36
ATOM     36  C   UNL A   1      34.169  34.400  29.215  1.00  0.00     0.039 A 
ATOM     37  C   UNL A   1      35.447  34.588  28.684  1.00  0.00     0.014 A 
ATOM     38  C   UNL A   1      33.997  33.693  30.407  1.00  0.00     0.014 A 
ATOM     39  C   UNL A   1      36.528  33.924  29.249  1.00  0.00     0.010 A 
ATOM     40  C   UNL A   1      35.100  33.103  31.027  1.00  0.00     0.010 A 
ATOM     41  C   UNL A   1      36.368  33.173  30.427  1.00  0.00    -0.014 A 
BRANCH  41  42
ATOM     42  C   UNL A   1      37.546  32.484  31.014  1.00  0.00     0.031 A 
ATOM     43  C   UNL A   1      38.164  31.292  30.336  1.00  0.00     0.074 A 
ATOM     44  C   UNL A   1      38.093  32.979  32.141  1.00  0.00     0.049 A 
ATOM     45  N   UNL A   1      39.219  30.603  30.693  1.00  0.00    -0.248 NA
ATOM     46  C   UNL A   1      37.522  30.807  29.104  1.00  0.00     0.031 C 
ATOM     47  C   UNL A   1      37.591  34.142  32.878  1.00  0.00     0.029 A 
ATOM     48  N   UNL A   1      39.205  32.593  32.846  1.00  0.00    -0.354 N 
ATOM     49  C   UNL A   1      39.357  29.597  29.743  1.00  0.00     0.074 A 
ATOM     50  C   UNL A   1      38.261  29.745  28.810  1.00  0.00     0.031 C 
ATOM     51  C   UNL A   1      38.428  34.414  33.888  1.00  0.00     0.029 A 
ATOM     52  C   UNL A   1      39.481  33.405  33.919  1.00  0.00     0.049 A 
ATOM     53  H   UNL A   1      39.752  31.811  32.605  1.00  0.00     0.167 HD
ATOM     54  C   UNL A   1      40.316  28.646  29.653  1.00  0.00     0.031 A 
ATOM     55  C   UNL A   1      40.463  33.344  34.838  1.00  0.00     0.031 A 
ATOM     56  C   UNL A   1      41.409  28.510  30.581  1.00  0.00     0.049 A 
ATOM     57  C   UNL A   1      41.483  32.247  34.746  1.00  0.00     0.074 A 
ATOM     58  C   UNL A   1      42.445  27.591  30.554  1.00  0.00     0.029 A 
ATOM     59  N   UNL A   1      41.609  29.306  31.697  1.00  0.00    -0.354 N 
ATOM     60  N   UNL A   1      41.607  31.316  33.832  1.00  0.00    -0.248 NA
ATOM     61  C   UNL A   1      42.494  32.188  35.809  1.00  0.00     0.031 C 
ATOM     62  C   UNL A   1      43.232  27.789  31.690  1.00  0.00     0.029 A 
ATOM     63  C   UNL A   1      42.732  28.879  32.385  1.00  0.00     0.049 A 
ATOM     64  H   UNL A   1      41.037  30.064  31.961  1.00  0.00     0.167 HD
ATOM     65  C   UNL A   1      42.715  30.566  34.203  1.00  0.00     0.074 A 
ATOM     66  C   UNL A   1      43.241  31.165  35.412  1.00  0.00     0.031 C 
ATOM     67  C   UNL A   1      43.241  29.476  33.594  1.00  0.00     0.031 A 
BRANCH  54  68
ATOM     68  C   UNL A   1      40.232  27.657  28.523  1.00  0.00    -0.014 A 
ATOM     69  C   UNL A   1      39.569  26.434  28.715  1.00  0.00     0.009 A 
ATOM     70  C   UNL A   1      40.891  27.883  27.304  1.00  0.00     0.009 A 
ATOM     71  C   UNL A   1      39.578  25.454  27.721  1.00  0.00     0.001 A 
ATOM     72  C   UNL A   1      40.874  26.914  26.299  1.00  0.00     0.001 A 
ATOM     73  C   UNL A   1      40.227  25.696  26.512  1.00  0.00     0.000 A 
ENDBRANCH  54  68
BRANCH  55  74
ATOM     74  C   UNL A   1      40.512  34.369  35.914  1.00  0.00    -0.014 A 
ATOM     75  C   UNL A   1      39.774  34.196  37.097  1.00  0.00     0.009 A 
ATOM     76  C   UNL A   1      41.233  35.558  35.732  1.00  0.00     0.009 A 
ATOM     77  C   UNL A   1      39.725  35.207  38.058  1.00  0.00     0.001 A 
ATOM     78  C   UNL A   1      41.209  36.554  36.712  1.00  0.00     0.001 A 
ATOM     79  C   UNL A   1      40.445  36.384  37.866  1.00  0.00     0.000 A 
ENDBRANCH  55  74
BRANCH  67  80
ATOM     80  C   UNL A   1      44.457  28.845  34.215  1.00  0.00    -0.014 A 
ATOM     81  C   UNL A   1      44.306  27.856  35.199  1.00  0.00     0.009 A 
ATOM     82  C   UNL A   1      45.746  29.303  33.904  1.00  0.00     0.009 A 
ATOM     83  C   UNL A   1      45.417  27.352  35.875  1.00  0.00     0.001 A 
ATOM     84  C   UNL A   1      46.860  28.774  34.560  1.00  0.00     0.001 A 
ATOM     85  C   UNL A   1      46.693  27.808  35.552  1.00  0.00     0.000 A 
ENDBRANCH  67  80
ENDBRANCH  41  42
ENDBRANCH  33  36
ENDBRANCH  31  32
ENDBRANCH  30  31
ENDBRANCH  29  30
ENDBRANCH   1  29
TORSDOF 17
ENDMDL
MODEL 3
REMARK VINA RESULT:     -11.1      1.666      6.141
REMARK SMILES CC(C)CN(C)c1cc2c(cc1Cl)C=C(C(=O)NCCCCCCNC(=O)c1ccc(-c3c4nc(c(-c5ccccc5)c5ccc([nH]5)c(-c5ccccc5)c5nc(c(-c6ccccc6)c6ccc3[nH]6)C=C5)C=C4)cc1)[C@H](C(F)(F)F)O2
REMARK SMILES IDX 21 1 20 2 19 3 18 4 16 5 17 6 15 8 7 9 8 10 12 11 9 12 11 13
REMARK SMILES IDX 13 14 10 15 81 16 14 17 76 18 5 19 6 20 4 21 2 22 1 23 3 24
REMARK SMILES IDX 77 25 78 26 79 27 80 28 22 29 23 30 24 31 25 32 26 33 27 35
REMARK SMILES IDX 28 36 29 37 75 38 30 39 74 40 31 41 32 42 33 43 68 44 34 45
REMARK SMILES IDX 73 46 67 47 69 48 35 49 72 50 66 51 65 52 36 54 58 55 43 56
REMARK SMILES IDX 57 57 44 58 47 59 56 60 70 61 45 62 46 63 55 65 71 66 48 67
REMARK SMILES IDX 37 68 38 69 42 70 39 71 41 72 40 73 59 74 60 75 64 76 61 77
REMARK SMILES IDX 63 78 62 79 49 80 50 81 54 82 51 83 53 84 52 85
REMARK H PARENT 18 7 25 34 69 53 47 64
REMARK Flexibility Score: inf
ROOT
ATOM      1  C   UNL A   1      34.651  30.469  27.658  1.00  0.00     0.002 C 
ENDROOT
BRANCH   1   2
ATOM      2  C   UNL A   1      33.214  30.037  27.347  1.00  0.00     0.021 C 
BRANCH   2   3
ATOM      3  C   UNL A   1      33.115  28.845  26.395  1.00  0.00     0.116 C 
BRANCH   3   4
ATOM      4  N   UNL A   1      33.266  29.276  25.021  1.00  0.00    -0.352 N 
ATOM      5  C   UNL A   1      33.223  28.689  23.803  1.00  0.00     0.251 C 
ATOM      6  O   UNL A   1      33.422  29.438  22.843  1.00  0.00    -0.270 OA
ATOM      7  H   UNL A   1      33.445  30.242  24.956  1.00  0.00     0.163 HD
BRANCH   5   8
ATOM      8  C   UNL A   1      32.927  27.247  23.567  1.00  0.00     0.067 C 
ATOM      9  C   UNL A   1      33.365  22.198  23.541  1.00  0.00     0.059 A 
ATOM     10  C   UNL A   1      32.362  23.110  23.176  1.00  0.00     0.074 A 
ATOM     11  C   UNL A   1      34.602  22.731  23.959  1.00  0.00     0.065 A 
ATOM     12  C   UNL A   1      32.561  24.488  23.275  1.00  0.00     0.130 A 
ATOM     13  C   UNL A   1      34.779  24.110  24.115  1.00  0.00     0.034 A 
ATOM     14  Cl  UNL A   1      35.981  21.729  24.265  1.00  0.00    -0.082 Cl
ATOM     15  C   UNL A   1      33.751  24.992  23.783  1.00  0.00     0.019 A 
ATOM     16  O   UNL A   1      31.534  25.270  22.846  1.00  0.00    -0.475 OA
ATOM     17  C   UNL A   1      33.916  26.423  23.951  1.00  0.00     0.025 C 
ATOM     18  C   UNL A   1      31.641  26.714  22.989  1.00  0.00     0.314 C 
BRANCH   9  19
ATOM     19  N   UNL A   1      33.106  20.818  23.512  1.00  0.00    -0.373 N 
ATOM     20  C   UNL A   1      32.056  20.405  22.581  1.00  0.00     0.143 C 
BRANCH  19  21
ATOM     21  C   UNL A   1      33.126  20.124  24.819  1.00  0.00     0.119 C 
BRANCH  21  22
ATOM     22  C   UNL A   1      33.129  18.587  24.678  1.00  0.00     0.002 C 
ATOM     23  C   UNL A   1      34.519  18.038  24.340  1.00  0.00     0.009 C 
ATOM     24  C   UNL A   1      32.630  17.912  25.958  1.00  0.00     0.009 C 
ENDBRANCH  21  22
ENDBRANCH  19  21
ENDBRANCH   9  19
BRANCH  18  25
ATOM     25  C   UNL A   1      30.363  27.186  23.705  1.00  0.00     0.429 C 
ATOM     26  F   UNL A   1      29.309  26.368  23.480  1.00  0.00    -0.167 F 
ATOM     27  F   UNL A   1      30.497  27.284  25.043  1.00  0.00    -0.167 F 
ATOM     28  F   UNL A   1      30.012  28.422  23.257  1.00  0.00    -0.167 F 
ENDBRANCH  18  25
ENDBRANCH   5   8
ENDBRANCH   3   4
ENDBRANCH   2   3
ENDBRANCH   1   2
BRANCH   1  29
ATOM     29  C   UNL A   1      34.862  31.981  27.801  1.00  0.00     0.002 C 
BRANCH  29  30
ATOM     30  C   UNL A   1      33.602  32.783  28.126  1.00  0.00     0.021 C 
BRANCH  30  31
ATOM     31  C   UNL A   1      33.824  34.284  28.260  1.00  0.00     0.116 C 
BRANCH  31  32
ATOM     32  N   UNL A   1      33.426  34.793  29.563  1.00  0.00    -0.352 N 
ATOM     33  C   UNL A   1      33.911  34.459  30.805  1.00  0.00     0.251 C 
ATOM     34  H   UNL A   1      32.710  35.469  29.554  1.00  0.00     0.163 HD
ATOM     35  O   UNL A   1      33.355  34.858  31.823  1.00  0.00    -0.269 OA
BRANCH  33  36
ATOM     36  C   UNL A   1      35.095  33.583  30.901  1.00  0.00     0.039 A 
ATOM     37  C   UNL A   1      34.999  32.338  31.526  1.00  0.00     0.014 A 
ATOM     38  C   UNL A   1      36.321  34.031  30.404  1.00  0.00     0.014 A 
ATOM     39  C   UNL A   1      36.156  31.623  31.808  1.00  0.00     0.010 A 
ATOM     40  C   UNL A   1      37.470  33.265  30.606  1.00  0.00     0.010 A 
ATOM     41  C   UNL A   1      37.405  32.077  31.353  1.00  0.00    -0.014 A 
BRANCH  41  42
ATOM     42  C   UNL A   1      38.622  31.284  31.660  1.00  0.00     0.031 A 
ATOM     43  C   UNL A   1      39.062  30.159  30.763  1.00  0.00     0.074 A 
ATOM     44  C   UNL A   1      39.366  31.624  32.731  1.00  0.00     0.049 A 
ATOM     45  N   UNL A   1      40.123  29.398  30.864  1.00  0.00    -0.248 NA
ATOM     46  C   UNL A   1      38.209  29.844  29.606  1.00  0.00     0.031 C 
ATOM     47  C   UNL A   1      39.049  32.708  33.663  1.00  0.00     0.029 A 
ATOM     48  N   UNL A   1      40.554  31.120  33.197  1.00  0.00    -0.354 N 
ATOM     49  C   UNL A   1      40.056  28.507  29.799  1.00  0.00     0.074 A 
ATOM     50  C   UNL A   1      38.836  28.801  29.080  1.00  0.00     0.031 C 
ATOM     51  C   UNL A   1      40.048  32.831  34.547  1.00  0.00     0.029 A 
ATOM     52  C   UNL A   1      41.038  31.790  34.295  1.00  0.00     0.049 A 
ATOM     53  H   UNL A   1      41.014  30.354  32.785  1.00  0.00     0.167 HD
ATOM     54  C   UNL A   1      40.938  27.541  29.449  1.00  0.00     0.031 A 
ATOM     55  C   UNL A   1      42.149  31.588  35.028  1.00  0.00     0.031 A 
ATOM     56  C   UNL A   1      42.155  27.260  30.165  1.00  0.00     0.049 A 
ATOM     57  C   UNL A   1      43.083  30.476  34.650  1.00  0.00     0.074 A 
ATOM     58  C   UNL A   1      43.124  26.316  29.868  1.00  0.00     0.029 A 
ATOM     59  N   UNL A   1      42.570  27.912  31.315  1.00  0.00    -0.354 N 
ATOM     60  N   UNL A   1      43.012  29.655  33.630  1.00  0.00    -0.248 NA
ATOM     61  C   UNL A   1      44.245  30.258  35.520  1.00  0.00     0.031 C 
ATOM     62  C   UNL A   1      44.090  26.352  30.875  1.00  0.00     0.029 A 
ATOM     63  C   UNL A   1      43.765  27.369  31.759  1.00  0.00     0.049 A 
ATOM     64  H   UNL A   1      42.088  28.653  31.751  1.00  0.00     0.167 HD
ATOM     65  C   UNL A   1      44.123  28.830  33.730  1.00  0.00     0.074 A 
ATOM     66  C   UNL A   1      44.865  29.265  34.896  1.00  0.00     0.031 C 
ATOM     67  C   UNL A   1      44.489  27.802  32.927  1.00  0.00     0.031 A 
BRANCH  54  68
ATOM     68  C   UNL A   1      40.624  26.695  28.245  1.00  0.00    -0.014 A 
ATOM     69  C   UNL A   1      39.861  25.526  28.395  1.00  0.00     0.009 A 
ATOM     70  C   UNL A   1      41.163  26.993  26.984  1.00  0.00     0.009 A 
ATOM     71  C   UNL A   1      39.656  24.666  27.315  1.00  0.00     0.001 A 
ATOM     72  C   UNL A   1      40.932  26.146  25.897  1.00  0.00     0.001 A 
ATOM     73  C   UNL A   1      40.188  24.978  26.066  1.00  0.00     0.000 A 
ENDBRANCH  54  68
BRANCH  55  74
ATOM     74  C   UNL A   1      42.422  32.477  36.188  1.00  0.00    -0.014 A 
ATOM     75  C   UNL A   1      41.900  32.173  37.457  1.00  0.00     0.009 A 
ATOM     76  C   UNL A   1      43.137  33.671  36.018  1.00  0.00     0.009 A 
ATOM     77  C   UNL A   1      42.055  33.063  38.521  1.00  0.00     0.001 A 
ATOM     78  C   UNL A   1      43.320  34.544  37.094  1.00  0.00     0.001 A 
ATOM     79  C   UNL A   1      42.768  34.246  38.339  1.00  0.00     0.000 A 
ENDBRANCH  55  74
BRANCH  67  80
ATOM     80  C   UNL A   1      45.753  27.062  33.267  1.00  0.00    -0.014 A 
ATOM     81  C   UNL A   1      46.981  27.500  32.747  1.00  0.00     0.009 A 
ATOM     82  C   UNL A   1      45.716  25.873  34.011  1.00  0.00     0.009 A 
ATOM     83  C   UNL A   1      48.143  26.755  32.947  1.00  0.00     0.001 A 
ATOM     84  C   UNL A   1      46.886  25.145  34.237  1.00  0.00     0.001 A 
ATOM     85  C   UNL A   1      48.095  25.581  33.695  1.00  0.00     0.000 A 
ENDBRANCH  67  80
ENDBRANCH  41  42
ENDBRANCH  33  36
ENDBRANCH  31  32
ENDBRANCH  30  31
ENDBRANCH  29  30
ENDBRANCH   1  29
TORSDOF 17
ENDMDL
