MODEL 1
REMARK VINA RESULT:     -11.5      0.000      0.000
REMARK SMILES O=C(NCCCCCCNC(=O)c1ccc(-c2c3nc(c(-c4ccccc4)c4ccc([nH]4)c(-c4ccccc4)c4nc(c(-c5ccccc5)c5ccc2[nH]5)C=C4)C=C3)cc1)C1=Cc2cc(Cl)cc(Cl)c2O[C@@H]1C(F)(F)F
REMARK SMILES IDX 7 1 6 2 5 3 4 4 3 5 1 6 2 7 61 9 62 10 72 11 63 12 71 13
REMARK SMILES IDX 64 14 70 15 65 16 68 17 66 18 67 19 69 20 73 21 74 22 75 23
REMARK SMILES IDX 76 24 8 25 9 26 10 27 11 28 12 30 13 31 14 32 60 33 15 34
REMARK SMILES IDX 59 35 16 36 17 37 18 38 53 39 19 40 58 41 52 42 54 43 20 44
REMARK SMILES IDX 57 45 51 46 50 47 21 49 43 50 28 51 42 52 29 53 32 54 41 55
REMARK SMILES IDX 55 56 30 57 31 58 40 60 56 61 33 62 22 63 23 64 27 65 24 66
REMARK SMILES IDX 26 67 25 68 44 69 45 70 49 71 46 72 48 73 47 74 34 75 35 76
REMARK SMILES IDX 39 77 36 78 38 79 37 80
REMARK H PARENT 3 8 10 29 54 48 32 59
REMARK Flexibility Score: inf
ROOT
ATOM      1  C   UNL A   1      35.961  20.717  24.766  1.00  0.00     0.002 C 
ENDROOT
BRANCH   1   2
ATOM      2  C   UNL A   1      34.552  20.178  25.047  1.00  0.00     0.002 C 
BRANCH   2   3
ATOM      3  C   UNL A   1      33.683  20.993  26.002  1.00  0.00     0.021 C 
BRANCH   3   4
ATOM      4  C   UNL A   1      32.401  21.575  25.420  1.00  0.00     0.116 C 
BRANCH   4   5
ATOM      5  N   UNL A   1      31.348  21.862  26.373  1.00  0.00    -0.352 N 
ATOM      6  O   UNL A   1      29.796  23.067  27.455  1.00  0.00    -0.270 OA
ATOM      7  C   UNL A   1      30.788  23.060  26.725  1.00  0.00     0.251 C 
ATOM      8  H   UNL A   1      30.977  21.076  26.837  1.00  0.00     0.163 HD
BRANCH   7   9
ATOM      9  C   UNL A   1      31.272  24.371  26.193  1.00  0.00     0.067 C 
ATOM     10  C   UNL A   1      32.475  24.893  26.497  1.00  0.00     0.025 C 
ATOM     11  C   UNL A   1      30.677  24.697  24.840  1.00  0.00     0.314 C 
ATOM     12  C   UNL A   1      33.421  24.733  25.356  1.00  0.00     0.020 A 
ATOM     13  O   UNL A   1      31.603  24.344  23.777  1.00  0.00    -0.474 OA
ATOM     14  C   UNL A   1      34.791  24.684  25.644  1.00  0.00     0.032 A 
ATOM     15  C   UNL A   1      32.943  24.345  24.090  1.00  0.00     0.146 A 
ATOM     16  C   UNL A   1      35.665  24.139  24.707  1.00  0.00     0.043 A 
ATOM     17  C   UNL A   1      33.843  23.821  23.155  1.00  0.00     0.085 A 
ATOM     18  Cl  UNL A   1      37.313  23.887  25.134  1.00  0.00    -0.084 Cl
ATOM     19  C   UNL A   1      35.198  23.696  23.471  1.00  0.00     0.045 A 
ATOM     20  Cl  UNL A   1      33.295  23.180  21.648  1.00  0.00    -0.080 Cl
BRANCH  11  21
ATOM     21  C   UNL A   1      30.216  26.160  24.725  1.00  0.00     0.429 C 
ATOM     22  F   UNL A   1      28.953  26.245  24.248  1.00  0.00    -0.167 F 
ATOM     23  F   UNL A   1      30.228  26.784  25.928  1.00  0.00    -0.167 F 
ATOM     24  F   UNL A   1      31.008  26.884  23.898  1.00  0.00    -0.167 F 
ENDBRANCH  11  21
ENDBRANCH   7   9
ENDBRANCH   4   5
ENDBRANCH   3   4
ENDBRANCH   2   3
ENDBRANCH   1   2
BRANCH   1  25
ATOM     25  C   UNL A   1      37.129  19.750  24.980  1.00  0.00     0.021 C 
BRANCH  25  26
ATOM     26  C   UNL A   1      38.452  20.375  25.413  1.00  0.00     0.116 C 
BRANCH  26  27
ATOM     27  N   UNL A   1      39.516  19.398  25.568  1.00  0.00    -0.352 N 
ATOM     28  C   UNL A   1      40.807  19.547  26.011  1.00  0.00     0.251 C 
ATOM     29  H   UNL A   1      39.271  18.478  25.313  1.00  0.00     0.163 HD
ATOM     30  O   UNL A   1      41.589  18.606  25.923  1.00  0.00    -0.269 OA
BRANCH  28  31
ATOM     31  C   UNL A   1      41.277  20.834  26.574  1.00  0.00     0.039 A 
ATOM     32  C   UNL A   1      41.837  21.777  25.707  1.00  0.00     0.014 A 
ATOM     33  C   UNL A   1      41.215  21.104  27.944  1.00  0.00     0.014 A 
ATOM     34  C   UNL A   1      42.279  23.006  26.203  1.00  0.00     0.010 A 
ATOM     35  C   UNL A   1      41.581  22.360  28.425  1.00  0.00     0.010 A 
ATOM     36  C   UNL A   1      42.126  23.323  27.562  1.00  0.00    -0.014 A 
BRANCH  36  37
ATOM     37  C   UNL A   1      42.540  24.648  28.093  1.00  0.00     0.031 A 
ATOM     38  C   UNL A   1      41.523  25.740  28.294  1.00  0.00     0.074 A 
ATOM     39  C   UNL A   1      43.840  24.887  28.356  1.00  0.00     0.049 A 
ATOM     40  N   UNL A   1      41.702  26.971  28.702  1.00  0.00    -0.248 NA
ATOM     41  C   UNL A   1      40.123  25.412  27.974  1.00  0.00     0.031 C 
ATOM     42  C   UNL A   1      44.933  23.929  28.172  1.00  0.00     0.029 A 
ATOM     43  N   UNL A   1      44.465  26.014  28.830  1.00  0.00    -0.354 N 
ATOM     44  C   UNL A   1      40.445  27.563  28.680  1.00  0.00     0.074 A 
ATOM     45  C   UNL A   1      39.523  26.578  28.163  1.00  0.00     0.031 C 
ATOM     46  C   UNL A   1      46.087  24.499  28.553  1.00  0.00     0.029 A 
ATOM     47  C   UNL A   1      45.826  25.875  28.965  1.00  0.00     0.049 A 
ATOM     48  H   UNL A   1      43.984  26.843  29.054  1.00  0.00     0.167 HD
ATOM     49  C   UNL A   1      40.084  28.807  29.078  1.00  0.00     0.031 A 
ATOM     50  C   UNL A   1      46.763  26.756  29.364  1.00  0.00     0.031 A 
ATOM     51  C   UNL A   1      41.000  29.790  29.593  1.00  0.00     0.049 A 
ATOM     52  C   UNL A   1      46.340  28.142  29.770  1.00  0.00     0.074 A 
ATOM     53  C   UNL A   1      40.725  31.067  30.054  1.00  0.00     0.029 A 
ATOM     54  N   UNL A   1      42.369  29.608  29.714  1.00  0.00    -0.354 N 
ATOM     55  N   UNL A   1      45.138  28.665  29.799  1.00  0.00    -0.248 NA
ATOM     56  C   UNL A   1      47.404  29.055  30.212  1.00  0.00     0.031 C 
ATOM     57  C   UNL A   1      41.934  31.675  30.404  1.00  0.00     0.029 A 
ATOM     58  C   UNL A   1      42.954  30.755  30.222  1.00  0.00     0.049 A 
ATOM     59  H   UNL A   1      42.852  28.785  29.475  1.00  0.00     0.167 HD
ATOM     60  C   UNL A   1      45.298  29.956  30.288  1.00  0.00     0.074 A 
ATOM     61  C   UNL A   1      46.709  30.128  30.562  1.00  0.00     0.031 C 
ATOM     62  C   UNL A   1      44.361  30.912  30.491  1.00  0.00     0.031 A 
BRANCH  49  63
ATOM     63  C   UNL A   1      38.629  29.176  28.966  1.00  0.00    -0.014 A 
ATOM     64  C   UNL A   1      37.761  29.040  30.062  1.00  0.00     0.009 A 
ATOM     65  C   UNL A   1      38.129  29.709  27.769  1.00  0.00     0.009 A 
ATOM     66  C   UNL A   1      36.414  29.393  29.947  1.00  0.00     0.001 A 
ATOM     67  C   UNL A   1      36.790  30.090  27.666  1.00  0.00     0.001 A 
ATOM     68  C   UNL A   1      35.931  29.923  28.752  1.00  0.00     0.000 A 
ENDBRANCH  49  63
BRANCH  50  69
ATOM     69  C   UNL A   1      48.197  26.361  29.397  1.00  0.00    -0.014 A 
ATOM     70  C   UNL A   1      49.015  26.531  28.270  1.00  0.00     0.009 A 
ATOM     71  C   UNL A   1      48.750  25.791  30.556  1.00  0.00     0.009 A 
ATOM     72  C   UNL A   1      50.346  26.108  28.290  1.00  0.00     0.001 A 
ATOM     73  C   UNL A   1      50.089  25.401  30.584  1.00  0.00     0.001 A 
ATOM     74  C   UNL A   1      50.884  25.548  29.448  1.00  0.00     0.000 A 
ENDBRANCH  50  69
BRANCH  62  75
ATOM     75  C   UNL A   1      44.823  32.218  31.074  1.00  0.00    -0.014 A 
ATOM     76  C   UNL A   1      44.849  32.432  32.462  1.00  0.00     0.009 A 
ATOM     77  C   UNL A   1      45.279  33.236  30.221  1.00  0.00     0.009 A 
ATOM     78  C   UNL A   1      45.288  33.653  32.979  1.00  0.00     0.001 A 
ATOM     79  C   UNL A   1      45.747  34.442  30.742  1.00  0.00     0.001 A 
ATOM     80  C   UNL A   1      45.741  34.654  32.120  1.00  0.00     0.000 A 
ENDBRANCH  62  75
ENDBRANCH  36  37
ENDBRANCH  28  31
ENDBRANCH  26  27
ENDBRANCH  25  26
ENDBRANCH   1  25
TORSDOF 14
ENDMDL
MODEL 2
REMARK VINA RESULT:     -11.5      4.640      9.530
REMARK SMILES O=C(NCCCCCCNC(=O)c1ccc(-c2c3nc(c(-c4ccccc4)c4ccc([nH]4)c(-c4ccccc4)c4nc(c(-c5ccccc5)c5ccc2[nH]5)C=C4)C=C3)cc1)C1=Cc2cc(Cl)cc(Cl)c2O[C@@H]1C(F)(F)F
REMARK SMILES IDX 7 1 6 2 5 3 4 4 3 5 1 6 2 7 61 9 62 10 72 11 63 12 71 13
REMARK SMILES IDX 64 14 70 15 65 16 68 17 66 18 67 19 69 20 73 21 74 22 75 23
REMARK SMILES IDX 76 24 8 25 9 26 10 27 11 28 12 30 13 31 14 32 60 33 15 34
REMARK SMILES IDX 59 35 16 36 17 37 18 38 53 39 19 40 58 41 52 42 54 43 20 44
REMARK SMILES IDX 57 45 51 46 50 47 21 49 43 50 28 51 42 52 29 53 32 54 41 55
REMARK SMILES IDX 55 56 30 57 31 58 40 60 56 61 33 62 22 63 23 64 27 65 24 66
REMARK SMILES IDX 26 67 25 68 44 69 45 70 49 71 46 72 48 73 47 74 34 75 35 76
REMARK SMILES IDX 39 77 36 78 38 79 37 80
REMARK H PARENT 3 8 10 29 54 48 32 59
REMARK Flexibility Score: inf
ROOT
ATOM      1  C   UNL A   1      41.945  19.209  27.293  1.00  0.00     0.002 C 
ENDROOT
BRANCH   1   2
ATOM      2  C   UNL A   1      43.062  18.317  26.736  1.00  0.00     0.002 C 
BRANCH   2   3
ATOM      3  C   UNL A   1      43.622  18.692  25.366  1.00  0.00     0.021 C 
BRANCH   3   4
ATOM      4  C   UNL A   1      44.699  19.769  25.346  1.00  0.00     0.116 C 
BRANCH   4   5
ATOM      5  N   UNL A   1      44.534  20.811  24.353  1.00  0.00    -0.352 N 
ATOM      6  O   UNL A   1      44.600  22.873  23.473  1.00  0.00    -0.270 OA
ATOM      7  C   UNL A   1      44.634  22.169  24.483  1.00  0.00     0.251 C 
ATOM      8  H   UNL A   1      44.317  20.493  23.446  1.00  0.00     0.163 HD
BRANCH   7   9
ATOM      9  C   UNL A   1      44.873  22.844  25.796  1.00  0.00     0.067 C 
ATOM     10  C   UNL A   1      46.059  23.374  26.148  1.00  0.00     0.025 C 
ATOM     11  C   UNL A   1      43.617  23.476  26.355  1.00  0.00     0.314 C 
ATOM     12  C   UNL A   1      46.022  24.860  26.043  1.00  0.00     0.020 A 
ATOM     13  O   UNL A   1      43.583  24.898  26.051  1.00  0.00    -0.474 OA
ATOM     14  C   UNL A   1      47.232  25.530  25.818  1.00  0.00     0.032 A 
ATOM     15  C   UNL A   1      44.794  25.527  25.875  1.00  0.00     0.146 A 
ATOM     16  C   UNL A   1      47.208  26.828  25.315  1.00  0.00     0.043 A 
ATOM     17  C   UNL A   1      44.795  26.840  25.389  1.00  0.00     0.085 A 
ATOM     18  Cl  UNL A   1      48.683  27.579  24.842  1.00  0.00    -0.084 Cl
ATOM     19  C   UNL A   1      45.999  27.481  25.086  1.00  0.00     0.045 A 
ATOM     20  Cl  UNL A   1      43.320  27.653  25.009  1.00  0.00    -0.080 Cl
BRANCH  11  21
ATOM     21  C   UNL A   1      43.433  23.216  27.860  1.00  0.00     0.429 C 
ATOM     22  F   UNL A   1      42.220  23.632  28.289  1.00  0.00    -0.167 F 
ATOM     23  F   UNL A   1      43.526  21.897  28.153  1.00  0.00    -0.167 F 
ATOM     24  F   UNL A   1      44.365  23.854  28.608  1.00  0.00    -0.167 F 
ENDBRANCH  11  21
ENDBRANCH   7   9
ENDBRANCH   4   5
ENDBRANCH   3   4
ENDBRANCH   2   3
ENDBRANCH   1   2
BRANCH   1  25
ATOM     25  C   UNL A   1      41.305  20.206  26.322  1.00  0.00     0.021 C 
BRANCH  25  26
ATOM     26  C   UNL A   1      40.488  21.331  26.950  1.00  0.00     0.116 C 
BRANCH  26  27
ATOM     27  N   UNL A   1      39.293  21.654  26.190  1.00  0.00    -0.352 N 
ATOM     28  C   UNL A   1      38.583  22.827  26.100  1.00  0.00     0.251 C 
ATOM     29  H   UNL A   1      38.932  20.912  25.653  1.00  0.00     0.163 HD
ATOM     30  O   UNL A   1      37.509  22.840  25.508  1.00  0.00    -0.269 OA
BRANCH  28  31
ATOM     31  C   UNL A   1      39.084  24.073  26.726  1.00  0.00     0.039 A 
ATOM     32  C   UNL A   1      39.877  24.933  25.959  1.00  0.00     0.014 A 
ATOM     33  C   UNL A   1      38.822  24.382  28.063  1.00  0.00     0.014 A 
ATOM     34  C   UNL A   1      40.356  26.122  26.513  1.00  0.00     0.010 A 
ATOM     35  C   UNL A   1      39.232  25.606  28.590  1.00  0.00     0.010 A 
ATOM     36  C   UNL A   1      40.011  26.486  27.824  1.00  0.00    -0.014 A 
BRANCH  36  37
ATOM     37  C   UNL A   1      40.467  27.775  28.408  1.00  0.00     0.031 A 
ATOM     38  C   UNL A   1      41.905  27.963  28.812  1.00  0.00     0.074 A 
ATOM     39  C   UNL A   1      39.578  28.767  28.616  1.00  0.00     0.049 A 
ATOM     40  N   UNL A   1      42.477  28.996  29.378  1.00  0.00    -0.248 NA
ATOM     41  C   UNL A   1      42.818  26.833  28.567  1.00  0.00     0.031 C 
ATOM     42  C   UNL A   1      38.148  28.704  28.304  1.00  0.00     0.029 A 
ATOM     43  N   UNL A   1      39.745  30.023  29.146  1.00  0.00    -0.354 N 
ATOM     44  C   UNL A   1      43.807  28.639  29.562  1.00  0.00     0.074 A 
ATOM     45  C   UNL A   1      43.945  27.275  29.105  1.00  0.00     0.031 C 
ATOM     46  C   UNL A   1      37.575  29.875  28.623  1.00  0.00     0.029 A 
ATOM     47  C   UNL A   1      38.585  30.756  29.203  1.00  0.00     0.049 A 
ATOM     48  H   UNL A   1      40.614  30.366  29.455  1.00  0.00     0.167 HD
ATOM     49  C   UNL A   1      44.829  29.385  30.047  1.00  0.00     0.031 A 
ATOM     50  C   UNL A   1      38.352  31.994  29.680  1.00  0.00     0.031 A 
ATOM     51  C   UNL A   1      44.694  30.743  30.503  1.00  0.00     0.049 A 
ATOM     52  C   UNL A   1      39.498  32.792  30.242  1.00  0.00     0.074 A 
ATOM     53  C   UNL A   1      45.678  31.594  30.979  1.00  0.00     0.029 A 
ATOM     54  N   UNL A   1      43.501  31.448  30.543  1.00  0.00    -0.354 N 
ATOM     55  N   UNL A   1      40.761  32.458  30.354  1.00  0.00    -0.248 NA
ATOM     56  C   UNL A   1      39.187  34.142  30.731  1.00  0.00     0.031 C 
ATOM     57  C   UNL A   1      45.070  32.795  31.356  1.00  0.00     0.029 A 
ATOM     58  C   UNL A   1      43.721  32.716  31.055  1.00  0.00     0.049 A 
ATOM     59  H   UNL A   1      42.629  31.099  30.250  1.00  0.00     0.167 HD
ATOM     60  C   UNL A   1      41.399  33.566  30.898  1.00  0.00     0.074 A 
ATOM     61  C   UNL A   1      40.388  34.587  31.073  1.00  0.00     0.031 C 
ATOM     62  C   UNL A   1      42.704  33.723  31.224  1.00  0.00     0.031 A 
BRANCH  49  63
ATOM     63  C   UNL A   1      46.188  28.742  30.110  1.00  0.00    -0.014 A 
ATOM     64  C   UNL A   1      46.642  28.118  31.284  1.00  0.00     0.009 A 
ATOM     65  C   UNL A   1      47.009  28.720  28.972  1.00  0.00     0.009 A 
ATOM     66  C   UNL A   1      47.903  27.519  31.326  1.00  0.00     0.001 A 
ATOM     67  C   UNL A   1      48.256  28.094  29.007  1.00  0.00     0.001 A 
ATOM     68  C   UNL A   1      48.706  27.502  30.187  1.00  0.00     0.000 A 
ENDBRANCH  49  63
BRANCH  50  69
ATOM     69  C   UNL A   1      36.977  32.561  29.651  1.00  0.00    -0.014 A 
ATOM     70  C   UNL A   1      36.548  33.352  28.575  1.00  0.00     0.009 A 
ATOM     71  C   UNL A   1      36.090  32.327  30.715  1.00  0.00     0.009 A 
ATOM     72  C   UNL A   1      35.274  33.926  28.580  1.00  0.00     0.001 A 
ATOM     73  C   UNL A   1      34.806  32.874  30.701  1.00  0.00     0.001 A 
ATOM     74  C   UNL A   1      34.402  33.683  29.640  1.00  0.00     0.000 A 
ENDBRANCH  50  69
BRANCH  62  75
ATOM     75  C   UNL A   1      43.123  35.061  31.766  1.00  0.00    -0.014 A 
ATOM     76  C   UNL A   1      43.033  35.357  33.135  1.00  0.00     0.009 A 
ATOM     77  C   UNL A   1      43.654  36.026  30.895  1.00  0.00     0.009 A 
ATOM     78  C   UNL A   1      43.433  36.607  33.615  1.00  0.00     0.001 A 
ATOM     79  C   UNL A   1      44.084  37.261  31.381  1.00  0.00     0.001 A 
ATOM     80  C   UNL A   1      43.963  37.554  32.739  1.00  0.00     0.000 A 
ENDBRANCH  62  75
ENDBRANCH  36  37
ENDBRANCH  28  31
ENDBRANCH  26  27
ENDBRANCH  25  26
ENDBRANCH   1  25
TORSDOF 14
ENDMDL
MODEL 3
REMARK VINA RESULT:     -11.5      3.479      8.386
REMARK SMILES O=C(NCCCCCCNC(=O)c1ccc(-c2c3nc(c(-c4ccccc4)c4ccc([nH]4)c(-c4ccccc4)c4nc(c(-c5ccccc5)c5ccc2[nH]5)C=C4)C=C3)cc1)C1=Cc2cc(Cl)cc(Cl)c2O[C@@H]1C(F)(F)F
REMARK SMILES IDX 7 1 6 2 5 3 4 4 3 5 1 6 2 7 61 9 62 10 72 11 63 12 71 13
REMARK SMILES IDX 64 14 70 15 65 16 68 17 66 18 67 19 69 20 73 21 74 22 75 23
REMARK SMILES IDX 76 24 8 25 9 26 10 27 11 28 12 30 13 31 14 32 60 33 15 34
REMARK SMILES IDX 59 35 16 36 17 37 18 38 53 39 19 40 58 41 52 42 54 43 20 44
REMARK SMILES IDX 57 45 51 46 50 47 21 49 43 50 28 51 42 52 29 53 32 54 41 55
REMARK SMILES IDX 55 56 30 57 31 58 40 60 56 61 33 62 22 63 23 64 27 65 24 66
REMARK SMILES IDX 26 67 25 68 44 69 45 70 49 71 46 72 48 73 47 74 34 75 35 76
REMARK SMILES IDX 39 77 36 78 38 79 37 80
REMARK H PARENT 3 8 10 29 54 48 32 59
REMARK Flexibility Score: inf
ROOT
ATOM      1  C   UNL A   1      31.522  29.745  25.342  1.00  0.00     0.002 C 
ENDROOT
BRANCH   1   2
ATOM      2  C   UNL A   1      30.693  29.454  24.084  1.00  0.00     0.002 C 
BRANCH   2   3
ATOM      3  C   UNL A   1      31.440  28.865  22.889  1.00  0.00     0.021 C 
BRANCH   3   4
ATOM      4  C   UNL A   1      30.941  27.520  22.375  1.00  0.00     0.116 C 
BRANCH   4   5
ATOM      5  N   UNL A   1      31.958  26.620  21.871  1.00  0.00    -0.352 N 
ATOM      6  O   UNL A   1      33.224  24.772  21.753  1.00  0.00    -0.270 OA
ATOM      7  C   UNL A   1      32.463  25.472  22.420  1.00  0.00     0.251 C 
ATOM      8  H   UNL A   1      32.344  26.870  21.000  1.00  0.00     0.163 HD
BRANCH   7   9
ATOM      9  C   UNL A   1      32.062  24.975  23.772  1.00  0.00     0.067 C 
ATOM     10  C   UNL A   1      31.608  23.729  23.996  1.00  0.00     0.025 C 
ATOM     11  C   UNL A   1      32.817  25.668  24.886  1.00  0.00     0.314 C 
ATOM     12  C   UNL A   1      32.663  22.891  24.634  1.00  0.00     0.020 A 
ATOM     13  O   UNL A   1      33.937  24.853  25.327  1.00  0.00    -0.474 OA
ATOM     14  C   UNL A   1      32.607  21.505  24.437  1.00  0.00     0.032 A 
ATOM     15  C   UNL A   1      33.827  23.493  25.151  1.00  0.00     0.146 A 
ATOM     16  C   UNL A   1      33.751  20.740  24.649  1.00  0.00     0.043 A 
ATOM     17  C   UNL A   1      34.958  22.700  25.377  1.00  0.00     0.085 A 
ATOM     18  Cl  UNL A   1      33.747  19.075  24.214  1.00  0.00    -0.084 Cl
ATOM     19  C   UNL A   1      34.928  21.330  25.105  1.00  0.00     0.045 A 
ATOM     20  Cl  UNL A   1      36.460  23.403  25.857  1.00  0.00    -0.080 Cl
BRANCH  11  21
ATOM     21  C   UNL A   1      31.913  26.069  26.064  1.00  0.00     0.429 C 
ATOM     22  F   UNL A   1      31.674  25.020  26.884  1.00  0.00    -0.167 F 
ATOM     23  F   UNL A   1      32.478  27.041  26.819  1.00  0.00    -0.167 F 
ATOM     24  F   UNL A   1      30.710  26.538  25.652  1.00  0.00    -0.167 F 
ENDBRANCH  11  21
ENDBRANCH   7   9
ENDBRANCH   4   5
ENDBRANCH   3   4
ENDBRANCH   2   3
ENDBRANCH   1   2
BRANCH   1  25
ATOM     25  C   UNL A   1      31.271  31.083  26.043  1.00  0.00     0.021 C 
BRANCH  25  26
ATOM     26  C   UNL A   1      32.415  31.624  26.897  1.00  0.00     0.116 C 
BRANCH  26  27
ATOM     27  N   UNL A   1      32.211  33.001  27.309  1.00  0.00    -0.352 N 
ATOM     28  C   UNL A   1      32.969  33.812  28.118  1.00  0.00     0.251 C 
ATOM     29  H   UNL A   1      31.396  33.423  26.950  1.00  0.00     0.163 HD
ATOM     30  O   UNL A   1      32.533  34.908  28.456  1.00  0.00    -0.269 OA
BRANCH  28  31
ATOM     31  C   UNL A   1      34.298  33.375  28.606  1.00  0.00     0.039 A 
ATOM     32  C   UNL A   1      34.369  32.683  29.820  1.00  0.00     0.014 A 
ATOM     33  C   UNL A   1      35.473  33.675  27.911  1.00  0.00     0.014 A 
ATOM     34  C   UNL A   1      35.604  32.246  30.303  1.00  0.00     0.010 A 
ATOM     35  C   UNL A   1      36.694  33.169  28.353  1.00  0.00     0.010 A 
ATOM     36  C   UNL A   1      36.776  32.456  29.559  1.00  0.00    -0.014 A 
BRANCH  36  37
ATOM     37  C   UNL A   1      38.089  31.947  30.034  1.00  0.00     0.031 A 
ATOM     38  C   UNL A   1      38.619  30.627  29.540  1.00  0.00     0.074 A 
ATOM     39  C   UNL A   1      38.790  32.652  30.945  1.00  0.00     0.049 A 
ATOM     40  N   UNL A   1      39.718  30.000  29.875  1.00  0.00    -0.248 NA
ATOM     41  C   UNL A   1      37.794  29.906  28.556  1.00  0.00     0.031 C 
ATOM     42  C   UNL A   1      38.376  33.928  31.532  1.00  0.00     0.029 A 
ATOM     43  N   UNL A   1      40.000  32.391  31.541  1.00  0.00    -0.354 N 
ATOM     44  C   UNL A   1      39.712  28.813  29.153  1.00  0.00     0.074 A 
ATOM     45  C   UNL A   1      38.474  28.779  28.407  1.00  0.00     0.031 C 
ATOM     46  C   UNL A   1      39.325  34.350  32.383  1.00  0.00     0.029 A 
ATOM     47  C   UNL A   1      40.393  33.356  32.436  1.00  0.00     0.049 A 
ATOM     48  H   UNL A   1      40.535  31.589  31.345  1.00  0.00     0.167 HD
ATOM     49  C   UNL A   1      40.662  27.849  29.093  1.00  0.00     0.031 A 
ATOM     50  C   UNL A   1      41.483  33.431  33.223  1.00  0.00     0.031 A 
ATOM     51  C   UNL A   1      41.895  27.880  29.834  1.00  0.00     0.049 A 
ATOM     52  C   UNL A   1      42.509  32.332  33.162  1.00  0.00     0.074 A 
ATOM     53  C   UNL A   1      42.936  26.967  29.815  1.00  0.00     0.029 A 
ATOM     54  N   UNL A   1      42.254  28.877  30.728  1.00  0.00    -0.354 N 
ATOM     55  N   UNL A   1      42.514  31.245  32.428  1.00  0.00    -0.248 NA
ATOM     56  C   UNL A   1      43.686  32.476  34.031  1.00  0.00     0.031 C 
ATOM     57  C   UNL A   1      43.900  27.384  30.738  1.00  0.00     0.029 A 
ATOM     58  C   UNL A   1      43.490  28.590  31.283  1.00  0.00     0.049 A 
ATOM     59  H   UNL A   1      41.711  29.670  30.938  1.00  0.00     0.167 HD
ATOM     60  C   UNL A   1      43.704  30.593  32.724  1.00  0.00     0.074 A 
ATOM     61  C   UNL A   1      44.404  31.416  33.688  1.00  0.00     0.031 C 
ATOM     62  C   UNL A   1      44.175  29.419  32.241  1.00  0.00     0.031 A 
BRANCH  49  63
ATOM     63  C   UNL A   1      40.399  26.671  28.194  1.00  0.00    -0.014 A 
ATOM     64  C   UNL A   1      39.637  25.577  28.636  1.00  0.00     0.009 A 
ATOM     65  C   UNL A   1      40.881  26.671  26.876  1.00  0.00     0.009 A 
ATOM     66  C   UNL A   1      39.395  24.493  27.789  1.00  0.00     0.001 A 
ATOM     67  C   UNL A   1      40.611  25.602  26.021  1.00  0.00     0.001 A 
ATOM     68  C   UNL A   1      39.876  24.509  26.481  1.00  0.00     0.000 A 
ENDBRANCH  49  63
BRANCH  50  69
ATOM     69  C   UNL A   1      41.666  34.588  34.141  1.00  0.00    -0.014 A 
ATOM     70  C   UNL A   1      41.152  34.556  35.446  1.00  0.00     0.009 A 
ATOM     71  C   UNL A   1      42.342  35.740  33.707  1.00  0.00     0.009 A 
ATOM     72  C   UNL A   1      41.280  35.667  36.285  1.00  0.00     0.001 A 
ATOM     73  C   UNL A   1      42.498  36.834  34.559  1.00  0.00     0.001 A 
ATOM     74  C   UNL A   1      41.956  36.803  35.843  1.00  0.00     0.000 A 
ENDBRANCH  50  69
BRANCH  62  75
ATOM     75  C   UNL A   1      45.530  28.971  32.717  1.00  0.00    -0.014 A 
ATOM     76  C   UNL A   1      46.705  29.369  32.060  1.00  0.00     0.009 A 
ATOM     77  C   UNL A   1      45.631  28.171  33.866  1.00  0.00     0.009 A 
ATOM     78  C   UNL A   1      47.951  28.944  32.524  1.00  0.00     0.001 A 
ATOM     79  C   UNL A   1      46.879  27.775  34.347  1.00  0.00     0.001 A 
ATOM     80  C   UNL A   1      48.038  28.152  33.669  1.00  0.00     0.000 A 
ENDBRANCH  62  75
ENDBRANCH  36  37
ENDBRANCH  28  31
ENDBRANCH  26  27
ENDBRANCH  25  26
ENDBRANCH   1  25
TORSDOF 14
ENDMDL
