MODEL 1
REMARK VINA RESULT:     -12.1      0.000      0.000
REMARK SMILES O=C(NCCCCCCNC(=O)[C@H]1CCCC[C@H]1C(=O)N1CCN(S(=O)(=O)c2ccc(F)cc2)CC1)c1ccc(-c2c3nc(c(-c4ccccc4)c4ccc([nH]4)c(-c4ccccc4)c4nc(c(-c5ccccc5)c5ccc2[nH]5)C=C4)C=C3)cc1
REMARK SMILES IDX 7 1 6 2 5 3 4 4 3 5 1 6 2 7 37 9 38 10 84 11 39 12 83 13
REMARK SMILES IDX 40 14 41 15 42 16 77 17 43 18 82 19 76 20 78 21 44 22 81 23
REMARK SMILES IDX 75 24 74 25 45 27 67 28 52 29 66 30 53 31 56 32 65 33 79 34
REMARK SMILES IDX 54 35 55 36 64 38 80 39 57 40 46 41 47 42 51 43 48 44 50 45
REMARK SMILES IDX 49 46 68 47 69 48 73 49 70 50 72 51 71 52 58 53 59 54 63 55
REMARK SMILES IDX 60 56 62 57 61 58 8 59 9 60 10 61 11 62 12 64 13 65 14 66
REMARK SMILES IDX 18 67 15 68 17 69 16 70 19 71 20 72 21 73 22 74 36 75 23 76
REMARK SMILES IDX 35 77 24 78 25 79 26 80 27 81 28 82 29 83 34 84 30 85 33 86
REMARK SMILES IDX 31 87 32 88
REMARK H PARENT 3 8 78 26 56 37 10 63
REMARK Flexibility Score: inf
ROOT
ATOM      1  C   UNL A   1      35.013  31.323  27.920  1.00  0.00     0.002 C 
ENDROOT
BRANCH   1   2
ATOM      2  C   UNL A   1      35.088  32.844  28.014  1.00  0.00     0.002 C 
BRANCH   2   3
ATOM      3  C   UNL A   1      33.746  33.526  28.239  1.00  0.00     0.021 C 
BRANCH   3   4
ATOM      4  C   UNL A   1      33.847  35.002  28.593  1.00  0.00     0.116 C 
BRANCH   4   5
ATOM      5  N   UNL A   1      33.085  35.343  29.785  1.00  0.00    -0.352 N 
ATOM      6  O   UNL A   1      32.495  35.141  31.966  1.00  0.00    -0.269 OA
ATOM      7  C   UNL A   1      33.306  34.924  31.075  1.00  0.00     0.251 C 
ATOM      8  H   UNL A   1      32.319  35.947  29.650  1.00  0.00     0.163 HD
BRANCH   7   9
ATOM      9  C   UNL A   1      34.547  34.180  31.363  1.00  0.00     0.039 A 
ATOM     10  C   UNL A   1      35.787  34.785  31.133  1.00  0.00     0.014 A 
ATOM     11  C   UNL A   1      34.469  32.862  31.816  1.00  0.00     0.014 A 
ATOM     12  C   UNL A   1      36.948  34.033  31.241  1.00  0.00     0.010 A 
ATOM     13  C   UNL A   1      35.644  32.133  32.008  1.00  0.00     0.010 A 
ATOM     14  C   UNL A   1      36.889  32.710  31.709  1.00  0.00    -0.014 A 
BRANCH  14  15
ATOM     15  C   UNL A   1      38.150  31.993  32.009  1.00  0.00     0.031 A 
ATOM     16  C   UNL A   1      38.659  30.891  31.128  1.00  0.00     0.074 A 
ATOM     17  C   UNL A   1      38.824  32.352  33.118  1.00  0.00     0.049 A 
ATOM     18  N   UNL A   1      39.721  30.143  31.287  1.00  0.00    -0.248 NA
ATOM     19  C   UNL A   1      37.881  30.581  29.918  1.00  0.00     0.031 C 
ATOM     20  C   UNL A   1      38.410  33.406  34.052  1.00  0.00     0.029 A 
ATOM     21  N   UNL A   1      39.992  31.878  33.652  1.00  0.00    -0.354 N 
ATOM     22  C   UNL A   1      39.727  29.256  30.219  1.00  0.00     0.074 A 
ATOM     23  C   UNL A   1      38.558  29.554  29.418  1.00  0.00     0.031 C 
ATOM     24  C   UNL A   1      39.322  33.514  35.027  1.00  0.00     0.029 A 
ATOM     25  C   UNL A   1      40.342  32.493  34.829  1.00  0.00     0.049 A 
ATOM     26  H   UNL A   1      40.528  31.166  33.234  1.00  0.00     0.167 HD
ATOM     27  C   UNL A   1      40.625  28.282  29.942  1.00  0.00     0.031 A 
ATOM     28  C   UNL A   1      41.349  32.241  35.682  1.00  0.00     0.031 A 
ATOM     29  C   UNL A   1      41.790  28.004  30.742  1.00  0.00     0.049 A 
ATOM     30  C   UNL A   1      42.300  31.127  35.367  1.00  0.00     0.074 A 
ATOM     31  C   UNL A   1      42.799  27.086  30.504  1.00  0.00     0.029 A 
ATOM     32  N   UNL A   1      42.092  28.627  31.943  1.00  0.00    -0.354 N 
ATOM     33  N   UNL A   1      42.327  30.341  34.318  1.00  0.00    -0.248 NA
ATOM     34  C   UNL A   1      43.350  30.857  36.356  1.00  0.00     0.031 C 
ATOM     35  C   UNL A   1      43.679  27.113  31.590  1.00  0.00     0.029 A 
ATOM     36  C   UNL A   1      43.246  28.081  32.480  1.00  0.00     0.049 A 
ATOM     37  H   UNL A   1      41.564  29.351  32.352  1.00  0.00     0.167 HD
ATOM     38  C   UNL A   1      43.399  29.485  34.520  1.00  0.00     0.074 A 
ATOM     39  C   UNL A   1      44.013  29.866  35.775  1.00  0.00     0.031 C 
ATOM     40  C   UNL A   1      43.830  28.466  33.737  1.00  0.00     0.031 A 
BRANCH  27  41
ATOM     41  C   UNL A   1      40.381  27.412  28.742  1.00  0.00    -0.014 A 
ATOM     42  C   UNL A   1      40.951  27.707  27.495  1.00  0.00     0.009 A 
ATOM     43  C   UNL A   1      39.642  26.226  28.888  1.00  0.00     0.009 A 
ATOM     44  C   UNL A   1      40.772  26.839  26.414  1.00  0.00     0.001 A 
ATOM     45  C   UNL A   1      39.483  25.350  27.812  1.00  0.00     0.001 A 
ATOM     46  C   UNL A   1      40.045  25.659  26.575  1.00  0.00     0.000 A 
ENDBRANCH  27  41
BRANCH  28  47
ATOM     47  C   UNL A   1      41.465  33.021  36.939  1.00  0.00    -0.014 A 
ATOM     48  C   UNL A   1      40.706  32.683  38.067  1.00  0.00     0.009 A 
ATOM     49  C   UNL A   1      42.352  34.108  37.016  1.00  0.00     0.009 A 
ATOM     50  C   UNL A   1      40.818  33.431  39.242  1.00  0.00     0.001 A 
ATOM     51  C   UNL A   1      42.486  34.833  38.200  1.00  0.00     0.001 A 
ATOM     52  C   UNL A   1      41.712  34.500  39.309  1.00  0.00     0.000 A 
ENDBRANCH  28  47
BRANCH  40  53
ATOM     53  C   UNL A   1      45.025  27.701  34.223  1.00  0.00    -0.014 A 
ATOM     54  C   UNL A   1      46.322  28.071  33.834  1.00  0.00     0.009 A 
ATOM     55  C   UNL A   1      44.855  26.620  35.100  1.00  0.00     0.009 A 
ATOM     56  C   UNL A   1      47.426  27.355  34.297  1.00  0.00     0.001 A 
ATOM     57  C   UNL A   1      45.964  25.922  35.582  1.00  0.00     0.001 A 
ATOM     58  C   UNL A   1      47.246  26.285  35.175  1.00  0.00     0.000 A 
ENDBRANCH  40  53
ENDBRANCH  14  15
ENDBRANCH   7   9
ENDBRANCH   4   5
ENDBRANCH   3   4
ENDBRANCH   2   3
ENDBRANCH   1   2
BRANCH   1  59
ATOM     59  C   UNL A   1      33.759  30.722  27.280  1.00  0.00     0.021 C 
BRANCH  59  60
ATOM     60  C   UNL A   1      33.843  29.227  26.983  1.00  0.00     0.116 C 
BRANCH  60  61
ATOM     61  N   UNL A   1      33.863  28.947  25.558  1.00  0.00    -0.356 N 
ATOM     62  C   UNL A   1      32.875  28.734  24.653  1.00  0.00     0.223 C 
ATOM     63  H   UNL A   1      34.769  28.905  25.174  1.00  0.00     0.163 HD
ATOM     64  O   UNL A   1      33.235  28.532  23.489  1.00  0.00    -0.275 OA
BRANCH  62  65
ATOM     65  C   UNL A   1      31.400  28.771  25.044  1.00  0.00     0.091 C 
ATOM     66  C   UNL A   1      30.674  29.703  24.037  1.00  0.00     0.014 C 
ATOM     67  C   UNL A   1      30.640  27.431  25.220  1.00  0.00     0.091 C 
ATOM     68  C   UNL A   1      30.178  28.996  22.775  1.00  0.00     0.001 C 
ATOM     69  C   UNL A   1      29.983  26.824  23.966  1.00  0.00     0.014 C 
ATOM     70  C   UNL A   1      29.245  27.852  23.132  1.00  0.00     0.001 C 
BRANCH  67  71
ATOM     71  C   UNL A   1      31.244  26.307  26.078  1.00  0.00     0.226 C 
ATOM     72  O   UNL A   1      31.545  26.544  27.251  1.00  0.00    -0.275 OA
ATOM     73  N   UNL A   1      31.300  25.015  25.564  1.00  0.00    -0.340 N 
ATOM     74  C   UNL A   1      31.387  23.894  26.509  1.00  0.00     0.136 C 
ATOM     75  C   UNL A   1      31.806  24.754  24.223  1.00  0.00     0.136 C 
ATOM     76  C   UNL A   1      31.022  22.530  25.875  1.00  0.00     0.124 C 
ATOM     77  C   UNL A   1      31.460  23.388  23.647  1.00  0.00     0.124 C 
ATOM     78  N   UNL A   1      31.765  22.278  24.582  1.00  0.00    -0.194 NA
BRANCH  78  79
ATOM     79  S   UNL A   1      33.377  21.784  24.834  1.00  0.00     0.243 S 
ATOM     80  O   UNL A   1      34.207  22.430  23.836  1.00  0.00    -0.207 OA
ATOM     81  O   UNL A   1      33.655  21.979  26.238  1.00  0.00    -0.207 OA
BRANCH  79  82
ATOM     82  C   UNL A   1      33.476  20.036  24.487  1.00  0.00     0.082 A 
ATOM     83  C   UNL A   1      32.528  19.457  23.632  1.00  0.00     0.025 A 
ATOM     84  C   UNL A   1      34.610  19.308  24.861  1.00  0.00     0.025 A 
ATOM     85  C   UNL A   1      32.693  18.154  23.165  1.00  0.00     0.040 A 
ATOM     86  C   UNL A   1      34.777  18.004  24.384  1.00  0.00     0.040 A 
ATOM     87  C   UNL A   1      33.822  17.441  23.540  1.00  0.00     0.123 A 
ATOM     88  F   UNL A   1      34.004  16.203  23.062  1.00  0.00    -0.207 F 
ENDBRANCH  79  82
ENDBRANCH  78  79
ENDBRANCH  67  71
ENDBRANCH  62  65
ENDBRANCH  60  61
ENDBRANCH  59  60
ENDBRANCH   1  59
TORSDOF 16
ENDMDL
MODEL 2
REMARK VINA RESULT:     -11.9      4.842      9.951
REMARK SMILES O=C(NCCCCCCNC(=O)[C@H]1CCCC[C@H]1C(=O)N1CCN(S(=O)(=O)c2ccc(F)cc2)CC1)c1ccc(-c2c3nc(c(-c4ccccc4)c4ccc([nH]4)c(-c4ccccc4)c4nc(c(-c5ccccc5)c5ccc2[nH]5)C=C4)C=C3)cc1
REMARK SMILES IDX 7 1 6 2 5 3 4 4 3 5 1 6 2 7 37 9 38 10 84 11 39 12 83 13
REMARK SMILES IDX 40 14 41 15 42 16 77 17 43 18 82 19 76 20 78 21 44 22 81 23
REMARK SMILES IDX 75 24 74 25 45 27 67 28 52 29 66 30 53 31 56 32 65 33 79 34
REMARK SMILES IDX 54 35 55 36 64 38 80 39 57 40 46 41 47 42 51 43 48 44 50 45
REMARK SMILES IDX 49 46 68 47 69 48 73 49 70 50 72 51 71 52 58 53 59 54 63 55
REMARK SMILES IDX 60 56 62 57 61 58 8 59 9 60 10 61 11 62 12 64 13 65 14 66
REMARK SMILES IDX 18 67 15 68 17 69 16 70 19 71 20 72 21 73 22 74 36 75 23 76
REMARK SMILES IDX 35 77 24 78 25 79 26 80 27 81 28 82 29 83 34 84 30 85 33 86
REMARK SMILES IDX 31 87 32 88
REMARK H PARENT 3 8 78 26 56 37 10 63
REMARK Flexibility Score: inf
ROOT
ATOM      1  C   UNL A   1      38.523  22.698  25.711  1.00  0.00     0.002 C 
ENDROOT
BRANCH   1   2
ATOM      2  C   UNL A   1      39.653  22.061  26.513  1.00  0.00     0.002 C 
BRANCH   2   3
ATOM      3  C   UNL A   1      39.862  20.580  26.234  1.00  0.00     0.021 C 
BRANCH   3   4
ATOM      4  C   UNL A   1      41.024  19.959  26.996  1.00  0.00     0.116 C 
BRANCH   4   5
ATOM      5  N   UNL A   1      42.077  19.479  26.113  1.00  0.00    -0.352 N 
ATOM      6  O   UNL A   1      43.812  19.725  24.671  1.00  0.00    -0.269 OA
ATOM      7  C   UNL A   1      43.087  20.208  25.531  1.00  0.00     0.251 C 
ATOM      8  H   UNL A   1      42.064  18.516  25.908  1.00  0.00     0.163 HD
BRANCH   7   9
ATOM      9  C   UNL A   1      43.268  21.609  25.957  1.00  0.00     0.039 A 
ATOM     10  C   UNL A   1      43.559  21.894  27.296  1.00  0.00     0.014 A 
ATOM     11  C   UNL A   1      43.100  22.637  25.028  1.00  0.00     0.014 A 
ATOM     12  C   UNL A   1      43.562  23.212  27.730  1.00  0.00     0.010 A 
ATOM     13  C   UNL A   1      43.191  23.964  25.451  1.00  0.00     0.010 A 
ATOM     14  C   UNL A   1      43.409  24.259  26.807  1.00  0.00    -0.014 A 
BRANCH  14  15
ATOM     15  C   UNL A   1      43.617  25.655  27.257  1.00  0.00     0.031 A 
ATOM     16  C   UNL A   1      44.987  26.259  27.343  1.00  0.00     0.074 A 
ATOM     17  C   UNL A   1      42.529  26.367  27.608  1.00  0.00     0.049 A 
ATOM     18  N   UNL A   1      45.329  27.451  27.762  1.00  0.00    -0.248 NA
ATOM     19  C   UNL A   1      46.120  25.426  26.912  1.00  0.00     0.031 C 
ATOM     20  C   UNL A   1      41.149  25.869  27.573  1.00  0.00     0.029 A 
ATOM     21  N   UNL A   1      42.406  27.653  28.062  1.00  0.00    -0.354 N 
ATOM     22  C   UNL A   1      46.714  27.504  27.674  1.00  0.00     0.074 A 
ATOM     23  C   UNL A   1      47.153  26.222  27.166  1.00  0.00     0.031 C 
ATOM     24  C   UNL A   1      40.319  26.846  27.961  1.00  0.00     0.029 A 
ATOM     25  C   UNL A   1      41.109  28.009  28.343  1.00  0.00     0.049 A 
ATOM     26  H   UNL A   1      43.170  28.261  28.176  1.00  0.00     0.167 HD
ATOM     27  C   UNL A   1      47.536  28.531  27.994  1.00  0.00     0.031 A 
ATOM     28  C   UNL A   1      40.608  29.131  28.887  1.00  0.00     0.031 A 
ATOM     29  C   UNL A   1      47.084  29.806  28.489  1.00  0.00     0.049 A 
ATOM     30  C   UNL A   1      41.551  30.230  29.271  1.00  0.00     0.074 A 
ATOM     31  C   UNL A   1      47.835  30.934  28.772  1.00  0.00     0.029 A 
ATOM     32  N   UNL A   1      45.767  30.116  28.789  1.00  0.00    -0.354 N 
ATOM     33  N   UNL A   1      42.852  30.287  29.119  1.00  0.00    -0.248 NA
ATOM     34  C   UNL A   1      40.961  31.412  29.910  1.00  0.00     0.031 C 
ATOM     35  C   UNL A   1      46.980  31.906  29.301  1.00  0.00     0.029 A 
ATOM     36  C   UNL A   1      45.691  31.401  29.300  1.00  0.00     0.049 A 
ATOM     37  H   UNL A   1      45.000  29.511  28.660  1.00  0.00     0.167 HD
ATOM     38  C   UNL A   1      43.236  31.513  29.641  1.00  0.00     0.074 A 
ATOM     39  C   UNL A   1      42.029  32.178  30.086  1.00  0.00     0.031 C 
ATOM     40  C   UNL A   1      44.481  32.037  29.750  1.00  0.00     0.031 A 
BRANCH  27  41
ATOM     41  C   UNL A   1      49.018  28.322  27.857  1.00  0.00    -0.014 A 
ATOM     42  C   UNL A   1      49.783  27.795  28.908  1.00  0.00     0.009 A 
ATOM     43  C   UNL A   1      49.639  28.572  26.623  1.00  0.00     0.009 A 
ATOM     44  C   UNL A   1      51.145  27.537  28.728  1.00  0.00     0.001 A 
ATOM     45  C   UNL A   1      50.995  28.294  26.440  1.00  0.00     0.001 A 
ATOM     46  C   UNL A   1      51.748  27.780  27.493  1.00  0.00     0.000 A 
ENDBRANCH  27  41
BRANCH  28  47
ATOM     47  C   UNL A   1      39.153  29.236  29.153  1.00  0.00    -0.014 A 
ATOM     48  C   UNL A   1      38.628  28.929  30.415  1.00  0.00     0.009 A 
ATOM     49  C   UNL A   1      38.278  29.660  28.137  1.00  0.00     0.009 A 
ATOM     50  C   UNL A   1      37.255  29.024  30.650  1.00  0.00     0.001 A 
ATOM     51  C   UNL A   1      36.911  29.786  28.384  1.00  0.00     0.001 A 
ATOM     52  C   UNL A   1      36.399  29.458  29.637  1.00  0.00     0.000 A 
ENDBRANCH  28  47
BRANCH  40  53
ATOM     53  C   UNL A   1      44.589  33.397  30.373  1.00  0.00    -0.014 A 
ATOM     54  C   UNL A   1      44.457  34.556  29.593  1.00  0.00     0.009 A 
ATOM     55  C   UNL A   1      44.794  33.520  31.755  1.00  0.00     0.009 A 
ATOM     56  C   UNL A   1      44.554  35.817  30.185  1.00  0.00     0.001 A 
ATOM     57  C   UNL A   1      44.864  34.781  32.347  1.00  0.00     0.001 A 
ATOM     58  C   UNL A   1      44.751  35.927  31.562  1.00  0.00     0.000 A 
ENDBRANCH  40  53
ENDBRANCH  14  15
ENDBRANCH   7   9
ENDBRANCH   4   5
ENDBRANCH   3   4
ENDBRANCH   2   3
ENDBRANCH   1   2
BRANCH   1  59
ATOM     59  C   UNL A   1      37.830  23.919  26.322  1.00  0.00     0.021 C 
BRANCH  59  60
ATOM     60  C   UNL A   1      36.328  24.002  26.063  1.00  0.00     0.116 C 
BRANCH  60  61
ATOM     61  N   UNL A   1      35.579  23.030  26.840  1.00  0.00    -0.356 N 
ATOM     62  C   UNL A   1      34.834  21.953  26.486  1.00  0.00     0.223 C 
ATOM     63  H   UNL A   1      35.621  23.182  27.812  1.00  0.00     0.163 HD
ATOM     64  O   UNL A   1      34.327  21.312  27.412  1.00  0.00    -0.275 OA
BRANCH  62  65
ATOM     65  C   UNL A   1      34.655  21.539  25.028  1.00  0.00     0.091 C 
ATOM     66  C   UNL A   1      35.710  20.443  24.723  1.00  0.00     0.014 C 
ATOM     67  C   UNL A   1      33.246  21.116  24.540  1.00  0.00     0.091 C 
ATOM     68  C   UNL A   1      35.245  19.020  25.039  1.00  0.00     0.001 C 
ATOM     69  C   UNL A   1      32.862  19.633  24.695  1.00  0.00     0.014 C 
ATOM     70  C   UNL A   1      33.973  18.690  24.278  1.00  0.00     0.001 C 
BRANCH  67  71
ATOM     71  C   UNL A   1      32.024  21.997  24.849  1.00  0.00     0.226 C 
ATOM     72  O   UNL A   1      31.048  21.491  25.410  1.00  0.00    -0.275 OA
ATOM     73  N   UNL A   1      32.101  23.369  24.628  1.00  0.00    -0.340 N 
ATOM     74  C   UNL A   1      31.181  24.245  25.366  1.00  0.00     0.136 C 
ATOM     75  C   UNL A   1      32.623  23.908  23.380  1.00  0.00     0.136 C 
ATOM     76  C   UNL A   1      31.622  25.728  25.373  1.00  0.00     0.124 C 
ATOM     77  C   UNL A   1      33.011  25.380  23.412  1.00  0.00     0.124 C 
ATOM     78  N   UNL A   1      31.947  26.238  23.987  1.00  0.00    -0.194 NA
BRANCH  78  79
ATOM     79  S   UNL A   1      30.554  26.607  23.076  1.00  0.00     0.243 S 
ATOM     80  O   UNL A   1      30.936  26.682  21.679  1.00  0.00    -0.207 OA
ATOM     81  O   UNL A   1      29.530  25.678  23.494  1.00  0.00    -0.207 OA
BRANCH  79  82
ATOM     82  C   UNL A   1      30.025  28.252  23.521  1.00  0.00     0.082 A 
ATOM     83  C   UNL A   1      30.887  29.064  24.274  1.00  0.00     0.025 A 
ATOM     84  C   UNL A   1      28.886  28.808  22.932  1.00  0.00     0.025 A 
ATOM     85  C   UNL A   1      30.609  30.417  24.457  1.00  0.00     0.040 A 
ATOM     86  C   UNL A   1      28.615  30.170  23.110  1.00  0.00     0.040 A 
ATOM     87  C   UNL A   1      29.478  30.960  23.866  1.00  0.00     0.123 A 
ATOM     88  F   UNL A   1      29.229  32.268  24.008  1.00  0.00    -0.207 F 
ENDBRANCH  79  82
ENDBRANCH  78  79
ENDBRANCH  67  71
ENDBRANCH  62  65
ENDBRANCH  60  61
ENDBRANCH  59  60
ENDBRANCH   1  59
TORSDOF 16
ENDMDL
MODEL 3
REMARK VINA RESULT:     -11.9      4.474      9.655
REMARK SMILES O=C(NCCCCCCNC(=O)[C@H]1CCCC[C@H]1C(=O)N1CCN(S(=O)(=O)c2ccc(F)cc2)CC1)c1ccc(-c2c3nc(c(-c4ccccc4)c4ccc([nH]4)c(-c4ccccc4)c4nc(c(-c5ccccc5)c5ccc2[nH]5)C=C4)C=C3)cc1
REMARK SMILES IDX 7 1 6 2 5 3 4 4 3 5 1 6 2 7 37 9 38 10 84 11 39 12 83 13
REMARK SMILES IDX 40 14 41 15 42 16 77 17 43 18 82 19 76 20 78 21 44 22 81 23
REMARK SMILES IDX 75 24 74 25 45 27 67 28 52 29 66 30 53 31 56 32 65 33 79 34
REMARK SMILES IDX 54 35 55 36 64 38 80 39 57 40 46 41 47 42 51 43 48 44 50 45
REMARK SMILES IDX 49 46 68 47 69 48 73 49 70 50 72 51 71 52 58 53 59 54 63 55
REMARK SMILES IDX 60 56 62 57 61 58 8 59 9 60 10 61 11 62 12 64 13 65 14 66
REMARK SMILES IDX 18 67 15 68 17 69 16 70 19 71 20 72 21 73 22 74 36 75 23 76
REMARK SMILES IDX 35 77 24 78 25 79 26 80 27 81 28 82 29 83 34 84 30 85 33 86
REMARK SMILES IDX 31 87 32 88
REMARK H PARENT 3 8 78 26 56 37 10 63
REMARK Flexibility Score: inf
ROOT
ATOM      1  C   UNL A   1      39.545  23.712  26.481  1.00  0.00     0.002 C 
ENDROOT
BRANCH   1   2
ATOM      2  C   UNL A   1      39.972  22.482  27.276  1.00  0.00     0.002 C 
BRANCH   2   3
ATOM      3  C   UNL A   1      40.341  21.279  26.419  1.00  0.00     0.021 C 
BRANCH   3   4
ATOM      4  C   UNL A   1      41.450  20.415  27.002  1.00  0.00     0.116 C 
BRANCH   4   5
ATOM      5  N   UNL A   1      42.525  20.172  26.051  1.00  0.00    -0.352 N 
ATOM      6  O   UNL A   1      44.184  20.792  24.633  1.00  0.00    -0.269 OA
ATOM      7  C   UNL A   1      43.434  21.078  25.558  1.00  0.00     0.251 C 
ATOM      8  H   UNL A   1      42.612  19.248  25.723  1.00  0.00     0.163 HD
BRANCH   7   9
ATOM      9  C   UNL A   1      43.473  22.424  26.160  1.00  0.00     0.039 A 
ATOM     10  C   UNL A   1      43.684  22.561  27.536  1.00  0.00     0.014 A 
ATOM     11  C   UNL A   1      43.251  23.543  25.356  1.00  0.00     0.014 A 
ATOM     12  C   UNL A   1      43.552  23.810  28.128  1.00  0.00     0.010 A 
ATOM     13  C   UNL A   1      43.206  24.809  25.943  1.00  0.00     0.010 A 
ATOM     14  C   UNL A   1      43.343  24.948  27.333  1.00  0.00    -0.014 A 
BRANCH  14  15
ATOM     15  C   UNL A   1      43.408  26.289  27.960  1.00  0.00     0.031 A 
ATOM     16  C   UNL A   1      42.170  27.083  28.252  1.00  0.00     0.074 A 
ATOM     17  C   UNL A   1      44.626  26.786  28.247  1.00  0.00     0.049 A 
ATOM     18  N   UNL A   1      42.072  28.287  28.754  1.00  0.00    -0.248 NA
ATOM     19  C   UNL A   1      40.876  26.456  27.937  1.00  0.00     0.031 C 
ATOM     20  C   UNL A   1      45.898  26.099  27.994  1.00  0.00     0.029 A 
ATOM     21  N   UNL A   1      45.000  27.977  28.811  1.00  0.00    -0.354 N 
ATOM     22  C   UNL A   1      40.714  28.576  28.791  1.00  0.00     0.074 A 
ATOM     23  C   UNL A   1      40.023  27.423  28.255  1.00  0.00     0.031 C 
ATOM     24  C   UNL A   1      46.907  26.868  28.424  1.00  0.00     0.029 A 
ATOM     25  C   UNL A   1      46.362  28.127  28.913  1.00  0.00     0.049 A 
ATOM     26  H   UNL A   1      44.357  28.658  29.112  1.00  0.00     0.167 HD
ATOM     27  C   UNL A   1      40.108  29.705  29.229  1.00  0.00     0.031 A 
ATOM     28  C   UNL A   1      47.098  29.177  29.315  1.00  0.00     0.031 A 
ATOM     29  C   UNL A   1      40.808  30.842  29.771  1.00  0.00     0.049 A 
ATOM     30  C   UNL A   1      46.396  30.426  29.752  1.00  0.00     0.074 A 
ATOM     31  C   UNL A   1      40.278  32.002  30.309  1.00  0.00     0.029 A 
ATOM     32  N   UNL A   1      42.187  30.968  29.827  1.00  0.00    -0.354 N 
ATOM     33  N   UNL A   1      45.109  30.657  29.841  1.00  0.00    -0.248 NA
ATOM     34  C   UNL A   1      47.245  31.561  30.131  1.00  0.00     0.031 C 
ATOM     35  C   UNL A   1      41.337  32.855  30.636  1.00  0.00     0.029 A 
ATOM     36  C   UNL A   1      42.525  32.206  30.348  1.00  0.00     0.049 A 
ATOM     37  H   UNL A   1      42.830  30.279  29.540  1.00  0.00     0.167 HD
ATOM     38  C   UNL A   1      44.993  31.963  30.291  1.00  0.00     0.074 A 
ATOM     39  C   UNL A   1      46.339  32.464  30.483  1.00  0.00     0.031 C 
ATOM     40  C   UNL A   1      43.871  32.688  30.516  1.00  0.00     0.031 A 
BRANCH  27  41
ATOM     41  C   UNL A   1      38.612  29.797  29.116  1.00  0.00    -0.014 A 
ATOM     42  C   UNL A   1      37.986  30.078  27.893  1.00  0.00     0.009 A 
ATOM     43  C   UNL A   1      37.817  29.506  30.236  1.00  0.00     0.009 A 
ATOM     44  C   UNL A   1      36.592  30.079  27.798  1.00  0.00     0.001 A 
ATOM     45  C   UNL A   1      36.424  29.488  30.133  1.00  0.00     0.001 A 
ATOM     46  C   UNL A   1      35.813  29.778  28.916  1.00  0.00     0.000 A 
ENDBRANCH  27  41
BRANCH  28  47
ATOM     47  C   UNL A   1      48.579  29.102  29.262  1.00  0.00    -0.014 A 
ATOM     48  C   UNL A   1      49.276  29.470  28.104  1.00  0.00     0.009 A 
ATOM     49  C   UNL A   1      49.305  28.672  30.386  1.00  0.00     0.009 A 
ATOM     50  C   UNL A   1      50.670  29.388  28.064  1.00  0.00     0.001 A 
ATOM     51  C   UNL A   1      50.699  28.622  30.355  1.00  0.00     0.001 A 
ATOM     52  C   UNL A   1      51.379  28.971  29.191  1.00  0.00     0.000 A 
ENDBRANCH  28  47
BRANCH  40  53
ATOM     53  C   UNL A   1      44.060  34.095  30.997  1.00  0.00    -0.014 A 
ATOM     54  C   UNL A   1      44.064  35.169  30.094  1.00  0.00     0.009 A 
ATOM     55  C   UNL A   1      44.206  34.353  32.369  1.00  0.00     0.009 A 
ATOM     56  C   UNL A   1      44.236  36.475  30.554  1.00  0.00     0.001 A 
ATOM     57  C   UNL A   1      44.351  35.662  32.828  1.00  0.00     0.001 A 
ATOM     58  C   UNL A   1      44.373  36.721  31.921  1.00  0.00     0.000 A 
ENDBRANCH  40  53
ENDBRANCH  14  15
ENDBRANCH   7   9
ENDBRANCH   4   5
ENDBRANCH   3   4
ENDBRANCH   2   3
ENDBRANCH   1   2
BRANCH   1  59
ATOM     59  C   UNL A   1      38.060  24.082  26.505  1.00  0.00     0.021 C 
BRANCH  59  60
ATOM     60  C   UNL A   1      37.158  23.176  25.670  1.00  0.00     0.116 C 
BRANCH  60  61
ATOM     61  N   UNL A   1      35.901  22.884  26.335  1.00  0.00    -0.356 N 
ATOM     62  C   UNL A   1      34.831  22.127  25.980  1.00  0.00     0.223 C 
ATOM     63  H   UNL A   1      35.806  23.318  27.213  1.00  0.00     0.163 HD
ATOM     64  O   UNL A   1      33.906  22.075  26.795  1.00  0.00    -0.275 OA
BRANCH  62  65
ATOM     65  C   UNL A   1      34.787  21.360  24.661  1.00  0.00     0.091 C 
ATOM     66  C   UNL A   1      34.333  19.911  24.980  1.00  0.00     0.014 C 
ATOM     67  C   UNL A   1      33.981  21.955  23.478  1.00  0.00     0.091 C 
ATOM     68  C   UNL A   1      32.816  19.716  24.984  1.00  0.00     0.001 C 
ATOM     69  C   UNL A   1      32.486  21.595  23.391  1.00  0.00     0.014 C 
ATOM     70  C   UNL A   1      32.219  20.125  23.649  1.00  0.00     0.001 C 
BRANCH  67  71
ATOM     71  C   UNL A   1      34.179  23.425  23.070  1.00  0.00     0.226 C 
ATOM     72  O   UNL A   1      35.300  23.803  22.718  1.00  0.00    -0.275 OA
ATOM     73  N   UNL A   1      33.068  24.255  22.961  1.00  0.00    -0.340 N 
ATOM     74  C   UNL A   1      33.173  25.452  22.115  1.00  0.00     0.136 C 
ATOM     75  C   UNL A   1      32.055  24.308  24.007  1.00  0.00     0.136 C 
ATOM     76  C   UNL A   1      31.800  26.053  21.732  1.00  0.00     0.124 C 
ATOM     77  C   UNL A   1      30.730  24.941  23.606  1.00  0.00     0.124 C 
ATOM     78  N   UNL A   1      30.903  26.251  22.932  1.00  0.00    -0.194 NA
BRANCH  78  79
ATOM     79  S   UNL A   1      31.311  27.636  23.839  1.00  0.00     0.243 S 
ATOM     80  O   UNL A   1      31.158  27.315  25.244  1.00  0.00    -0.207 OA
ATOM     81  O   UNL A   1      32.586  28.096  23.340  1.00  0.00    -0.207 OA
BRANCH  79  82
ATOM     82  C   UNL A   1      30.094  28.896  23.495  1.00  0.00     0.082 A 
ATOM     83  C   UNL A   1      28.839  28.513  22.999  1.00  0.00     0.025 A 
ATOM     84  C   UNL A   1      30.295  30.207  23.937  1.00  0.00     0.025 A 
ATOM     85  C   UNL A   1      27.794  29.432  22.923  1.00  0.00     0.040 A 
ATOM     86  C   UNL A   1      29.241  31.125  23.867  1.00  0.00     0.040 A 
ATOM     87  C   UNL A   1      28.003  30.730  23.366  1.00  0.00     0.123 A 
ATOM     88  F   UNL A   1      26.990  31.605  23.329  1.00  0.00    -0.207 F 
ENDBRANCH  79  82
ENDBRANCH  78  79
ENDBRANCH  67  71
ENDBRANCH  62  65
ENDBRANCH  60  61
ENDBRANCH  59  60
ENDBRANCH   1  59
TORSDOF 16
ENDMDL
