MODEL 1
REMARK VINA RESULT:     -11.9      0.000      0.000
REMARK SMILES CCCc1cc(S(F)(F)(F)(F)F)cc2c1O[C@@H](C(F)(F)F)C(C(=O)NCCCCCCNC(=O)c1ccc(-c3c4nc(c(-c5ccccc5)c5ccc([nH]5)c(-c5ccccc5)c5nc(c(-c6ccccc6)c6ccc3[nH]6)C=C5)C=C4)cc1)=C2
REMARK SMILES IDX 28 1 27 2 26 3 25 4 23 5 24 6 22 8 4 9 5 10 15 11 6 12 14 13
REMARK SMILES IDX 16 14 13 15 83 16 17 17 3 18 2 19 1 20 7 21 8 22 9 23 10 24
REMARK SMILES IDX 11 25 12 26 18 27 19 28 20 29 21 30 29 31 30 32 31 33 32 34
REMARK SMILES IDX 33 35 34 37 35 38 36 39 82 40 37 41 81 42 38 43 39 44 40 45
REMARK SMILES IDX 75 46 41 47 80 48 74 49 76 50 42 51 79 52 73 53 72 54 43 56
REMARK SMILES IDX 65 57 50 58 64 59 51 60 54 61 63 62 77 63 52 64 53 65 62 67
REMARK SMILES IDX 78 68 55 69 44 70 45 71 49 72 46 73 48 74 47 75 66 76 67 77
REMARK SMILES IDX 71 78 68 79 70 80 69 81 56 82 57 83 61 84 58 85 60 86 59 87
REMARK H PARENT 25 7 32 36 76 55 54 66
REMARK Flexibility Score: inf
ROOT
ATOM      1  C   UNL A   1      37.313  22.248  24.811  1.00  0.00     0.002 C 
ENDROOT
BRANCH   1   2
ATOM      2  C   UNL A   1      36.761  22.420  23.406  1.00  0.00     0.021 C 
BRANCH   2   3
ATOM      3  C   UNL A   1      35.378  23.046  23.478  1.00  0.00     0.116 C 
BRANCH   3   4
ATOM      4  N   UNL A   1      34.359  21.987  23.473  1.00  0.00    -0.352 N 
ATOM      5  C   UNL A   1      32.984  22.288  23.896  1.00  0.00     0.251 C 
ATOM      6  O   UNL A   1      32.103  21.371  23.893  1.00  0.00    -0.270 OA
ATOM      7  H   UNL A   1      34.598  21.075  23.188  1.00  0.00     0.163 HD
BRANCH   5   8
ATOM      8  C   UNL A   1      32.615  23.695  24.338  1.00  0.00     0.067 C 
ATOM      9  C   UNL A   1      31.207  27.346  25.800  1.00  0.00    -0.004 A 
ATOM     10  C   UNL A   1      30.690  28.285  24.926  1.00  0.00     0.032 A 
ATOM     11  C   UNL A   1      31.613  26.132  25.299  1.00  0.00     0.131 A 
ATOM     12  C   UNL A   1      30.578  28.017  23.588  1.00  0.00     0.108 A 
ATOM     13  C   UNL A   1      31.533  25.833  23.950  1.00  0.00     0.019 A 
ATOM     14  O   UNL A   1      32.018  25.170  26.191  1.00  0.00    -0.475 OA
ATOM     15  C   UNL A   1      31.004  26.798  23.101  1.00  0.00     0.036 A 
ATOM     16  C   UNL A   1      31.952  24.508  23.525  1.00  0.00     0.025 C 
ATOM     17  C   UNL A   1      32.997  24.201  25.722  1.00  0.00     0.314 C 
BRANCH   9  18
ATOM     18  C   UNL A   1      31.427  27.802  27.232  1.00  0.00     0.039 C 
BRANCH  18  19
ATOM     19  C   UNL A   1      32.304  29.043  27.241  1.00  0.00     0.001 C 
ATOM     20  C   UNL A   1      33.764  28.633  27.139  1.00  0.00     0.004 C 
ENDBRANCH  18  19
ENDBRANCH   9  18
BRANCH  12  21
ATOM     21  S   UNL A   1      29.876  29.252  22.465  1.00  0.00     0.310 S 
ATOM     22  F   UNL A   1      29.939  30.333  23.624  1.00  0.00    -0.094 F 
ATOM     23  F   UNL A   1      28.480  28.811  23.046  1.00  0.00    -0.094 F 
ATOM     24  F   UNL A   1      29.198  30.331  21.576  1.00  0.00    -0.094 F 
ATOM     25  F   UNL A   1      31.293  29.772  22.002  1.00  0.00    -0.094 F 
ATOM     26  F   UNL A   1      30.587  28.236  23.447  1.00  0.00    -0.094 F 
ENDBRANCH  12  21
BRANCH  17  27
ATOM     27  C   UNL A   1      33.034  23.027  26.687  1.00  0.00     0.429 C 
ATOM     28  F   UNL A   1      33.063  23.481  27.937  1.00  0.00    -0.167 F 
ATOM     29  F   UNL A   1      31.952  22.274  26.513  1.00  0.00    -0.167 F 
ATOM     30  F   UNL A   1      34.123  22.298  26.456  1.00  0.00    -0.167 F 
ENDBRANCH  17  27
ENDBRANCH   5   8
ENDBRANCH   3   4
ENDBRANCH   2   3
ENDBRANCH   1   2
BRANCH   1  31
ATOM     31  C   UNL A   1      36.943  20.870  25.336  1.00  0.00     0.002 C 
BRANCH  31  32
ATOM     32  C   UNL A   1      38.025  19.873  24.950  1.00  0.00     0.021 C 
BRANCH  32  33
ATOM     33  C   UNL A   1      39.204  20.015  25.897  1.00  0.00     0.116 C 
BRANCH  33  34
ATOM     34  N   UNL A   1      40.128  18.888  25.701  1.00  0.00    -0.352 N 
ATOM     35  C   UNL A   1      41.559  19.051  25.996  1.00  0.00     0.251 C 
ATOM     36  H   UNL A   1      39.788  18.025  25.372  1.00  0.00     0.163 HD
ATOM     37  O   UNL A   1      42.357  18.077  25.826  1.00  0.00    -0.269 OA
BRANCH  35  38
ATOM     38  C   UNL A   1      42.084  20.384  26.503  1.00  0.00     0.039 A 
ATOM     39  C   UNL A   1      42.084  20.694  27.853  1.00  0.00     0.014 A 
ATOM     40  C   UNL A   1      42.420  21.286  25.589  1.00  0.00     0.014 A 
ATOM     41  C   UNL A   1      42.175  22.080  28.123  1.00  0.00     0.010 A 
ATOM     42  C   UNL A   1      42.628  22.597  25.944  1.00  0.00     0.010 A 
ATOM     43  C   UNL A   1      42.584  22.987  27.254  1.00  0.00    -0.014 A 
BRANCH  43  44
ATOM     44  C   UNL A   1      42.985  24.387  27.686  1.00  0.00     0.031 A 
ATOM     45  C   UNL A   1      44.359  24.628  27.668  1.00  0.00     0.074 A 
ATOM     46  C   UNL A   1      42.034  25.349  27.985  1.00  0.00     0.049 A 
ATOM     47  N   UNL A   1      44.986  25.786  27.890  1.00  0.00    -0.248 NA
ATOM     48  C   UNL A   1      45.372  23.601  27.385  1.00  0.00     0.031 C 
ATOM     49  C   UNL A   1      40.645  25.116  27.998  1.00  0.00     0.029 A 
ATOM     50  N   UNL A   1      42.242  26.669  28.316  1.00  0.00    -0.354 N 
ATOM     51  C   UNL A   1      46.305  25.626  27.766  1.00  0.00     0.074 A 
ATOM     52  C   UNL A   1      46.572  24.218  27.445  1.00  0.00     0.031 C 
ATOM     53  C   UNL A   1      40.025  26.276  28.342  1.00  0.00     0.029 A 
ATOM     54  C   UNL A   1      41.017  27.253  28.550  1.00  0.00     0.049 A 
ATOM     55  H   UNL A   1      43.117  27.119  28.375  1.00  0.00     0.167 HD
ATOM     56  C   UNL A   1      47.294  26.601  27.904  1.00  0.00     0.031 A 
ATOM     57  C   UNL A   1      40.759  28.561  28.927  1.00  0.00     0.031 A 
ATOM     58  C   UNL A   1      47.032  27.921  28.238  1.00  0.00     0.049 A 
ATOM     59  C   UNL A   1      41.753  29.523  29.123  1.00  0.00     0.074 A 
ATOM     60  C   UNL A   1      48.017  28.917  28.375  1.00  0.00     0.029 A 
ATOM     61  N   UNL A   1      45.808  28.498  28.496  1.00  0.00    -0.354 N 
ATOM     62  N   UNL A   1      43.068  29.374  28.960  1.00  0.00    -0.248 NA
ATOM     63  C   UNL A   1      41.493  30.903  29.553  1.00  0.00     0.031 C 
ATOM     64  C   UNL A   1      47.397  30.078  28.720  1.00  0.00     0.029 A 
ATOM     65  C   UNL A   1      46.015  29.823  28.806  1.00  0.00     0.049 A 
ATOM     66  H   UNL A   1      44.937  28.041  28.466  1.00  0.00     0.167 HD
ATOM     67  C   UNL A   1      43.697  30.521  29.223  1.00  0.00     0.074 A 
ATOM     68  C   UNL A   1      42.694  31.519  29.615  1.00  0.00     0.031 C 
ATOM     69  C   UNL A   1      45.068  30.775  29.147  1.00  0.00     0.031 A 
BRANCH  56  70
ATOM     70  C   UNL A   1      48.740  26.193  27.676  1.00  0.00    -0.014 A 
ATOM     71  C   UNL A   1      49.505  25.770  28.750  1.00  0.00     0.009 A 
ATOM     72  C   UNL A   1      49.247  26.249  26.449  1.00  0.00     0.009 A 
ATOM     73  C   UNL A   1      50.891  25.699  28.475  1.00  0.00     0.001 A 
ATOM     74  C   UNL A   1      50.587  26.035  26.235  1.00  0.00     0.001 A 
ATOM     75  C   UNL A   1      51.413  25.672  27.262  1.00  0.00     0.000 A 
ENDBRANCH  56  70
BRANCH  57  76
ATOM     76  C   UNL A   1      39.311  28.974  29.139  1.00  0.00    -0.014 A 
ATOM     77  C   UNL A   1      38.742  28.836  30.395  1.00  0.00     0.009 A 
ATOM     78  C   UNL A   1      38.615  29.460  28.117  1.00  0.00     0.009 A 
ATOM     79  C   UNL A   1      37.334  28.971  30.404  1.00  0.00     0.001 A 
ATOM     80  C   UNL A   1      37.268  29.696  28.239  1.00  0.00     0.001 A 
ATOM     81  C   UNL A   1      36.628  29.524  29.435  1.00  0.00     0.000 A 
ENDBRANCH  57  76
BRANCH  69  82
ATOM     82  C   UNL A   1      45.549  32.184  29.457  1.00  0.00    -0.014 A 
ATOM     83  C   UNL A   1      45.647  33.145  28.463  1.00  0.00     0.009 A 
ATOM     84  C   UNL A   1      45.923  32.442  30.704  1.00  0.00     0.009 A 
ATOM     85  C   UNL A   1      46.428  34.267  28.827  1.00  0.00     0.001 A 
ATOM     86  C   UNL A   1      46.561  33.619  31.015  1.00  0.00     0.001 A 
ATOM     87  C   UNL A   1      46.744  34.589  30.069  1.00  0.00     0.000 A 
ENDBRANCH  69  82
ENDBRANCH  43  44
ENDBRANCH  35  38
ENDBRANCH  33  34
ENDBRANCH  32  33
ENDBRANCH  31  32
ENDBRANCH   1  31
TORSDOF 17
ENDMDL
MODEL 2
REMARK VINA RESULT:     -11.8      4.095      9.165
REMARK SMILES CCCc1cc(S(F)(F)(F)(F)F)cc2c1O[C@@H](C(F)(F)F)C(C(=O)NCCCCCCNC(=O)c1ccc(-c3c4nc(c(-c5ccccc5)c5ccc([nH]5)c(-c5ccccc5)c5nc(c(-c6ccccc6)c6ccc3[nH]6)C=C5)C=C4)cc1)=C2
REMARK SMILES IDX 28 1 27 2 26 3 25 4 23 5 24 6 22 8 4 9 5 10 15 11 6 12 14 13
REMARK SMILES IDX 16 14 13 15 83 16 17 17 3 18 2 19 1 20 7 21 8 22 9 23 10 24
REMARK SMILES IDX 11 25 12 26 18 27 19 28 20 29 21 30 29 31 30 32 31 33 32 34
REMARK SMILES IDX 33 35 34 37 35 38 36 39 82 40 37 41 81 42 38 43 39 44 40 45
REMARK SMILES IDX 75 46 41 47 80 48 74 49 76 50 42 51 79 52 73 53 72 54 43 56
REMARK SMILES IDX 65 57 50 58 64 59 51 60 54 61 63 62 77 63 52 64 53 65 62 67
REMARK SMILES IDX 78 68 55 69 44 70 45 71 49 72 46 73 48 74 47 75 66 76 67 77
REMARK SMILES IDX 71 78 68 79 70 80 69 81 56 82 57 83 61 84 58 85 60 86 59 87
REMARK H PARENT 25 7 32 36 76 55 54 66
REMARK Flexibility Score: inf
ROOT
ATOM      1  C   UNL A   1      30.335  27.731  23.621  1.00  0.00     0.002 C 
ENDROOT
BRANCH   1   2
ATOM      2  C   UNL A   1      30.986  26.657  22.765  1.00  0.00     0.021 C 
BRANCH   2   3
ATOM      3  C   UNL A   1      30.661  25.288  23.337  1.00  0.00     0.116 C 
BRANCH   3   4
ATOM      4  N   UNL A   1      29.907  25.446  24.590  1.00  0.00    -0.352 N 
ATOM      5  C   UNL A   1      30.287  24.668  25.779  1.00  0.00     0.251 C 
ATOM      6  O   UNL A   1      29.634  24.805  26.861  1.00  0.00    -0.270 OA
ATOM      7  H   UNL A   1      29.148  26.071  24.632  1.00  0.00     0.163 HD
BRANCH   5   8
ATOM      8  C   UNL A   1      31.458  23.702  25.714  1.00  0.00     0.067 C 
ATOM      9  C   UNL A   1      34.819  21.297  25.107  1.00  0.00    -0.004 A 
ATOM     10  C   UNL A   1      34.662  19.963  24.777  1.00  0.00     0.032 A 
ATOM     11  C   UNL A   1      33.697  22.078  25.248  1.00  0.00     0.131 A 
ATOM     12  C   UNL A   1      33.416  19.425  24.589  1.00  0.00     0.108 A 
ATOM     13  C   UNL A   1      32.423  21.565  25.084  1.00  0.00     0.019 A 
ATOM     14  O   UNL A   1      33.872  23.423  25.464  1.00  0.00    -0.475 OA
ATOM     15  C   UNL A   1      32.301  20.221  24.748  1.00  0.00     0.036 A 
ATOM     16  C   UNL A   1      31.303  22.481  25.216  1.00  0.00     0.025 C 
ATOM     17  C   UNL A   1      32.835  24.114  26.215  1.00  0.00     0.314 C 
BRANCH   9  18
ATOM     18  C   UNL A   1      36.230  21.750  25.440  1.00  0.00     0.039 C 
BRANCH  18  19
ATOM     19  C   UNL A   1      37.083  21.723  24.182  1.00  0.00     0.001 C 
ATOM     20  C   UNL A   1      36.689  22.880  23.279  1.00  0.00     0.004 C 
ENDBRANCH  18  19
ENDBRANCH   9  18
BRANCH  12  21
ATOM     21  S   UNL A   1      33.234  17.682  24.134  1.00  0.00     0.310 S 
ATOM     22  F   UNL A   1      34.759  17.641  23.701  1.00  0.00    -0.094 F 
ATOM     23  F   UNL A   1      32.909  18.217  22.689  1.00  0.00    -0.094 F 
ATOM     24  F   UNL A   1      33.118  16.211  23.647  1.00  0.00    -0.094 F 
ATOM     25  F   UNL A   1      33.698  17.167  25.553  1.00  0.00    -0.094 F 
ATOM     26  F   UNL A   1      33.466  19.170  24.615  1.00  0.00    -0.094 F 
ENDBRANCH  12  21
BRANCH  17  27
ATOM     27  C   UNL A   1      33.004  25.613  26.029  1.00  0.00     0.429 C 
ATOM     28  F   UNL A   1      34.162  25.998  26.557  1.00  0.00    -0.167 F 
ATOM     29  F   UNL A   1      32.988  25.905  24.732  1.00  0.00    -0.167 F 
ATOM     30  F   UNL A   1      32.007  26.250  26.637  1.00  0.00    -0.167 F 
ENDBRANCH  17  27
ENDBRANCH   5   8
ENDBRANCH   3   4
ENDBRANCH   2   3
ENDBRANCH   1   2
BRANCH   1  31
ATOM     31  C   UNL A   1      31.165  29.004  23.557  1.00  0.00     0.002 C 
BRANCH  31  32
ATOM     32  C   UNL A   1      32.643  28.645  23.556  1.00  0.00     0.021 C 
BRANCH  32  33
ATOM     33  C   UNL A   1      33.297  29.190  24.815  1.00  0.00     0.116 C 
BRANCH  33  34
ATOM     34  N   UNL A   1      32.364  30.099  25.498  1.00  0.00    -0.352 N 
ATOM     35  C   UNL A   1      32.785  30.803  26.717  1.00  0.00     0.251 C 
ATOM     36  H   UNL A   1      31.458  30.236  25.137  1.00  0.00     0.163 HD
ATOM     37  O   UNL A   1      31.979  31.588  27.308  1.00  0.00    -0.269 OA
BRANCH  35  38
ATOM     38  C   UNL A   1      34.184  30.591  27.274  1.00  0.00     0.039 A 
ATOM     39  C   UNL A   1      34.624  29.338  27.665  1.00  0.00     0.014 A 
ATOM     40  C   UNL A   1      34.916  31.678  27.490  1.00  0.00     0.014 A 
ATOM     41  C   UNL A   1      35.732  29.369  28.545  1.00  0.00     0.010 A 
ATOM     42  C   UNL A   1      36.062  31.609  28.245  1.00  0.00     0.010 A 
ATOM     43  C   UNL A   1      36.524  30.412  28.715  1.00  0.00    -0.014 A 
BRANCH  43  44
ATOM     44  C   UNL A   1      37.876  30.288  29.398  1.00  0.00     0.031 A 
ATOM     45  C   UNL A   1      37.934  30.851  30.674  1.00  0.00     0.074 A 
ATOM     46  C   UNL A   1      38.918  29.590  28.812  1.00  0.00     0.049 A 
ATOM     47  N   UNL A   1      38.946  30.797  31.542  1.00  0.00    -0.248 NA
ATOM     48  C   UNL A   1      36.841  31.621  31.285  1.00  0.00     0.031 C 
ATOM     49  C   UNL A   1      38.865  29.011  27.529  1.00  0.00     0.029 A 
ATOM     50  N   UNL A   1      40.164  29.332  29.338  1.00  0.00    -0.354 N 
ATOM     51  C   UNL A   1      38.623  31.438  32.667  1.00  0.00     0.074 A 
ATOM     52  C   UNL A   1      37.266  31.983  32.515  1.00  0.00     0.031 C 
ATOM     53  C   UNL A   1      40.065  28.423  27.281  1.00  0.00     0.029 A 
ATOM     54  C   UNL A   1      40.888  28.623  28.405  1.00  0.00     0.049 A 
ATOM     55  H   UNL A   1      40.483  29.606  30.230  1.00  0.00     0.167 HD
ATOM     56  C   UNL A   1      39.404  31.588  33.814  1.00  0.00     0.031 A 
ATOM     57  C   UNL A   1      42.193  28.170  28.509  1.00  0.00     0.031 A 
ATOM     58  C   UNL A   1      40.695  31.096  33.934  1.00  0.00     0.049 A 
ATOM     59  C   UNL A   1      42.997  28.371  29.634  1.00  0.00     0.074 A 
ATOM     60  C   UNL A   1      41.493  31.233  35.085  1.00  0.00     0.029 A 
ATOM     61  N   UNL A   1      41.426  30.409  32.991  1.00  0.00    -0.354 N 
ATOM     62  N   UNL A   1      42.660  28.978  30.773  1.00  0.00    -0.248 NA
ATOM     63  C   UNL A   1      44.392  27.923  29.743  1.00  0.00     0.031 C 
ATOM     64  C   UNL A   1      42.694  30.643  34.837  1.00  0.00     0.029 A 
ATOM     65  C   UNL A   1      42.664  30.132  33.526  1.00  0.00     0.049 A 
ATOM     66  H   UNL A   1      41.118  30.160  32.090  1.00  0.00     0.167 HD
ATOM     67  C   UNL A   1      43.686  28.959  31.625  1.00  0.00     0.074 A 
ATOM     68  C   UNL A   1      44.818  28.287  30.972  1.00  0.00     0.031 C 
ATOM     69  C   UNL A   1      43.723  29.472  32.923  1.00  0.00     0.031 A 
BRANCH  56  70
ATOM     70  C   UNL A   1      38.806  32.331  34.997  1.00  0.00    -0.014 A 
ATOM     71  C   UNL A   1      38.877  33.713  35.038  1.00  0.00     0.009 A 
ATOM     72  C   UNL A   1      38.226  31.642  35.974  1.00  0.00     0.009 A 
ATOM     73  C   UNL A   1      38.558  34.266  36.301  1.00  0.00     0.001 A 
ATOM     74  C   UNL A   1      37.816  32.269  37.125  1.00  0.00     0.001 A 
ATOM     75  C   UNL A   1      37.910  33.626  37.257  1.00  0.00     0.000 A 
ENDBRANCH  56  70
BRANCH  57  76
ATOM     76  C   UNL A   1      42.785  27.413  27.331  1.00  0.00    -0.014 A 
ATOM     77  C   UNL A   1      42.677  26.032  27.288  1.00  0.00     0.009 A 
ATOM     78  C   UNL A   1      43.396  28.087  26.363  1.00  0.00     0.009 A 
ATOM     79  C   UNL A   1      43.505  25.423  26.316  1.00  0.00     0.001 A 
ATOM     80  C   UNL A   1      44.072  27.423  25.369  1.00  0.00     0.001 A 
ATOM     81  C   UNL A   1      44.057  26.058  25.298  1.00  0.00     0.000 A 
ENDBRANCH  57  76
BRANCH  69  82
ATOM     82  C   UNL A   1      45.003  29.294  33.724  1.00  0.00    -0.014 A 
ATOM     83  C   UNL A   1      45.198  28.186  34.533  1.00  0.00     0.009 A 
ATOM     84  C   UNL A   1      45.905  30.267  33.660  1.00  0.00     0.009 A 
ATOM     85  C   UNL A   1      46.252  28.335  35.464  1.00  0.00     0.001 A 
ATOM     86  C   UNL A   1      46.985  30.278  34.509  1.00  0.00     0.001 A 
ATOM     87  C   UNL A   1      47.207  29.244  35.377  1.00  0.00     0.000 A 
ENDBRANCH  69  82
ENDBRANCH  43  44
ENDBRANCH  35  38
ENDBRANCH  33  34
ENDBRANCH  32  33
ENDBRANCH  31  32
ENDBRANCH   1  31
TORSDOF 17
ENDMDL
MODEL 3
REMARK VINA RESULT:     -11.7      3.123      8.323
REMARK SMILES CCCc1cc(S(F)(F)(F)(F)F)cc2c1O[C@@H](C(F)(F)F)C(C(=O)NCCCCCCNC(=O)c1ccc(-c3c4nc(c(-c5ccccc5)c5ccc([nH]5)c(-c5ccccc5)c5nc(c(-c6ccccc6)c6ccc3[nH]6)C=C5)C=C4)cc1)=C2
REMARK SMILES IDX 28 1 27 2 26 3 25 4 23 5 24 6 22 8 4 9 5 10 15 11 6 12 14 13
REMARK SMILES IDX 16 14 13 15 83 16 17 17 3 18 2 19 1 20 7 21 8 22 9 23 10 24
REMARK SMILES IDX 11 25 12 26 18 27 19 28 20 29 21 30 29 31 30 32 31 33 32 34
REMARK SMILES IDX 33 35 34 37 35 38 36 39 82 40 37 41 81 42 38 43 39 44 40 45
REMARK SMILES IDX 75 46 41 47 80 48 74 49 76 50 42 51 79 52 73 53 72 54 43 56
REMARK SMILES IDX 65 57 50 58 64 59 51 60 54 61 63 62 77 63 52 64 53 65 62 67
REMARK SMILES IDX 78 68 55 69 44 70 45 71 49 72 46 73 48 74 47 75 66 76 67 77
REMARK SMILES IDX 71 78 68 79 70 80 69 81 56 82 57 83 61 84 58 85 60 86 59 87
REMARK H PARENT 25 7 32 36 76 55 54 66
REMARK Flexibility Score: inf
ROOT
ATOM      1  C   UNL A   1      30.391  26.977  26.115  1.00  0.00     0.002 C 
ENDROOT
BRANCH   1   2
ATOM      2  C   UNL A   1      30.895  25.554  26.285  1.00  0.00     0.021 C 
BRANCH   2   3
ATOM      3  C   UNL A   1      30.136  24.632  25.346  1.00  0.00     0.116 C 
BRANCH   3   4
ATOM      4  N   UNL A   1      30.320  25.085  23.959  1.00  0.00    -0.352 N 
ATOM      5  C   UNL A   1      31.390  24.505  23.132  1.00  0.00     0.251 C 
ATOM      6  O   UNL A   1      31.548  24.898  21.934  1.00  0.00    -0.270 OA
ATOM      7  H   UNL A   1      29.728  25.776  23.585  1.00  0.00     0.163 HD
BRANCH   5   8
ATOM      8  C   UNL A   1      32.304  23.438  23.711  1.00  0.00     0.067 C 
ATOM      9  C   UNL A   1      35.132  20.606  24.907  1.00  0.00    -0.004 A 
ATOM     10  C   UNL A   1      34.822  19.259  24.860  1.00  0.00     0.032 A 
ATOM     11  C   UNL A   1      34.203  21.513  24.457  1.00  0.00     0.131 A 
ATOM     12  C   UNL A   1      33.616  18.830  24.372  1.00  0.00     0.108 A 
ATOM     13  C   UNL A   1      32.968  21.118  23.975  1.00  0.00     0.019 A 
ATOM     14  O   UNL A   1      34.568  22.836  24.404  1.00  0.00    -0.475 OA
ATOM     15  C   UNL A   1      32.690  19.756  23.938  1.00  0.00     0.036 A 
ATOM     16  C   UNL A   1      32.070  22.151  23.487  1.00  0.00     0.025 C 
ATOM     17  C   UNL A   1      33.509  23.822  24.558  1.00  0.00     0.314 C 
BRANCH   9  18
ATOM     18  C   UNL A   1      36.429  20.978  25.605  1.00  0.00     0.039 C 
BRANCH  18  19
ATOM     19  C   UNL A   1      37.594  20.785  24.647  1.00  0.00     0.001 C 
ATOM     20  C   UNL A   1      38.370  19.538  25.037  1.00  0.00     0.004 C 
ENDBRANCH  18  19
ENDBRANCH   9  18
BRANCH  12  21
ATOM     21  S   UNL A   1      33.239  17.061  24.298  1.00  0.00     0.310 S 
ATOM     22  F   UNL A   1      34.700  16.733  24.820  1.00  0.00    -0.094 F 
ATOM     23  F   UNL A   1      33.844  17.115  22.845  1.00  0.00    -0.094 F 
ATOM     24  F   UNL A   1      33.004  15.529  24.174  1.00  0.00    -0.094 F 
ATOM     25  F   UNL A   1      32.767  17.003  25.804  1.00  0.00    -0.094 F 
ATOM     26  F   UNL A   1      33.576  18.595  24.478  1.00  0.00    -0.094 F 
ENDBRANCH  12  21
BRANCH  17  27
ATOM     27  C   UNL A   1      34.024  25.178  24.103  1.00  0.00     0.429 C 
ATOM     28  F   UNL A   1      33.077  26.095  24.282  1.00  0.00    -0.167 F 
ATOM     29  F   UNL A   1      35.099  25.506  24.814  1.00  0.00    -0.167 F 
ATOM     30  F   UNL A   1      34.346  25.120  22.814  1.00  0.00    -0.167 F 
ENDBRANCH  17  27
ENDBRANCH   5   8
ENDBRANCH   3   4
ENDBRANCH   2   3
ENDBRANCH   1   2
BRANCH   1  31
ATOM     31  C   UNL A   1      31.573  27.932  26.068  1.00  0.00     0.002 C 
BRANCH  31  32
ATOM     32  C   UNL A   1      32.288  27.920  27.409  1.00  0.00     0.021 C 
BRANCH  32  33
ATOM     33  C   UNL A   1      33.601  28.676  27.290  1.00  0.00     0.116 C 
BRANCH  33  34
ATOM     34  N   UNL A   1      33.396  30.079  27.681  1.00  0.00    -0.352 N 
ATOM     35  C   UNL A   1      34.502  30.846  28.272  1.00  0.00     0.251 C 
ATOM     36  H   UNL A   1      32.518  30.503  27.548  1.00  0.00     0.163 HD
ATOM     37  O   UNL A   1      34.325  32.057  28.610  1.00  0.00    -0.269 OA
BRANCH  35  38
ATOM     38  C   UNL A   1      35.858  30.190  28.478  1.00  0.00     0.039 A 
ATOM     39  C   UNL A   1      36.223  29.654  29.701  1.00  0.00     0.014 A 
ATOM     40  C   UNL A   1      36.724  30.270  27.474  1.00  0.00     0.014 A 
ATOM     41  C   UNL A   1      37.620  29.492  29.862  1.00  0.00     0.010 A 
ATOM     42  C   UNL A   1      38.049  29.964  27.668  1.00  0.00     0.010 A 
ATOM     43  C   UNL A   1      38.492  29.487  28.870  1.00  0.00    -0.014 A 
BRANCH  43  44
ATOM     44  C   UNL A   1      39.912  28.977  29.056  1.00  0.00     0.031 A 
ATOM     45  C   UNL A   1      40.773  29.879  29.682  1.00  0.00     0.074 A 
ATOM     46  C   UNL A   1      40.267  27.687  28.701  1.00  0.00     0.049 A 
ATOM     47  N   UNL A   1      42.033  29.666  30.069  1.00  0.00    -0.248 NA
ATOM     48  C   UNL A   1      40.410  31.261  30.028  1.00  0.00     0.031 C 
ATOM     49  C   UNL A   1      39.401  26.767  28.077  1.00  0.00     0.029 A 
ATOM     50  N   UNL A   1      41.483  27.066  28.876  1.00  0.00    -0.354 N 
ATOM     51  C   UNL A   1      42.527  30.762  30.650  1.00  0.00     0.074 A 
ATOM     52  C   UNL A   1      41.492  31.805  30.626  1.00  0.00     0.031 C 
ATOM     53  C   UNL A   1      40.088  25.613  27.869  1.00  0.00     0.029 A 
ATOM     54  C   UNL A   1      41.395  25.792  28.361  1.00  0.00     0.049 A 
ATOM     55  H   UNL A   1      42.279  27.464  29.299  1.00  0.00     0.167 HD
ATOM     56  C   UNL A   1      43.799  30.930  31.200  1.00  0.00     0.031 A 
ATOM     57  C   UNL A   1      42.388  24.827  28.309  1.00  0.00     0.031 A 
ATOM     58  C   UNL A   1      44.778  29.949  31.188  1.00  0.00     0.049 A 
ATOM     59  C   UNL A   1      43.679  25.015  28.807  1.00  0.00     0.074 A 
ATOM     60  C   UNL A   1      46.062  30.101  31.745  1.00  0.00     0.029 A 
ATOM     61  N   UNL A   1      44.697  28.684  30.649  1.00  0.00    -0.354 N 
ATOM     62  N   UNL A   1      44.161  26.096  29.422  1.00  0.00    -0.248 NA
ATOM     63  C   UNL A   1      44.749  24.011  28.730  1.00  0.00     0.031 C 
ATOM     64  C   UNL A   1      46.750  28.946  31.537  1.00  0.00     0.029 A 
ATOM     65  C   UNL A   1      45.907  28.056  30.845  1.00  0.00     0.049 A 
ATOM     66  H   UNL A   1      43.911  28.296  30.202  1.00  0.00     0.167 HD
ATOM     67  C   UNL A   1      45.433  25.897  29.773  1.00  0.00     0.074 A 
ATOM     68  C   UNL A   1      45.832  24.556  29.326  1.00  0.00     0.031 C 
ATOM     69  C   UNL A   1      46.276  26.780  30.452  1.00  0.00     0.031 A 
BRANCH  56  70
ATOM     70  C   UNL A   1      44.128  32.265  31.849  1.00  0.00    -0.014 A 
ATOM     71  C   UNL A   1      43.871  32.447  33.197  1.00  0.00     0.009 A 
ATOM     72  C   UNL A   1      44.657  33.235  31.112  1.00  0.00     0.009 A 
ATOM     73  C   UNL A   1      43.940  33.796  33.617  1.00  0.00     0.001 A 
ATOM     74  C   UNL A   1      44.822  34.496  31.629  1.00  0.00     0.001 A 
ATOM     75  C   UNL A   1      44.532  34.762  32.939  1.00  0.00     0.000 A 
ENDBRANCH  56  70
BRANCH  57  76
ATOM     76  C   UNL A   1      42.053  23.486  27.675  1.00  0.00    -0.014 A 
ATOM     77  C   UNL A   1      42.335  23.279  26.334  1.00  0.00     0.009 A 
ATOM     78  C   UNL A   1      41.496  22.535  28.417  1.00  0.00     0.009 A 
ATOM     79  C   UNL A   1      41.722  22.125  25.791  1.00  0.00     0.001 A 
ATOM     80  C   UNL A   1      41.043  21.374  27.840  1.00  0.00     0.001 A 
ATOM     81  C   UNL A   1      41.235  21.129  26.509  1.00  0.00     0.000 A 
ENDBRANCH  57  76
BRANCH  69  82
ATOM     82  C   UNL A   1      47.684  26.311  30.779  1.00  0.00    -0.014 A 
ATOM     83  C   UNL A   1      48.692  26.342  29.828  1.00  0.00     0.009 A 
ATOM     84  C   UNL A   1      47.899  25.819  31.993  1.00  0.00     0.009 A 
ATOM     85  C   UNL A   1      49.823  25.562  30.165  1.00  0.00     0.001 A 
ATOM     86  C   UNL A   1      49.082  25.188  32.294  1.00  0.00     0.001 A 
ATOM     87  C   UNL A   1      50.100  25.130  31.382  1.00  0.00     0.000 A 
ENDBRANCH  69  82
ENDBRANCH  43  44
ENDBRANCH  35  38
ENDBRANCH  33  34
ENDBRANCH  32  33
ENDBRANCH  31  32
ENDBRANCH   1  31
TORSDOF 17
ENDMDL
