MODEL 1
REMARK VINA RESULT:     -10.8      0.000      0.000
REMARK SMILES CSc1cccc([C@@H](C(=O)NCCCCCCNC(=O)c2ccc(-c3c4nc(c(-c5ccccc5)c5ccc([nH]5)c(-c5ccccc5)c5nc(c(-c6ccccc6)c6ccc3[nH]6)C=C5)C=C4)cc2)[N@@H+](C)Cc2ccon2)c1
REMARK SMILES IDX 14 1 13 2 12 3 11 4 9 5 10 6 8 8 7 9 3 10 4 11 77 12 5 13
REMARK SMILES IDX 6 14 2 15 1 16 69 17 70 18 71 20 72 21 73 22 76 23 74 24
REMARK SMILES IDX 75 25 15 26 16 27 17 28 18 29 19 30 20 32 21 33 22 34 68 35
REMARK SMILES IDX 23 36 67 37 24 38 25 39 26 40 61 41 27 42 66 43 60 44 62 45
REMARK SMILES IDX 28 46 65 47 59 48 58 49 29 51 51 52 36 53 50 54 37 55 40 56
REMARK SMILES IDX 49 57 63 58 38 59 39 60 48 62 64 63 41 64 30 65 31 66 35 67
REMARK SMILES IDX 32 68 34 69 33 70 52 71 53 72 57 73 54 74 56 75 55 76 42 77
REMARK SMILES IDX 43 78 47 79 44 80 46 81 45 82
REMARK H PARENT 11 7 69 19 18 31 62 50 40 61
REMARK Flexibility Score: inf
ROOT
ATOM      1  C   UNL A   1      37.091  21.867  25.022  1.00  0.00     0.002 C 
ENDROOT
BRANCH   1   2
ATOM      2  C   UNL A   1      36.653  22.654  23.780  1.00  0.00     0.021 C 
BRANCH   2   3
ATOM      3  C   UNL A   1      35.487  23.605  24.032  1.00  0.00     0.116 C 
BRANCH   3   4
ATOM      4  N   UNL A   1      34.406  23.386  23.104  1.00  0.00    -0.351 N 
ATOM      5  C   UNL A   1      33.285  22.620  23.189  1.00  0.00     0.283 C 
ATOM      6  O   UNL A   1      32.410  22.949  22.375  1.00  0.00    -0.268 OA
ATOM      7  H   UNL A   1      34.494  23.879  22.257  1.00  0.00     0.163 HD
BRANCH   5   8
ATOM      8  C   UNL A   1      33.045  21.574  24.324  1.00  0.00     0.305 C 
BRANCH   8   9
ATOM      9  C   UNL A   1      32.866  20.108  23.901  1.00  0.00     0.020 A 
ATOM     10  C   UNL A   1      33.432  17.749  24.295  1.00  0.00     0.007 A 
ATOM     11  C   UNL A   1      32.763  17.394  23.124  1.00  0.00     0.015 A 
ATOM     12  C   UNL A   1      33.419  19.087  24.707  1.00  0.00     0.025 A 
ATOM     13  C   UNL A   1      32.153  18.374  22.345  1.00  0.00     0.002 A 
ATOM     14  C   UNL A   1      32.236  19.719  22.714  1.00  0.00     0.010 A 
BRANCH  10  15
ATOM     15  S   UNL A   1      34.315  16.487  25.197  1.00  0.00    -0.130 SA
ATOM     16  C   UNL A   1      33.017  15.229  25.377  1.00  0.00     0.091 C 
ENDBRANCH  10  15
ENDBRANCH   8   9
BRANCH   8  17
ATOM     17  N   UNL A   1      32.083  22.012  25.377  1.00  0.00    -0.318 N 
ATOM     18  C   UNL A   1      32.693  22.200  26.689  1.00  0.00     0.334 C 
ATOM     19  H   UNL A   1      31.490  21.182  25.416  1.00  0.00     0.349 HD
BRANCH  17  20
ATOM     20  C   UNL A   1      31.072  23.036  25.056  1.00  0.00     0.324 C 
BRANCH  20  21
ATOM     21  C   UNL A   1      31.262  24.402  25.646  1.00  0.00     0.138 A 
ATOM     22  C   UNL A   1      32.302  25.341  25.432  1.00  0.00     0.075 A 
ATOM     23  N   UNL A   1      30.392  24.869  26.558  1.00  0.00    -0.079 NA
ATOM     24  C   UNL A   1      31.934  26.434  26.173  1.00  0.00     0.231 A 
ATOM     25  O   UNL A   1      30.802  26.154  26.858  1.00  0.00    -0.364 OA
ENDBRANCH  20  21
ENDBRANCH  17  20
ENDBRANCH   8  17
ENDBRANCH   5   8
ENDBRANCH   3   4
ENDBRANCH   2   3
ENDBRANCH   1   2
BRANCH   1  26
ATOM     26  C   UNL A   1      36.744  20.375  25.000  1.00  0.00     0.002 C 
BRANCH  26  27
ATOM     27  C   UNL A   1      37.950  19.434  24.994  1.00  0.00     0.021 C 
BRANCH  27  28
ATOM     28  C   UNL A   1      39.159  19.964  25.751  1.00  0.00     0.116 C 
BRANCH  28  29
ATOM     29  N   UNL A   1      40.207  18.964  25.866  1.00  0.00    -0.352 N 
ATOM     30  C   UNL A   1      41.552  19.145  26.058  1.00  0.00     0.251 C 
ATOM     31  H   UNL A   1      39.911  18.028  25.798  1.00  0.00     0.163 HD
ATOM     32  O   UNL A   1      42.332  18.205  25.924  1.00  0.00    -0.269 OA
BRANCH  30  33
ATOM     33  C   UNL A   1      42.063  20.487  26.404  1.00  0.00     0.039 A 
ATOM     34  C   UNL A   1      42.448  21.350  25.376  1.00  0.00     0.014 A 
ATOM     35  C   UNL A   1      42.151  20.894  27.739  1.00  0.00     0.014 A 
ATOM     36  C   UNL A   1      42.871  22.643  25.686  1.00  0.00     0.010 A 
ATOM     37  C   UNL A   1      42.493  22.208  28.039  1.00  0.00     0.010 A 
ATOM     38  C   UNL A   1      42.864  23.094  27.017  1.00  0.00    -0.014 A 
BRANCH  38  39
ATOM     39  C   UNL A   1      43.244  24.487  27.357  1.00  0.00     0.031 A 
ATOM     40  C   UNL A   1      44.687  24.910  27.311  1.00  0.00     0.074 A 
ATOM     41  C   UNL A   1      42.297  25.357  27.758  1.00  0.00     0.049 A 
ATOM     42  N   UNL A   1      45.216  26.068  27.616  1.00  0.00    -0.248 NA
ATOM     43  C   UNL A   1      45.665  23.892  26.895  1.00  0.00     0.031 C 
ATOM     44  C   UNL A   1      40.868  25.059  27.880  1.00  0.00     0.029 A 
ATOM     45  N   UNL A   1      42.395  26.671  28.141  1.00  0.00    -0.354 N 
ATOM     46  C   UNL A   1      46.585  25.913  27.437  1.00  0.00     0.074 A 
ATOM     47  C   UNL A   1      46.811  24.537  27.056  1.00  0.00     0.031 C 
ATOM     48  C   UNL A   1      40.221  26.167  28.277  1.00  0.00     0.029 A 
ATOM     49  C   UNL A   1      41.191  27.237  28.483  1.00  0.00     0.049 A 
ATOM     50  H   UNL A   1      43.248  27.161  28.168  1.00  0.00     0.167 HD
ATOM     51  C   UNL A   1      47.567  26.839  27.560  1.00  0.00     0.031 A 
ATOM     52  C   UNL A   1      40.901  28.476  28.922  1.00  0.00     0.031 A 
ATOM     53  C   UNL A   1      47.341  28.209  27.939  1.00  0.00     0.049 A 
ATOM     54  C   UNL A   1      42.012  29.477  29.079  1.00  0.00     0.074 A 
ATOM     55  C   UNL A   1      48.262  29.236  28.043  1.00  0.00     0.029 A 
ATOM     56  N   UNL A   1      46.107  28.740  28.281  1.00  0.00    -0.354 N 
ATOM     57  N   UNL A   1      43.293  29.335  28.841  1.00  0.00    -0.248 NA
ATOM     58  C   UNL A   1      41.632  30.814  29.555  1.00  0.00     0.031 C 
ATOM     59  C   UNL A   1      47.596  30.374  28.510  1.00  0.00     0.029 A 
ATOM     60  C   UNL A   1      46.248  30.074  28.626  1.00  0.00     0.049 A 
ATOM     61  H   UNL A   1      45.258  28.244  28.280  1.00  0.00     0.167 HD
ATOM     62  C   UNL A   1      43.868  30.570  29.107  1.00  0.00     0.074 A 
ATOM     63  C   UNL A   1      42.792  31.454  29.508  1.00  0.00     0.031 C 
ATOM     64  C   UNL A   1      45.169  30.941  29.027  1.00  0.00     0.031 A 
BRANCH  51  65
ATOM     65  C   UNL A   1      48.978  26.394  27.289  1.00  0.00    -0.014 A 
ATOM     66  C   UNL A   1      49.507  26.398  25.988  1.00  0.00     0.009 A 
ATOM     67  C   UNL A   1      49.802  26.000  28.355  1.00  0.00     0.009 A 
ATOM     68  C   UNL A   1      50.820  25.978  25.756  1.00  0.00     0.001 A 
ATOM     69  C   UNL A   1      51.123  25.613  28.124  1.00  0.00     0.001 A 
ATOM     70  C   UNL A   1      51.628  25.593  26.824  1.00  0.00     0.000 A 
ENDBRANCH  51  65
BRANCH  52  71
ATOM     71  C   UNL A   1      39.495  28.844  29.240  1.00  0.00    -0.014 A 
ATOM     72  C   UNL A   1      38.672  29.428  28.265  1.00  0.00     0.009 A 
ATOM     73  C   UNL A   1      38.972  28.624  30.524  1.00  0.00     0.009 A 
ATOM     74  C   UNL A   1      37.365  29.810  28.579  1.00  0.00     0.001 A 
ATOM     75  C   UNL A   1      37.655  28.976  30.826  1.00  0.00     0.001 A 
ATOM     76  C   UNL A   1      36.856  29.579  29.856  1.00  0.00     0.000 A 
ENDBRANCH  52  71
BRANCH  64  77
ATOM     77  C   UNL A   1      45.499  32.374  29.340  1.00  0.00    -0.014 A 
ATOM     78  C   UNL A   1      45.480  33.366  28.347  1.00  0.00     0.009 A 
ATOM     79  C   UNL A   1      45.794  32.743  30.663  1.00  0.00     0.009 A 
ATOM     80  C   UNL A   1      45.787  34.690  28.666  1.00  0.00     0.001 A 
ATOM     81  C   UNL A   1      46.067  34.073  30.985  1.00  0.00     0.001 A 
ATOM     82  C   UNL A   1      46.073  35.044  29.984  1.00  0.00     0.000 A 
ENDBRANCH  64  77
ENDBRANCH  38  39
ENDBRANCH  30  33
ENDBRANCH  28  29
ENDBRANCH  27  28
ENDBRANCH  26  27
ENDBRANCH   1  26
TORSDOF 18
ENDMDL
MODEL 2
REMARK VINA RESULT:     -10.6      5.252      9.555
REMARK SMILES CSc1cccc([C@@H](C(=O)NCCCCCCNC(=O)c2ccc(-c3c4nc(c(-c5ccccc5)c5ccc([nH]5)c(-c5ccccc5)c5nc(c(-c6ccccc6)c6ccc3[nH]6)C=C5)C=C4)cc2)[N@@H+](C)Cc2ccon2)c1
REMARK SMILES IDX 14 1 13 2 12 3 11 4 9 5 10 6 8 8 7 9 3 10 4 11 77 12 5 13
REMARK SMILES IDX 6 14 2 15 1 16 69 17 70 18 71 20 72 21 73 22 76 23 74 24
REMARK SMILES IDX 75 25 15 26 16 27 17 28 18 29 19 30 20 32 21 33 22 34 68 35
REMARK SMILES IDX 23 36 67 37 24 38 25 39 26 40 61 41 27 42 66 43 60 44 62 45
REMARK SMILES IDX 28 46 65 47 59 48 58 49 29 51 51 52 36 53 50 54 37 55 40 56
REMARK SMILES IDX 49 57 63 58 38 59 39 60 48 62 64 63 41 64 30 65 31 66 35 67
REMARK SMILES IDX 32 68 34 69 33 70 52 71 53 72 57 73 54 74 56 75 55 76 42 77
REMARK SMILES IDX 43 78 47 79 44 80 46 81 45 82
REMARK H PARENT 11 7 69 19 18 31 62 50 40 61
REMARK Flexibility Score: inf
ROOT
ATOM      1  C   UNL A   1      32.466  29.945  27.078  1.00  0.00     0.002 C 
ENDROOT
BRANCH   1   2
ATOM      2  C   UNL A   1      32.026  28.479  27.197  1.00  0.00     0.021 C 
BRANCH   2   3
ATOM      3  C   UNL A   1      33.132  27.477  26.883  1.00  0.00     0.116 C 
BRANCH   3   4
ATOM      4  N   UNL A   1      33.639  27.639  25.543  1.00  0.00    -0.351 N 
ATOM      5  C   UNL A   1      33.151  27.239  24.339  1.00  0.00     0.283 C 
ATOM      6  O   UNL A   1      33.646  27.856  23.385  1.00  0.00    -0.268 OA
ATOM      7  H   UNL A   1      34.492  28.128  25.491  1.00  0.00     0.163 HD
BRANCH   5   8
ATOM      8  C   UNL A   1      31.949  26.253  24.185  1.00  0.00     0.305 C 
BRANCH   8   9
ATOM      9  C   UNL A   1      32.256  24.853  23.635  1.00  0.00     0.020 A 
ATOM     10  C   UNL A   1      32.427  22.441  24.074  1.00  0.00     0.007 A 
ATOM     11  C   UNL A   1      32.959  22.247  22.799  1.00  0.00     0.015 A 
ATOM     12  C   UNL A   1      32.018  23.725  24.453  1.00  0.00     0.025 A 
ATOM     13  C   UNL A   1      33.142  23.334  21.948  1.00  0.00     0.002 A 
ATOM     14  C   UNL A   1      32.826  24.625  22.377  1.00  0.00     0.010 A 
BRANCH  10  15
ATOM     15  S   UNL A   1      32.330  21.046  25.186  1.00  0.00    -0.130 SA
ATOM     16  C   UNL A   1      33.831  20.136  24.716  1.00  0.00     0.091 C 
ENDBRANCH  10  15
ENDBRANCH   8   9
BRANCH   8  17
ATOM     17  N   UNL A   1      30.716  26.864  23.606  1.00  0.00    -0.318 N 
ATOM     18  C   UNL A   1      29.542  26.001  23.681  1.00  0.00     0.334 C 
ATOM     19  H   UNL A   1      31.004  26.927  22.629  1.00  0.00     0.349 HD
BRANCH  17  20
ATOM     20  C   UNL A   1      30.412  28.281  23.877  1.00  0.00     0.324 C 
BRANCH  20  21
ATOM     21  C   UNL A   1      29.548  29.003  22.885  1.00  0.00     0.138 A 
ATOM     22  C   UNL A   1      28.159  29.280  22.933  1.00  0.00     0.075 A 
ATOM     23  N   UNL A   1      30.073  29.448  21.731  1.00  0.00    -0.079 NA
ATOM     24  C   UNL A   1      27.918  30.017  21.803  1.00  0.00     0.231 A 
ATOM     25  O   UNL A   1      29.054  30.109  21.074  1.00  0.00    -0.364 OA
ENDBRANCH  20  21
ENDBRANCH  17  20
ENDBRANCH   8  17
ENDBRANCH   5   8
ENDBRANCH   3   4
ENDBRANCH   2   3
ENDBRANCH   1   2
BRANCH   1  26
ATOM     26  C   UNL A   1      31.619  30.802  26.132  1.00  0.00     0.002 C 
BRANCH  26  27
ATOM     27  C   UNL A   1      31.380  32.236  26.605  1.00  0.00     0.021 C 
BRANCH  27  28
ATOM     28  C   UNL A   1      32.545  32.843  27.374  1.00  0.00     0.116 C 
BRANCH  28  29
ATOM     29  N   UNL A   1      32.329  34.251  27.664  1.00  0.00    -0.352 N 
ATOM     30  C   UNL A   1      32.949  35.043  28.595  1.00  0.00     0.251 C 
ATOM     31  H   UNL A   1      31.643  34.697  27.117  1.00  0.00     0.163 HD
ATOM     32  O   UNL A   1      32.507  36.158  28.857  1.00  0.00    -0.269 OA
BRANCH  30  33
ATOM     33  C   UNL A   1      34.144  34.537  29.300  1.00  0.00     0.039 A 
ATOM     34  C   UNL A   1      33.994  33.978  30.570  1.00  0.00     0.014 A 
ATOM     35  C   UNL A   1      35.406  34.604  28.702  1.00  0.00     0.014 A 
ATOM     36  C   UNL A   1      35.104  33.437  31.220  1.00  0.00     0.010 A 
ATOM     37  C   UNL A   1      36.494  33.991  29.315  1.00  0.00     0.010 A 
ATOM     38  C   UNL A   1      36.356  33.408  30.583  1.00  0.00    -0.014 A 
BRANCH  38  39
ATOM     39  C   UNL A   1      37.531  32.775  31.231  1.00  0.00     0.031 A 
ATOM     40  C   UNL A   1      38.185  31.575  30.603  1.00  0.00     0.074 A 
ATOM     41  C   UNL A   1      37.976  33.248  32.411  1.00  0.00     0.049 A 
ATOM     42  N   UNL A   1      39.191  30.860  31.042  1.00  0.00    -0.248 NA
ATOM     43  C   UNL A   1      37.620  31.099  29.330  1.00  0.00     0.031 C 
ATOM     44  C   UNL A   1      37.405  34.382  33.141  1.00  0.00     0.029 A 
ATOM     45  N   UNL A   1      39.012  32.828  33.208  1.00  0.00    -0.354 N 
ATOM     46  C   UNL A   1      39.370  29.850  30.106  1.00  0.00     0.074 A 
ATOM     47  C   UNL A   1      38.335  30.007  29.109  1.00  0.00     0.031 C 
ATOM     48  C   UNL A   1      38.117  34.587  34.261  1.00  0.00     0.029 A 
ATOM     49  C   UNL A   1      39.163  33.574  34.352  1.00  0.00     0.049 A 
ATOM     50  H   UNL A   1      39.591  32.066  32.981  1.00  0.00     0.167 HD
ATOM     51  C   UNL A   1      40.323  28.887  30.069  1.00  0.00     0.031 A 
ATOM     52  C   UNL A   1      40.040  33.450  35.366  1.00  0.00     0.031 A 
ATOM     53  C   UNL A   1      41.353  28.732  31.061  1.00  0.00     0.049 A 
ATOM     54  C   UNL A   1      41.069  32.355  35.316  1.00  0.00     0.074 A 
ATOM     55  C   UNL A   1      42.393  27.821  31.088  1.00  0.00     0.029 A 
ATOM     56  N   UNL A   1      41.468  29.505  32.207  1.00  0.00    -0.354 N 
ATOM     57  N   UNL A   1      41.268  31.449  34.390  1.00  0.00    -0.248 NA
ATOM     58  C   UNL A   1      42.003  32.275  36.448  1.00  0.00     0.031 C 
ATOM     59  C   UNL A   1      43.101  28.000  32.281  1.00  0.00     0.029 A 
ATOM     60  C   UNL A   1      42.544  29.071  32.962  1.00  0.00     0.049 A 
ATOM     61  H   UNL A   1      40.873  30.250  32.448  1.00  0.00     0.167 HD
ATOM     62  C   UNL A   1      42.367  30.711  34.811  1.00  0.00     0.074 A 
ATOM     63  C   UNL A   1      42.801  31.288  36.067  1.00  0.00     0.031 C 
ATOM     64  C   UNL A   1      42.963  29.652  34.212  1.00  0.00     0.031 A 
BRANCH  51  65
ATOM     65  C   UNL A   1      40.288  27.921  28.916  1.00  0.00    -0.014 A 
ATOM     66  C   UNL A   1      40.940  28.205  27.705  1.00  0.00     0.009 A 
ATOM     67  C   UNL A   1      39.624  26.692  29.056  1.00  0.00     0.009 A 
ATOM     68  C   UNL A   1      40.893  27.296  26.645  1.00  0.00     0.001 A 
ATOM     69  C   UNL A   1      39.608  25.771  28.007  1.00  0.00     0.001 A 
ATOM     70  C   UNL A   1      40.233  26.078  26.799  1.00  0.00     0.000 A 
ENDBRANCH  51  65
BRANCH  52  71
ATOM     71  C   UNL A   1      39.988  34.393  36.515  1.00  0.00    -0.014 A 
ATOM     72  C   UNL A   1      40.683  35.611  36.472  1.00  0.00     0.009 A 
ATOM     73  C   UNL A   1      39.251  34.074  37.668  1.00  0.00     0.009 A 
ATOM     74  C   UNL A   1      40.666  36.476  37.569  1.00  0.00     0.001 A 
ATOM     75  C   UNL A   1      39.209  34.956  38.750  1.00  0.00     0.001 A 
ATOM     76  C   UNL A   1      39.925  36.150  38.705  1.00  0.00     0.000 A 
ENDBRANCH  52  71
BRANCH  64  77
ATOM     77  C   UNL A   1      44.175  29.071  34.885  1.00  0.00    -0.014 A 
ATOM     78  C   UNL A   1      45.466  29.552  34.616  1.00  0.00     0.009 A 
ATOM     79  C   UNL A   1      44.016  28.051  35.837  1.00  0.00     0.009 A 
ATOM     80  C   UNL A   1      46.575  28.997  35.259  1.00  0.00     0.001 A 
ATOM     81  C   UNL A   1      45.123  27.521  36.502  1.00  0.00     0.001 A 
ATOM     82  C   UNL A   1      46.402  27.988  36.205  1.00  0.00     0.000 A 
ENDBRANCH  64  77
ENDBRANCH  38  39
ENDBRANCH  30  33
ENDBRANCH  28  29
ENDBRANCH  27  28
ENDBRANCH  26  27
ENDBRANCH   1  26
TORSDOF 18
ENDMDL
MODEL 3
REMARK VINA RESULT:     -10.6      4.939      9.731
REMARK SMILES CSc1cccc([C@@H](C(=O)NCCCCCCNC(=O)c2ccc(-c3c4nc(c(-c5ccccc5)c5ccc([nH]5)c(-c5ccccc5)c5nc(c(-c6ccccc6)c6ccc3[nH]6)C=C5)C=C4)cc2)[N@@H+](C)Cc2ccon2)c1
REMARK SMILES IDX 14 1 13 2 12 3 11 4 9 5 10 6 8 8 7 9 3 10 4 11 77 12 5 13
REMARK SMILES IDX 6 14 2 15 1 16 69 17 70 18 71 20 72 21 73 22 76 23 74 24
REMARK SMILES IDX 75 25 15 26 16 27 17 28 18 29 19 30 20 32 21 33 22 34 68 35
REMARK SMILES IDX 23 36 67 37 24 38 25 39 26 40 61 41 27 42 66 43 60 44 62 45
REMARK SMILES IDX 28 46 65 47 59 48 58 49 29 51 51 52 36 53 50 54 37 55 40 56
REMARK SMILES IDX 49 57 63 58 38 59 39 60 48 62 64 63 41 64 30 65 31 66 35 67
REMARK SMILES IDX 32 68 34 69 33 70 52 71 53 72 57 73 54 74 56 75 55 76 42 77
REMARK SMILES IDX 43 78 47 79 44 80 46 81 45 82
REMARK H PARENT 11 7 69 19 18 31 62 50 40 61
REMARK Flexibility Score: inf
ROOT
ATOM      1  C   UNL A   1      32.124  29.237  26.881  1.00  0.00     0.002 C 
ENDROOT
BRANCH   1   2
ATOM      2  C   UNL A   1      31.414  27.893  26.670  1.00  0.00     0.021 C 
BRANCH   2   3
ATOM      3  C   UNL A   1      32.230  26.883  25.871  1.00  0.00     0.116 C 
BRANCH   3   4
ATOM      4  N   UNL A   1      33.312  27.513  25.157  1.00  0.00    -0.351 N 
ATOM      5  C   UNL A   1      33.473  27.810  23.840  1.00  0.00     0.283 C 
ATOM      6  O   UNL A   1      34.346  28.664  23.637  1.00  0.00    -0.268 OA
ATOM      7  H   UNL A   1      34.072  27.776  25.725  1.00  0.00     0.163 HD
BRANCH   5   8
ATOM      8  C   UNL A   1      32.519  27.283  22.720  1.00  0.00     0.305 C 
BRANCH   8   9
ATOM      9  C   UNL A   1      31.041  27.689  22.808  1.00  0.00     0.020 A 
ATOM     10  C   UNL A   1      29.356  29.462  22.562  1.00  0.00     0.007 A 
ATOM     11  C   UNL A   1      28.387  28.614  23.097  1.00  0.00     0.015 A 
ATOM     12  C   UNL A   1      30.652  28.972  22.360  1.00  0.00     0.025 A 
ATOM     13  C   UNL A   1      28.729  27.322  23.485  1.00  0.00     0.002 A 
ATOM     14  C   UNL A   1      30.050  26.879  23.373  1.00  0.00     0.010 A 
BRANCH  10  15
ATOM     15  S   UNL A   1      28.913  31.154  22.199  1.00  0.00    -0.130 SA
ATOM     16  C   UNL A   1      27.694  31.471  23.508  1.00  0.00     0.091 C 
ENDBRANCH  10  15
ENDBRANCH   8   9
BRANCH   8  17
ATOM     17  N   UNL A   1      32.722  25.849  22.357  1.00  0.00    -0.318 N 
ATOM     18  C   UNL A   1      32.568  25.577  20.932  1.00  0.00     0.334 C 
ATOM     19  H   UNL A   1      31.928  25.439  22.848  1.00  0.00     0.349 HD
BRANCH  17  20
ATOM     20  C   UNL A   1      33.826  25.093  22.975  1.00  0.00     0.324 C 
BRANCH  20  21
ATOM     21  C   UNL A   1      33.497  23.761  23.582  1.00  0.00     0.138 A 
ATOM     22  C   UNL A   1      32.762  22.679  23.036  1.00  0.00     0.075 A 
ATOM     23  N   UNL A   1      33.873  23.482  24.841  1.00  0.00    -0.079 NA
ATOM     24  C   UNL A   1      32.829  21.702  23.995  1.00  0.00     0.231 A 
ATOM     25  O   UNL A   1      33.479  22.180  25.081  1.00  0.00    -0.364 OA
ENDBRANCH  20  21
ENDBRANCH  17  20
ENDBRANCH   8  17
ENDBRANCH   5   8
ENDBRANCH   3   4
ENDBRANCH   2   3
ENDBRANCH   1   2
BRANCH   1  26
ATOM     26  C   UNL A   1      31.695  30.355  25.926  1.00  0.00     0.002 C 
BRANCH  26  27
ATOM     27  C   UNL A   1      31.429  31.705  26.593  1.00  0.00     0.021 C 
BRANCH  27  28
ATOM     28  C   UNL A   1      32.659  32.344  27.220  1.00  0.00     0.116 C 
BRANCH  28  29
ATOM     29  N   UNL A   1      32.437  33.743  27.545  1.00  0.00    -0.352 N 
ATOM     30  C   UNL A   1      33.110  34.538  28.437  1.00  0.00     0.251 C 
ATOM     31  H   UNL A   1      31.704  34.181  27.056  1.00  0.00     0.163 HD
ATOM     32  O   UNL A   1      32.666  35.640  28.747  1.00  0.00    -0.269 OA
BRANCH  30  33
ATOM     33  C   UNL A   1      34.364  34.048  29.044  1.00  0.00     0.039 A 
ATOM     34  C   UNL A   1      34.298  33.284  30.210  1.00  0.00     0.014 A 
ATOM     35  C   UNL A   1      35.600  34.335  28.456  1.00  0.00     0.014 A 
ATOM     36  C   UNL A   1      35.471  32.760  30.757  1.00  0.00     0.010 A 
ATOM     37  C   UNL A   1      36.756  33.745  28.955  1.00  0.00     0.010 A 
ATOM     38  C   UNL A   1      36.705  32.958  30.114  1.00  0.00    -0.014 A 
BRANCH  38  39
ATOM     39  C   UNL A   1      37.950  32.351  30.644  1.00  0.00     0.031 A 
ATOM     40  C   UNL A   1      38.482  31.075  30.052  1.00  0.00     0.074 A 
ATOM     41  C   UNL A   1      38.574  32.920  31.695  1.00  0.00     0.049 A 
ATOM     42  N   UNL A   1      39.528  30.373  30.409  1.00  0.00    -0.248 NA
ATOM     43  C   UNL A   1      37.726  30.498  28.928  1.00  0.00     0.031 C 
ATOM     44  C   UNL A   1      38.139  34.137  32.383  1.00  0.00     0.029 A 
ATOM     45  N   UNL A   1      39.708  32.544  32.371  1.00  0.00    -0.354 N 
ATOM     46  C   UNL A   1      39.547  29.271  29.562  1.00  0.00     0.074 A 
ATOM     47  C   UNL A   1      38.379  29.366  28.715  1.00  0.00     0.031 C 
ATOM     48  C   UNL A   1      39.012  34.425  33.361  1.00  0.00     0.029 A 
ATOM     49  C   UNL A   1      40.041  33.391  33.400  1.00  0.00     0.049 A 
ATOM     50  H   UNL A   1      40.233  31.745  32.139  1.00  0.00     0.167 HD
ATOM     51  C   UNL A   1      40.466  28.279  29.483  1.00  0.00     0.031 A 
ATOM     52  C   UNL A   1      41.055  33.336  34.283  1.00  0.00     0.031 A 
ATOM     53  C   UNL A   1      41.628  28.186  30.326  1.00  0.00     0.049 A 
ATOM     54  C   UNL A   1      42.045  32.208  34.194  1.00  0.00     0.074 A 
ATOM     55  C   UNL A   1      42.643  27.246  30.292  1.00  0.00     0.029 A 
ATOM     56  N   UNL A   1      41.926  29.060  31.360  1.00  0.00    -0.354 N 
ATOM     57  N   UNL A   1      42.088  31.210  33.344  1.00  0.00    -0.248 NA
ATOM     58  C   UNL A   1      43.135  32.205  35.180  1.00  0.00     0.031 C 
ATOM     59  C   UNL A   1      43.523  27.516  31.345  1.00  0.00     0.029 A 
ATOM     60  C   UNL A   1      43.094  28.665  31.990  1.00  0.00     0.049 A 
ATOM     61  H   UNL A   1      41.387  29.845  31.609  1.00  0.00     0.167 HD
ATOM     62  C   UNL A   1      43.223  30.480  33.672  1.00  0.00     0.074 A 
ATOM     63  C   UNL A   1      43.849  31.160  34.788  1.00  0.00     0.031 C 
ATOM     64  C   UNL A   1      43.704  29.350  33.101  1.00  0.00     0.031 A 
BRANCH  51  65
ATOM     65  C   UNL A   1      40.242  27.208  28.450  1.00  0.00    -0.014 A 
ATOM     66  C   UNL A   1      40.785  27.314  27.160  1.00  0.00     0.009 A 
ATOM     67  C   UNL A   1      39.509  26.058  28.785  1.00  0.00     0.009 A 
ATOM     68  C   UNL A   1      40.564  26.310  26.213  1.00  0.00     0.001 A 
ATOM     69  C   UNL A   1      39.318  25.041  27.848  1.00  0.00     0.001 A 
ATOM     70  C   UNL A   1      39.836  25.173  26.560  1.00  0.00     0.000 A 
ENDBRANCH  51  65
BRANCH  52  71
ATOM     71  C   UNL A   1      41.192  34.386  35.328  1.00  0.00    -0.014 A 
ATOM     72  C   UNL A   1      40.545  34.253  36.565  1.00  0.00     0.009 A 
ATOM     73  C   UNL A   1      41.965  35.534  35.088  1.00  0.00     0.009 A 
ATOM     74  C   UNL A   1      40.643  35.260  37.528  1.00  0.00     0.001 A 
ATOM     75  C   UNL A   1      42.088  36.524  36.065  1.00  0.00     0.001 A 
ATOM     76  C   UNL A   1      41.418  36.392  37.280  1.00  0.00     0.000 A 
ENDBRANCH  52  71
BRANCH  64  77
ATOM     77  C   UNL A   1      44.991  28.796  33.646  1.00  0.00    -0.014 A 
ATOM     78  C   UNL A   1      46.238  29.235  33.172  1.00  0.00     0.009 A 
ATOM     79  C   UNL A   1      44.954  27.846  34.680  1.00  0.00     0.009 A 
ATOM     80  C   UNL A   1      47.418  28.707  33.699  1.00  0.00     0.001 A 
ATOM     81  C   UNL A   1      46.136  27.346  35.228  1.00  0.00     0.001 A 
ATOM     82  C   UNL A   1      47.367  27.768  34.729  1.00  0.00     0.000 A 
ENDBRANCH  64  77
ENDBRANCH  38  39
ENDBRANCH  30  33
ENDBRANCH  28  29
ENDBRANCH  27  28
ENDBRANCH  26  27
ENDBRANCH   1  26
TORSDOF 18
ENDMDL
