MODEL 1
REMARK VINA RESULT:     -12.8      0.000      0.000
REMARK SMILES COC(=O)c1ccc([C@H]2CC(=O)Nc3c(C(=O)NCCCCCCNC(=O)c4ccc(-c5c6nc(c(-c7ccccc7)c7ccc([nH]7)c(-c7ccccc7)c7nc(c(-c8ccccc8)c8ccc5[nH]8)C=C7)C=C6)cc4)cn(-c4ccccc4)c32)cc1
REMARK SMILES IDX 21 1 20 2 19 3 18 4 16 5 17 6 15 8 9 9 10 10 84 11 11 12
REMARK SMILES IDX 14 13 77 14 12 15 13 16 76 17 8 19 5 20 6 21 86 22 7 23
REMARK SMILES IDX 85 24 3 25 4 26 2 27 1 28 78 29 79 30 83 31 80 32 82 33
REMARK SMILES IDX 81 34 22 35 23 36 24 37 25 38 26 39 27 41 28 42 29 43 75 44
REMARK SMILES IDX 30 45 74 46 31 47 32 48 33 49 68 50 34 51 73 52 67 53 69 54
REMARK SMILES IDX 35 55 72 56 66 57 65 58 36 60 58 61 43 62 57 63 44 64 47 65
REMARK SMILES IDX 56 66 70 67 45 68 46 69 55 71 71 72 48 73 37 74 38 75 42 76
REMARK SMILES IDX 39 77 41 78 40 79 59 80 60 81 64 82 61 83 63 84 62 85 49 86
REMARK SMILES IDX 50 87 54 88 51 89 53 90 52 91
REMARK H PARENT 18 7 13 18 25 40 69 59 47 70
REMARK Flexibility Score: inf
ROOT
ATOM      1  C   UNL A   1      32.928  28.947  24.120  1.00  0.00     0.002 C 
ENDROOT
BRANCH   1   2
ATOM      2  C   UNL A   1      31.483  29.323  24.454  1.00  0.00     0.021 C 
BRANCH   2   3
ATOM      3  C   UNL A   1      30.553  29.306  23.233  1.00  0.00     0.116 C 
BRANCH   3   4
ATOM      4  N   UNL A   1      29.468  28.388  23.451  1.00  0.00    -0.352 N 
ATOM      5  C   UNL A   1      29.407  27.041  23.661  1.00  0.00     0.254 C 
ATOM      6  O   UNL A   1      28.266  26.602  23.841  1.00  0.00    -0.269 OA
ATOM      7  H   UNL A   1      28.585  28.821  23.449  1.00  0.00     0.163 HD
BRANCH   5   8
ATOM      8  C   UNL A   1      30.564  26.137  23.719  1.00  0.00     0.081 A 
ATOM      9  C   UNL A   1      33.397  23.816  22.910  1.00  0.00     0.078 C 
ATOM     10  C   UNL A   1      33.345  23.857  21.377  1.00  0.00     0.115 C 
ATOM     11  C   UNL A   1      32.353  24.715  23.527  1.00  0.00     0.055 A 
ATOM     12  C   UNL A   1      32.721  25.084  20.774  1.00  0.00     0.225 C 
ATOM     13  C   UNL A   1      31.525  25.570  22.825  1.00  0.00     0.076 A 
ATOM     14  N   UNL A   1      32.015  24.800  24.867  1.00  0.00    -0.317 N 
ATOM     15  O   UNL A   1      32.976  25.442  19.623  1.00  0.00    -0.275 OA
ATOM     16  N   UNL A   1      31.742  25.717  21.478  1.00  0.00    -0.324 N 
ATOM     17  C   UNL A   1      30.884  25.571  24.951  1.00  0.00     0.107 A 
ATOM     18  H   UNL A   1      31.146  26.324  20.983  1.00  0.00     0.170 HD
BRANCH   9  19
ATOM     19  C   UNL A   1      33.340  22.340  23.314  1.00  0.00    -0.038 A 
ATOM     20  C   UNL A   1      33.230  19.685  24.254  1.00  0.00     0.060 A 
ATOM     21  C   UNL A   1      34.335  20.490  24.545  1.00  0.00     0.016 A 
ATOM     22  C   UNL A   1      32.218  20.179  23.426  1.00  0.00     0.016 A 
ATOM     23  C   UNL A   1      34.385  21.809  24.088  1.00  0.00     0.005 A 
ATOM     24  C   UNL A   1      32.297  21.482  22.928  1.00  0.00     0.005 A 
BRANCH  20  25
ATOM     25  C   UNL A   1      33.159  18.336  24.880  1.00  0.00     0.337 C 
ATOM     26  O   UNL A   1      32.233  17.966  25.573  1.00  0.00    -0.246 OA
BRANCH  25  27
ATOM     27  O   UNL A   1      34.250  17.599  24.541  1.00  0.00    -0.465 OA
ATOM     28  C   UNL A   1      34.007  16.193  24.510  1.00  0.00     0.282 C 
ENDBRANCH  25  27
ENDBRANCH  20  25
ENDBRANCH   9  19
BRANCH  14  29
ATOM     29  C   UNL A   1      32.599  24.108  25.957  1.00  0.00     0.045 A 
ATOM     30  C   UNL A   1      33.943  24.309  26.284  1.00  0.00     0.026 A 
ATOM     31  C   UNL A   1      31.846  23.126  26.616  1.00  0.00     0.026 A 
ATOM     32  C   UNL A   1      34.554  23.478  27.222  1.00  0.00     0.002 A 
ATOM     33  C   UNL A   1      32.474  22.279  27.527  1.00  0.00     0.002 A 
ATOM     34  C   UNL A   1      33.828  22.447  27.820  1.00  0.00     0.000 A 
ENDBRANCH  14  29
ENDBRANCH   5   8
ENDBRANCH   3   4
ENDBRANCH   2   3
ENDBRANCH   1   2
BRANCH   1  35
ATOM     35  C   UNL A   1      33.645  28.126  25.203  1.00  0.00     0.002 C 
BRANCH  35  36
ATOM     36  C   UNL A   1      32.974  28.093  26.587  1.00  0.00     0.021 C 
BRANCH  36  37
ATOM     37  C   UNL A   1      33.753  28.846  27.655  1.00  0.00     0.116 C 
BRANCH  37  38
ATOM     38  N   UNL A   1      33.623  30.296  27.488  1.00  0.00    -0.352 N 
ATOM     39  C   UNL A   1      34.491  31.307  27.838  1.00  0.00     0.251 C 
ATOM     40  H   UNL A   1      32.788  30.593  27.061  1.00  0.00     0.163 HD
ATOM     41  O   UNL A   1      34.097  32.462  27.949  1.00  0.00    -0.269 OA
BRANCH  39  42
ATOM     42  C   UNL A   1      35.906  30.984  28.072  1.00  0.00     0.039 A 
ATOM     43  C   UNL A   1      36.732  31.824  28.823  1.00  0.00     0.014 A 
ATOM     44  C   UNL A   1      36.397  29.798  27.534  1.00  0.00     0.014 A 
ATOM     45  C   UNL A   1      38.035  31.414  29.088  1.00  0.00     0.010 A 
ATOM     46  C   UNL A   1      37.602  29.309  27.956  1.00  0.00     0.010 A 
ATOM     47  C   UNL A   1      38.455  30.142  28.666  1.00  0.00    -0.014 A 
BRANCH  47  48
ATOM     48  C   UNL A   1      39.756  29.611  29.043  1.00  0.00     0.031 A 
ATOM     49  C   UNL A   1      39.952  29.472  30.505  1.00  0.00     0.074 A 
ATOM     50  C   UNL A   1      40.628  29.083  28.158  1.00  0.00     0.049 A 
ATOM     51  N   UNL A   1      40.695  30.207  31.261  1.00  0.00    -0.248 NA
ATOM     52  C   UNL A   1      39.111  28.512  31.238  1.00  0.00     0.031 C 
ATOM     53  C   UNL A   1      40.442  28.856  26.718  1.00  0.00     0.029 A 
ATOM     54  N   UNL A   1      41.843  28.521  28.389  1.00  0.00    -0.354 N 
ATOM     55  C   UNL A   1      40.604  29.652  32.531  1.00  0.00     0.074 A 
ATOM     56  C   UNL A   1      39.467  28.765  32.500  1.00  0.00     0.031 C 
ATOM     57  C   UNL A   1      41.384  27.998  26.269  1.00  0.00     0.029 A 
ATOM     58  C   UNL A   1      42.340  27.765  27.334  1.00  0.00     0.049 A 
ATOM     59  H   UNL A   1      42.333  28.639  29.237  1.00  0.00     0.167 HD
ATOM     60  C   UNL A   1      41.650  29.732  33.400  1.00  0.00     0.031 A 
ATOM     61  C   UNL A   1      43.451  26.990  27.343  1.00  0.00     0.031 A 
ATOM     62  C   UNL A   1      42.626  30.704  32.963  1.00  0.00     0.049 A 
ATOM     63  C   UNL A   1      44.301  27.455  28.461  1.00  0.00     0.074 A 
ATOM     64  C   UNL A   1      42.602  32.050  32.659  1.00  0.00     0.029 A 
ATOM     65  N   UNL A   1      43.769  30.207  32.382  1.00  0.00    -0.354 N 
ATOM     66  N   UNL A   1      44.887  28.617  28.477  1.00  0.00    -0.248 NA
ATOM     67  C   UNL A   1      44.143  26.817  29.757  1.00  0.00     0.031 C 
ATOM     68  C   UNL A   1      43.462  32.188  31.528  1.00  0.00     0.029 A 
ATOM     69  C   UNL A   1      44.024  30.940  31.254  1.00  0.00     0.049 A 
ATOM     70  H   UNL A   1      44.311  29.457  32.718  1.00  0.00     0.167 HD
ATOM     71  C   UNL A   1      44.744  29.060  29.783  1.00  0.00     0.074 A 
ATOM     72  C   UNL A   1      44.392  27.865  30.548  1.00  0.00     0.031 C 
ATOM     73  C   UNL A   1      44.637  30.394  30.062  1.00  0.00     0.031 A 
BRANCH  60  74
ATOM     74  C   UNL A   1      42.026  28.614  34.348  1.00  0.00    -0.014 A 
ATOM     75  C   UNL A   1      42.495  27.406  33.800  1.00  0.00     0.009 A 
ATOM     76  C   UNL A   1      41.650  28.585  35.705  1.00  0.00     0.009 A 
ATOM     77  C   UNL A   1      42.486  26.218  34.538  1.00  0.00     0.001 A 
ATOM     78  C   UNL A   1      41.682  27.410  36.459  1.00  0.00     0.001 A 
ATOM     79  C   UNL A   1      42.066  26.218  35.865  1.00  0.00     0.000 A 
ENDBRANCH  60  74
BRANCH  61  80
ATOM     80  C   UNL A   1      43.728  25.733  26.617  1.00  0.00    -0.014 A 
ATOM     81  C   UNL A   1      42.674  24.924  26.161  1.00  0.00     0.009 A 
ATOM     82  C   UNL A   1      45.016  25.477  26.113  1.00  0.00     0.009 A 
ATOM     83  C   UNL A   1      42.893  23.931  25.197  1.00  0.00     0.001 A 
ATOM     84  C   UNL A   1      45.235  24.483  25.152  1.00  0.00     0.001 A 
ATOM     85  C   UNL A   1      44.169  23.724  24.681  1.00  0.00     0.000 A 
ENDBRANCH  61  80
BRANCH  73  86
ATOM     86  C   UNL A   1      44.957  31.374  28.958  1.00  0.00    -0.014 A 
ATOM     87  C   UNL A   1      44.026  31.781  27.986  1.00  0.00     0.009 A 
ATOM     88  C   UNL A   1      46.210  32.004  28.981  1.00  0.00     0.009 A 
ATOM     89  C   UNL A   1      44.356  32.763  27.044  1.00  0.00     0.001 A 
ATOM     90  C   UNL A   1      46.530  33.000  28.056  1.00  0.00     0.001 A 
ATOM     91  C   UNL A   1      45.607  33.374  27.083  1.00  0.00     0.000 A 
ENDBRANCH  73  86
ENDBRANCH  47  48
ENDBRANCH  39  42
ENDBRANCH  37  38
ENDBRANCH  36  37
ENDBRANCH  35  36
ENDBRANCH   1  35
TORSDOF 17
ENDMDL
MODEL 2
REMARK VINA RESULT:     -12.3      2.223      3.554
REMARK SMILES COC(=O)c1ccc([C@H]2CC(=O)Nc3c(C(=O)NCCCCCCNC(=O)c4ccc(-c5c6nc(c(-c7ccccc7)c7ccc([nH]7)c(-c7ccccc7)c7nc(c(-c8ccccc8)c8ccc5[nH]8)C=C7)C=C6)cc4)cn(-c4ccccc4)c32)cc1
REMARK SMILES IDX 21 1 20 2 19 3 18 4 16 5 17 6 15 8 9 9 10 10 84 11 11 12
REMARK SMILES IDX 14 13 77 14 12 15 13 16 76 17 8 19 5 20 6 21 86 22 7 23
REMARK SMILES IDX 85 24 3 25 4 26 2 27 1 28 78 29 79 30 83 31 80 32 82 33
REMARK SMILES IDX 81 34 22 35 23 36 24 37 25 38 26 39 27 41 28 42 29 43 75 44
REMARK SMILES IDX 30 45 74 46 31 47 32 48 33 49 68 50 34 51 73 52 67 53 69 54
REMARK SMILES IDX 35 55 72 56 66 57 65 58 36 60 58 61 43 62 57 63 44 64 47 65
REMARK SMILES IDX 56 66 70 67 45 68 46 69 55 71 71 72 48 73 37 74 38 75 42 76
REMARK SMILES IDX 39 77 41 78 40 79 59 80 60 81 64 82 61 83 63 84 62 85 49 86
REMARK SMILES IDX 50 87 54 88 51 89 53 90 52 91
REMARK H PARENT 18 7 13 18 25 40 69 59 47 70
REMARK Flexibility Score: inf
ROOT
ATOM      1  C   UNL A   1      34.751  31.564  28.126  1.00  0.00     0.002 C 
ENDROOT
BRANCH   1   2
ATOM      2  C   UNL A   1      34.871  30.598  26.945  1.00  0.00     0.021 C 
BRANCH   2   3
ATOM      3  C   UNL A   1      34.622  29.134  27.332  1.00  0.00     0.116 C 
BRANCH   3   4
ATOM      4  N   UNL A   1      33.259  28.960  27.757  1.00  0.00    -0.352 N 
ATOM      5  C   UNL A   1      32.266  28.096  27.397  1.00  0.00     0.254 C 
ATOM      6  O   UNL A   1      31.210  28.240  28.023  1.00  0.00    -0.269 OA
ATOM      7  H   UNL A   1      32.986  29.596  28.456  1.00  0.00     0.163 HD
BRANCH   5   8
ATOM      8  C   UNL A   1      32.388  27.038  26.384  1.00  0.00     0.081 A 
ATOM      9  C   UNL A   1      31.736  24.404  23.795  1.00  0.00     0.078 C 
ATOM     10  C   UNL A   1      30.217  24.555  23.638  1.00  0.00     0.115 C 
ATOM     11  C   UNL A   1      32.296  25.397  24.785  1.00  0.00     0.055 A 
ATOM     12  C   UNL A   1      29.648  25.894  24.013  1.00  0.00     0.225 C 
ATOM     13  C   UNL A   1      31.572  26.404  25.395  1.00  0.00     0.076 A 
ATOM     14  N   UNL A   1      33.587  25.438  25.282  1.00  0.00    -0.317 N 
ATOM     15  O   UNL A   1      28.571  26.290  23.564  1.00  0.00    -0.275 OA
ATOM     16  N   UNL A   1      30.279  26.609  24.986  1.00  0.00    -0.324 N 
ATOM     17  C   UNL A   1      33.598  26.351  26.306  1.00  0.00     0.107 A 
ATOM     18  H   UNL A   1      29.768  27.325  25.428  1.00  0.00     0.170 HD
BRANCH   9  19
ATOM     19  C   UNL A   1      32.005  22.927  24.095  1.00  0.00    -0.038 A 
ATOM     20  C   UNL A   1      32.680  20.229  24.552  1.00  0.00     0.060 A 
ATOM     21  C   UNL A   1      32.491  20.697  23.248  1.00  0.00     0.016 A 
ATOM     22  C   UNL A   1      32.452  21.088  25.630  1.00  0.00     0.016 A 
ATOM     23  C   UNL A   1      32.167  22.036  23.021  1.00  0.00     0.005 A 
ATOM     24  C   UNL A   1      32.077  22.414  25.401  1.00  0.00     0.005 A 
BRANCH  20  25
ATOM     25  C   UNL A   1      33.161  18.832  24.734  1.00  0.00     0.337 C 
ATOM     26  O   UNL A   1      34.292  18.473  24.474  1.00  0.00    -0.246 OA
BRANCH  25  27
ATOM     27  O   UNL A   1      32.172  18.054  25.248  1.00  0.00    -0.465 OA
ATOM     28  C   UNL A   1      32.392  16.655  25.075  1.00  0.00     0.282 C 
ENDBRANCH  25  27
ENDBRANCH  20  25
ENDBRANCH   9  19
BRANCH  14  29
ATOM     29  C   UNL A   1      34.677  24.601  24.942  1.00  0.00     0.045 A 
ATOM     30  C   UNL A   1      34.955  24.310  23.603  1.00  0.00     0.026 A 
ATOM     31  C   UNL A   1      35.389  23.966  25.970  1.00  0.00     0.026 A 
ATOM     32  C   UNL A   1      35.897  23.330  23.294  1.00  0.00     0.002 A 
ATOM     33  C   UNL A   1      36.305  22.964  25.651  1.00  0.00     0.002 A 
ATOM     34  C   UNL A   1      36.549  22.639  24.316  1.00  0.00     0.000 A 
ENDBRANCH  14  29
ENDBRANCH   5   8
ENDBRANCH   3   4
ENDBRANCH   2   3
ENDBRANCH   1   2
BRANCH   1  35
ATOM     35  C   UNL A   1      35.611  32.833  28.008  1.00  0.00     0.002 C 
BRANCH  35  36
ATOM     36  C   UNL A   1      34.911  34.162  28.338  1.00  0.00     0.021 C 
BRANCH  36  37
ATOM     37  C   UNL A   1      33.503  33.985  28.884  1.00  0.00     0.116 C 
BRANCH  37  38
ATOM     38  N   UNL A   1      33.290  34.796  30.086  1.00  0.00    -0.352 N 
ATOM     39  C   UNL A   1      33.773  34.624  31.365  1.00  0.00     0.251 C 
ATOM     40  H   UNL A   1      32.714  35.584  29.960  1.00  0.00     0.163 HD
ATOM     41  O   UNL A   1      33.234  35.177  32.317  1.00  0.00    -0.269 OA
BRANCH  39  42
ATOM     42  C   UNL A   1      34.951  33.772  31.574  1.00  0.00     0.039 A 
ATOM     43  C   UNL A   1      34.836  32.383  31.684  1.00  0.00     0.014 A 
ATOM     44  C   UNL A   1      36.195  34.390  31.641  1.00  0.00     0.014 A 
ATOM     45  C   UNL A   1      35.999  31.624  31.785  1.00  0.00     0.010 A 
ATOM     46  C   UNL A   1      37.333  33.639  31.543  1.00  0.00     0.010 A 
ATOM     47  C   UNL A   1      37.246  32.263  31.693  1.00  0.00    -0.014 A 
BRANCH  47  48
ATOM     48  C   UNL A   1      38.484  31.500  31.647  1.00  0.00     0.031 A 
ATOM     49  C   UNL A   1      39.105  31.272  32.973  1.00  0.00     0.074 A 
ATOM     50  C   UNL A   1      38.924  30.863  30.541  1.00  0.00     0.049 A 
ATOM     51  N   UNL A   1      40.166  31.837  33.440  1.00  0.00    -0.248 NA
ATOM     52  C   UNL A   1      38.382  30.446  33.954  1.00  0.00     0.031 C 
ATOM     53  C   UNL A   1      38.255  30.727  29.240  1.00  0.00     0.029 A 
ATOM     54  N   UNL A   1      40.030  30.089  30.385  1.00  0.00    -0.354 N 
ATOM     55  C   UNL A   1      40.384  31.258  34.683  1.00  0.00     0.074 A 
ATOM     56  C   UNL A   1      39.158  30.584  35.032  1.00  0.00     0.031 C 
ATOM     57  C   UNL A   1      38.839  29.736  28.530  1.00  0.00     0.029 A 
ATOM     58  C   UNL A   1      40.026  29.300  29.241  1.00  0.00     0.049 A 
ATOM     59  H   UNL A   1      40.775  30.087  31.030  1.00  0.00     0.167 HD
ATOM     60  C   UNL A   1      41.647  31.121  35.173  1.00  0.00     0.031 A 
ATOM     61  C   UNL A   1      40.927  28.344  28.911  1.00  0.00     0.031 A 
ATOM     62  C   UNL A   1      42.591  31.924  34.431  1.00  0.00     0.049 A 
ATOM     63  C   UNL A   1      42.155  28.610  29.692  1.00  0.00     0.074 A 
ATOM     64  C   UNL A   1      42.711  33.265  34.125  1.00  0.00     0.029 A 
ATOM     65  N   UNL A   1      43.386  31.260  33.525  1.00  0.00    -0.354 N 
ATOM     66  N   UNL A   1      42.912  29.651  29.499  1.00  0.00    -0.248 NA
ATOM     67  C   UNL A   1      42.304  27.960  30.983  1.00  0.00     0.031 C 
ATOM     68  C   UNL A   1      43.180  33.295  32.777  1.00  0.00     0.029 A 
ATOM     69  C   UNL A   1      43.396  31.980  32.361  1.00  0.00     0.049 A 
ATOM     70  H   UNL A   1      43.864  30.414  33.687  1.00  0.00     0.167 HD
ATOM     71  C   UNL A   1      43.270  30.062  30.774  1.00  0.00     0.074 A 
ATOM     72  C   UNL A   1      42.972  28.917  31.634  1.00  0.00     0.031 C 
ATOM     73  C   UNL A   1      43.494  31.381  31.047  1.00  0.00     0.031 A 
BRANCH  60  74
ATOM     74  C   UNL A   1      42.099  29.919  35.974  1.00  0.00    -0.014 A 
ATOM     75  C   UNL A   1      43.309  30.011  36.687  1.00  0.00     0.009 A 
ATOM     76  C   UNL A   1      41.563  28.628  35.807  1.00  0.00     0.009 A 
ATOM     77  C   UNL A   1      43.992  28.867  37.113  1.00  0.00     0.001 A 
ATOM     78  C   UNL A   1      42.221  27.486  36.270  1.00  0.00     0.001 A 
ATOM     79  C   UNL A   1      43.454  27.603  36.892  1.00  0.00     0.000 A 
ENDBRANCH  60  74
BRANCH  61  80
ATOM     80  C   UNL A   1      40.733  27.087  28.159  1.00  0.00    -0.014 A 
ATOM     81  C   UNL A   1      39.787  26.140  28.582  1.00  0.00     0.009 A 
ATOM     82  C   UNL A   1      41.264  26.949  26.863  1.00  0.00     0.009 A 
ATOM     83  C   UNL A   1      39.349  25.124  27.721  1.00  0.00     0.001 A 
ATOM     84  C   UNL A   1      40.829  25.933  26.005  1.00  0.00     0.001 A 
ATOM     85  C   UNL A   1      39.856  25.033  26.428  1.00  0.00     0.000 A 
ENDBRANCH  61  80
BRANCH  73  86
ATOM     86  C   UNL A   1      43.618  32.333  29.881  1.00  0.00    -0.014 A 
ATOM     87  C   UNL A   1      42.614  33.248  29.514  1.00  0.00     0.009 A 
ATOM     88  C   UNL A   1      44.847  32.393  29.207  1.00  0.00     0.009 A 
ATOM     89  C   UNL A   1      42.826  34.168  28.481  1.00  0.00     0.001 A 
ATOM     90  C   UNL A   1      45.065  33.326  28.192  1.00  0.00     0.001 A 
ATOM     91  C   UNL A   1      44.053  34.208  27.823  1.00  0.00     0.000 A 
ENDBRANCH  73  86
ENDBRANCH  47  48
ENDBRANCH  39  42
ENDBRANCH  37  38
ENDBRANCH  36  37
ENDBRANCH  35  36
ENDBRANCH   1  35
TORSDOF 17
ENDMDL
MODEL 3
REMARK VINA RESULT:     -11.5      2.805      6.601
REMARK SMILES COC(=O)c1ccc([C@H]2CC(=O)Nc3c(C(=O)NCCCCCCNC(=O)c4ccc(-c5c6nc(c(-c7ccccc7)c7ccc([nH]7)c(-c7ccccc7)c7nc(c(-c8ccccc8)c8ccc5[nH]8)C=C7)C=C6)cc4)cn(-c4ccccc4)c32)cc1
REMARK SMILES IDX 21 1 20 2 19 3 18 4 16 5 17 6 15 8 9 9 10 10 84 11 11 12
REMARK SMILES IDX 14 13 77 14 12 15 13 16 76 17 8 19 5 20 6 21 86 22 7 23
REMARK SMILES IDX 85 24 3 25 4 26 2 27 1 28 78 29 79 30 83 31 80 32 82 33
REMARK SMILES IDX 81 34 22 35 23 36 24 37 25 38 26 39 27 41 28 42 29 43 75 44
REMARK SMILES IDX 30 45 74 46 31 47 32 48 33 49 68 50 34 51 73 52 67 53 69 54
REMARK SMILES IDX 35 55 72 56 66 57 65 58 36 60 58 61 43 62 57 63 44 64 47 65
REMARK SMILES IDX 56 66 70 67 45 68 46 69 55 71 71 72 48 73 37 74 38 75 42 76
REMARK SMILES IDX 39 77 41 78 40 79 59 80 60 81 64 82 61 83 63 84 62 85 49 86
REMARK SMILES IDX 50 87 54 88 51 89 53 90 52 91
REMARK H PARENT 18 7 13 18 25 40 69 59 47 70
REMARK Flexibility Score: inf
ROOT
ATOM      1  C   UNL A   1      32.832  28.613  24.541  1.00  0.00     0.002 C 
ENDROOT
BRANCH   1   2
ATOM      2  C   UNL A   1      31.439  29.206  24.762  1.00  0.00     0.021 C 
BRANCH   2   3
ATOM      3  C   UNL A   1      30.580  29.226  23.490  1.00  0.00     0.116 C 
BRANCH   3   4
ATOM      4  N   UNL A   1      29.491  28.295  23.614  1.00  0.00    -0.352 N 
ATOM      5  C   UNL A   1      29.426  26.939  23.748  1.00  0.00     0.254 C 
ATOM      6  O   UNL A   1      28.281  26.489  23.859  1.00  0.00    -0.269 OA
ATOM      7  H   UNL A   1      28.607  28.727  23.602  1.00  0.00     0.163 HD
BRANCH   5   8
ATOM      8  C   UNL A   1      30.584  26.035  23.802  1.00  0.00     0.081 A 
ATOM      9  C   UNL A   1      33.414  23.715  22.982  1.00  0.00     0.078 C 
ATOM     10  C   UNL A   1      33.358  23.757  21.449  1.00  0.00     0.115 C 
ATOM     11  C   UNL A   1      32.372  24.613  23.603  1.00  0.00     0.055 A 
ATOM     12  C   UNL A   1      32.732  24.984  20.849  1.00  0.00     0.225 C 
ATOM     13  C   UNL A   1      31.542  25.469  22.904  1.00  0.00     0.076 A 
ATOM     14  N   UNL A   1      32.039  24.697  24.944  1.00  0.00    -0.317 N 
ATOM     15  O   UNL A   1      32.983  25.344  19.698  1.00  0.00    -0.275 OA
ATOM     16  N   UNL A   1      31.754  25.617  21.556  1.00  0.00    -0.324 N 
ATOM     17  C   UNL A   1      30.908  25.468  25.032  1.00  0.00     0.107 A 
ATOM     18  H   UNL A   1      31.157  26.224  21.064  1.00  0.00     0.170 HD
BRANCH   9  19
ATOM     19  C   UNL A   1      33.359  22.239  23.385  1.00  0.00    -0.038 A 
ATOM     20  C   UNL A   1      33.265  19.582  24.324  1.00  0.00     0.060 A 
ATOM     21  C   UNL A   1      34.399  20.370  24.548  1.00  0.00     0.016 A 
ATOM     22  C   UNL A   1      32.212  20.096  23.561  1.00  0.00     0.016 A 
ATOM     23  C   UNL A   1      34.441  21.689  24.092  1.00  0.00     0.005 A 
ATOM     24  C   UNL A   1      32.280  21.399  23.063  1.00  0.00     0.005 A 
BRANCH  20  25
ATOM     25  C   UNL A   1      33.211  18.233  24.950  1.00  0.00     0.337 C 
ATOM     26  O   UNL A   1      32.288  17.850  25.639  1.00  0.00    -0.246 OA
BRANCH  25  27
ATOM     27  O   UNL A   1      34.314  17.512  24.615  1.00  0.00    -0.465 OA
ATOM     28  C   UNL A   1      34.225  16.130  24.960  1.00  0.00     0.282 C 
ENDBRANCH  25  27
ENDBRANCH  20  25
ENDBRANCH   9  19
BRANCH  14  29
ATOM     29  C   UNL A   1      32.626  24.005  26.032  1.00  0.00     0.045 A 
ATOM     30  C   UNL A   1      33.980  24.180  26.333  1.00  0.00     0.026 A 
ATOM     31  C   UNL A   1      31.864  23.048  26.715  1.00  0.00     0.026 A 
ATOM     32  C   UNL A   1      34.588  23.346  27.270  1.00  0.00     0.002 A 
ATOM     33  C   UNL A   1      32.489  22.196  27.625  1.00  0.00     0.002 A 
ATOM     34  C   UNL A   1      33.851  22.338  27.893  1.00  0.00     0.000 A 
ENDBRANCH  14  29
ENDBRANCH   5   8
ENDBRANCH   3   4
ENDBRANCH   2   3
ENDBRANCH   1   2
BRANCH   1  35
ATOM     35  C   UNL A   1      33.463  27.972  25.788  1.00  0.00     0.002 C 
BRANCH  35  36
ATOM     36  C   UNL A   1      34.548  28.796  26.501  1.00  0.00     0.021 C 
BRANCH  36  37
ATOM     37  C   UNL A   1      34.037  29.544  27.722  1.00  0.00     0.116 C 
BRANCH  37  38
ATOM     38  N   UNL A   1      33.725  30.939  27.402  1.00  0.00    -0.352 N 
ATOM     39  C   UNL A   1      34.121  32.100  28.030  1.00  0.00     0.251 C 
ATOM     40  H   UNL A   1      33.143  31.066  26.618  1.00  0.00     0.163 HD
ATOM     41  O   UNL A   1      33.507  33.147  27.858  1.00  0.00    -0.269 OA
BRANCH  39  42
ATOM     42  C   UNL A   1      35.299  32.070  28.907  1.00  0.00     0.039 A 
ATOM     43  C   UNL A   1      36.441  31.338  28.571  1.00  0.00     0.014 A 
ATOM     44  C   UNL A   1      35.251  32.813  30.082  1.00  0.00     0.014 A 
ATOM     45  C   UNL A   1      37.557  31.427  29.397  1.00  0.00     0.010 A 
ATOM     46  C   UNL A   1      36.401  33.054  30.780  1.00  0.00     0.010 A 
ATOM     47  C   UNL A   1      37.534  32.307  30.492  1.00  0.00    -0.014 A 
BRANCH  47  48
ATOM     48  C   UNL A   1      38.722  32.544  31.297  1.00  0.00     0.031 A 
ATOM     49  C   UNL A   1      39.787  33.300  30.597  1.00  0.00     0.074 A 
ATOM     50  C   UNL A   1      38.780  32.301  32.624  1.00  0.00     0.049 A 
ATOM     51  N   UNL A   1      40.905  32.834  30.155  1.00  0.00    -0.248 NA
ATOM     52  C   UNL A   1      39.517  34.692  30.203  1.00  0.00     0.031 C 
ATOM     53  C   UNL A   1      37.703  31.857  33.519  1.00  0.00     0.029 A 
ATOM     54  N   UNL A   1      39.808  32.520  33.486  1.00  0.00    -0.354 N 
ATOM     55  C   UNL A   1      41.589  33.927  29.638  1.00  0.00     0.074 A 
ATOM     56  C   UNL A   1      40.615  34.981  29.499  1.00  0.00     0.031 C 
ATOM     57  C   UNL A   1      38.061  32.075  34.803  1.00  0.00     0.029 A 
ATOM     58  C   UNL A   1      39.448  32.495  34.829  1.00  0.00     0.049 A 
ATOM     59  H   UNL A   1      40.731  32.683  33.185  1.00  0.00     0.167 HD
ATOM     60  C   UNL A   1      42.950  33.968  29.661  1.00  0.00     0.031 A 
ATOM     61  C   UNL A   1      40.234  32.814  35.885  1.00  0.00     0.031 A 
ATOM     62  C   UNL A   1      43.513  32.668  29.945  1.00  0.00     0.049 A 
ATOM     63  C   UNL A   1      41.639  32.713  35.433  1.00  0.00     0.074 A 
ATOM     64  C   UNL A   1      43.427  31.416  29.371  1.00  0.00     0.029 A 
ATOM     65  N   UNL A   1      43.975  32.465  31.225  1.00  0.00    -0.354 N 
ATOM     66  N   UNL A   1      42.207  31.587  35.114  1.00  0.00    -0.248 NA
ATOM     67  C   UNL A   1      42.280  33.907  34.908  1.00  0.00     0.031 C 
ATOM     68  C   UNL A   1      43.383  30.508  30.472  1.00  0.00     0.029 A 
ATOM     69  C   UNL A   1      43.524  31.244  31.650  1.00  0.00     0.049 A 
ATOM     70  H   UNL A   1      44.535  33.087  31.744  1.00  0.00     0.167 HD
ATOM     71  C   UNL A   1      42.967  31.886  33.994  1.00  0.00     0.074 A 
ATOM     72  C   UNL A   1      43.071  33.345  33.990  1.00  0.00     0.031 C 
ATOM     73  C   UNL A   1      43.187  30.947  33.026  1.00  0.00     0.031 A 
BRANCH  60  74
ATOM     74  C   UNL A   1      43.736  35.236  29.918  1.00  0.00    -0.014 A 
ATOM     75  C   UNL A   1      44.924  35.441  29.193  1.00  0.00     0.009 A 
ATOM     76  C   UNL A   1      43.530  36.065  31.037  1.00  0.00     0.009 A 
ATOM     77  C   UNL A   1      45.896  36.348  29.629  1.00  0.00     0.001 A 
ATOM     78  C   UNL A   1      44.479  37.003  31.450  1.00  0.00     0.001 A 
ATOM     79  C   UNL A   1      45.679  37.120  30.766  1.00  0.00     0.000 A 
ENDBRANCH  60  74
BRANCH  61  80
ATOM     80  C   UNL A   1      39.869  33.426  37.180  1.00  0.00    -0.014 A 
ATOM     81  C   UNL A   1      40.535  33.054  38.359  1.00  0.00     0.009 A 
ATOM     82  C   UNL A   1      39.076  34.587  37.214  1.00  0.00     0.009 A 
ATOM     83  C   UNL A   1      40.451  33.843  39.514  1.00  0.00     0.001 A 
ATOM     84  C   UNL A   1      38.990  35.374  38.368  1.00  0.00     0.001 A 
ATOM     85  C   UNL A   1      39.694  35.012  39.512  1.00  0.00     0.000 A 
ENDBRANCH  61  80
BRANCH  73  86
ATOM     86  C   UNL A   1      42.825  29.514  33.337  1.00  0.00    -0.014 A 
ATOM     87  C   UNL A   1      43.751  28.560  33.795  1.00  0.00     0.009 A 
ATOM     88  C   UNL A   1      41.471  29.152  33.286  1.00  0.00     0.009 A 
ATOM     89  C   UNL A   1      43.335  27.273  34.155  1.00  0.00     0.001 A 
ATOM     90  C   UNL A   1      41.054  27.875  33.667  1.00  0.00     0.001 A 
ATOM     91  C   UNL A   1      41.986  26.933  34.094  1.00  0.00     0.000 A 
ENDBRANCH  73  86
ENDBRANCH  47  48
ENDBRANCH  39  42
ENDBRANCH  37  38
ENDBRANCH  36  37
ENDBRANCH  35  36
ENDBRANCH   1  35
TORSDOF 17
ENDMDL
