MODEL 1
REMARK VINA RESULT:     -11.9      0.000      0.000
REMARK SMILES O=C(NCCCCCCNC(=O)c1cc(Cl)cc(Cl)c1NC(=S)NC(=O)c1cccc2ccccc12)c1ccc(-c2c3nc(c(-c4ccccc4)c4ccc([nH]4)c(-c4ccccc4)c4nc(c(-c5ccccc5)c5ccc2[nH]5)C=C4)C=C3)cc1
REMARK SMILES IDX 7 1 6 2 5 3 4 4 3 5 1 6 2 7 37 9 38 10 84 11 39 12 83 13
REMARK SMILES IDX 40 14 41 15 42 16 77 17 43 18 82 19 76 20 78 21 44 22 81 23
REMARK SMILES IDX 75 24 74 25 45 27 67 28 52 29 66 30 53 31 56 32 65 33 79 34
REMARK SMILES IDX 54 35 55 36 64 38 80 39 57 40 46 41 47 42 51 43 48 44 50 45
REMARK SMILES IDX 49 46 68 47 69 48 73 49 70 50 72 51 71 52 58 53 59 54 63 55
REMARK SMILES IDX 60 56 62 57 61 58 8 59 9 60 10 61 11 62 12 64 13 65 14 66
REMARK SMILES IDX 20 67 15 68 18 69 16 70 17 71 19 72 21 73 22 75 23 76 24 77
REMARK SMILES IDX 25 78 26 80 27 81 28 82 36 83 29 84 31 85 35 86 30 87 32 88
REMARK SMILES IDX 34 89 33 90
REMARK H PARENT 3 8 78 26 56 37 10 63 21 74 24 79
REMARK Flexibility Score: inf
ROOT
ATOM      1  C   UNL A   1      38.987  23.476  26.031  1.00  0.00     0.002 C 
ENDROOT
BRANCH   1   2
ATOM      2  C   UNL A   1      39.594  22.326  26.843  1.00  0.00     0.002 C 
BRANCH   2   3
ATOM      3  C   UNL A   1      39.827  21.005  26.104  1.00  0.00     0.021 C 
BRANCH   3   4
ATOM      4  C   UNL A   1      40.762  20.006  26.778  1.00  0.00     0.116 C 
BRANCH   4   5
ATOM      5  N   UNL A   1      41.947  19.715  25.995  1.00  0.00    -0.352 N 
ATOM      6  O   UNL A   1      43.872  20.117  24.906  1.00  0.00    -0.269 OA
ATOM      7  C   UNL A   1      43.002  20.531  25.667  1.00  0.00     0.251 C 
ATOM      8  H   UNL A   1      42.004  18.795  25.647  1.00  0.00     0.163 HD
BRANCH   7   9
ATOM      9  C   UNL A   1      43.090  21.917  26.188  1.00  0.00     0.039 A 
ATOM     10  C   UNL A   1      43.030  23.032  25.347  1.00  0.00     0.014 A 
ATOM     11  C   UNL A   1      43.182  22.100  27.574  1.00  0.00     0.014 A 
ATOM     12  C   UNL A   1      43.160  24.316  25.878  1.00  0.00     0.010 A 
ATOM     13  C   UNL A   1      43.263  23.388  28.111  1.00  0.00     0.010 A 
ATOM     14  C   UNL A   1      43.278  24.505  27.264  1.00  0.00    -0.014 A 
BRANCH  14  15
ATOM     15  C   UNL A   1      43.370  25.879  27.817  1.00  0.00     0.031 A 
ATOM     16  C   UNL A   1      44.702  26.538  28.032  1.00  0.00     0.074 A 
ATOM     17  C   UNL A   1      42.239  26.545  28.114  1.00  0.00     0.049 A 
ATOM     18  N   UNL A   1      44.960  27.747  28.466  1.00  0.00    -0.248 NA
ATOM     19  C   UNL A   1      45.899  25.741  27.724  1.00  0.00     0.031 C 
ATOM     20  C   UNL A   1      40.882  26.016  27.966  1.00  0.00     0.029 A 
ATOM     21  N   UNL A   1      42.053  27.819  28.585  1.00  0.00    -0.354 N 
ATOM     22  C   UNL A   1      46.344  27.852  28.498  1.00  0.00     0.074 A 
ATOM     23  C   UNL A   1      46.873  26.581  28.050  1.00  0.00     0.031 C 
ATOM     24  C   UNL A   1      40.001  26.972  28.304  1.00  0.00     0.029 A 
ATOM     25  C   UNL A   1      40.732  28.166  28.716  1.00  0.00     0.049 A 
ATOM     26  H   UNL A   1      42.795  28.426  28.809  1.00  0.00     0.167 HD
ATOM     27  C   UNL A   1      47.106  28.910  28.864  1.00  0.00     0.031 A 
ATOM     28  C   UNL A   1      40.167  29.319  29.119  1.00  0.00     0.031 A 
ATOM     29  C   UNL A   1      46.595  30.181  29.300  1.00  0.00     0.049 A 
ATOM     30  C   UNL A   1      41.033  30.474  29.520  1.00  0.00     0.074 A 
ATOM     31  C   UNL A   1      47.299  31.320  29.651  1.00  0.00     0.029 A 
ATOM     32  N   UNL A   1      45.251  30.481  29.445  1.00  0.00    -0.354 N 
ATOM     33  N   UNL A   1      42.339  30.563  29.513  1.00  0.00    -0.248 NA
ATOM     34  C   UNL A   1      40.343  31.685  29.987  1.00  0.00     0.031 C 
ATOM     35  C   UNL A   1      46.379  32.305  30.032  1.00  0.00     0.029 A 
ATOM     36  C   UNL A   1      45.105  31.781  29.898  1.00  0.00     0.049 A 
ATOM     37  H   UNL A   1      44.510  29.860  29.256  1.00  0.00     0.167 HD
ATOM     38  C   UNL A   1      42.631  31.838  29.974  1.00  0.00     0.074 A 
ATOM     39  C   UNL A   1      41.365  32.493  30.238  1.00  0.00     0.031 C 
ATOM     40  C   UNL A   1      43.842  32.413  30.166  1.00  0.00     0.031 A 
BRANCH  27  41
ATOM     41  C   UNL A   1      48.594  28.728  28.817  1.00  0.00    -0.014 A 
ATOM     42  C   UNL A   1      49.318  29.032  27.655  1.00  0.00     0.009 A 
ATOM     43  C   UNL A   1      49.280  28.284  29.958  1.00  0.00     0.009 A 
ATOM     44  C   UNL A   1      50.706  28.876  27.631  1.00  0.00     0.001 A 
ATOM     45  C   UNL A   1      50.668  28.139  29.933  1.00  0.00     0.001 A 
ATOM     46  C   UNL A   1      51.379  28.432  28.770  1.00  0.00     0.000 A 
ENDBRANCH  27  41
BRANCH  28  47
ATOM     47  C   UNL A   1      38.690  29.435  29.152  1.00  0.00    -0.014 A 
ATOM     48  C   UNL A   1      37.992  29.205  30.347  1.00  0.00     0.009 A 
ATOM     49  C   UNL A   1      37.979  29.797  27.998  1.00  0.00     0.009 A 
ATOM     50  C   UNL A   1      36.603  29.330  30.384  1.00  0.00     0.001 A 
ATOM     51  C   UNL A   1      36.591  29.934  28.043  1.00  0.00     0.001 A 
ATOM     52  C   UNL A   1      35.904  29.698  29.234  1.00  0.00     0.000 A 
ENDBRANCH  28  47
BRANCH  40  53
ATOM     53  C   UNL A   1      43.848  33.817  30.687  1.00  0.00    -0.014 A 
ATOM     54  C   UNL A   1      43.812  34.905  29.802  1.00  0.00     0.009 A 
ATOM     55  C   UNL A   1      43.869  34.055  32.069  1.00  0.00     0.009 A 
ATOM     56  C   UNL A   1      43.819  36.212  30.294  1.00  0.00     0.001 A 
ATOM     57  C   UNL A   1      43.865  35.362  32.557  1.00  0.00     0.001 A 
ATOM     58  C   UNL A   1      43.845  36.439  31.670  1.00  0.00     0.000 A 
ENDBRANCH  40  53
ENDBRANCH  14  15
ENDBRANCH   7   9
ENDBRANCH   4   5
ENDBRANCH   3   4
ENDBRANCH   2   3
ENDBRANCH   1   2
BRANCH   1  59
ATOM     59  C   UNL A   1      37.469  23.662  26.128  1.00  0.00     0.021 C 
BRANCH  59  60
ATOM     60  C   UNL A   1      36.629  22.405  25.931  1.00  0.00     0.116 C 
BRANCH  60  61
ATOM     61  N   UNL A   1      35.533  22.295  26.870  1.00  0.00    -0.352 N 
ATOM     62  C   UNL A   1      34.322  21.630  26.841  1.00  0.00     0.253 C 
ATOM     63  H   UNL A   1      35.680  22.800  27.701  1.00  0.00     0.163 HD
ATOM     64  O   UNL A   1      33.616  21.753  27.849  1.00  0.00    -0.269 OA
BRANCH  62  65
ATOM     65  C   UNL A   1      33.682  20.827  25.385  1.00  0.00     0.066 A 
ATOM     66  C   UNL A   1      33.636  18.826  24.930  1.00  0.00     0.036 A 
ATOM     67  C   UNL A   1      33.198  21.964  25.001  1.00  0.00     0.072 A 
ATOM     68  C   UNL A   1      33.146  17.880  24.204  1.00  0.00     0.043 A 
ATOM     69  C   UNL A   1      33.670  21.018  24.266  1.00  0.00     0.066 A 
ATOM     70  Cl  UNL A   1      33.674  16.306  23.910  1.00  0.00    -0.084 Cl
ATOM     71  C   UNL A   1      33.653  19.010  23.876  1.00  0.00     0.043 A 
ATOM     72  Cl  UNL A   1      34.564  22.577  23.118  1.00  0.00    -0.082 Cl
BRANCH  67  73
ATOM     73  N   UNL A   1      31.947  22.459  25.418  1.00  0.00    -0.330 N 
ATOM     74  H   UNL A   1      31.675  22.088  26.288  1.00  0.00     0.169 HD
BRANCH  73  75
ATOM     75  C   UNL A   1      31.026  23.315  24.922  1.00  0.00     0.177 C 
ATOM     76  S   UNL A   1      31.071  23.623  23.275  1.00  0.00    -0.040 S 
BRANCH  75  77
ATOM     77  N   UNL A   1      30.056  23.942  25.644  1.00  0.00    -0.299 N 
ATOM     78  C   UNL A   1      29.832  25.243  26.034  1.00  0.00     0.258 C 
ATOM     79  H   UNL A   1      29.357  23.323  25.959  1.00  0.00     0.172 HD
ATOM     80  O   UNL A   1      29.013  25.578  26.876  1.00  0.00    -0.269 OA
BRANCH  78  81
ATOM     81  C   UNL A   1      30.699  26.217  25.404  1.00  0.00     0.048 A 
ATOM     82  C   UNL A   1      32.507  26.418  26.139  1.00  0.00     0.014 A 
ATOM     83  C   UNL A   1      29.767  27.517  24.223  1.00  0.00    -0.006 A 
ATOM     84  C   UNL A   1      33.640  27.992  25.783  1.00  0.00     0.001 A 
ATOM     85  C   UNL A   1      30.897  29.125  23.875  1.00  0.00    -0.018 A 
ATOM     86  C   UNL A   1      28.538  27.473  23.535  1.00  0.00     0.009 A 
ATOM     87  C   UNL A   1      32.707  29.328  24.629  1.00  0.00     0.009 A 
ATOM     88  C   UNL A   1      30.312  30.004  22.962  1.00  0.00     0.009 A 
ATOM     89  C   UNL A   1      28.230  28.533  22.656  1.00  0.00     0.001 A 
ATOM     90  C   UNL A   1      29.048  29.696  22.395  1.00  0.00     0.001 A 
ENDBRANCH  78  81
ENDBRANCH  75  77
ENDBRANCH  73  75
ENDBRANCH  67  73
ENDBRANCH  62  65
ENDBRANCH  60  61
ENDBRANCH  59  60
ENDBRANCH   1  59
TORSDOF 17
ENDMDL
MODEL 2
REMARK VINA RESULT:     -11.8      1.496      2.107
REMARK SMILES O=C(NCCCCCCNC(=O)c1cc(Cl)cc(Cl)c1NC(=S)NC(=O)c1cccc2ccccc12)c1ccc(-c2c3nc(c(-c4ccccc4)c4ccc([nH]4)c(-c4ccccc4)c4nc(c(-c5ccccc5)c5ccc2[nH]5)C=C4)C=C3)cc1
REMARK SMILES IDX 7 1 6 2 5 3 4 4 3 5 1 6 2 7 37 9 38 10 84 11 39 12 83 13
REMARK SMILES IDX 40 14 41 15 42 16 77 17 43 18 82 19 76 20 78 21 44 22 81 23
REMARK SMILES IDX 75 24 74 25 45 27 67 28 52 29 66 30 53 31 56 32 65 33 79 34
REMARK SMILES IDX 54 35 55 36 64 38 80 39 57 40 46 41 47 42 51 43 48 44 50 45
REMARK SMILES IDX 49 46 68 47 69 48 73 49 70 50 72 51 71 52 58 53 59 54 63 55
REMARK SMILES IDX 60 56 62 57 61 58 8 59 9 60 10 61 11 62 12 64 13 65 14 66
REMARK SMILES IDX 20 67 15 68 18 69 16 70 17 71 19 72 21 73 22 75 23 76 24 77
REMARK SMILES IDX 25 78 26 80 27 81 28 82 36 83 29 84 31 85 35 86 30 87 32 88
REMARK SMILES IDX 34 89 33 90
REMARK H PARENT 3 8 78 26 56 37 10 63 21 74 24 79
REMARK Flexibility Score: inf
ROOT
ATOM      1  C   UNL A   1      39.143  23.556  26.128  1.00  0.00     0.002 C 
ENDROOT
BRANCH   1   2
ATOM      2  C   UNL A   1      39.645  22.333  26.903  1.00  0.00     0.002 C 
BRANCH   2   3
ATOM      3  C   UNL A   1      39.850  21.044  26.102  1.00  0.00     0.021 C 
BRANCH   3   4
ATOM      4  C   UNL A   1      40.829  20.030  26.687  1.00  0.00     0.116 C 
BRANCH   4   5
ATOM      5  N   UNL A   1      41.982  19.795  25.842  1.00  0.00    -0.352 N 
ATOM      6  O   UNL A   1      43.869  20.274  24.715  1.00  0.00    -0.269 OA
ATOM      7  C   UNL A   1      43.029  20.631  25.537  1.00  0.00     0.251 C 
ATOM      8  H   UNL A   1      42.022  18.905  25.423  1.00  0.00     0.163 HD
BRANCH   7   9
ATOM      9  C   UNL A   1      43.145  21.973  26.159  1.00  0.00     0.039 A 
ATOM     10  C   UNL A   1      43.319  22.140  27.536  1.00  0.00     0.014 A 
ATOM     11  C   UNL A   1      43.131  23.096  25.322  1.00  0.00     0.014 A 
ATOM     12  C   UNL A   1      43.381  23.424  28.082  1.00  0.00     0.010 A 
ATOM     13  C   UNL A   1      43.241  24.380  25.863  1.00  0.00     0.010 A 
ATOM     14  C   UNL A   1      43.342  24.554  27.250  1.00  0.00    -0.014 A 
BRANCH  14  15
ATOM     15  C   UNL A   1      43.453  25.910  27.841  1.00  0.00     0.031 A 
ATOM     16  C   UNL A   1      44.795  26.539  28.087  1.00  0.00     0.074 A 
ATOM     17  C   UNL A   1      42.331  26.590  28.142  1.00  0.00     0.049 A 
ATOM     18  N   UNL A   1      45.070  27.731  28.556  1.00  0.00    -0.248 NA
ATOM     19  C   UNL A   1      45.980  25.728  27.772  1.00  0.00     0.031 C 
ATOM     20  C   UNL A   1      40.967  26.090  27.966  1.00  0.00     0.029 A 
ATOM     21  N   UNL A   1      42.164  27.855  28.646  1.00  0.00    -0.354 N 
ATOM     22  C   UNL A   1      46.456  27.809  28.607  1.00  0.00     0.074 A 
ATOM     23  C   UNL A   1      46.966  26.540  28.131  1.00  0.00     0.031 C 
ATOM     24  C   UNL A   1      40.100  27.054  28.320  1.00  0.00     0.029 A 
ATOM     25  C   UNL A   1      40.848  28.222  28.772  1.00  0.00     0.049 A 
ATOM     26  H   UNL A   1      42.914  28.441  28.894  1.00  0.00     0.167 HD
ATOM     27  C   UNL A   1      47.233  28.842  29.009  1.00  0.00     0.031 A 
ATOM     28  C   UNL A   1      40.300  29.375  29.199  1.00  0.00     0.031 A 
ATOM     29  C   UNL A   1      46.741  30.110  29.473  1.00  0.00     0.049 A 
ATOM     30  C   UNL A   1      41.183  30.502  29.640  1.00  0.00     0.074 A 
ATOM     31  C   UNL A   1      47.462  31.226  29.862  1.00  0.00     0.029 A 
ATOM     32  N   UNL A   1      45.401  30.431  29.612  1.00  0.00    -0.354 N 
ATOM     33  N   UNL A   1      42.491  30.566  29.650  1.00  0.00    -0.248 NA
ATOM     34  C   UNL A   1      40.510  31.714  30.132  1.00  0.00     0.031 C 
ATOM     35  C   UNL A   1      46.556  32.218  30.260  1.00  0.00     0.029 A 
ATOM     36  C   UNL A   1      45.273  31.721  30.098  1.00  0.00     0.049 A 
ATOM     37  H   UNL A   1      44.651  29.830  29.398  1.00  0.00     0.167 HD
ATOM     38  C   UNL A   1      42.800  31.824  30.148  1.00  0.00     0.074 A 
ATOM     39  C   UNL A   1      41.544  32.495  30.415  1.00  0.00     0.031 C 
ATOM     40  C   UNL A   1      44.020  32.370  30.369  1.00  0.00     0.031 A 
BRANCH  27  41
ATOM     41  C   UNL A   1      48.718  28.633  28.973  1.00  0.00    -0.014 A 
ATOM     42  C   UNL A   1      49.396  28.111  30.084  1.00  0.00     0.009 A 
ATOM     43  C   UNL A   1      49.437  28.929  27.804  1.00  0.00     0.009 A 
ATOM     44  C   UNL A   1      50.777  27.904  30.031  1.00  0.00     0.001 A 
ATOM     45  C   UNL A   1      50.815  28.711  27.752  1.00  0.00     0.001 A 
ATOM     46  C   UNL A   1      51.483  28.203  28.865  1.00  0.00     0.000 A 
ENDBRANCH  27  41
BRANCH  28  47
ATOM     47  C   UNL A   1      38.826  29.517  29.219  1.00  0.00    -0.014 A 
ATOM     48  C   UNL A   1      38.140  29.906  28.058  1.00  0.00     0.009 A 
ATOM     49  C   UNL A   1      38.099  29.242  30.387  1.00  0.00     0.009 A 
ATOM     50  C   UNL A   1      36.750  30.024  28.070  1.00  0.00     0.001 A 
ATOM     51  C   UNL A   1      36.708  29.349  30.391  1.00  0.00     0.001 A 
ATOM     52  C   UNL A   1      36.034  29.743  29.234  1.00  0.00     0.000 A 
ENDBRANCH  28  47
BRANCH  40  53
ATOM     53  C   UNL A   1      44.046  33.760  30.927  1.00  0.00    -0.014 A 
ATOM     54  C   UNL A   1      44.040  34.871  30.071  1.00  0.00     0.009 A 
ATOM     55  C   UNL A   1      44.056  33.960  32.315  1.00  0.00     0.009 A 
ATOM     56  C   UNL A   1      44.066  36.164  30.598  1.00  0.00     0.001 A 
ATOM     57  C   UNL A   1      44.071  35.254  32.838  1.00  0.00     0.001 A 
ATOM     58  C   UNL A   1      44.081  36.354  31.980  1.00  0.00     0.000 A 
ENDBRANCH  40  53
ENDBRANCH  14  15
ENDBRANCH   7   9
ENDBRANCH   4   5
ENDBRANCH   3   4
ENDBRANCH   2   3
ENDBRANCH   1   2
BRANCH   1  59
ATOM     59  C   UNL A   1      37.694  23.987  26.384  1.00  0.00     0.021 C 
BRANCH  59  60
ATOM     60  C   UNL A   1      36.616  23.052  25.847  1.00  0.00     0.116 C 
BRANCH  60  61
ATOM     61  N   UNL A   1      36.276  23.304  24.463  1.00  0.00    -0.352 N 
ATOM     62  C   UNL A   1      35.246  22.878  23.646  1.00  0.00     0.253 C 
ATOM     63  H   UNL A   1      36.911  23.903  24.009  1.00  0.00     0.163 HD
ATOM     64  O   UNL A   1      35.263  23.311  22.488  1.00  0.00    -0.269 OA
BRANCH  62  65
ATOM     65  C   UNL A   1      34.082  21.614  24.118  1.00  0.00     0.066 A 
ATOM     66  C   UNL A   1      34.437  19.657  24.624  1.00  0.00     0.036 A 
ATOM     67  C   UNL A   1      33.153  22.516  24.149  1.00  0.00     0.072 A 
ATOM     68  C   UNL A   1      34.006  18.574  25.174  1.00  0.00     0.043 A 
ATOM     69  C   UNL A   1      33.043  21.280  23.804  1.00  0.00     0.066 A 
ATOM     70  Cl  UNL A   1      34.532  16.976  25.063  1.00  0.00    -0.084 Cl
ATOM     71  C   UNL A   1      33.466  19.341  24.301  1.00  0.00     0.043 A 
ATOM     72  Cl  UNL A   1      31.767  21.995  22.252  1.00  0.00    -0.082 Cl
BRANCH  67  73
ATOM     73  N   UNL A   1      32.897  23.332  25.268  1.00  0.00    -0.330 N 
ATOM     74  H   UNL A   1      33.261  24.239  25.154  1.00  0.00     0.169 HD
BRANCH  73  75
ATOM     75  C   UNL A   1      32.276  23.181  26.459  1.00  0.00     0.177 C 
ATOM     76  S   UNL A   1      33.175  22.531  27.717  1.00  0.00    -0.040 S 
BRANCH  75  77
ATOM     77  N   UNL A   1      30.985  23.520  26.730  1.00  0.00    -0.299 N 
ATOM     78  C   UNL A   1      30.173  24.576  26.384  1.00  0.00     0.258 C 
ATOM     79  H   UNL A   1      30.531  22.861  27.303  1.00  0.00     0.172 HD
ATOM     80  O   UNL A   1      29.098  24.819  26.912  1.00  0.00    -0.269 OA
BRANCH  78  81
ATOM     81  C   UNL A   1      30.718  25.444  25.360  1.00  0.00     0.048 A 
ATOM     82  C   UNL A   1      30.567  24.839  23.499  1.00  0.00     0.014 A 
ATOM     83  C   UNL A   1      31.945  26.855  26.034  1.00  0.00    -0.006 A 
ATOM     84  C   UNL A   1      31.661  25.586  22.038  1.00  0.00     0.001 A 
ATOM     85  C   UNL A   1      33.073  27.602  24.566  1.00  0.00    -0.018 A 
ATOM     86  C   UNL A   1      32.096  27.470  27.293  1.00  0.00     0.009 A 
ATOM     87  C   UNL A   1      32.927  26.980  22.702  1.00  0.00     0.009 A 
ATOM     88  C   UNL A   1      33.866  28.669  24.989  1.00  0.00     0.009 A 
ATOM     89  C   UNL A   1      32.990  28.556  27.401  1.00  0.00     0.001 A 
ATOM     90  C   UNL A   1      33.803  29.105  26.339  1.00  0.00     0.001 A 
ENDBRANCH  78  81
ENDBRANCH  75  77
ENDBRANCH  73  75
ENDBRANCH  67  73
ENDBRANCH  62  65
ENDBRANCH  60  61
ENDBRANCH  59  60
ENDBRANCH   1  59
TORSDOF 17
ENDMDL
MODEL 3
REMARK VINA RESULT:     -11.7      3.947      9.263
REMARK SMILES O=C(NCCCCCCNC(=O)c1cc(Cl)cc(Cl)c1NC(=S)NC(=O)c1cccc2ccccc12)c1ccc(-c2c3nc(c(-c4ccccc4)c4ccc([nH]4)c(-c4ccccc4)c4nc(c(-c5ccccc5)c5ccc2[nH]5)C=C4)C=C3)cc1
REMARK SMILES IDX 7 1 6 2 5 3 4 4 3 5 1 6 2 7 37 9 38 10 84 11 39 12 83 13
REMARK SMILES IDX 40 14 41 15 42 16 77 17 43 18 82 19 76 20 78 21 44 22 81 23
REMARK SMILES IDX 75 24 74 25 45 27 67 28 52 29 66 30 53 31 56 32 65 33 79 34
REMARK SMILES IDX 54 35 55 36 64 38 80 39 57 40 46 41 47 42 51 43 48 44 50 45
REMARK SMILES IDX 49 46 68 47 69 48 73 49 70 50 72 51 71 52 58 53 59 54 63 55
REMARK SMILES IDX 60 56 62 57 61 58 8 59 9 60 10 61 11 62 12 64 13 65 14 66
REMARK SMILES IDX 20 67 15 68 18 69 16 70 17 71 19 72 21 73 22 75 23 76 24 77
REMARK SMILES IDX 25 78 26 80 27 81 28 82 36 83 29 84 31 85 35 86 30 87 32 88
REMARK SMILES IDX 34 89 33 90
REMARK H PARENT 3 8 78 26 56 37 10 63 21 74 24 79
REMARK Flexibility Score: inf
ROOT
ATOM      1  C   UNL A   1      34.768  30.242  27.564  1.00  0.00     0.002 C 
ENDROOT
BRANCH   1   2
ATOM      2  C   UNL A   1      34.843  31.744  27.857  1.00  0.00     0.002 C 
BRANCH   2   3
ATOM      3  C   UNL A   1      33.514  32.499  27.948  1.00  0.00     0.021 C 
BRANCH   3   4
ATOM      4  C   UNL A   1      33.599  34.021  27.995  1.00  0.00     0.116 C 
BRANCH   4   5
ATOM      5  N   UNL A   1      33.128  34.582  29.246  1.00  0.00    -0.352 N 
ATOM      6  O   UNL A   1      33.042  34.941  31.464  1.00  0.00    -0.269 OA
ATOM      7  C   UNL A   1      33.650  34.462  30.511  1.00  0.00     0.251 C 
ATOM      8  H   UNL A   1      32.313  35.130  29.180  1.00  0.00     0.163 HD
BRANCH   7   9
ATOM      9  C   UNL A   1      34.921  33.734  30.750  1.00  0.00     0.039 A 
ATOM     10  C   UNL A   1      36.149  34.211  30.283  1.00  0.00     0.014 A 
ATOM     11  C   UNL A   1      34.880  32.560  31.514  1.00  0.00     0.014 A 
ATOM     12  C   UNL A   1      37.313  33.470  30.495  1.00  0.00     0.010 A 
ATOM     13  C   UNL A   1      36.052  31.843  31.768  1.00  0.00     0.010 A 
ATOM     14  C   UNL A   1      37.275  32.280  31.239  1.00  0.00    -0.014 A 
BRANCH  14  15
ATOM     15  C   UNL A   1      38.527  31.528  31.495  1.00  0.00     0.031 A 
ATOM     16  C   UNL A   1      39.402  31.857  32.670  1.00  0.00     0.074 A 
ATOM     17  C   UNL A   1      38.871  30.524  30.666  1.00  0.00     0.049 A 
ATOM     18  N   UNL A   1      40.506  31.271  33.062  1.00  0.00    -0.248 NA
ATOM     19  C   UNL A   1      38.989  32.989  33.513  1.00  0.00     0.031 C 
ATOM     20  C   UNL A   1      38.119  30.110  29.480  1.00  0.00     0.029 A 
ATOM     21  N   UNL A   1      39.935  29.660  30.707  1.00  0.00    -0.354 N 
ATOM     22  C   UNL A   1      40.928  31.970  34.186  1.00  0.00     0.074 A 
ATOM     23  C   UNL A   1      39.968  33.031  34.407  1.00  0.00     0.031 C 
ATOM     24  C   UNL A   1      38.725  29.047  28.927  1.00  0.00     0.029 A 
ATOM     25  C   UNL A   1      39.918  28.725  29.703  1.00  0.00     0.049 A 
ATOM     26  H   UNL A   1      40.643  29.706  31.390  1.00  0.00     0.167 HD
ATOM     27  C   UNL A   1      42.014  31.748  34.964  1.00  0.00     0.031 A 
ATOM     28  C   UNL A   1      40.766  27.714  29.436  1.00  0.00     0.031 A 
ATOM     29  C   UNL A   1      42.969  30.693  34.763  1.00  0.00     0.049 A 
ATOM     30  C   UNL A   1      41.960  27.492  30.312  1.00  0.00     0.074 A 
ATOM     31  C   UNL A   1      44.077  30.373  35.529  1.00  0.00     0.029 A 
ATOM     32  N   UNL A   1      42.931  29.786  33.717  1.00  0.00    -0.354 N 
ATOM     33  N   UNL A   1      42.324  28.144  31.387  1.00  0.00    -0.248 NA
ATOM     34  C   UNL A   1      42.862  26.394  29.933  1.00  0.00     0.031 C 
ATOM     35  C   UNL A   1      44.724  29.283  34.933  1.00  0.00     0.029 A 
ATOM     36  C   UNL A   1      44.005  28.916  33.808  1.00  0.00     0.049 A 
ATOM     37  H   UNL A   1      42.242  29.763  33.013  1.00  0.00     0.167 HD
ATOM     38  C   UNL A   1      43.497  27.538  31.815  1.00  0.00     0.074 A 
ATOM     39  C   UNL A   1      43.776  26.457  30.892  1.00  0.00     0.031 C 
ATOM     40  C   UNL A   1      44.275  27.855  32.877  1.00  0.00     0.031 A 
BRANCH  27  41
ATOM     41  C   UNL A   1      42.233  32.685  36.114  1.00  0.00    -0.014 A 
ATOM     42  C   UNL A   1      41.791  32.355  37.403  1.00  0.00     0.009 A 
ATOM     43  C   UNL A   1      42.920  33.892  35.910  1.00  0.00     0.009 A 
ATOM     44  C   UNL A   1      42.018  33.229  38.469  1.00  0.00     0.001 A 
ATOM     45  C   UNL A   1      43.154  34.758  36.980  1.00  0.00     0.001 A 
ATOM     46  C   UNL A   1      42.700  34.428  38.257  1.00  0.00     0.000 A 
ENDBRANCH  27  41
BRANCH  28  47
ATOM     47  C   UNL A   1      40.500  26.827  28.280  1.00  0.00    -0.014 A 
ATOM     48  C   UNL A   1      41.117  27.076  27.044  1.00  0.00     0.009 A 
ATOM     49  C   UNL A   1      39.652  25.717  28.415  1.00  0.00     0.009 A 
ATOM     50  C   UNL A   1      40.881  26.230  25.959  1.00  0.00     0.001 A 
ATOM     51  C   UNL A   1      39.430  24.867  27.330  1.00  0.00     0.001 A 
ATOM     52  C   UNL A   1      40.041  25.126  26.103  1.00  0.00     0.000 A 
ENDBRANCH  28  47
BRANCH  40  53
ATOM     53  C   UNL A   1      45.500  27.019  33.090  1.00  0.00    -0.014 A 
ATOM     54  C   UNL A   1      45.438  25.849  33.863  1.00  0.00     0.009 A 
ATOM     55  C   UNL A   1      46.716  27.391  32.500  1.00  0.00     0.009 A 
ATOM     56  C   UNL A   1      46.584  25.075  34.058  1.00  0.00     0.001 A 
ATOM     57  C   UNL A   1      47.857  26.609  32.689  1.00  0.00     0.001 A 
ATOM     58  C   UNL A   1      47.791  25.456  33.471  1.00  0.00     0.000 A 
ENDBRANCH  40  53
ENDBRANCH  14  15
ENDBRANCH   7   9
ENDBRANCH   4   5
ENDBRANCH   3   4
ENDBRANCH   2   3
ENDBRANCH   1   2
BRANCH   1  59
ATOM     59  C   UNL A   1      33.646  29.777  26.629  1.00  0.00     0.021 C 
BRANCH  59  60
ATOM     60  C   UNL A   1      33.618  28.286  26.311  1.00  0.00     0.116 C 
BRANCH  60  61
ATOM     61  N   UNL A   1      34.031  27.980  24.958  1.00  0.00    -0.352 N 
ATOM     62  C   UNL A   1      33.340  27.752  23.784  1.00  0.00     0.253 C 
ATOM     63  H   UNL A   1      35.008  27.923  24.853  1.00  0.00     0.163 HD
ATOM     64  O   UNL A   1      34.034  27.524  22.786  1.00  0.00    -0.269 OA
BRANCH  62  65
ATOM     65  C   UNL A   1      31.569  27.564  23.712  1.00  0.00     0.066 A 
ATOM     66  C   UNL A   1      30.175  28.795  22.844  1.00  0.00     0.036 A 
ATOM     67  C   UNL A   1      31.700  26.379  24.217  1.00  0.00     0.072 A 
ATOM     68  C   UNL A   1      28.973  28.947  22.402  1.00  0.00     0.043 A 
ATOM     69  C   UNL A   1      30.740  27.217  24.406  1.00  0.00     0.066 A 
ATOM     70  Cl  UNL A   1      28.076  30.330  22.052  1.00  0.00    -0.084 Cl
ATOM     71  C   UNL A   1      29.403  28.485  23.518  1.00  0.00     0.043 A 
ATOM     72  Cl  UNL A   1      30.810  26.590  26.443  1.00  0.00    -0.082 Cl
BRANCH  67  73
ATOM     73  N   UNL A   1      31.968  25.230  23.449  1.00  0.00    -0.330 N 
ATOM     74  H   UNL A   1      32.500  25.438  22.647  1.00  0.00     0.169 HD
BRANCH  73  75
ATOM     75  C   UNL A   1      31.678  23.913  23.536  1.00  0.00     0.177 C 
ATOM     76  S   UNL A   1      32.351  22.900  22.382  1.00  0.00    -0.040 S 
BRANCH  75  77
ATOM     77  N   UNL A   1      30.892  23.335  24.486  1.00  0.00    -0.299 N 
ATOM     78  C   UNL A   1      31.116  22.442  25.510  1.00  0.00     0.258 C 
ATOM     79  H   UNL A   1      29.951  23.620  24.427  1.00  0.00     0.172 HD
ATOM     80  O   UNL A   1      30.232  21.865  26.126  1.00  0.00    -0.269 OA
BRANCH  78  81
ATOM     81  C   UNL A   1      32.513  22.177  25.783  1.00  0.00     0.048 A 
ATOM     82  C   UNL A   1      33.627  23.701  26.321  1.00  0.00     0.014 A 
ATOM     83  C   UNL A   1      33.174  20.429  25.106  1.00  0.00    -0.006 A 
ATOM     84  C   UNL A   1      35.596  23.670  26.240  1.00  0.00     0.001 A 
ATOM     85  C   UNL A   1      35.168  20.395  24.999  1.00  0.00    -0.018 A 
ATOM     86  C   UNL A   1      32.525  19.219  24.787  1.00  0.00     0.009 A 
ATOM     87  C   UNL A   1      36.279  21.935  25.528  1.00  0.00     0.009 A 
ATOM     88  C   UNL A   1      35.664  19.144  24.631  1.00  0.00     0.009 A 
ATOM     89  C   UNL A   1      33.323  18.104  24.455  1.00  0.00     0.001 A 
ATOM     90  C   UNL A   1      34.766  18.072  24.384  1.00  0.00     0.001 A 
ENDBRANCH  78  81
ENDBRANCH  75  77
ENDBRANCH  73  75
ENDBRANCH  67  73
ENDBRANCH  62  65
ENDBRANCH  60  61
ENDBRANCH  59  60
ENDBRANCH   1  59
TORSDOF 17
ENDMDL
