MODEL 1
REMARK VINA RESULT:     -10.4      0.000      0.000
REMARK SMILES CC#CC[C@H](C(=O)NCCCCCCNC(=O)c1ccc(-c2c3nc(c(-c4ccccc4)c4ccc([nH]4)c(-c4ccccc4)c4nc(c(-c5ccccc5)c5ccc2[nH]5)C=C4)C=C3)cc1)c1cccc(Br)c1
REMARK SMILES IDX 11 1 10 2 9 3 8 4 6 5 7 6 5 8 4 9 3 10 1 11 2 12 66 13 67 14
REMARK SMILES IDX 72 15 68 16 70 17 69 18 71 19 12 20 13 21 14 22 15 23 16 24
REMARK SMILES IDX 17 26 18 27 19 28 65 29 20 30 64 31 21 32 22 33 23 34 58 35
REMARK SMILES IDX 24 36 63 37 57 38 59 39 25 40 62 41 56 42 55 43 26 45 48 46
REMARK SMILES IDX 33 47 47 48 34 49 37 50 46 51 60 52 35 53 36 54 45 56 61 57
REMARK SMILES IDX 38 58 27 59 28 60 32 61 29 62 31 63 30 64 49 65 50 66 54 67
REMARK SMILES IDX 51 68 53 69 52 70 39 71 40 72 44 73 41 74 43 75 42 76
REMARK H PARENT 8 7 15 25 59 44 37 55
REMARK Flexibility Score: inf
ROOT
ATOM      1  C   UNL A   1      37.404  22.074  24.806  1.00  0.00     0.002 C 
ENDROOT
BRANCH   1   2
ATOM      2  C   UNL A   1      36.321  23.150  24.682  1.00  0.00     0.021 C 
BRANCH   2   3
ATOM      3  C   UNL A   1      35.888  23.791  26.008  1.00  0.00     0.116 C 
BRANCH   3   4
ATOM      4  N   UNL A   1      35.179  22.815  26.789  1.00  0.00    -0.356 N 
ATOM      5  C   UNL A   1      33.918  22.328  26.686  1.00  0.00     0.228 C 
ATOM      6  O   UNL A   1      33.515  21.824  27.738  1.00  0.00    -0.274 OA
ATOM      7  H   UNL A   1      35.701  22.434  27.531  1.00  0.00     0.163 HD
BRANCH   5   8
ATOM      8  C   UNL A   1      33.137  22.286  25.342  1.00  0.00     0.120 C 
BRANCH   8   9
ATOM      9  C   UNL A   1      32.326  20.961  25.376  1.00  0.00     0.107 C 
BRANCH   9  10
ATOM     10  C   UNL A   1      33.186  19.806  25.057  1.00  0.00    -0.102 C 
ATOM     11  C   UNL A   1      34.629  17.565  24.124  1.00  0.00     0.107 C 
ATOM     12  C   UNL A   1      33.852  18.771  24.627  1.00  0.00    -0.107 C 
ENDBRANCH   9  10
ENDBRANCH   8   9
BRANCH   8  13
ATOM     13  C   UNL A   1      32.275  23.516  24.976  1.00  0.00    -0.034 A 
ATOM     14  C   UNL A   1      31.408  23.494  23.880  1.00  0.00     0.004 A 
ATOM     15  C   UNL A   1      32.225  24.683  25.766  1.00  0.00     0.020 A 
ATOM     16  C   UNL A   1      30.631  24.594  23.502  1.00  0.00     0.001 A 
ATOM     17  C   UNL A   1      31.434  25.784  25.407  1.00  0.00     0.018 A 
ATOM     18  C   UNL A   1      30.654  25.752  24.261  1.00  0.00     0.016 A 
ATOM     19  Br  UNL A   1      31.416  27.325  26.502  1.00  0.00    -0.051 Br
ENDBRANCH   8  13
ENDBRANCH   5   8
ENDBRANCH   3   4
ENDBRANCH   2   3
ENDBRANCH   1   2
BRANCH   1  20
ATOM     20  C   UNL A   1      36.886  20.640  24.829  1.00  0.00     0.002 C 
BRANCH  20  21
ATOM     21  C   UNL A   1      37.972  19.579  25.001  1.00  0.00     0.021 C 
BRANCH  21  22
ATOM     22  C   UNL A   1      39.233  20.073  25.699  1.00  0.00     0.116 C 
BRANCH  22  23
ATOM     23  N   UNL A   1      40.206  19.012  25.882  1.00  0.00    -0.352 N 
ATOM     24  C   UNL A   1      41.554  19.114  26.103  1.00  0.00     0.251 C 
ATOM     25  H   UNL A   1      39.850  18.095  25.841  1.00  0.00     0.163 HD
ATOM     26  O   UNL A   1      42.278  18.123  26.025  1.00  0.00    -0.269 OA
BRANCH  24  27
ATOM     27  C   UNL A   1      42.136  20.432  26.418  1.00  0.00     0.039 A 
ATOM     28  C   UNL A   1      42.619  21.225  25.376  1.00  0.00     0.014 A 
ATOM     29  C   UNL A   1      42.187  20.888  27.739  1.00  0.00     0.014 A 
ATOM     30  C   UNL A   1      43.108  22.501  25.654  1.00  0.00     0.010 A 
ATOM     31  C   UNL A   1      42.601  22.188  28.004  1.00  0.00     0.010 A 
ATOM     32  C   UNL A   1      43.074  23.005  26.966  1.00  0.00    -0.014 A 
BRANCH  32  33
ATOM     33  C   UNL A   1      43.533  24.382  27.269  1.00  0.00     0.031 A 
ATOM     34  C   UNL A   1      42.548  25.426  27.715  1.00  0.00     0.074 A 
ATOM     35  C   UNL A   1      44.829  24.706  27.091  1.00  0.00     0.049 A 
ATOM     36  N   UNL A   1      42.750  26.691  27.983  1.00  0.00    -0.248 NA
ATOM     37  C   UNL A   1      41.146  24.999  27.856  1.00  0.00     0.031 C 
ATOM     38  C   UNL A   1      45.876  23.794  26.628  1.00  0.00     0.029 A 
ATOM     39  N   UNL A   1      45.484  25.898  27.276  1.00  0.00    -0.354 N 
ATOM     40  C   UNL A   1      41.504  27.211  28.308  1.00  0.00     0.074 A 
ATOM     41  C   UNL A   1      40.544  26.141  28.152  1.00  0.00     0.031 C 
ATOM     42  C   UNL A   1      47.047  24.450  26.594  1.00  0.00     0.029 A 
ATOM     43  C   UNL A   1      46.826  25.838  26.990  1.00  0.00     0.049 A 
ATOM     44  H   UNL A   1      45.034  26.718  27.584  1.00  0.00     0.167 HD
ATOM     45  C   UNL A   1      41.189  28.462  28.720  1.00  0.00     0.031 A 
ATOM     46  C   UNL A   1      47.772  26.795  27.035  1.00  0.00     0.031 A 
ATOM     47  C   UNL A   1      42.145  29.525  28.879  1.00  0.00     0.049 A 
ATOM     48  C   UNL A   1      47.391  28.183  27.469  1.00  0.00     0.074 A 
ATOM     49  C   UNL A   1      41.934  30.812  29.342  1.00  0.00     0.029 A 
ATOM     50  N   UNL A   1      43.494  29.424  28.576  1.00  0.00    -0.354 N 
ATOM     51  N   UNL A   1      46.220  28.640  27.841  1.00  0.00    -0.248 NA
ATOM     52  C   UNL A   1      48.467  29.183  27.501  1.00  0.00     0.031 C 
ATOM     53  C   UNL A   1      43.144  31.508  29.263  1.00  0.00     0.029 A 
ATOM     54  C   UNL A   1      44.122  30.635  28.814  1.00  0.00     0.049 A 
ATOM     55  H   UNL A   1      43.939  28.612  28.243  1.00  0.00     0.167 HD
ATOM     56  C   UNL A   1      46.424  29.972  28.179  1.00  0.00     0.074 A 
ATOM     57  C   UNL A   1      47.834  30.243  27.985  1.00  0.00     0.031 C 
ATOM     58  C   UNL A   1      45.526  30.889  28.614  1.00  0.00     0.031 A 
BRANCH  45  59
ATOM     59  C   UNL A   1      39.742  28.750  29.017  1.00  0.00    -0.014 A 
ATOM     60  C   UNL A   1      39.214  28.581  30.307  1.00  0.00     0.009 A 
ATOM     61  C   UNL A   1      38.903  29.231  27.999  1.00  0.00     0.009 A 
ATOM     62  C   UNL A   1      37.867  28.849  30.561  1.00  0.00     0.001 A 
ATOM     63  C   UNL A   1      37.565  29.529  28.264  1.00  0.00     0.001 A 
ATOM     64  C   UNL A   1      37.046  29.328  29.542  1.00  0.00     0.000 A 
ENDBRANCH  45  59
BRANCH  46  65
ATOM     65  C   UNL A   1      49.177  26.473  26.667  1.00  0.00    -0.014 A 
ATOM     66  C   UNL A   1      49.635  26.678  25.357  1.00  0.00     0.009 A 
ATOM     67  C   UNL A   1      50.064  25.952  27.621  1.00  0.00     0.009 A 
ATOM     68  C   UNL A   1      50.943  26.340  25.003  1.00  0.00     0.001 A 
ATOM     69  C   UNL A   1      51.381  25.645  27.273  1.00  0.00     0.001 A 
ATOM     70  C   UNL A   1      51.816  25.828  25.961  1.00  0.00     0.000 A 
ENDBRANCH  46  65
BRANCH  58  71
ATOM     71  C   UNL A   1      46.046  32.260  28.945  1.00  0.00    -0.014 A 
ATOM     72  C   UNL A   1      46.141  33.262  27.967  1.00  0.00     0.009 A 
ATOM     73  C   UNL A   1      46.404  32.564  30.267  1.00  0.00     0.009 A 
ATOM     74  C   UNL A   1      46.620  34.530  28.301  1.00  0.00     0.001 A 
ATOM     75  C   UNL A   1      46.851  33.842  30.605  1.00  0.00     0.001 A 
ATOM     76  C   UNL A   1      46.969  34.821  29.620  1.00  0.00     0.000 A 
ENDBRANCH  58  71
ENDBRANCH  32  33
ENDBRANCH  24  27
ENDBRANCH  22  23
ENDBRANCH  21  22
ENDBRANCH  20  21
ENDBRANCH   1  20
TORSDOF 16
ENDMDL
MODEL 2
REMARK VINA RESULT:     -10.4      1.657      6.231
REMARK SMILES CC#CC[C@H](C(=O)NCCCCCCNC(=O)c1ccc(-c2c3nc(c(-c4ccccc4)c4ccc([nH]4)c(-c4ccccc4)c4nc(c(-c5ccccc5)c5ccc2[nH]5)C=C4)C=C3)cc1)c1cccc(Br)c1
REMARK SMILES IDX 11 1 10 2 9 3 8 4 6 5 7 6 5 8 4 9 3 10 1 11 2 12 66 13 67 14
REMARK SMILES IDX 72 15 68 16 70 17 69 18 71 19 12 20 13 21 14 22 15 23 16 24
REMARK SMILES IDX 17 26 18 27 19 28 65 29 20 30 64 31 21 32 22 33 23 34 58 35
REMARK SMILES IDX 24 36 63 37 57 38 59 39 25 40 62 41 56 42 55 43 26 45 48 46
REMARK SMILES IDX 33 47 47 48 34 49 37 50 46 51 60 52 35 53 36 54 45 56 61 57
REMARK SMILES IDX 38 58 27 59 28 60 32 61 29 62 31 63 30 64 49 65 50 66 54 67
REMARK SMILES IDX 51 68 53 69 52 70 39 71 40 72 44 73 41 74 43 75 42 76
REMARK H PARENT 8 7 15 25 59 44 37 55
REMARK Flexibility Score: inf
ROOT
ATOM      1  C   UNL A   1      37.840  21.800  25.231  1.00  0.00     0.002 C 
ENDROOT
BRANCH   1   2
ATOM      2  C   UNL A   1      36.906  22.957  24.862  1.00  0.00     0.021 C 
BRANCH   2   3
ATOM      3  C   UNL A   1      36.194  23.620  26.048  1.00  0.00     0.116 C 
BRANCH   3   4
ATOM      4  N   UNL A   1      35.500  22.611  26.800  1.00  0.00    -0.356 N 
ATOM      5  C   UNL A   1      34.361  21.922  26.538  1.00  0.00     0.228 C 
ATOM      6  O   UNL A   1      33.847  21.448  27.556  1.00  0.00    -0.274 OA
ATOM      7  H   UNL A   1      35.925  22.381  27.658  1.00  0.00     0.163 HD
BRANCH   5   8
ATOM      8  C   UNL A   1      33.856  21.645  25.093  1.00  0.00     0.120 C 
BRANCH   8   9
ATOM      9  C   UNL A   1      32.896  20.430  25.217  1.00  0.00     0.107 C 
BRANCH   9  10
ATOM     10  C   UNL A   1      33.472  19.233  24.574  1.00  0.00    -0.102 C 
ATOM     11  C   UNL A   1      34.233  16.779  23.403  1.00  0.00     0.107 C 
ATOM     12  C   UNL A   1      33.823  18.100  24.033  1.00  0.00    -0.107 C 
ENDBRANCH   9  10
ENDBRANCH   8   9
BRANCH   8  13
ATOM     13  C   UNL A   1      33.240  22.828  24.312  1.00  0.00    -0.034 A 
ATOM     14  C   UNL A   1      33.461  22.985  22.941  1.00  0.00     0.004 A 
ATOM     15  C   UNL A   1      32.347  23.753  24.893  1.00  0.00     0.020 A 
ATOM     16  C   UNL A   1      32.942  24.054  22.203  1.00  0.00     0.001 A 
ATOM     17  C   UNL A   1      31.808  24.818  24.158  1.00  0.00     0.018 A 
ATOM     18  C   UNL A   1      32.122  24.986  22.817  1.00  0.00     0.016 A 
ATOM     19  Br  UNL A   1      30.623  26.031  24.995  1.00  0.00    -0.051 Br
ENDBRANCH   8  13
ENDBRANCH   5   8
ENDBRANCH   3   4
ENDBRANCH   2   3
ENDBRANCH   1   2
BRANCH   1  20
ATOM     20  C   UNL A   1      37.423  20.439  24.683  1.00  0.00     0.002 C 
BRANCH  20  21
ATOM     21  C   UNL A   1      38.413  19.312  24.973  1.00  0.00     0.021 C 
BRANCH  21  22
ATOM     22  C   UNL A   1      39.398  19.610  26.097  1.00  0.00     0.116 C 
BRANCH  22  23
ATOM     23  N   UNL A   1      40.694  19.002  25.861  1.00  0.00    -0.352 N 
ATOM     24  C   UNL A   1      41.933  19.586  25.889  1.00  0.00     0.251 C 
ATOM     25  H   UNL A   1      40.683  18.040  25.652  1.00  0.00     0.163 HD
ATOM     26  O   UNL A   1      42.917  18.988  25.459  1.00  0.00    -0.269 OA
BRANCH  24  27
ATOM     27  C   UNL A   1      42.074  20.953  26.424  1.00  0.00     0.039 A 
ATOM     28  C   UNL A   1      41.993  21.151  27.804  1.00  0.00     0.014 A 
ATOM     29  C   UNL A   1      42.301  22.033  25.564  1.00  0.00     0.014 A 
ATOM     30  C   UNL A   1      42.193  22.428  28.327  1.00  0.00     0.010 A 
ATOM     31  C   UNL A   1      42.577  23.288  26.093  1.00  0.00     0.010 A 
ATOM     32  C   UNL A   1      42.518  23.501  27.479  1.00  0.00    -0.014 A 
BRANCH  32  33
ATOM     33  C   UNL A   1      42.793  24.852  28.024  1.00  0.00     0.031 A 
ATOM     34  C   UNL A   1      44.187  25.227  28.444  1.00  0.00     0.074 A 
ATOM     35  C   UNL A   1      41.778  25.723  28.192  1.00  0.00     0.049 A 
ATOM     36  N   UNL A   1      44.615  26.341  28.983  1.00  0.00    -0.248 NA
ATOM     37  C   UNL A   1      45.234  24.210  28.257  1.00  0.00     0.031 C 
ATOM     38  C   UNL A   1      40.376  25.466  27.858  1.00  0.00     0.029 A 
ATOM     39  N   UNL A   1      41.772  27.001  28.691  1.00  0.00    -0.354 N 
ATOM     40  C   UNL A   1      45.973  26.152  29.211  1.00  0.00     0.074 A 
ATOM     41  C   UNL A   1      46.287  24.800  28.803  1.00  0.00     0.031 C 
ATOM     42  C   UNL A   1      39.652  26.562  28.132  1.00  0.00     0.029 A 
ATOM     43  C   UNL A   1      40.528  27.582  28.701  1.00  0.00     0.049 A 
ATOM     44  H   UNL A   1      42.584  27.458  29.011  1.00  0.00     0.167 HD
ATOM     45  C   UNL A   1      46.881  27.030  29.696  1.00  0.00     0.031 A 
ATOM     46  C   UNL A   1      40.134  28.796  29.128  1.00  0.00     0.031 A 
ATOM     47  C   UNL A   1      46.569  28.376  30.097  1.00  0.00     0.049 A 
ATOM     48  C   UNL A   1      41.158  29.744  29.688  1.00  0.00     0.074 A 
ATOM     49  C   UNL A   1      47.428  29.362  30.551  1.00  0.00     0.029 A 
ATOM     50  N   UNL A   1      45.296  28.925  30.095  1.00  0.00    -0.354 N 
ATOM     51  N   UNL A   1      42.450  29.574  29.831  1.00  0.00    -0.248 NA
ATOM     52  C   UNL A   1      40.669  31.056  30.134  1.00  0.00     0.031 C 
ATOM     53  C   UNL A   1      46.666  30.487  30.880  1.00  0.00     0.029 A 
ATOM     54  C   UNL A   1      45.342  30.225  30.568  1.00  0.00     0.049 A 
ATOM     55  H   UNL A   1      44.480  28.459  29.800  1.00  0.00     0.167 HD
ATOM     56  C   UNL A   1      42.933  30.766  30.356  1.00  0.00     0.074 A 
ATOM     57  C   UNL A   1      41.797  31.656  30.488  1.00  0.00     0.031 C 
ATOM     58  C   UNL A   1      44.202  31.097  30.695  1.00  0.00     0.031 A 
BRANCH  45  59
ATOM     59  C   UNL A   1      48.302  26.555  29.831  1.00  0.00    -0.014 A 
ATOM     60  C   UNL A   1      48.743  25.890  30.986  1.00  0.00     0.009 A 
ATOM     61  C   UNL A   1      49.205  26.745  28.772  1.00  0.00     0.009 A 
ATOM     62  C   UNL A   1      50.068  25.461  31.094  1.00  0.00     0.001 A 
ATOM     63  C   UNL A   1      50.520  26.286  28.870  1.00  0.00     0.001 A 
ATOM     64  C   UNL A   1      50.953  25.653  30.035  1.00  0.00     0.000 A 
ENDBRANCH  45  59
BRANCH  46  65
ATOM     65  C   UNL A   1      38.704  29.193  29.034  1.00  0.00    -0.014 A 
ATOM     66  C   UNL A   1      38.196  29.755  27.853  1.00  0.00     0.009 A 
ATOM     67  C   UNL A   1      37.841  29.020  30.127  1.00  0.00     0.009 A 
ATOM     68  C   UNL A   1      36.862  30.162  27.779  1.00  0.00     0.001 A 
ATOM     69  C   UNL A   1      36.500  29.399  30.040  1.00  0.00     0.001 A 
ATOM     70  C   UNL A   1      36.014  29.980  28.870  1.00  0.00     0.000 A 
ENDBRANCH  46  65
BRANCH  58  71
ATOM     71  C   UNL A   1      44.438  32.491  31.208  1.00  0.00    -0.014 A 
ATOM     72  C   UNL A   1      44.400  32.781  32.581  1.00  0.00     0.009 A 
ATOM     73  C   UNL A   1      44.745  33.518  30.303  1.00  0.00     0.009 A 
ATOM     74  C   UNL A   1      44.630  34.082  33.033  1.00  0.00     0.001 A 
ATOM     75  C   UNL A   1      45.008  34.810  30.760  1.00  0.00     0.001 A 
ATOM     76  C   UNL A   1      44.939  35.094  32.123  1.00  0.00     0.000 A 
ENDBRANCH  58  71
ENDBRANCH  32  33
ENDBRANCH  24  27
ENDBRANCH  22  23
ENDBRANCH  21  22
ENDBRANCH  20  21
ENDBRANCH   1  20
TORSDOF 16
ENDMDL
MODEL 3
REMARK VINA RESULT:     -10.3      5.222     10.047
REMARK SMILES CC#CC[C@H](C(=O)NCCCCCCNC(=O)c1ccc(-c2c3nc(c(-c4ccccc4)c4ccc([nH]4)c(-c4ccccc4)c4nc(c(-c5ccccc5)c5ccc2[nH]5)C=C4)C=C3)cc1)c1cccc(Br)c1
REMARK SMILES IDX 11 1 10 2 9 3 8 4 6 5 7 6 5 8 4 9 3 10 1 11 2 12 66 13 67 14
REMARK SMILES IDX 72 15 68 16 70 17 69 18 71 19 12 20 13 21 14 22 15 23 16 24
REMARK SMILES IDX 17 26 18 27 19 28 65 29 20 30 64 31 21 32 22 33 23 34 58 35
REMARK SMILES IDX 24 36 63 37 57 38 59 39 25 40 62 41 56 42 55 43 26 45 48 46
REMARK SMILES IDX 33 47 47 48 34 49 37 50 46 51 60 52 35 53 36 54 45 56 61 57
REMARK SMILES IDX 38 58 27 59 28 60 32 61 29 62 31 63 30 64 49 65 50 66 54 67
REMARK SMILES IDX 51 68 53 69 52 70 39 71 40 72 44 73 41 74 43 75 42 76
REMARK H PARENT 8 7 15 25 59 44 37 55
REMARK Flexibility Score: inf
ROOT
ATOM      1  C   UNL A   1      31.954  29.230  27.052  1.00  0.00     0.002 C 
ENDROOT
BRANCH   1   2
ATOM      2  C   UNL A   1      32.303  27.835  26.526  1.00  0.00     0.021 C 
BRANCH   2   3
ATOM      3  C   UNL A   1      31.100  26.978  26.109  1.00  0.00     0.116 C 
BRANCH   3   4
ATOM      4  N   UNL A   1      31.122  25.749  26.853  1.00  0.00    -0.356 N 
ATOM      5  C   UNL A   1      31.487  24.492  26.497  1.00  0.00     0.228 C 
ATOM      6  O   UNL A   1      31.005  23.628  27.236  1.00  0.00    -0.274 OA
ATOM      7  H   UNL A   1      30.817  25.833  27.785  1.00  0.00     0.163 HD
BRANCH   5   8
ATOM      8  C   UNL A   1      32.519  24.200  25.370  1.00  0.00     0.120 C 
BRANCH   8   9
ATOM      9  C   UNL A   1      33.914  24.396  26.026  1.00  0.00     0.107 C 
BRANCH   9  10
ATOM     10  C   UNL A   1      34.992  23.976  25.110  1.00  0.00    -0.102 C 
ATOM     11  C   UNL A   1      36.974  22.814  23.468  1.00  0.00     0.107 C 
ATOM     12  C   UNL A   1      35.907  23.439  24.352  1.00  0.00    -0.107 C 
ENDBRANCH   9  10
ENDBRANCH   8   9
BRANCH   8  13
ATOM     13  C   UNL A   1      32.388  22.860  24.611  1.00  0.00    -0.034 A 
ATOM     14  C   UNL A   1      32.102  22.827  23.243  1.00  0.00     0.004 A 
ATOM     15  C   UNL A   1      32.645  21.608  25.207  1.00  0.00     0.020 A 
ATOM     16  C   UNL A   1      31.952  21.636  22.525  1.00  0.00     0.001 A 
ATOM     17  C   UNL A   1      32.515  20.410  24.492  1.00  0.00     0.018 A 
ATOM     18  C   UNL A   1      32.145  20.417  23.156  1.00  0.00     0.016 A 
ATOM     19  Br  UNL A   1      32.865  18.761  25.350  1.00  0.00    -0.051 Br
ENDBRANCH   8  13
ENDBRANCH   5   8
ENDBRANCH   3   4
ENDBRANCH   2   3
ENDBRANCH   1   2
BRANCH   1  20
ATOM     20  C   UNL A   1      31.758  30.292  25.976  1.00  0.00     0.002 C 
BRANCH  20  21
ATOM     21  C   UNL A   1      31.479  31.694  26.516  1.00  0.00     0.021 C 
BRANCH  21  22
ATOM     22  C   UNL A   1      32.683  32.376  27.154  1.00  0.00     0.116 C 
BRANCH  22  23
ATOM     23  N   UNL A   1      32.418  33.769  27.466  1.00  0.00    -0.352 N 
ATOM     24  C   UNL A   1      33.021  34.567  28.402  1.00  0.00     0.251 C 
ATOM     25  H   UNL A   1      31.710  34.198  26.933  1.00  0.00     0.163 HD
ATOM     26  O   UNL A   1      32.542  35.662  28.693  1.00  0.00    -0.269 OA
BRANCH  24  27
ATOM     27  C   UNL A   1      34.244  34.092  29.075  1.00  0.00     0.039 A 
ATOM     28  C   UNL A   1      34.124  33.325  30.235  1.00  0.00     0.014 A 
ATOM     29  C   UNL A   1      35.505  34.391  28.549  1.00  0.00     0.014 A 
ATOM     30  C   UNL A   1      35.270  32.813  30.841  1.00  0.00     0.010 A 
ATOM     31  C   UNL A   1      36.639  33.815  29.110  1.00  0.00     0.010 A 
ATOM     32  C   UNL A   1      36.535  33.027  30.266  1.00  0.00    -0.014 A 
BRANCH  32  33
ATOM     33  C   UNL A   1      37.757  32.439  30.864  1.00  0.00     0.031 A 
ATOM     34  C   UNL A   1      38.390  31.222  30.247  1.00  0.00     0.074 A 
ATOM     35  C   UNL A   1      38.268  32.967  31.994  1.00  0.00     0.049 A 
ATOM     36  N   UNL A   1      39.431  30.539  30.649  1.00  0.00    -0.248 NA
ATOM     37  C   UNL A   1      37.754  30.687  29.032  1.00  0.00     0.031 C 
ATOM     38  C   UNL A   1      37.726  34.124  32.710  1.00  0.00     0.029 A 
ATOM     39  N   UNL A   1      39.357  32.594  32.741  1.00  0.00    -0.354 N 
ATOM     40  C   UNL A   1      39.566  29.491  29.748  1.00  0.00     0.074 A 
ATOM     41  C   UNL A   1      38.470  29.594  28.810  1.00  0.00     0.031 C 
ATOM     42  C   UNL A   1      38.502  34.385  33.773  1.00  0.00     0.029 A 
ATOM     43  C   UNL A   1      39.568  33.390  33.840  1.00  0.00     0.049 A 
ATOM     44  H   UNL A   1      39.933  31.830  32.509  1.00  0.00     0.167 HD
ATOM     45  C   UNL A   1      40.527  28.539  29.692  1.00  0.00     0.031 A 
ATOM     46  C   UNL A   1      40.510  33.322  34.799  1.00  0.00     0.031 A 
ATOM     47  C   UNL A   1      41.620  28.439  30.622  1.00  0.00     0.049 A 
ATOM     48  C   UNL A   1      41.551  32.239  34.729  1.00  0.00     0.074 A 
ATOM     49  C   UNL A   1      42.675  27.543  30.620  1.00  0.00     0.029 A 
ATOM     50  N   UNL A   1      41.796  29.262  31.724  1.00  0.00    -0.354 N 
ATOM     51  N   UNL A   1      41.705  31.297  33.831  1.00  0.00    -0.248 NA
ATOM     52  C   UNL A   1      42.555  32.218  35.802  1.00  0.00     0.031 C 
ATOM     53  C   UNL A   1      43.456  27.786  31.753  1.00  0.00     0.029 A 
ATOM     54  C   UNL A   1      42.926  28.876  32.425  1.00  0.00     0.049 A 
ATOM     55  H   UNL A   1      41.206  30.011  31.970  1.00  0.00     0.167 HD
ATOM     56  C   UNL A   1      42.838  30.591  34.212  1.00  0.00     0.074 A 
ATOM     57  C   UNL A   1      43.342  31.224  35.414  1.00  0.00     0.031 C 
ATOM     58  C   UNL A   1      43.412  29.516  33.621  1.00  0.00     0.031 A 
BRANCH  45  59
ATOM     59  C   UNL A   1      40.430  27.520  28.590  1.00  0.00    -0.014 A 
ATOM     60  C   UNL A   1      39.731  26.315  28.769  1.00  0.00     0.009 A 
ATOM     61  C   UNL A   1      41.018  27.782  27.342  1.00  0.00     0.009 A 
ATOM     62  C   UNL A   1      39.657  25.379  27.735  1.00  0.00     0.001 A 
ATOM     63  C   UNL A   1      40.915  26.859  26.301  1.00  0.00     0.001 A 
ATOM     64  C   UNL A   1      40.243  25.654  26.501  1.00  0.00     0.000 A 
ENDBRANCH  45  59
BRANCH  46  65
ATOM     65  C   UNL A   1      40.522  34.316  35.905  1.00  0.00    -0.014 A 
ATOM     66  C   UNL A   1      39.739  34.115  37.052  1.00  0.00     0.009 A 
ATOM     67  C   UNL A   1      41.309  35.474  35.818  1.00  0.00     0.009 A 
ATOM     68  C   UNL A   1      39.721  35.067  38.074  1.00  0.00     0.001 A 
ATOM     69  C   UNL A   1      41.315  36.410  36.854  1.00  0.00     0.001 A 
ATOM     70  C   UNL A   1      40.512  36.211  37.977  1.00  0.00     0.000 A 
ENDBRANCH  46  65
BRANCH  58  71
ATOM     71  C   UNL A   1      44.672  28.978  34.242  1.00  0.00    -0.014 A 
ATOM     72  C   UNL A   1      45.914  29.595  34.029  1.00  0.00     0.009 A 
ATOM     73  C   UNL A   1      44.603  27.861  35.089  1.00  0.00     0.009 A 
ATOM     74  C   UNL A   1      47.068  29.080  34.623  1.00  0.00     0.001 A 
ATOM     75  C   UNL A   1      45.752  27.369  35.708  1.00  0.00     0.001 A 
ATOM     76  C   UNL A   1      46.985  27.971  35.466  1.00  0.00     0.000 A 
ENDBRANCH  58  71
ENDBRANCH  32  33
ENDBRANCH  24  27
ENDBRANCH  22  23
ENDBRANCH  21  22
ENDBRANCH  20  21
ENDBRANCH   1  20
TORSDOF 16
ENDMDL
