MODEL 1
REMARK VINA RESULT:      -9.8      0.000      0.000
REMARK SMILES O=C(C[C@@H]1C=CS(=O)(=O)C1)NCCCCCCNC(=O)c1ccc(-c2c3nc(c(-c4ccccc4)c4ccc([nH]4)c(-c4ccccc4)c4nc(c(-c5ccccc5)c5ccc2[nH]5)C=C4)C=C3)cc1
REMARK SMILES IDX 15 1 14 2 13 3 12 4 11 5 1 6 2 7 3 9 4 10 5 11 10 12 6 13
REMARK SMILES IDX 7 14 8 15 9 16 16 17 17 18 18 19 19 20 20 22 21 23 22 24
REMARK SMILES IDX 68 25 23 26 67 27 24 28 25 29 26 30 61 31 27 32 66 33 60 34
REMARK SMILES IDX 62 35 28 36 65 37 59 38 58 39 29 41 51 42 36 43 50 44 37 45
REMARK SMILES IDX 40 46 49 47 63 48 38 49 39 50 48 52 64 53 41 54 30 55 31 56
REMARK SMILES IDX 35 57 32 58 34 59 33 60 52 61 53 62 57 63 54 64 56 65 55 66
REMARK SMILES IDX 42 67 43 68 47 69 44 70 46 71 45 72
REMARK H PARENT 11 8 18 21 62 40 40 51
REMARK Flexibility Score: inf
ROOT
ATOM      1  C   UNL A   1      36.676  20.606  24.972  1.00  0.00     0.002 C 
ENDROOT
BRANCH   1   2
ATOM      2  C   UNL A   1      36.887  21.957  25.661  1.00  0.00     0.002 C 
BRANCH   2   3
ATOM      3  C   UNL A   1      37.046  23.163  24.722  1.00  0.00     0.021 C 
BRANCH   3   4
ATOM      4  C   UNL A   1      36.290  23.052  23.397  1.00  0.00     0.116 C 
BRANCH   4   5
ATOM      5  N   UNL A   1      35.064  23.819  23.431  1.00  0.00    -0.356 N 
ATOM      6  O   UNL A   1      33.601  22.068  23.726  1.00  0.00    -0.275 OA
ATOM      7  C   UNL A   1      33.817  23.266  23.612  1.00  0.00     0.220 C 
ATOM      8  H   UNL A   1      35.126  24.795  23.318  1.00  0.00     0.163 HD
BRANCH   7   9
ATOM      9  C   UNL A   1      32.706  24.300  23.610  1.00  0.00     0.108 C 
BRANCH   9  10
ATOM     10  C   UNL A   1      32.175  24.751  24.985  1.00  0.00     0.037 C 
ATOM     11  C   UNL A   1      32.957  24.277  26.187  1.00  0.00    -0.010 C 
ATOM     12  C   UNL A   1      30.714  24.339  25.227  1.00  0.00     0.150 C 
ATOM     13  C   UNL A   1      32.358  23.368  26.970  1.00  0.00     0.102 C 
ATOM     14  S   UNL A   1      30.757  23.006  26.421  1.00  0.00     0.171 S 
ATOM     15  O   UNL A   1      29.811  23.303  27.481  1.00  0.00    -0.224 OA
ATOM     16  O   UNL A   1      30.752  21.743  25.725  1.00  0.00    -0.224 OA
ENDBRANCH   9  10
ENDBRANCH   7   9
ENDBRANCH   4   5
ENDBRANCH   3   4
ENDBRANCH   2   3
ENDBRANCH   1   2
BRANCH   1  17
ATOM     17  C   UNL A   1      37.917  19.716  24.898  1.00  0.00     0.021 C 
BRANCH  17  18
ATOM     18  C   UNL A   1      39.103  20.192  25.732  1.00  0.00     0.116 C 
BRANCH  18  19
ATOM     19  N   UNL A   1      40.186  19.222  25.777  1.00  0.00    -0.352 N 
ATOM     20  C   UNL A   1      41.510  19.425  26.085  1.00  0.00     0.251 C 
ATOM     21  H   UNL A   1      39.937  18.295  25.559  1.00  0.00     0.163 HD
ATOM     22  O   UNL A   1      42.330  18.525  25.937  1.00  0.00    -0.269 OA
BRANCH  20  23
ATOM     23  C   UNL A   1      41.948  20.753  26.567  1.00  0.00     0.039 A 
ATOM     24  C   UNL A   1      42.480  21.666  25.653  1.00  0.00     0.014 A 
ATOM     25  C   UNL A   1      41.811  21.100  27.913  1.00  0.00     0.014 A 
ATOM     26  C   UNL A   1      42.809  22.957  26.078  1.00  0.00     0.010 A 
ATOM     27  C   UNL A   1      42.073  22.406  28.318  1.00  0.00     0.010 A 
ATOM     28  C   UNL A   1      42.573  23.348  27.405  1.00  0.00    -0.014 A 
BRANCH  28  29
ATOM     29  C   UNL A   1      42.841  24.734  27.871  1.00  0.00     0.031 A 
ATOM     30  C   UNL A   1      44.234  25.132  28.276  1.00  0.00     0.074 A 
ATOM     31  C   UNL A   1      41.822  25.605  28.014  1.00  0.00     0.049 A 
ATOM     32  N   UNL A   1      44.649  26.247  28.821  1.00  0.00    -0.248 NA
ATOM     33  C   UNL A   1      45.298  24.135  28.064  1.00  0.00     0.031 C 
ATOM     34  C   UNL A   1      40.420  25.338  27.686  1.00  0.00     0.029 A 
ATOM     35  N   UNL A   1      41.809  26.893  28.491  1.00  0.00    -0.354 N 
ATOM     36  C   UNL A   1      46.009  26.074  29.046  1.00  0.00     0.074 A 
ATOM     37  C   UNL A   1      46.346  24.737  28.611  1.00  0.00     0.031 C 
ATOM     38  C   UNL A   1      39.687  26.430  27.958  1.00  0.00     0.029 A 
ATOM     39  C   UNL A   1      40.556  27.458  28.522  1.00  0.00     0.049 A 
ATOM     40  H   UNL A   1      42.620  27.366  28.785  1.00  0.00     0.167 HD
ATOM     41  C   UNL A   1      46.901  26.955  29.558  1.00  0.00     0.031 A 
ATOM     42  C   UNL A   1      40.149  28.661  28.971  1.00  0.00     0.031 A 
ATOM     43  C   UNL A   1      46.575  28.295  29.961  1.00  0.00     0.049 A 
ATOM     44  C   UNL A   1      41.164  29.613  29.547  1.00  0.00     0.074 A 
ATOM     45  C   UNL A   1      47.427  29.284  30.423  1.00  0.00     0.029 A 
ATOM     46  N   UNL A   1      45.299  28.834  29.953  1.00  0.00    -0.354 N 
ATOM     47  N   UNL A   1      42.459  29.460  29.681  1.00  0.00    -0.248 NA
ATOM     48  C   UNL A   1      40.660  30.911  30.024  1.00  0.00     0.031 C 
ATOM     49  C   UNL A   1      46.659  30.406  30.742  1.00  0.00     0.029 A 
ATOM     50  C   UNL A   1      45.337  30.135  30.424  1.00  0.00     0.049 A 
ATOM     51  H   UNL A   1      44.488  28.363  29.655  1.00  0.00     0.167 HD
ATOM     52  C   UNL A   1      42.926  30.653  30.220  1.00  0.00     0.074 A 
ATOM     53  C   UNL A   1      41.781  31.523  30.376  1.00  0.00     0.031 C 
ATOM     54  C   UNL A   1      44.193  30.997  30.552  1.00  0.00     0.031 A 
BRANCH  41  55
ATOM     55  C   UNL A   1      48.324  26.501  29.718  1.00  0.00    -0.014 A 
ATOM     56  C   UNL A   1      49.297  26.796  28.751  1.00  0.00     0.009 A 
ATOM     57  C   UNL A   1      48.711  25.834  30.891  1.00  0.00     0.009 A 
ATOM     58  C   UNL A   1      50.626  26.412  28.946  1.00  0.00     0.001 A 
ATOM     59  C   UNL A   1      50.044  25.476  31.097  1.00  0.00     0.001 A 
ATOM     60  C   UNL A   1      50.999  25.760  30.122  1.00  0.00     0.000 A 
ENDBRANCH  41  55
BRANCH  42  61
ATOM     61  C   UNL A   1      38.715  29.049  28.907  1.00  0.00    -0.014 A 
ATOM     62  C   UNL A   1      38.183  29.621  27.741  1.00  0.00     0.009 A 
ATOM     63  C   UNL A   1      37.882  28.898  30.028  1.00  0.00     0.009 A 
ATOM     64  C   UNL A   1      36.861  30.071  27.711  1.00  0.00     0.001 A 
ATOM     65  C   UNL A   1      36.551  29.320  29.984  1.00  0.00     0.001 A 
ATOM     66  C   UNL A   1      36.046  29.920  28.831  1.00  0.00     0.000 A 
ENDBRANCH  42  61
BRANCH  54  67
ATOM     67  C   UNL A   1      44.424  32.391  31.060  1.00  0.00    -0.014 A 
ATOM     68  C   UNL A   1      44.672  33.459  30.185  1.00  0.00     0.009 A 
ATOM     69  C   UNL A   1      44.330  32.647  32.438  1.00  0.00     0.009 A 
ATOM     70  C   UNL A   1      44.850  34.751  30.683  1.00  0.00     0.001 A 
ATOM     71  C   UNL A   1      44.478  33.943  32.930  1.00  0.00     0.001 A 
ATOM     72  C   UNL A   1      44.747  34.994  32.053  1.00  0.00     0.000 A 
ENDBRANCH  54  67
ENDBRANCH  28  29
ENDBRANCH  20  23
ENDBRANCH  18  19
ENDBRANCH  17  18
ENDBRANCH   1  17
TORSDOF 14
ENDMDL
MODEL 2
REMARK VINA RESULT:      -9.7      5.735     10.849
REMARK SMILES O=C(C[C@@H]1C=CS(=O)(=O)C1)NCCCCCCNC(=O)c1ccc(-c2c3nc(c(-c4ccccc4)c4ccc([nH]4)c(-c4ccccc4)c4nc(c(-c5ccccc5)c5ccc2[nH]5)C=C4)C=C3)cc1
REMARK SMILES IDX 15 1 14 2 13 3 12 4 11 5 1 6 2 7 3 9 4 10 5 11 10 12 6 13
REMARK SMILES IDX 7 14 8 15 9 16 16 17 17 18 18 19 19 20 20 22 21 23 22 24
REMARK SMILES IDX 68 25 23 26 67 27 24 28 25 29 26 30 61 31 27 32 66 33 60 34
REMARK SMILES IDX 62 35 28 36 65 37 59 38 58 39 29 41 51 42 36 43 50 44 37 45
REMARK SMILES IDX 40 46 49 47 63 48 38 49 39 50 48 52 64 53 41 54 30 55 31 56
REMARK SMILES IDX 35 57 32 58 34 59 33 60 52 61 53 62 57 63 54 64 56 65 55 66
REMARK SMILES IDX 42 67 43 68 47 69 44 70 46 71 45 72
REMARK H PARENT 11 8 18 21 62 40 40 51
REMARK Flexibility Score: inf
ROOT
ATOM      1  C   UNL A   1      34.543  34.864  28.234  1.00  0.00     0.002 C 
ENDROOT
BRANCH   1   2
ATOM      2  C   UNL A   1      35.171  33.698  29.001  1.00  0.00     0.002 C 
BRANCH   2   3
ATOM      3  C   UNL A   1      34.383  32.379  28.966  1.00  0.00     0.021 C 
BRANCH   3   4
ATOM      4  C   UNL A   1      34.811  31.402  27.870  1.00  0.00     0.116 C 
BRANCH   4   5
ATOM      5  N   UNL A   1      33.663  30.880  27.160  1.00  0.00    -0.356 N 
ATOM      6  O   UNL A   1      33.984  28.651  27.628  1.00  0.00    -0.275 OA
ATOM      7  C   UNL A   1      33.331  29.546  27.111  1.00  0.00     0.220 C 
ATOM      8  H   UNL A   1      33.085  31.519  26.683  1.00  0.00     0.163 HD
BRANCH   7   9
ATOM      9  C   UNL A   1      32.076  29.278  26.300  1.00  0.00     0.108 C 
BRANCH   9  10
ATOM     10  C   UNL A   1      32.198  28.256  25.152  1.00  0.00     0.037 C 
ATOM     11  C   UNL A   1      33.104  28.646  24.009  1.00  0.00    -0.010 C 
ATOM     12  C   UNL A   1      30.840  27.896  24.527  1.00  0.00     0.150 C 
ATOM     13  C   UNL A   1      32.508  28.924  22.841  1.00  0.00     0.102 C 
ATOM     14  S   UNL A   1      30.795  28.694  22.925  1.00  0.00     0.171 S 
ATOM     15  O   UNL A   1      30.396  27.714  21.931  1.00  0.00    -0.224 OA
ATOM     16  O   UNL A   1      30.134  29.970  23.047  1.00  0.00    -0.224 OA
ENDBRANCH   9  10
ENDBRANCH   7   9
ENDBRANCH   4   5
ENDBRANCH   3   4
ENDBRANCH   2   3
ENDBRANCH   1   2
BRANCH   1  17
ATOM     17  C   UNL A   1      33.250  35.415  28.836  1.00  0.00     0.021 C 
BRANCH  17  18
ATOM     18  C   UNL A   1      33.444  36.473  29.918  1.00  0.00     0.116 C 
BRANCH  18  19
ATOM     19  N   UNL A   1      32.392  36.450  30.923  1.00  0.00    -0.352 N 
ATOM     20  C   UNL A   1      32.357  35.767  32.115  1.00  0.00     0.251 C 
ATOM     21  H   UNL A   1      31.599  36.999  30.724  1.00  0.00     0.163 HD
ATOM     22  O   UNL A   1      31.332  35.738  32.788  1.00  0.00    -0.269 OA
BRANCH  20  23
ATOM     23  C   UNL A   1      33.560  35.035  32.568  1.00  0.00     0.039 A 
ATOM     24  C   UNL A   1      33.413  33.751  33.100  1.00  0.00     0.014 A 
ATOM     25  C   UNL A   1      34.828  35.607  32.445  1.00  0.00     0.014 A 
ATOM     26  C   UNL A   1      34.548  33.011  33.444  1.00  0.00     0.010 A 
ATOM     27  C   UNL A   1      35.958  34.843  32.721  1.00  0.00     0.010 A 
ATOM     28  C   UNL A   1      35.831  33.537  33.222  1.00  0.00    -0.014 A 
BRANCH  28  29
ATOM     29  C   UNL A   1      37.059  32.749  33.505  1.00  0.00     0.031 A 
ATOM     30  C   UNL A   1      37.836  33.002  34.768  1.00  0.00     0.074 A 
ATOM     31  C   UNL A   1      37.523  31.874  32.591  1.00  0.00     0.049 A 
ATOM     32  N   UNL A   1      38.991  32.510  35.140  1.00  0.00    -0.248 NA
ATOM     33  C   UNL A   1      37.251  33.951  35.731  1.00  0.00     0.031 C 
ATOM     34  C   UNL A   1      36.883  31.557  31.313  1.00  0.00     0.029 A 
ATOM     35  N   UNL A   1      38.658  31.100  32.592  1.00  0.00    -0.354 N 
ATOM     36  C   UNL A   1      39.284  33.114  36.358  1.00  0.00     0.074 A 
ATOM     37  C   UNL A   1      38.204  34.031  36.648  1.00  0.00     0.031 C 
ATOM     38  C   UNL A   1      37.625  30.647  30.661  1.00  0.00     0.029 A 
ATOM     39  C   UNL A   1      38.816  30.349  31.451  1.00  0.00     0.049 A 
ATOM     40  H   UNL A   1      39.298  31.085  33.339  1.00  0.00     0.167 HD
ATOM     41  C   UNL A   1      40.349  32.911  37.167  1.00  0.00     0.031 A 
ATOM     42  C   UNL A   1      39.816  29.529  31.075  1.00  0.00     0.031 A 
ATOM     43  C   UNL A   1      41.407  31.976  36.896  1.00  0.00     0.049 A 
ATOM     44  C   UNL A   1      40.994  29.335  31.992  1.00  0.00     0.074 A 
ATOM     45  C   UNL A   1      42.491  31.650  37.694  1.00  0.00     0.029 A 
ATOM     46  N   UNL A   1      41.514  31.220  35.741  1.00  0.00    -0.354 N 
ATOM     47  N   UNL A   1      41.216  29.857  33.174  1.00  0.00    -0.248 NA
ATOM     48  C   UNL A   1      42.056  28.430  31.525  1.00  0.00     0.031 C 
ATOM     49  C   UNL A   1      43.282  30.733  36.998  1.00  0.00     0.029 A 
ATOM     50  C   UNL A   1      42.660  30.445  35.794  1.00  0.00     0.049 A 
ATOM     51  H   UNL A   1      40.872  31.230  34.995  1.00  0.00     0.167 HD
ATOM     52  C   UNL A   1      42.420  29.313  33.606  1.00  0.00     0.074 A 
ATOM     53  C   UNL A   1      42.874  28.414  32.568  1.00  0.00     0.031 C 
ATOM     54  C   UNL A   1      43.088  29.537  34.763  1.00  0.00     0.031 A 
BRANCH  41  55
ATOM     55  C   UNL A   1      40.436  33.720  38.430  1.00  0.00    -0.014 A 
ATOM     56  C   UNL A   1      39.855  33.269  39.626  1.00  0.00     0.009 A 
ATOM     57  C   UNL A   1      41.175  34.913  38.441  1.00  0.00     0.009 A 
ATOM     58  C   UNL A   1      39.994  34.009  40.801  1.00  0.00     0.001 A 
ATOM     59  C   UNL A   1      41.336  35.637  39.623  1.00  0.00     0.001 A 
ATOM     60  C   UNL A   1      40.740  35.188  40.801  1.00  0.00     0.000 A 
ENDBRANCH  41  55
BRANCH  42  61
ATOM     61  C   UNL A   1      39.765  28.823  29.767  1.00  0.00    -0.014 A 
ATOM     62  C   UNL A   1      39.378  27.475  29.699  1.00  0.00     0.009 A 
ATOM     63  C   UNL A   1      40.152  29.476  28.586  1.00  0.00     0.009 A 
ATOM     64  C   UNL A   1      39.420  26.786  28.485  1.00  0.00     0.001 A 
ATOM     65  C   UNL A   1      40.162  28.792  27.367  1.00  0.00     0.001 A 
ATOM     66  C   UNL A   1      39.811  27.444  27.320  1.00  0.00     0.000 A 
ENDBRANCH  42  61
BRANCH  54  67
ATOM     67  C   UNL A   1      44.348  28.755  35.000  1.00  0.00    -0.014 A 
ATOM     68  C   UNL A   1      45.604  29.259  34.631  1.00  0.00     0.009 A 
ATOM     69  C   UNL A   1      44.277  27.518  35.660  1.00  0.00     0.009 A 
ATOM     70  C   UNL A   1      46.762  28.525  34.893  1.00  0.00     0.001 A 
ATOM     71  C   UNL A   1      45.438  26.800  35.947  1.00  0.00     0.001 A 
ATOM     72  C   UNL A   1      46.679  27.301  35.557  1.00  0.00     0.000 A 
ENDBRANCH  54  67
ENDBRANCH  28  29
ENDBRANCH  20  23
ENDBRANCH  18  19
ENDBRANCH  17  18
ENDBRANCH   1  17
TORSDOF 14
ENDMDL
MODEL 3
REMARK VINA RESULT:      -9.7      1.858      2.142
REMARK SMILES O=C(C[C@@H]1C=CS(=O)(=O)C1)NCCCCCCNC(=O)c1ccc(-c2c3nc(c(-c4ccccc4)c4ccc([nH]4)c(-c4ccccc4)c4nc(c(-c5ccccc5)c5ccc2[nH]5)C=C4)C=C3)cc1
REMARK SMILES IDX 15 1 14 2 13 3 12 4 11 5 1 6 2 7 3 9 4 10 5 11 10 12 6 13
REMARK SMILES IDX 7 14 8 15 9 16 16 17 17 18 18 19 19 20 20 22 21 23 22 24
REMARK SMILES IDX 68 25 23 26 67 27 24 28 25 29 26 30 61 31 27 32 66 33 60 34
REMARK SMILES IDX 62 35 28 36 65 37 59 38 58 39 29 41 51 42 36 43 50 44 37 45
REMARK SMILES IDX 40 46 49 47 63 48 38 49 39 50 48 52 64 53 41 54 30 55 31 56
REMARK SMILES IDX 35 57 32 58 34 59 33 60 52 61 53 62 57 63 54 64 56 65 55 66
REMARK SMILES IDX 42 67 43 68 47 69 44 70 46 71 45 72
REMARK H PARENT 11 8 18 21 62 40 40 51
REMARK Flexibility Score: inf
ROOT
ATOM      1  C   UNL A   1      36.467  20.589  25.011  1.00  0.00     0.002 C 
ENDROOT
BRANCH   1   2
ATOM      2  C   UNL A   1      36.390  21.964  24.343  1.00  0.00     0.002 C 
BRANCH   2   3
ATOM      3  C   UNL A   1      34.992  22.600  24.293  1.00  0.00     0.021 C 
BRANCH   3   4
ATOM      4  C   UNL A   1      34.757  23.545  23.113  1.00  0.00     0.116 C 
BRANCH   4   5
ATOM      5  N   UNL A   1      33.386  24.007  23.082  1.00  0.00    -0.356 N 
ATOM      6  O   UNL A   1      33.663  25.723  21.574  1.00  0.00    -0.275 OA
ATOM      7  C   UNL A   1      32.945  25.049  22.298  1.00  0.00     0.220 C 
ATOM      8  H   UNL A   1      32.730  23.549  23.654  1.00  0.00     0.163 HD
BRANCH   7   9
ATOM      9  C   UNL A   1      31.460  25.321  22.457  1.00  0.00     0.108 C 
BRANCH   9  10
ATOM     10  C   UNL A   1      31.041  26.217  23.639  1.00  0.00     0.037 C 
ATOM     11  C   UNL A   1      29.556  26.348  23.880  1.00  0.00    -0.010 C 
ATOM     12  C   UNL A   1      31.592  27.648  23.529  1.00  0.00     0.150 C 
ATOM     13  C   UNL A   1      29.011  27.544  23.614  1.00  0.00     0.102 C 
ATOM     14  S   UNL A   1      30.202  28.692  23.106  1.00  0.00     0.171 S 
ATOM     15  O   UNL A   1      30.184  29.828  24.010  1.00  0.00    -0.224 OA
ATOM     16  O   UNL A   1      30.146  28.855  21.675  1.00  0.00    -0.224 OA
ENDBRANCH   9  10
ENDBRANCH   7   9
ENDBRANCH   4   5
ENDBRANCH   3   4
ENDBRANCH   2   3
ENDBRANCH   1   2
BRANCH   1  17
ATOM     17  C   UNL A   1      37.784  19.840  24.804  1.00  0.00     0.021 C 
BRANCH  17  18
ATOM     18  C   UNL A   1      38.917  20.260  25.735  1.00  0.00     0.116 C 
BRANCH  18  19
ATOM     19  N   UNL A   1      39.988  19.277  25.800  1.00  0.00    -0.352 N 
ATOM     20  C   UNL A   1      41.309  19.465  26.130  1.00  0.00     0.251 C 
ATOM     21  H   UNL A   1      39.732  18.353  25.579  1.00  0.00     0.163 HD
ATOM     22  O   UNL A   1      42.120  18.555  25.998  1.00  0.00    -0.269 OA
BRANCH  20  23
ATOM     23  C   UNL A   1      41.755  20.788  26.618  1.00  0.00     0.039 A 
ATOM     24  C   UNL A   1      42.290  21.702  25.707  1.00  0.00     0.014 A 
ATOM     25  C   UNL A   1      41.622  21.130  27.966  1.00  0.00     0.014 A 
ATOM     26  C   UNL A   1      42.627  22.989  26.137  1.00  0.00     0.010 A 
ATOM     27  C   UNL A   1      41.892  22.431  28.376  1.00  0.00     0.010 A 
ATOM     28  C   UNL A   1      42.396  23.376  27.467  1.00  0.00    -0.014 A 
BRANCH  28  29
ATOM     29  C   UNL A   1      42.672  24.758  27.939  1.00  0.00     0.031 A 
ATOM     30  C   UNL A   1      44.063  25.139  28.367  1.00  0.00     0.074 A 
ATOM     31  C   UNL A   1      41.661  25.640  28.066  1.00  0.00     0.049 A 
ATOM     32  N   UNL A   1      44.481  26.248  28.920  1.00  0.00    -0.248 NA
ATOM     33  C   UNL A   1      45.119  24.130  28.172  1.00  0.00     0.031 C 
ATOM     34  C   UNL A   1      40.261  25.390  27.714  1.00  0.00     0.029 A 
ATOM     35  N   UNL A   1      41.655  26.928  28.544  1.00  0.00    -0.354 N 
ATOM     36  C   UNL A   1      45.836  26.059  29.167  1.00  0.00     0.074 A 
ATOM     37  C   UNL A   1      46.164  24.719  28.736  1.00  0.00     0.031 C 
ATOM     38  C   UNL A   1      39.537  26.490  27.976  1.00  0.00     0.029 A 
ATOM     39  C   UNL A   1      40.408  27.508  28.556  1.00  0.00     0.049 A 
ATOM     40  H   UNL A   1      42.467  27.391  28.852  1.00  0.00     0.167 HD
ATOM     41  C   UNL A   1      46.730  26.929  29.694  1.00  0.00     0.031 A 
ATOM     42  C   UNL A   1      40.008  28.715  28.999  1.00  0.00     0.031 A 
ATOM     43  C   UNL A   1      46.412  28.273  30.094  1.00  0.00     0.049 A 
ATOM     44  C   UNL A   1      41.024  29.654  29.592  1.00  0.00     0.074 A 
ATOM     45  C   UNL A   1      47.268  29.252  30.571  1.00  0.00     0.029 A 
ATOM     46  N   UNL A   1      45.143  28.826  30.065  1.00  0.00    -0.354 N 
ATOM     47  N   UNL A   1      42.315  29.486  29.748  1.00  0.00    -0.248 NA
ATOM     48  C   UNL A   1      40.527  30.957  30.063  1.00  0.00     0.031 C 
ATOM     49  C   UNL A   1      46.508  30.382  30.879  1.00  0.00     0.029 A 
ATOM     50  C   UNL A   1      45.189  30.126  30.539  1.00  0.00     0.049 A 
ATOM     51  H   UNL A   1      44.332  28.366  29.754  1.00  0.00     0.167 HD
ATOM     52  C   UNL A   1      42.788  30.673  30.296  1.00  0.00     0.074 A 
ATOM     53  C   UNL A   1      41.650  31.556  30.434  1.00  0.00     0.031 C 
ATOM     54  C   UNL A   1      44.053  31.002  30.649  1.00  0.00     0.031 A 
BRANCH  41  55
ATOM     55  C   UNL A   1      48.144  26.458  29.878  1.00  0.00    -0.014 A 
ATOM     56  C   UNL A   1      48.564  25.860  31.076  1.00  0.00     0.009 A 
ATOM     57  C   UNL A   1      49.049  26.545  28.808  1.00  0.00     0.009 A 
ATOM     58  C   UNL A   1      49.868  25.379  31.207  1.00  0.00     0.001 A 
ATOM     59  C   UNL A   1      50.343  26.038  28.931  1.00  0.00     0.001 A 
ATOM     60  C   UNL A   1      50.753  25.461  30.132  1.00  0.00     0.000 A 
ENDBRANCH  41  55
BRANCH  42  61
ATOM     61  C   UNL A   1      38.580  29.120  28.912  1.00  0.00    -0.014 A 
ATOM     62  C   UNL A   1      38.070  29.684  27.732  1.00  0.00     0.009 A 
ATOM     63  C   UNL A   1      37.731  28.992  30.023  1.00  0.00     0.009 A 
ATOM     64  C   UNL A   1      36.754  30.150  27.680  1.00  0.00     0.001 A 
ATOM     65  C   UNL A   1      36.406  29.430  29.957  1.00  0.00     0.001 A 
ATOM     66  C   UNL A   1      35.923  30.022  28.791  1.00  0.00     0.000 A 
ENDBRANCH  42  61
BRANCH  54  67
ATOM     67  C   UNL A   1      44.291  32.393  31.162  1.00  0.00    -0.014 A 
ATOM     68  C   UNL A   1      44.547  33.463  30.292  1.00  0.00     0.009 A 
ATOM     69  C   UNL A   1      44.197  32.644  32.541  1.00  0.00     0.009 A 
ATOM     70  C   UNL A   1      44.732  34.751  30.795  1.00  0.00     0.001 A 
ATOM     71  C   UNL A   1      44.353  33.937  33.038  1.00  0.00     0.001 A 
ATOM     72  C   UNL A   1      44.628  34.989  32.166  1.00  0.00     0.000 A 
ENDBRANCH  54  67
ENDBRANCH  28  29
ENDBRANCH  20  23
ENDBRANCH  18  19
ENDBRANCH  17  18
ENDBRANCH   1  17
TORSDOF 14
ENDMDL
