MODEL 1
REMARK VINA RESULT:     -11.1      0.000      0.000
REMARK SMILES C[C@@H](C(=O)NCCCCCCNC(=O)c1ccc(-c2c3nc(c(-c4ccccc4)c4ccc([nH]4)c(-c4ccccc4)c4nc(c(-c5ccccc5)c5ccc2[nH]5)C=C4)C=C3)cc1)c1ccc(-c2cccc(OC(=O)Nc3ccccc3)c2)c(F)c1
REMARK SMILES IDX 7 1 6 2 5 3 3 4 4 5 2 7 1 8 63 9 64 10 85 11 65 12 83 13
REMARK SMILES IDX 66 14 84 15 67 16 68 17 82 18 69 19 71 20 70 21 72 22 73 23
REMARK SMILES IDX 74 24 75 25 76 27 77 28 81 29 78 30 80 31 79 32 8 33 9 34
REMARK SMILES IDX 10 35 11 36 12 37 13 38 14 40 15 41 16 42 62 43 17 44 61 45
REMARK SMILES IDX 18 46 19 47 20 48 55 49 21 50 60 51 54 52 56 53 22 54 59 55
REMARK SMILES IDX 53 56 52 57 23 59 45 60 30 61 44 62 31 63 34 64 43 65 57 66
REMARK SMILES IDX 32 67 33 68 42 70 58 71 35 72 24 73 25 74 29 75 26 76 28 77
REMARK SMILES IDX 27 78 46 79 47 80 51 81 48 82 50 83 49 84 36 85 37 86 41 87
REMARK SMILES IDX 38 88 40 89 39 90
REMARK H PARENT 5 6 75 26 12 39 56 58 34 69
REMARK Flexibility Score: inf
ROOT
ATOM      1  C   UNL A   1      35.149  22.250  25.534  1.00  0.00     0.021 C 
ENDROOT
BRANCH   1   2
ATOM      2  C   UNL A   1      35.401  23.731  25.246  1.00  0.00     0.116 C 
BRANCH   2   3
ATOM      3  N   UNL A   1      35.013  24.052  23.893  1.00  0.00    -0.356 N 
ATOM      4  C   UNL A   1      33.790  24.348  23.375  1.00  0.00     0.227 C 
ATOM      5  O   UNL A   1      33.724  24.422  22.147  1.00  0.00    -0.274 OA
ATOM      6  H   UNL A   1      35.750  24.057  23.240  1.00  0.00     0.163 HD
BRANCH   4   7
ATOM      7  C   UNL A   1      32.601  24.621  24.314  1.00  0.00     0.105 C 
ATOM      8  C   UNL A   1      31.236  24.448  23.636  1.00  0.00     0.023 C 
BRANCH   7   9
ATOM      9  C   UNL A   1      32.664  26.017  24.921  1.00  0.00    -0.033 A 
ATOM     10  C   UNL A   1      32.168  26.268  26.207  1.00  0.00     0.005 A 
ATOM     11  C   UNL A   1      33.181  27.087  24.177  1.00  0.00     0.044 A 
ATOM     12  C   UNL A   1      32.155  27.571  26.721  1.00  0.00     0.012 A 
ATOM     13  C   UNL A   1      33.173  28.372  24.698  1.00  0.00     0.131 A 
ATOM     14  C   UNL A   1      32.637  28.648  25.961  1.00  0.00     0.018 A 
ATOM     15  F   UNL A   1      33.664  29.361  23.934  1.00  0.00    -0.206 F 
BRANCH  14  16
ATOM     16  C   UNL A   1      32.489  30.035  26.416  1.00  0.00    -0.012 A 
ATOM     17  C   UNL A   1      31.401  30.839  26.050  1.00  0.00     0.009 A 
ATOM     18  C   UNL A   1      33.483  30.585  27.244  1.00  0.00     0.056 A 
ATOM     19  C   UNL A   1      31.306  32.155  26.511  1.00  0.00     0.004 A 
ATOM     20  C   UNL A   1      33.396  31.896  27.690  1.00  0.00     0.133 A 
ATOM     21  C   UNL A   1      32.304  32.685  27.332  1.00  0.00     0.047 A 
BRANCH  20  22
ATOM     22  O   UNL A   1      34.375  32.521  28.499  1.00  0.00    -0.410 OA
BRANCH  22  23
ATOM     23  C   UNL A   1      34.907  33.798  28.311  1.00  0.00     0.417 C 
ATOM     24  O   UNL A   1      34.672  34.546  27.366  1.00  0.00    -0.224 OA
ATOM     25  N   UNL A   1      35.669  34.262  29.351  1.00  0.00    -0.291 N 
ATOM     26  H   UNL A   1      35.922  35.210  29.286  1.00  0.00     0.173 HD
BRANCH  25  27
ATOM     27  C   UNL A   1      36.143  33.604  30.495  1.00  0.00     0.044 A 
ATOM     28  C   UNL A   1      37.496  33.248  30.503  1.00  0.00     0.026 A 
ATOM     29  C   UNL A   1      35.340  33.265  31.585  1.00  0.00     0.026 A 
ATOM     30  C   UNL A   1      38.052  32.607  31.611  1.00  0.00     0.002 A 
ATOM     31  C   UNL A   1      35.893  32.604  32.686  1.00  0.00     0.002 A 
ATOM     32  C   UNL A   1      37.249  32.287  32.703  1.00  0.00     0.000 A 
ENDBRANCH  25  27
ENDBRANCH  22  23
ENDBRANCH  20  22
ENDBRANCH  14  16
ENDBRANCH   7   9
ENDBRANCH   4   7
ENDBRANCH   2   3
ENDBRANCH   1   2
BRANCH   1  33
ATOM     33  C   UNL A   1      35.881  21.296  24.581  1.00  0.00     0.002 C 
BRANCH  33  34
ATOM     34  C   UNL A   1      37.409  21.405  24.603  1.00  0.00     0.002 C 
BRANCH  34  35
ATOM     35  C   UNL A   1      38.143  20.081  24.819  1.00  0.00     0.021 C 
BRANCH  35  36
ATOM     36  C   UNL A   1      38.986  20.028  26.087  1.00  0.00     0.116 C 
BRANCH  36  37
ATOM     37  N   UNL A   1      40.177  19.216  25.915  1.00  0.00    -0.352 N 
ATOM     38  C   UNL A   1      41.495  19.590  25.971  1.00  0.00     0.251 C 
ATOM     39  H   UNL A   1      40.016  18.262  25.733  1.00  0.00     0.163 HD
ATOM     40  O   UNL A   1      42.372  18.811  25.611  1.00  0.00    -0.269 OA
BRANCH  38  41
ATOM     41  C   UNL A   1      41.860  20.938  26.455  1.00  0.00     0.039 A 
ATOM     42  C   UNL A   1      41.899  21.170  27.832  1.00  0.00     0.014 A 
ATOM     43  C   UNL A   1      42.126  21.980  25.561  1.00  0.00     0.014 A 
ATOM     44  C   UNL A   1      42.230  22.438  28.312  1.00  0.00     0.010 A 
ATOM     45  C   UNL A   1      42.529  23.222  26.040  1.00  0.00     0.010 A 
ATOM     46  C   UNL A   1      42.560  23.471  27.421  1.00  0.00    -0.014 A 
BRANCH  46  47
ATOM     47  C   UNL A   1      42.889  24.830  27.916  1.00  0.00     0.031 A 
ATOM     48  C   UNL A   1      44.327  25.237  28.096  1.00  0.00     0.074 A 
ATOM     49  C   UNL A   1      41.900  25.685  28.239  1.00  0.00     0.049 A 
ATOM     50  N   UNL A   1      44.817  26.372  28.526  1.00  0.00    -0.248 NA
ATOM     51  C   UNL A   1      45.349  24.227  27.773  1.00  0.00     0.031 C 
ATOM     52  C   UNL A   1      40.467  25.399  28.146  1.00  0.00     0.029 A 
ATOM     53  N   UNL A   1      41.953  26.973  28.708  1.00  0.00    -0.354 N 
ATOM     54  C   UNL A   1      46.196  26.204  28.547  1.00  0.00     0.074 A 
ATOM     55  C   UNL A   1      46.463  24.844  28.138  1.00  0.00     0.031 C 
ATOM     56  C   UNL A   1      39.778  26.493  28.508  1.00  0.00     0.029 A 
ATOM     57  C   UNL A   1      40.717  27.543  28.890  1.00  0.00     0.049 A 
ATOM     58  H   UNL A   1      42.797  27.444  28.894  1.00  0.00     0.167 HD
ATOM     59  C   UNL A   1      47.157  27.106  28.860  1.00  0.00     0.031 A 
ATOM     60  C   UNL A   1      40.380  28.776  29.311  1.00  0.00     0.031 A 
ATOM     61  C   UNL A   1      46.894  28.465  29.244  1.00  0.00     0.049 A 
ATOM     62  C   UNL A   1      41.465  29.761  29.646  1.00  0.00     0.074 A 
ATOM     63  C   UNL A   1      47.799  29.477  29.517  1.00  0.00     0.029 A 
ATOM     64  N   UNL A   1      45.628  29.005  29.410  1.00  0.00    -0.354 N 
ATOM     65  N   UNL A   1      42.766  29.609  29.591  1.00  0.00    -0.248 NA
ATOM     66  C   UNL A   1      41.032  31.095  30.084  1.00  0.00     0.031 C 
ATOM     67  C   UNL A   1      47.080  30.615  29.895  1.00  0.00     0.029 A 
ATOM     68  C   UNL A   1      45.728  30.329  29.803  1.00  0.00     0.049 A 
ATOM     69  H   UNL A   1      44.784  28.520  29.270  1.00  0.00     0.167 HD
ATOM     70  C   UNL A   1      43.306  30.837  29.951  1.00  0.00     0.074 A 
ATOM     71  C   UNL A   1      42.192  31.725  30.211  1.00  0.00     0.031 C 
ATOM     72  C   UNL A   1      44.608  31.200  30.053  1.00  0.00     0.031 A 
BRANCH  59  73
ATOM     73  C   UNL A   1      48.587  26.639  28.806  1.00  0.00    -0.014 A 
ATOM     74  C   UNL A   1      49.355  26.773  27.639  1.00  0.00     0.009 A 
ATOM     75  C   UNL A   1      49.180  26.078  29.947  1.00  0.00     0.009 A 
ATOM     76  C   UNL A   1      50.674  26.316  27.603  1.00  0.00     0.001 A 
ATOM     77  C   UNL A   1      50.508  25.649  29.918  1.00  0.00     0.001 A 
ATOM     78  C   UNL A   1      51.251  25.758  28.744  1.00  0.00     0.000 A 
ENDBRANCH  59  73
BRANCH  60  79
ATOM     79  C   UNL A   1      38.949  29.168  29.403  1.00  0.00    -0.014 A 
ATOM     80  C   UNL A   1      38.230  28.950  30.588  1.00  0.00     0.009 A 
ATOM     81  C   UNL A   1      38.293  29.750  28.308  1.00  0.00     0.009 A 
ATOM     82  C   UNL A   1      36.875  29.280  30.665  1.00  0.00     0.001 A 
ATOM     83  C   UNL A   1      36.946  30.105  28.397  1.00  0.00     0.001 A 
ATOM     84  C   UNL A   1      36.235  29.860  29.571  1.00  0.00     0.000 A 
ENDBRANCH  60  79
BRANCH  72  85
ATOM     85  C   UNL A   1      44.896  32.629  30.416  1.00  0.00    -0.014 A 
ATOM     86  C   UNL A   1      44.985  33.631  29.438  1.00  0.00     0.009 A 
ATOM     87  C   UNL A   1      45.050  32.981  31.767  1.00  0.00     0.009 A 
ATOM     88  C   UNL A   1      45.261  34.950  29.803  1.00  0.00     0.001 A 
ATOM     89  C   UNL A   1      45.296  34.304  32.131  1.00  0.00     0.001 A 
ATOM     90  C   UNL A   1      45.412  35.286  31.147  1.00  0.00     0.000 A 
ENDBRANCH  72  85
ENDBRANCH  46  47
ENDBRANCH  38  41
ENDBRANCH  36  37
ENDBRANCH  35  36
ENDBRANCH  34  35
ENDBRANCH  33  34
ENDBRANCH   1  33
TORSDOF 18
ENDMDL
MODEL 2
REMARK VINA RESULT:     -10.8      0.388      5.609
REMARK SMILES C[C@@H](C(=O)NCCCCCCNC(=O)c1ccc(-c2c3nc(c(-c4ccccc4)c4ccc([nH]4)c(-c4ccccc4)c4nc(c(-c5ccccc5)c5ccc2[nH]5)C=C4)C=C3)cc1)c1ccc(-c2cccc(OC(=O)Nc3ccccc3)c2)c(F)c1
REMARK SMILES IDX 7 1 6 2 5 3 3 4 4 5 2 7 1 8 63 9 64 10 85 11 65 12 83 13
REMARK SMILES IDX 66 14 84 15 67 16 68 17 82 18 69 19 71 20 70 21 72 22 73 23
REMARK SMILES IDX 74 24 75 25 76 27 77 28 81 29 78 30 80 31 79 32 8 33 9 34
REMARK SMILES IDX 10 35 11 36 12 37 13 38 14 40 15 41 16 42 62 43 17 44 61 45
REMARK SMILES IDX 18 46 19 47 20 48 55 49 21 50 60 51 54 52 56 53 22 54 59 55
REMARK SMILES IDX 53 56 52 57 23 59 45 60 30 61 44 62 31 63 34 64 43 65 57 66
REMARK SMILES IDX 32 67 33 68 42 70 58 71 35 72 24 73 25 74 29 75 26 76 28 77
REMARK SMILES IDX 27 78 46 79 47 80 51 81 48 82 50 83 49 84 36 85 37 86 41 87
REMARK SMILES IDX 38 88 40 89 39 90
REMARK H PARENT 5 6 75 26 12 39 56 58 34 69
REMARK Flexibility Score: inf
ROOT
ATOM      1  C   UNL A   1      35.120  22.299  25.510  1.00  0.00     0.021 C 
ENDROOT
BRANCH   1   2
ATOM      2  C   UNL A   1      35.289  23.779  25.159  1.00  0.00     0.116 C 
BRANCH   2   3
ATOM      3  N   UNL A   1      34.915  24.014  23.784  1.00  0.00    -0.356 N 
ATOM      4  C   UNL A   1      33.693  24.244  23.233  1.00  0.00     0.227 C 
ATOM      5  O   UNL A   1      33.646  24.249  22.002  1.00  0.00    -0.274 OA
ATOM      6  H   UNL A   1      35.663  24.007  23.144  1.00  0.00     0.163 HD
BRANCH   4   7
ATOM      7  C   UNL A   1      32.481  24.531  24.136  1.00  0.00     0.105 C 
ATOM      8  C   UNL A   1      31.135  24.410  23.409  1.00  0.00     0.023 C 
BRANCH   7   9
ATOM      9  C   UNL A   1      32.561  25.912  24.775  1.00  0.00    -0.033 A 
ATOM     10  C   UNL A   1      31.958  26.171  26.013  1.00  0.00     0.005 A 
ATOM     11  C   UNL A   1      33.204  26.962  24.106  1.00  0.00     0.044 A 
ATOM     12  C   UNL A   1      31.967  27.465  26.550  1.00  0.00     0.012 A 
ATOM     13  C   UNL A   1      33.216  28.238  24.649  1.00  0.00     0.131 A 
ATOM     14  C   UNL A   1      32.577  28.525  25.861  1.00  0.00     0.018 A 
ATOM     15  F   UNL A   1      33.831  29.210  23.956  1.00  0.00    -0.206 F 
BRANCH  14  16
ATOM     16  C   UNL A   1      32.462  29.910  26.328  1.00  0.00    -0.012 A 
ATOM     17  C   UNL A   1      31.395  30.744  25.967  1.00  0.00     0.009 A 
ATOM     18  C   UNL A   1      33.467  30.429  27.164  1.00  0.00     0.056 A 
ATOM     19  C   UNL A   1      31.331  32.058  26.439  1.00  0.00     0.004 A 
ATOM     20  C   UNL A   1      33.410  31.738  27.621  1.00  0.00     0.133 A 
ATOM     21  C   UNL A   1      32.339  32.556  27.267  1.00  0.00     0.047 A 
BRANCH  20  22
ATOM     22  O   UNL A   1      34.402  32.331  28.438  1.00  0.00    -0.410 OA
BRANCH  22  23
ATOM     23  C   UNL A   1      34.908  33.626  28.312  1.00  0.00     0.417 C 
ATOM     24  O   UNL A   1      34.679  34.404  27.389  1.00  0.00    -0.224 OA
ATOM     25  N   UNL A   1      35.630  34.069  29.389  1.00  0.00    -0.291 N 
ATOM     26  H   UNL A   1      35.862  35.024  29.366  1.00  0.00     0.173 HD
BRANCH  25  27
ATOM     27  C   UNL A   1      36.091  33.380  30.519  1.00  0.00     0.044 A 
ATOM     28  C   UNL A   1      37.477  33.251  30.659  1.00  0.00     0.026 A 
ATOM     29  C   UNL A   1      35.252  32.800  31.472  1.00  0.00     0.026 A 
ATOM     30  C   UNL A   1      38.018  32.596  31.766  1.00  0.00     0.002 A 
ATOM     31  C   UNL A   1      35.794  32.125  32.569  1.00  0.00     0.002 A 
ATOM     32  C   UNL A   1      37.176  32.034  32.721  1.00  0.00     0.000 A 
ENDBRANCH  25  27
ENDBRANCH  22  23
ENDBRANCH  20  22
ENDBRANCH  14  16
ENDBRANCH   7   9
ENDBRANCH   4   7
ENDBRANCH   2   3
ENDBRANCH   1   2
BRANCH   1  33
ATOM     33  C   UNL A   1      35.884  21.347  24.581  1.00  0.00     0.002 C 
BRANCH  33  34
ATOM     34  C   UNL A   1      37.408  21.500  24.607  1.00  0.00     0.002 C 
BRANCH  34  35
ATOM     35  C   UNL A   1      38.179  20.196  24.813  1.00  0.00     0.021 C 
BRANCH  35  36
ATOM     36  C   UNL A   1      39.031  20.162  26.076  1.00  0.00     0.116 C 
BRANCH  36  37
ATOM     37  N   UNL A   1      40.210  19.329  25.915  1.00  0.00    -0.352 N 
ATOM     38  C   UNL A   1      41.533  19.673  26.015  1.00  0.00     0.251 C 
ATOM     39  H   UNL A   1      40.034  18.384  25.705  1.00  0.00     0.163 HD
ATOM     40  O   UNL A   1      42.403  18.885  25.659  1.00  0.00    -0.269 OA
BRANCH  38  41
ATOM     41  C   UNL A   1      41.913  21.002  26.542  1.00  0.00     0.039 A 
ATOM     42  C   UNL A   1      42.244  22.014  25.637  1.00  0.00     0.014 A 
ATOM     43  C   UNL A   1      41.981  21.241  27.918  1.00  0.00     0.014 A 
ATOM     44  C   UNL A   1      42.618  23.271  26.112  1.00  0.00     0.010 A 
ATOM     45  C   UNL A   1      42.280  22.516  28.388  1.00  0.00     0.010 A 
ATOM     46  C   UNL A   1      42.627  23.537  27.490  1.00  0.00    -0.014 A 
BRANCH  46  47
ATOM     47  C   UNL A   1      43.046  24.862  28.009  1.00  0.00     0.031 A 
ATOM     48  C   UNL A   1      42.009  25.896  28.356  1.00  0.00     0.074 A 
ATOM     49  C   UNL A   1      44.355  25.150  28.135  1.00  0.00     0.049 A 
ATOM     50  N   UNL A   1      42.174  27.112  28.812  1.00  0.00    -0.248 NA
ATOM     51  C   UNL A   1      40.601  25.524  28.139  1.00  0.00     0.031 C 
ATOM     52  C   UNL A   1      45.459  24.250  27.798  1.00  0.00     0.029 A 
ATOM     53  N   UNL A   1      44.978  26.286  28.586  1.00  0.00    -0.354 N 
ATOM     54  C   UNL A   1      40.899  27.654  28.913  1.00  0.00     0.074 A 
ATOM     55  C   UNL A   1      39.975  26.657  28.423  1.00  0.00     0.031 C 
ATOM     56  C   UNL A   1      46.623  24.853  28.090  1.00  0.00     0.029 A 
ATOM     57  C   UNL A   1      46.349  26.192  28.602  1.00  0.00     0.049 A 
ATOM     58  H   UNL A   1      44.490  27.091  28.872  1.00  0.00     0.167 HD
ATOM     59  C   UNL A   1      40.527  28.866  29.389  1.00  0.00     0.031 A 
ATOM     60  C   UNL A   1      47.278  27.084  28.993  1.00  0.00     0.031 A 
ATOM     61  C   UNL A   1      41.442  29.850  29.897  1.00  0.00     0.049 A 
ATOM     62  C   UNL A   1      46.839  28.419  29.524  1.00  0.00     0.074 A 
ATOM     63  C   UNL A   1      41.160  31.081  30.464  1.00  0.00     0.029 A 
ATOM     64  N   UNL A   1      42.821  29.712  29.903  1.00  0.00    -0.354 N 
ATOM     65  N   UNL A   1      45.625  28.889  29.680  1.00  0.00    -0.248 NA
ATOM     66  C   UNL A   1      47.901  29.342  29.949  1.00  0.00     0.031 C 
ATOM     67  C   UNL A   1      42.372  31.709  30.768  1.00  0.00     0.029 A 
ATOM     68  C   UNL A   1      43.405  30.846  30.442  1.00  0.00     0.049 A 
ATOM     69  H   UNL A   1      43.312  28.927  29.572  1.00  0.00     0.167 HD
ATOM     70  C   UNL A   1      45.776  30.145  30.255  1.00  0.00     0.074 A 
ATOM     71  C   UNL A   1      47.198  30.357  30.430  1.00  0.00     0.031 C 
ATOM     72  C   UNL A   1      44.823  31.039  30.612  1.00  0.00     0.031 A 
BRANCH  59  73
ATOM     73  C   UNL A   1      39.058  29.194  29.370  1.00  0.00    -0.014 A 
ATOM     74  C   UNL A   1      38.240  28.948  30.483  1.00  0.00     0.009 A 
ATOM     75  C   UNL A   1      38.490  29.780  28.228  1.00  0.00     0.009 A 
ATOM     76  C   UNL A   1      36.875  29.241  30.439  1.00  0.00     0.001 A 
ATOM     77  C   UNL A   1      37.132  30.102  28.196  1.00  0.00     0.001 A 
ATOM     78  C   UNL A   1      36.323  29.822  29.297  1.00  0.00     0.000 A 
ENDBRANCH  59  73
BRANCH  60  79
ATOM     79  C   UNL A   1      48.721  26.730  28.936  1.00  0.00    -0.014 A 
ATOM     80  C   UNL A   1      49.462  26.965  27.768  1.00  0.00     0.009 A 
ATOM     81  C   UNL A   1      49.361  26.149  30.040  1.00  0.00     0.009 A 
ATOM     82  C   UNL A   1      50.808  26.598  27.698  1.00  0.00     0.001 A 
ATOM     83  C   UNL A   1      50.713  25.808  29.977  1.00  0.00     0.001 A 
ATOM     84  C   UNL A   1      51.433  26.023  28.802  1.00  0.00     0.000 A 
ENDBRANCH  60  79
BRANCH  72  85
ATOM     85  C   UNL A   1      45.285  32.309  31.270  1.00  0.00    -0.014 A 
ATOM     86  C   UNL A   1      45.562  33.464  30.523  1.00  0.00     0.009 A 
ATOM     87  C   UNL A   1      45.416  32.355  32.668  1.00  0.00     0.009 A 
ATOM     88  C   UNL A   1      45.998  34.628  31.159  1.00  0.00     0.001 A 
ATOM     89  C   UNL A   1      45.822  33.528  33.303  1.00  0.00     0.001 A 
ATOM     90  C   UNL A   1      46.124  34.660  32.547  1.00  0.00     0.000 A 
ENDBRANCH  72  85
ENDBRANCH  46  47
ENDBRANCH  38  41
ENDBRANCH  36  37
ENDBRANCH  35  36
ENDBRANCH  34  35
ENDBRANCH  33  34
ENDBRANCH   1  33
TORSDOF 18
ENDMDL
MODEL 3
REMARK VINA RESULT:     -10.7      4.150     10.620
REMARK SMILES C[C@@H](C(=O)NCCCCCCNC(=O)c1ccc(-c2c3nc(c(-c4ccccc4)c4ccc([nH]4)c(-c4ccccc4)c4nc(c(-c5ccccc5)c5ccc2[nH]5)C=C4)C=C3)cc1)c1ccc(-c2cccc(OC(=O)Nc3ccccc3)c2)c(F)c1
REMARK SMILES IDX 7 1 6 2 5 3 3 4 4 5 2 7 1 8 63 9 64 10 85 11 65 12 83 13
REMARK SMILES IDX 66 14 84 15 67 16 68 17 82 18 69 19 71 20 70 21 72 22 73 23
REMARK SMILES IDX 74 24 75 25 76 27 77 28 81 29 78 30 80 31 79 32 8 33 9 34
REMARK SMILES IDX 10 35 11 36 12 37 13 38 14 40 15 41 16 42 62 43 17 44 61 45
REMARK SMILES IDX 18 46 19 47 20 48 55 49 21 50 60 51 54 52 56 53 22 54 59 55
REMARK SMILES IDX 53 56 52 57 23 59 45 60 30 61 44 62 31 63 34 64 43 65 57 66
REMARK SMILES IDX 32 67 33 68 42 70 58 71 35 72 24 73 25 74 29 75 26 76 28 77
REMARK SMILES IDX 27 78 46 79 47 80 51 81 48 82 50 83 49 84 36 85 37 86 41 87
REMARK SMILES IDX 38 88 40 89 39 90
REMARK H PARENT 5 6 75 26 12 39 56 58 34 69
REMARK Flexibility Score: inf
ROOT
ATOM      1  C   UNL A   1      34.891  33.662  33.568  1.00  0.00     0.021 C 
ENDROOT
BRANCH   1   2
ATOM      2  C   UNL A   1      36.316  34.106  33.906  1.00  0.00     0.116 C 
BRANCH   2   3
ATOM      3  N   UNL A   1      36.910  33.200  34.860  1.00  0.00    -0.356 N 
ATOM      4  C   UNL A   1      37.470  31.973  34.676  1.00  0.00     0.227 C 
ATOM      5  O   UNL A   1      37.754  31.348  35.699  1.00  0.00    -0.274 OA
ATOM      6  H   UNL A   1      36.911  33.520  35.791  1.00  0.00     0.163 HD
BRANCH   4   7
ATOM      7  C   UNL A   1      37.763  31.464  33.254  1.00  0.00     0.105 C 
ATOM      8  C   UNL A   1      36.596  30.688  32.631  1.00  0.00     0.023 C 
BRANCH   7   9
ATOM      9  C   UNL A   1      39.006  30.583  33.209  1.00  0.00    -0.033 A 
ATOM     10  C   UNL A   1      38.924  29.238  32.825  1.00  0.00     0.005 A 
ATOM     11  C   UNL A   1      40.249  31.099  33.597  1.00  0.00     0.044 A 
ATOM     12  C   UNL A   1      40.058  28.418  32.866  1.00  0.00     0.012 A 
ATOM     13  C   UNL A   1      41.369  30.282  33.627  1.00  0.00     0.131 A 
ATOM     14  C   UNL A   1      41.296  28.924  33.294  1.00  0.00     0.018 A 
ATOM     15  F   UNL A   1      42.531  30.824  34.026  1.00  0.00    -0.206 F 
BRANCH  14  16
ATOM     16  C   UNL A   1      42.455  28.048  33.494  1.00  0.00    -0.012 A 
ATOM     17  C   UNL A   1      43.168  27.480  32.430  1.00  0.00     0.009 A 
ATOM     18  C   UNL A   1      42.863  27.756  34.808  1.00  0.00     0.056 A 
ATOM     19  C   UNL A   1      44.266  26.651  32.675  1.00  0.00     0.004 A 
ATOM     20  C   UNL A   1      43.944  26.921  35.051  1.00  0.00     0.133 A 
ATOM     21  C   UNL A   1      44.656  26.371  33.986  1.00  0.00     0.047 A 
BRANCH  20  22
ATOM     22  O   UNL A   1      44.388  26.562  36.346  1.00  0.00    -0.410 OA
BRANCH  22  23
ATOM     23  C   UNL A   1      43.622  25.946  37.338  1.00  0.00     0.417 C 
ATOM     24  O   UNL A   1      42.987  26.519  38.219  1.00  0.00    -0.224 OA
ATOM     25  N   UNL A   1      43.508  24.586  37.215  1.00  0.00    -0.291 N 
ATOM     26  H   UNL A   1      42.855  24.171  37.822  1.00  0.00     0.173 HD
BRANCH  25  27
ATOM     27  C   UNL A   1      44.170  23.692  36.363  1.00  0.00     0.044 A 
ATOM     28  C   UNL A   1      43.477  23.279  35.220  1.00  0.00     0.026 A 
ATOM     29  C   UNL A   1      45.444  23.180  36.611  1.00  0.00     0.026 A 
ATOM     30  C   UNL A   1      44.072  22.404  34.309  1.00  0.00     0.002 A 
ATOM     31  C   UNL A   1      46.031  22.288  35.710  1.00  0.00     0.002 A 
ATOM     32  C   UNL A   1      45.350  21.910  34.555  1.00  0.00     0.000 A 
ENDBRANCH  25  27
ENDBRANCH  22  23
ENDBRANCH  20  22
ENDBRANCH  14  16
ENDBRANCH   7   9
ENDBRANCH   4   7
ENDBRANCH   2   3
ENDBRANCH   1   2
BRANCH   1  33
ATOM     33  C   UNL A   1      34.177  34.570  32.559  1.00  0.00     0.002 C 
BRANCH  33  34
ATOM     34  C   UNL A   1      34.553  34.332  31.094  1.00  0.00     0.002 C 
BRANCH  34  35
ATOM     35  C   UNL A   1      34.656  32.860  30.690  1.00  0.00     0.021 C 
BRANCH  35  36
ATOM     36  C   UNL A   1      34.979  32.633  29.219  1.00  0.00     0.116 C 
BRANCH  36  37
ATOM     37  N   UNL A   1      34.206  31.540  28.654  1.00  0.00    -0.352 N 
ATOM     38  C   UNL A   1      34.643  30.349  28.136  1.00  0.00     0.251 C 
ATOM     39  H   UNL A   1      33.231  31.675  28.640  1.00  0.00     0.163 HD
ATOM     40  O   UNL A   1      33.868  29.621  27.524  1.00  0.00    -0.269 OA
BRANCH  38  41
ATOM     41  C   UNL A   1      36.056  29.943  28.305  1.00  0.00     0.039 A 
ATOM     42  C   UNL A   1      36.437  29.317  29.494  1.00  0.00     0.014 A 
ATOM     43  C   UNL A   1      37.008  30.211  27.317  1.00  0.00     0.014 A 
ATOM     44  C   UNL A   1      37.766  28.936  29.681  1.00  0.00     0.010 A 
ATOM     45  C   UNL A   1      38.316  29.764  27.472  1.00  0.00     0.010 A 
ATOM     46  C   UNL A   1      38.714  29.145  28.666  1.00  0.00    -0.014 A 
BRANCH  46  47
ATOM     47  C   UNL A   1      40.135  28.768  28.861  1.00  0.00     0.031 A 
ATOM     48  C   UNL A   1      41.099  29.754  29.465  1.00  0.00     0.074 A 
ATOM     49  C   UNL A   1      40.569  27.556  28.466  1.00  0.00     0.049 A 
ATOM     50  N   UNL A   1      42.379  29.619  29.706  1.00  0.00    -0.248 NA
ATOM     51  C   UNL A   1      40.560  31.078  29.820  1.00  0.00     0.031 C 
ATOM     52  C   UNL A   1      39.746  26.524  27.835  1.00  0.00     0.029 A 
ATOM     53  N   UNL A   1      41.816  26.988  28.542  1.00  0.00    -0.354 N 
ATOM     54  C   UNL A   1      42.798  30.840  30.218  1.00  0.00     0.074 A 
ATOM     55  C   UNL A   1      41.653  31.721  30.204  1.00  0.00     0.031 C 
ATOM     56  C   UNL A   1      40.499  25.434  27.616  1.00  0.00     0.029 A 
ATOM     57  C   UNL A   1      41.864  25.702  28.059  1.00  0.00     0.049 A 
ATOM     58  H   UNL A   1      42.600  27.456  28.908  1.00  0.00     0.167 HD
ATOM     59  C   UNL A   1      44.022  31.193  30.677  1.00  0.00     0.031 A 
ATOM     60  C   UNL A   1      42.891  24.836  27.990  1.00  0.00     0.031 A 
ATOM     61  C   UNL A   1      45.156  30.312  30.713  1.00  0.00     0.049 A 
ATOM     62  C   UNL A   1      44.238  25.249  28.513  1.00  0.00     0.074 A 
ATOM     63  C   UNL A   1      46.422  30.552  31.221  1.00  0.00     0.029 A 
ATOM     64  N   UNL A   1      45.161  29.016  30.222  1.00  0.00    -0.354 N 
ATOM     65  N   UNL A   1      44.601  26.384  29.060  1.00  0.00    -0.248 NA
ATOM     66  C   UNL A   1      45.315  24.252  28.423  1.00  0.00     0.031 C 
ATOM     67  C   UNL A   1      47.206  29.417  30.992  1.00  0.00     0.029 A 
ATOM     68  C   UNL A   1      46.414  28.451  30.394  1.00  0.00     0.049 A 
ATOM     69  H   UNL A   1      44.389  28.564  29.811  1.00  0.00     0.167 HD
ATOM     70  C   UNL A   1      45.935  26.225  29.414  1.00  0.00     0.074 A 
ATOM     71  C   UNL A   1      46.313  24.881  29.029  1.00  0.00     0.031 C 
ATOM     72  C   UNL A   1      46.771  27.110  30.008  1.00  0.00     0.031 A 
BRANCH  59  73
ATOM     73  C   UNL A   1      44.195  32.605  31.170  1.00  0.00    -0.014 A 
ATOM     74  C   UNL A   1      43.992  32.938  32.518  1.00  0.00     0.009 A 
ATOM     75  C   UNL A   1      44.588  33.612  30.275  1.00  0.00     0.009 A 
ATOM     76  C   UNL A   1      44.138  34.257  32.953  1.00  0.00     0.001 A 
ATOM     77  C   UNL A   1      44.763  34.925  30.717  1.00  0.00     0.001 A 
ATOM     78  C   UNL A   1      44.527  35.248  32.052  1.00  0.00     0.000 A 
ENDBRANCH  59  73
BRANCH  60  79
ATOM     79  C   UNL A   1      42.681  23.472  27.439  1.00  0.00    -0.014 A 
ATOM     80  C   UNL A   1      42.953  23.203  26.089  1.00  0.00     0.009 A 
ATOM     81  C   UNL A   1      42.198  22.436  28.253  1.00  0.00     0.009 A 
ATOM     82  C   UNL A   1      42.718  21.933  25.558  1.00  0.00     0.001 A 
ATOM     83  C   UNL A   1      41.992  21.159  27.726  1.00  0.00     0.001 A 
ATOM     84  C   UNL A   1      42.241  20.911  26.378  1.00  0.00     0.000 A 
ENDBRANCH  60  79
BRANCH  72  85
ATOM     85  C   UNL A   1      48.162  26.636  30.321  1.00  0.00    -0.014 A 
ATOM     86  C   UNL A   1      49.252  26.966  29.502  1.00  0.00     0.009 A 
ATOM     87  C   UNL A   1      48.388  25.869  31.476  1.00  0.00     0.009 A 
ATOM     88  C   UNL A   1      50.533  26.506  29.812  1.00  0.00     0.001 A 
ATOM     89  C   UNL A   1      49.673  25.436  31.800  1.00  0.00     0.001 A 
ATOM     90  C   UNL A   1      50.743  25.746  30.961  1.00  0.00     0.000 A 
ENDBRANCH  72  85
ENDBRANCH  46  47
ENDBRANCH  38  41
ENDBRANCH  36  37
ENDBRANCH  35  36
ENDBRANCH  34  35
ENDBRANCH  33  34
ENDBRANCH   1  33
TORSDOF 18
ENDMDL
