MODEL 1
REMARK VINA RESULT:     -11.1      0.000      0.000
REMARK SMILES CC(C)=CCC/C(C)=C/C[N@@H+]1CCc2nc[nH]c2[C@@H]1C(=O)NCCCCCCNC(=O)c1ccc(-c2c3nc(c(-c4ccccc4)c4ccc([nH]4)c(-c4ccccc4)c4nc(c(-c5ccccc5)c5ccc2[nH]5)C=C4)C=C3)cc1
REMARK SMILES IDX 24 1 23 2 22 3 20 4 21 5 19 7 11 8 12 9 13 11 18 12 14 13
REMARK SMILES IDX 17 14 15 15 16 16 10 18 9 19 7 20 8 21 6 22 5 23 4 24 1 25
REMARK SMILES IDX 2 26 3 27 25 28 26 29 27 30 28 31 29 32 30 33 31 35 32 36
REMARK SMILES IDX 33 37 79 38 34 39 78 40 35 41 36 42 37 43 72 44 38 45 77 46
REMARK SMILES IDX 71 47 73 48 39 49 76 50 70 51 69 52 40 54 62 55 47 56 61 57
REMARK SMILES IDX 48 58 51 59 60 60 74 61 49 62 50 63 59 65 75 66 52 67 41 68
REMARK SMILES IDX 42 69 46 70 43 71 45 72 44 73 63 74 64 75 68 76 65 77 67 78
REMARK SMILES IDX 66 79 53 80 54 81 58 82 55 83 57 84 56 85
REMARK H PARENT 22 6 11 10 17 17 29 34 73 53 51 64
REMARK Flexibility Score: inf
ROOT
ATOM      1  C   UNL A   1      33.749  26.671  25.798  1.00  0.00     0.021 C 
ENDROOT
BRANCH   1   2
ATOM      2  C   UNL A   1      33.529  25.170  25.773  1.00  0.00     0.116 C 
BRANCH   2   3
ATOM      3  N   UNL A   1      32.519  24.672  26.672  1.00  0.00    -0.351 N 
ATOM      4  C   UNL A   1      31.362  24.016  26.347  1.00  0.00     0.284 C 
ATOM      5  O   UNL A   1      30.672  23.605  27.290  1.00  0.00    -0.268 OA
ATOM      6  H   UNL A   1      32.681  24.820  27.631  1.00  0.00     0.163 HD
BRANCH   4   7
ATOM      7  C   UNL A   1      30.862  23.824  24.880  1.00  0.00     0.324 C 
ATOM      8  N   UNL A   1      31.669  22.934  24.005  1.00  0.00    -0.316 N 
ATOM      9  C   UNL A   1      32.597  23.526  23.017  1.00  0.00     0.270 C 
ATOM     10  H   UNL A   1      30.962  22.616  23.341  1.00  0.00     0.349 HD
ATOM     11  C   UNL A   1      32.251  24.889  22.356  1.00  0.00     0.120 C 
ATOM     12  C   UNL A   1      30.628  25.141  24.248  1.00  0.00     0.106 A 
ATOM     13  C   UNL A   1      31.248  25.640  23.133  1.00  0.00     0.074 A 
ATOM     14  N   UNL A   1      29.755  26.114  24.647  1.00  0.00    -0.343 N 
ATOM     15  N   UNL A   1      30.828  26.913  22.866  1.00  0.00    -0.241 NA
ATOM     16  C   UNL A   1      29.923  27.168  23.788  1.00  0.00     0.197 A 
ATOM     17  H   UNL A   1      29.128  26.066  25.405  1.00  0.00     0.167 HD
BRANCH   8  18
ATOM     18  C   UNL A   1      32.171  21.753  24.707  1.00  0.00     0.291 C 
BRANCH  18  19
ATOM     19  C   UNL A   1      33.647  21.563  24.533  1.00  0.00     0.032 C 
ATOM     20  C   UNL A   1      34.589  21.449  25.493  1.00  0.00    -0.071 C 
ATOM     21  C   UNL A   1      34.270  21.570  26.959  1.00  0.00     0.039 C 
BRANCH  20  22
ATOM     22  C   UNL A   1      36.044  21.227  25.113  1.00  0.00     0.035 C 
BRANCH  22  23
ATOM     23  C   UNL A   1      36.724  22.418  24.405  1.00  0.00     0.032 C 
BRANCH  23  24
ATOM     24  C   UNL A   1      37.322  23.412  25.371  1.00  0.00    -0.028 C 
ATOM     25  C   UNL A   1      39.273  22.028  26.118  1.00  0.00     0.039 C 
ATOM     26  C   UNL A   1      38.391  23.241  26.170  1.00  0.00    -0.080 C 
ATOM     27  C   UNL A   1      38.718  24.282  27.208  1.00  0.00     0.039 C 
ENDBRANCH  23  24
ENDBRANCH  22  23
ENDBRANCH  20  22
ENDBRANCH  18  19
ENDBRANCH   8  18
ENDBRANCH   4   7
ENDBRANCH   2   3
ENDBRANCH   1   2
BRANCH   1  28
ATOM     28  C   UNL A   1      32.659  27.494  26.478  1.00  0.00     0.002 C 
BRANCH  28  29
ATOM     29  C   UNL A   1      32.375  28.891  25.906  1.00  0.00     0.002 C 
BRANCH  29  30
ATOM     30  C   UNL A   1      32.450  30.092  26.859  1.00  0.00     0.021 C 
BRANCH  30  31
ATOM     31  C   UNL A   1      33.854  30.547  27.224  1.00  0.00     0.116 C 
BRANCH  31  32
ATOM     32  N   UNL A   1      33.881  31.665  28.166  1.00  0.00    -0.352 N 
ATOM     33  C   UNL A   1      34.771  31.898  29.203  1.00  0.00     0.251 C 
ATOM     34  H   UNL A   1      33.175  32.339  28.049  1.00  0.00     0.163 HD
ATOM     35  O   UNL A   1      34.486  32.649  30.120  1.00  0.00    -0.269 OA
BRANCH  33  36
ATOM     36  C   UNL A   1      36.084  31.224  29.175  1.00  0.00     0.039 A 
ATOM     37  C   UNL A   1      37.278  31.932  29.011  1.00  0.00     0.014 A 
ATOM     38  C   UNL A   1      36.100  29.842  29.330  1.00  0.00     0.014 A 
ATOM     39  C   UNL A   1      38.483  31.235  29.081  1.00  0.00     0.010 A 
ATOM     40  C   UNL A   1      37.272  29.198  29.605  1.00  0.00     0.010 A 
ATOM     41  C   UNL A   1      38.467  29.866  29.396  1.00  0.00    -0.014 A 
BRANCH  41  42
ATOM     42  C   UNL A   1      39.691  29.110  29.596  1.00  0.00     0.031 A 
ATOM     43  C   UNL A   1      40.062  28.911  31.017  1.00  0.00     0.074 A 
ATOM     44  C   UNL A   1      40.321  28.446  28.602  1.00  0.00     0.049 A 
ATOM     45  N   UNL A   1      41.017  29.494  31.656  1.00  0.00    -0.248 NA
ATOM     46  C   UNL A   1      39.186  28.088  31.865  1.00  0.00     0.031 C 
ATOM     47  C   UNL A   1      39.902  28.261  27.206  1.00  0.00     0.029 A 
ATOM     48  N   UNL A   1      41.446  27.687  28.675  1.00  0.00    -0.354 N 
ATOM     49  C   UNL A   1      41.009  28.950  32.934  1.00  0.00     0.074 A 
ATOM     50  C   UNL A   1      39.753  28.253  33.061  1.00  0.00     0.031 C 
ATOM     51  C   UNL A   1      40.627  27.265  26.643  1.00  0.00     0.029 A 
ATOM     52  C   UNL A   1      41.671  26.873  27.571  1.00  0.00     0.049 A 
ATOM     53  H   UNL A   1      42.054  27.712  29.449  1.00  0.00     0.167 HD
ATOM     54  C   UNL A   1      42.150  28.893  33.675  1.00  0.00     0.031 A 
ATOM     55  C   UNL A   1      42.642  25.935  27.447  1.00  0.00     0.031 A 
ATOM     56  C   UNL A   1      43.192  29.710  33.098  1.00  0.00     0.049 A 
ATOM     57  C   UNL A   1      43.690  26.260  28.441  1.00  0.00     0.074 A 
ATOM     58  C   UNL A   1      43.317  31.048  32.779  1.00  0.00     0.029 A 
ATOM     59  N   UNL A   1      44.159  29.058  32.368  1.00  0.00    -0.354 N 
ATOM     60  N   UNL A   1      44.441  27.321  28.364  1.00  0.00    -0.248 NA
ATOM     61  C   UNL A   1      43.593  25.658  29.761  1.00  0.00     0.031 C 
ATOM     62  C   UNL A   1      44.000  31.061  31.524  1.00  0.00     0.029 A 
ATOM     63  C   UNL A   1      44.327  29.744  31.194  1.00  0.00     0.049 A 
ATOM     64  H   UNL A   1      44.644  28.245  32.639  1.00  0.00     0.167 HD
ATOM     65  C   UNL A   1      44.524  27.784  29.668  1.00  0.00     0.074 A 
ATOM     66  C   UNL A   1      44.076  26.664  30.496  1.00  0.00     0.031 C 
ATOM     67  C   UNL A   1      44.666  29.117  29.935  1.00  0.00     0.031 A 
BRANCH  54  68
ATOM     68  C   UNL A   1      42.472  27.774  34.638  1.00  0.00    -0.014 A 
ATOM     69  C   UNL A   1      42.973  26.567  34.114  1.00  0.00     0.009 A 
ATOM     70  C   UNL A   1      42.039  27.746  35.977  1.00  0.00     0.009 A 
ATOM     71  C   UNL A   1      42.944  25.381  34.856  1.00  0.00     0.001 A 
ATOM     72  C   UNL A   1      42.049  26.572  36.735  1.00  0.00     0.001 A 
ATOM     73  C   UNL A   1      42.469  25.382  36.162  1.00  0.00     0.000 A 
ENDBRANCH  54  68
BRANCH  55  74
ATOM     74  C   UNL A   1      42.627  24.646  26.725  1.00  0.00    -0.014 A 
ATOM     75  C   UNL A   1      43.046  24.575  25.386  1.00  0.00     0.009 A 
ATOM     76  C   UNL A   1      42.497  23.440  27.436  1.00  0.00     0.009 A 
ATOM     77  C   UNL A   1      43.376  23.346  24.798  1.00  0.00     0.001 A 
ATOM     78  C   UNL A   1      42.826  22.213  26.848  1.00  0.00     0.001 A 
ATOM     79  C   UNL A   1      43.285  22.168  25.536  1.00  0.00     0.000 A 
ENDBRANCH  55  74
BRANCH  67  80
ATOM     80  C   UNL A   1      44.965  30.042  28.778  1.00  0.00    -0.014 A 
ATOM     81  C   UNL A   1      43.986  30.504  27.878  1.00  0.00     0.009 A 
ATOM     82  C   UNL A   1      46.257  30.580  28.680  1.00  0.00     0.009 A 
ATOM     83  C   UNL A   1      44.302  31.444  26.891  1.00  0.00     0.001 A 
ATOM     84  C   UNL A   1      46.568  31.535  27.709  1.00  0.00     0.001 A 
ATOM     85  C   UNL A   1      45.594  31.962  26.811  1.00  0.00     0.000 A 
ENDBRANCH  67  80
ENDBRANCH  41  42
ENDBRANCH  33  36
ENDBRANCH  31  32
ENDBRANCH  30  31
ENDBRANCH  29  30
ENDBRANCH  28  29
ENDBRANCH   1  28
TORSDOF 18
ENDMDL
MODEL 2
REMARK VINA RESULT:     -10.9      2.896      7.155
REMARK SMILES CC(C)=CCC/C(C)=C/C[N@@H+]1CCc2nc[nH]c2[C@@H]1C(=O)NCCCCCCNC(=O)c1ccc(-c2c3nc(c(-c4ccccc4)c4ccc([nH]4)c(-c4ccccc4)c4nc(c(-c5ccccc5)c5ccc2[nH]5)C=C4)C=C3)cc1
REMARK SMILES IDX 24 1 23 2 22 3 20 4 21 5 19 7 11 8 12 9 13 11 18 12 14 13
REMARK SMILES IDX 17 14 15 15 16 16 10 18 9 19 7 20 8 21 6 22 5 23 4 24 1 25
REMARK SMILES IDX 2 26 3 27 25 28 26 29 27 30 28 31 29 32 30 33 31 35 32 36
REMARK SMILES IDX 33 37 79 38 34 39 78 40 35 41 36 42 37 43 72 44 38 45 77 46
REMARK SMILES IDX 71 47 73 48 39 49 76 50 70 51 69 52 40 54 62 55 47 56 61 57
REMARK SMILES IDX 48 58 51 59 60 60 74 61 49 62 50 63 59 65 75 66 52 67 41 68
REMARK SMILES IDX 42 69 46 70 43 71 45 72 44 73 63 74 64 75 68 76 65 77 67 78
REMARK SMILES IDX 66 79 53 80 54 81 58 82 55 83 57 84 56 85
REMARK H PARENT 22 6 11 10 17 17 29 34 73 53 51 64
REMARK Flexibility Score: inf
ROOT
ATOM      1  C   UNL A   1      35.612  22.269  26.151  1.00  0.00     0.021 C 
ENDROOT
BRANCH   1   2
ATOM      2  C   UNL A   1      35.208  23.731  26.092  1.00  0.00     0.116 C 
BRANCH   2   3
ATOM      3  N   UNL A   1      35.061  24.285  24.771  1.00  0.00    -0.351 N 
ATOM      4  C   UNL A   1      33.957  24.901  24.242  1.00  0.00     0.284 C 
ATOM      5  O   UNL A   1      34.077  25.376  23.105  1.00  0.00    -0.268 OA
ATOM      6  H   UNL A   1      35.844  24.213  24.179  1.00  0.00     0.163 HD
BRANCH   4   7
ATOM      7  C   UNL A   1      32.578  24.973  24.971  1.00  0.00     0.324 C 
ATOM      8  N   UNL A   1      31.394  24.473  24.225  1.00  0.00    -0.316 N 
ATOM      9  C   UNL A   1      30.474  25.438  23.583  1.00  0.00     0.270 C 
ATOM     10  H   UNL A   1      30.778  24.201  24.991  1.00  0.00     0.349 HD
ATOM     11  C   UNL A   1      30.250  26.834  24.229  1.00  0.00     0.120 C 
ATOM     12  C   UNL A   1      32.354  26.339  25.496  1.00  0.00     0.106 A 
ATOM     13  C   UNL A   1      31.332  27.189  25.166  1.00  0.00     0.074 A 
ATOM     14  N   UNL A   1      33.115  27.017  26.405  1.00  0.00    -0.343 N 
ATOM     15  N   UNL A   1      31.471  28.392  25.798  1.00  0.00    -0.241 NA
ATOM     16  C   UNL A   1      32.548  28.256  26.544  1.00  0.00     0.197 A 
ATOM     17  H   UNL A   1      33.916  26.680  26.870  1.00  0.00     0.167 HD
BRANCH   8  18
ATOM     18  C   UNL A   1      31.683  23.271  23.445  1.00  0.00     0.291 C 
BRANCH  18  19
ATOM     19  C   UNL A   1      32.063  22.103  24.304  1.00  0.00     0.032 C 
ATOM     20  C   UNL A   1      32.304  20.832  23.919  1.00  0.00    -0.071 C 
ATOM     21  C   UNL A   1      32.151  20.375  22.493  1.00  0.00     0.039 C 
BRANCH  20  22
ATOM     22  C   UNL A   1      32.712  19.788  24.946  1.00  0.00     0.035 C 
BRANCH  22  23
ATOM     23  C   UNL A   1      32.633  18.326  24.458  1.00  0.00     0.032 C 
BRANCH  23  24
ATOM     24  C   UNL A   1      33.936  17.582  24.619  1.00  0.00    -0.028 C 
ATOM     25  C   UNL A   1      32.984  15.383  25.352  1.00  0.00     0.039 C 
ATOM     26  C   UNL A   1      34.116  16.324  25.064  1.00  0.00    -0.080 C 
ATOM     27  C   UNL A   1      35.510  15.825  25.338  1.00  0.00     0.039 C 
ENDBRANCH  23  24
ENDBRANCH  22  23
ENDBRANCH  20  22
ENDBRANCH  18  19
ENDBRANCH   8  18
ENDBRANCH   4   7
ENDBRANCH   2   3
ENDBRANCH   1   2
BRANCH   1  28
ATOM     28  C   UNL A   1      36.664  21.827  25.138  1.00  0.00     0.002 C 
BRANCH  28  29
ATOM     29  C   UNL A   1      36.565  20.389  24.607  1.00  0.00     0.002 C 
BRANCH  29  30
ATOM     30  C   UNL A   1      37.658  19.390  25.014  1.00  0.00     0.021 C 
BRANCH  30  31
ATOM     31  C   UNL A   1      38.938  20.009  25.553  1.00  0.00     0.116 C 
BRANCH  31  32
ATOM     32  N   UNL A   1      40.042  19.059  25.676  1.00  0.00    -0.352 N 
ATOM     33  C   UNL A   1      41.382  19.320  25.913  1.00  0.00     0.251 C 
ATOM     34  H   UNL A   1      39.802  18.110  25.576  1.00  0.00     0.163 HD
ATOM     35  O   UNL A   1      42.241  18.497  25.641  1.00  0.00    -0.269 OA
BRANCH  33  36
ATOM     36  C   UNL A   1      41.757  20.615  26.512  1.00  0.00     0.039 A 
ATOM     37  C   UNL A   1      42.281  21.662  25.749  1.00  0.00     0.014 A 
ATOM     38  C   UNL A   1      41.559  20.771  27.879  1.00  0.00     0.014 A 
ATOM     39  C   UNL A   1      42.531  22.884  26.372  1.00  0.00     0.010 A 
ATOM     40  C   UNL A   1      41.604  22.016  28.440  1.00  0.00     0.010 A 
ATOM     41  C   UNL A   1      42.171  23.053  27.719  1.00  0.00    -0.014 A 
BRANCH  41  42
ATOM     42  C   UNL A   1      42.299  24.334  28.392  1.00  0.00     0.031 A 
ATOM     43  C   UNL A   1      41.201  25.288  28.106  1.00  0.00     0.074 A 
ATOM     44  C   UNL A   1      43.200  24.569  29.370  1.00  0.00     0.049 A 
ATOM     45  N   UNL A   1      41.264  26.340  27.364  1.00  0.00    -0.248 NA
ATOM     46  C   UNL A   1      39.844  24.960  28.570  1.00  0.00     0.031 C 
ATOM     47  C   UNL A   1      44.135  23.631  30.008  1.00  0.00     0.029 A 
ATOM     48  N   UNL A   1      43.392  25.707  30.087  1.00  0.00    -0.354 N 
ATOM     49  C   UNL A   1      40.012  26.937  27.442  1.00  0.00     0.074 A 
ATOM     50  C   UNL A   1      39.136  25.950  28.023  1.00  0.00     0.031 C 
ATOM     51  C   UNL A   1      44.611  24.174  31.154  1.00  0.00     0.029 A 
ATOM     52  C   UNL A   1      44.162  25.551  31.233  1.00  0.00     0.049 A 
ATOM     53  H   UNL A   1      43.013  26.575  29.815  1.00  0.00     0.167 HD
ATOM     54  C   UNL A   1      39.869  28.281  27.272  1.00  0.00     0.031 A 
ATOM     55  C   UNL A   1      44.394  26.492  32.181  1.00  0.00     0.031 A 
ATOM     56  C   UNL A   1      41.068  28.872  26.726  1.00  0.00     0.049 A 
ATOM     57  C   UNL A   1      44.118  27.809  31.564  1.00  0.00     0.074 A 
ATOM     58  C   UNL A   1      41.815  28.680  25.580  1.00  0.00     0.029 A 
ATOM     59  N   UNL A   1      41.900  29.518  27.612  1.00  0.00    -0.354 N 
ATOM     60  N   UNL A   1      44.847  28.316  30.611  1.00  0.00    -0.248 NA
ATOM     61  C   UNL A   1      42.773  28.351  31.680  1.00  0.00     0.031 C 
ATOM     62  C   UNL A   1      43.174  28.767  26.011  1.00  0.00     0.029 A 
ATOM     63  C   UNL A   1      43.179  29.091  27.369  1.00  0.00     0.049 A 
ATOM     64  H   UNL A   1      41.626  30.171  28.296  1.00  0.00     0.167 HD
ATOM     65  C   UNL A   1      43.930  28.879  29.735  1.00  0.00     0.074 A 
ATOM     66  C   UNL A   1      42.684  28.965  30.496  1.00  0.00     0.031 C 
ATOM     67  C   UNL A   1      44.189  28.948  28.395  1.00  0.00     0.031 A 
BRANCH  54  68
ATOM     68  C   UNL A   1      38.845  29.116  28.005  1.00  0.00    -0.014 A 
ATOM     69  C   UNL A   1      38.809  29.044  29.411  1.00  0.00     0.009 A 
ATOM     70  C   UNL A   1      37.745  29.731  27.379  1.00  0.00     0.009 A 
ATOM     71  C   UNL A   1      37.690  29.469  30.136  1.00  0.00     0.001 A 
ATOM     72  C   UNL A   1      36.645  30.197  28.104  1.00  0.00     0.001 A 
ATOM     73  C   UNL A   1      36.602  30.034  29.479  1.00  0.00     0.000 A 
ENDBRANCH  54  68
BRANCH  55  74
ATOM     74  C   UNL A   1      44.588  26.340  33.638  1.00  0.00    -0.014 A 
ATOM     75  C   UNL A   1      45.515  27.146  34.321  1.00  0.00     0.009 A 
ATOM     76  C   UNL A   1      43.651  25.626  34.405  1.00  0.00     0.009 A 
ATOM     77  C   UNL A   1      45.468  27.275  35.716  1.00  0.00     0.001 A 
ATOM     78  C   UNL A   1      43.605  25.755  35.798  1.00  0.00     0.001 A 
ATOM     79  C   UNL A   1      44.501  26.595  36.451  1.00  0.00     0.000 A 
ENDBRANCH  55  74
BRANCH  67  80
ATOM     80  C   UNL A   1      45.587  28.615  27.925  1.00  0.00    -0.014 A 
ATOM     81  C   UNL A   1      46.024  27.305  27.656  1.00  0.00     0.009 A 
ATOM     82  C   UNL A   1      46.446  29.676  27.608  1.00  0.00     0.009 A 
ATOM     83  C   UNL A   1      47.295  27.067  27.121  1.00  0.00     0.001 A 
ATOM     84  C   UNL A   1      47.706  29.441  27.053  1.00  0.00     0.001 A 
ATOM     85  C   UNL A   1      48.134  28.137  26.816  1.00  0.00     0.000 A 
ENDBRANCH  67  80
ENDBRANCH  41  42
ENDBRANCH  33  36
ENDBRANCH  31  32
ENDBRANCH  30  31
ENDBRANCH  29  30
ENDBRANCH  28  29
ENDBRANCH   1  28
TORSDOF 18
ENDMDL
MODEL 3
REMARK VINA RESULT:     -10.8      2.426      7.659
REMARK SMILES CC(C)=CCC/C(C)=C/C[N@@H+]1CCc2nc[nH]c2[C@@H]1C(=O)NCCCCCCNC(=O)c1ccc(-c2c3nc(c(-c4ccccc4)c4ccc([nH]4)c(-c4ccccc4)c4nc(c(-c5ccccc5)c5ccc2[nH]5)C=C4)C=C3)cc1
REMARK SMILES IDX 24 1 23 2 22 3 20 4 21 5 19 7 11 8 12 9 13 11 18 12 14 13
REMARK SMILES IDX 17 14 15 15 16 16 10 18 9 19 7 20 8 21 6 22 5 23 4 24 1 25
REMARK SMILES IDX 2 26 3 27 25 28 26 29 27 30 28 31 29 32 30 33 31 35 32 36
REMARK SMILES IDX 33 37 79 38 34 39 78 40 35 41 36 42 37 43 72 44 38 45 77 46
REMARK SMILES IDX 71 47 73 48 39 49 76 50 70 51 69 52 40 54 62 55 47 56 61 57
REMARK SMILES IDX 48 58 51 59 60 60 74 61 49 62 50 63 59 65 75 66 52 67 41 68
REMARK SMILES IDX 42 69 46 70 43 71 45 72 44 73 63 74 64 75 68 76 65 77 67 78
REMARK SMILES IDX 66 79 53 80 54 81 58 82 55 83 57 84 56 85
REMARK H PARENT 22 6 11 10 17 17 29 34 73 53 51 64
REMARK Flexibility Score: inf
ROOT
ATOM      1  C   UNL A   1      34.851  24.348  24.209  1.00  0.00     0.021 C 
ENDROOT
BRANCH   1   2
ATOM      2  C   UNL A   1      33.838  25.467  24.048  1.00  0.00     0.116 C 
BRANCH   2   3
ATOM      3  N   UNL A   1      33.388  25.712  22.701  1.00  0.00    -0.351 N 
ATOM      4  C   UNL A   1      32.135  25.503  22.189  1.00  0.00     0.284 C 
ATOM      5  O   UNL A   1      31.948  25.859  21.018  1.00  0.00    -0.268 OA
ATOM      6  H   UNL A   1      34.059  26.071  22.078  1.00  0.00     0.163 HD
BRANCH   4   7
ATOM      7  C   UNL A   1      30.986  24.801  22.979  1.00  0.00     0.324 C 
ATOM      8  N   UNL A   1      30.364  25.569  24.089  1.00  0.00    -0.316 N 
ATOM      9  C   UNL A   1      30.748  25.274  25.486  1.00  0.00     0.270 C 
ATOM     10  H   UNL A   1      29.434  25.152  24.121  1.00  0.00     0.349 HD
ATOM     11  C   UNL A   1      31.142  23.825  25.887  1.00  0.00     0.120 C 
ATOM     12  C   UNL A   1      31.424  23.459  23.425  1.00  0.00     0.106 A 
ATOM     13  C   UNL A   1      31.515  23.011  24.716  1.00  0.00     0.074 A 
ATOM     14  N   UNL A   1      31.821  22.410  22.645  1.00  0.00    -0.343 N 
ATOM     15  N   UNL A   1      32.012  21.739  24.761  1.00  0.00    -0.241 NA
ATOM     16  C   UNL A   1      32.178  21.400  23.499  1.00  0.00     0.197 A 
ATOM     17  H   UNL A   1      31.846  22.386  21.661  1.00  0.00     0.167 HD
BRANCH   8  18
ATOM     18  C   UNL A   1      30.197  26.987  23.771  1.00  0.00     0.291 C 
BRANCH  18  19
ATOM     19  C   UNL A   1      31.087  27.871  24.591  1.00  0.00     0.032 C 
ATOM     20  C   UNL A   1      31.977  28.787  24.155  1.00  0.00    -0.071 C 
ATOM     21  C   UNL A   1      32.258  29.013  22.693  1.00  0.00     0.039 C 
BRANCH  20  22
ATOM     22  C   UNL A   1      32.771  29.615  25.153  1.00  0.00     0.035 C 
BRANCH  22  23
ATOM     23  C   UNL A   1      33.123  28.891  26.470  1.00  0.00     0.032 C 
BRANCH  23  24
ATOM     24  C   UNL A   1      34.601  28.914  26.776  1.00  0.00    -0.028 C 
ATOM     25  C   UNL A   1      34.602  30.908  28.295  1.00  0.00     0.039 C 
ATOM     26  C   UNL A   1      35.274  29.817  27.515  1.00  0.00    -0.080 C 
ATOM     27  C   UNL A   1      36.779  29.779  27.545  1.00  0.00     0.039 C 
ENDBRANCH  23  24
ENDBRANCH  22  23
ENDBRANCH  20  22
ENDBRANCH  18  19
ENDBRANCH   8  18
ENDBRANCH   4   7
ENDBRANCH   2   3
ENDBRANCH   1   2
BRANCH   1  28
ATOM     28  C   UNL A   1      35.433  24.173  25.608  1.00  0.00     0.002 C 
BRANCH  28  29
ATOM     29  C   UNL A   1      35.580  22.736  26.132  1.00  0.00     0.002 C 
BRANCH  29  30
ATOM     30  C   UNL A   1      36.808  21.927  25.692  1.00  0.00     0.021 C 
BRANCH  30  31
ATOM     31  C   UNL A   1      38.141  22.650  25.812  1.00  0.00     0.116 C 
BRANCH  31  32
ATOM     32  N   UNL A   1      39.128  21.930  26.615  1.00  0.00    -0.352 N 
ATOM     33  C   UNL A   1      40.242  22.434  27.267  1.00  0.00     0.251 C 
ATOM     34  H   UNL A   1      38.982  20.961  26.703  1.00  0.00     0.163 HD
ATOM     35  O   UNL A   1      41.163  21.704  27.593  1.00  0.00    -0.269 OA
BRANCH  33  36
ATOM     36  C   UNL A   1      40.292  23.877  27.573  1.00  0.00     0.039 A 
ATOM     37  C   UNL A   1      39.192  24.716  27.374  1.00  0.00     0.014 A 
ATOM     38  C   UNL A   1      41.481  24.384  28.084  1.00  0.00     0.014 A 
ATOM     39  C   UNL A   1      39.289  26.050  27.767  1.00  0.00     0.010 A 
ATOM     40  C   UNL A   1      41.506  25.624  28.655  1.00  0.00     0.010 A 
ATOM     41  C   UNL A   1      40.450  26.489  28.423  1.00  0.00    -0.014 A 
BRANCH  41  42
ATOM     42  C   UNL A   1      40.567  27.834  28.959  1.00  0.00     0.031 A 
ATOM     43  C   UNL A   1      41.592  28.671  28.291  1.00  0.00     0.074 A 
ATOM     44  C   UNL A   1      39.679  28.365  29.826  1.00  0.00     0.049 A 
ATOM     45  N   UNL A   1      42.738  29.018  28.767  1.00  0.00    -0.248 NA
ATOM     46  C   UNL A   1      41.390  29.041  26.882  1.00  0.00     0.031 C 
ATOM     47  C   UNL A   1      38.422  27.790  30.327  1.00  0.00     0.029 A 
ATOM     48  N   UNL A   1      39.668  29.611  30.368  1.00  0.00    -0.354 N 
ATOM     49  C   UNL A   1      43.318  29.839  27.808  1.00  0.00     0.074 A 
ATOM     50  C   UNL A   1      42.543  29.653  26.605  1.00  0.00     0.031 C 
ATOM     51  C   UNL A   1      37.674  28.763  30.898  1.00  0.00     0.029 A 
ATOM     52  C   UNL A   1      38.467  29.976  30.965  1.00  0.00     0.049 A 
ATOM     53  H   UNL A   1      40.450  30.208  30.339  1.00  0.00     0.167 HD
ATOM     54  C   UNL A   1      44.214  30.801  28.162  1.00  0.00     0.031 A 
ATOM     55  C   UNL A   1      38.153  31.198  31.460  1.00  0.00     0.031 A 
ATOM     56  C   UNL A   1      44.665  30.623  29.523  1.00  0.00     0.049 A 
ATOM     57  C   UNL A   1      39.429  31.908  31.708  1.00  0.00     0.074 A 
ATOM     58  C   UNL A   1      45.291  29.606  30.218  1.00  0.00     0.029 A 
ATOM     59  N   UNL A   1      44.090  31.431  30.477  1.00  0.00    -0.354 N 
ATOM     60  N   UNL A   1      40.281  31.544  32.623  1.00  0.00    -0.248 NA
ATOM     61  C   UNL A   1      39.972  32.732  30.640  1.00  0.00     0.031 C 
ATOM     62  C   UNL A   1      44.644  29.582  31.491  1.00  0.00     0.029 A 
ATOM     63  C   UNL A   1      43.727  30.635  31.532  1.00  0.00     0.049 A 
ATOM     64  H   UNL A   1      43.962  32.405  30.414  1.00  0.00     0.167 HD
ATOM     65  C   UNL A   1      41.522  31.686  32.020  1.00  0.00     0.074 A 
ATOM     66  C   UNL A   1      41.276  32.521  30.843  1.00  0.00     0.031 C 
ATOM     67  C   UNL A   1      42.569  30.878  32.364  1.00  0.00     0.031 A 
BRANCH  54  68
ATOM     68  C   UNL A   1      44.338  32.134  27.461  1.00  0.00    -0.014 A 
ATOM     69  C   UNL A   1      43.890  33.285  28.136  1.00  0.00     0.009 A 
ATOM     70  C   UNL A   1      44.597  32.273  26.085  1.00  0.00     0.009 A 
ATOM     71  C   UNL A   1      43.619  34.474  27.450  1.00  0.00     0.001 A 
ATOM     72  C   UNL A   1      44.369  33.472  25.405  1.00  0.00     0.001 A 
ATOM     73  C   UNL A   1      43.846  34.562  26.082  1.00  0.00     0.000 A 
ENDBRANCH  54  68
BRANCH  55  74
ATOM     74  C   UNL A   1      36.853  31.898  31.503  1.00  0.00    -0.014 A 
ATOM     75  C   UNL A   1      36.082  31.897  32.677  1.00  0.00     0.009 A 
ATOM     76  C   UNL A   1      36.514  32.820  30.498  1.00  0.00     0.009 A 
ATOM     77  C   UNL A   1      35.045  32.823  32.860  1.00  0.00     0.001 A 
ATOM     78  C   UNL A   1      35.478  33.744  30.680  1.00  0.00     0.001 A 
ATOM     79  C   UNL A   1      34.758  33.759  31.870  1.00  0.00     0.000 A 
ENDBRANCH  55  74
BRANCH  67  80
ATOM     80  C   UNL A   1      42.408  29.989  33.576  1.00  0.00    -0.014 A 
ATOM     81  C   UNL A   1      41.816  28.714  33.532  1.00  0.00     0.009 A 
ATOM     82  C   UNL A   1      43.007  30.398  34.777  1.00  0.00     0.009 A 
ATOM     83  C   UNL A   1      41.792  27.892  34.664  1.00  0.00     0.001 A 
ATOM     84  C   UNL A   1      43.003  29.570  35.901  1.00  0.00     0.001 A 
ATOM     85  C   UNL A   1      42.390  28.321  35.848  1.00  0.00     0.000 A 
ENDBRANCH  67  80
ENDBRANCH  41  42
ENDBRANCH  33  36
ENDBRANCH  31  32
ENDBRANCH  30  31
ENDBRANCH  29  30
ENDBRANCH  28  29
ENDBRANCH   1  28
TORSDOF 18
ENDMDL
