MODEL 1
REMARK VINA RESULT:     -10.4      0.000      0.000
REMARK SMILES COc1ccccc1C[N@@H+](C)[C@@H](C)c1ccc(C(=O)NCCCCCCNC(=O)c2ccc(-c3c4nc(c(-c5ccccc5)c5ccc([nH]5)c(-c5ccccc5)c5nc(c(-c6ccccc6)c6ccc3[nH]6)C=C5)C=C4)cc2)o1
REMARK SMILES IDX 22 1 21 2 20 3 18 4 19 5 17 7 14 8 15 9 78 10 16 11 12 12
REMARK SMILES IDX 13 13 10 14 11 15 9 17 8 18 3 19 4 20 5 21 7 22 6 23 2 24
REMARK SMILES IDX 1 25 23 26 24 27 25 28 26 29 27 30 28 31 29 33 30 34 31 35
REMARK SMILES IDX 77 36 32 37 76 38 33 39 34 40 35 41 70 42 36 43 75 44 69 45
REMARK SMILES IDX 71 46 37 47 74 48 68 49 67 50 38 52 60 53 45 54 59 55 46 56
REMARK SMILES IDX 49 57 58 58 72 59 47 60 48 61 57 63 73 64 50 65 39 66 40 67
REMARK SMILES IDX 44 68 41 69 43 70 42 71 61 72 62 73 66 74 63 75 65 76 64 77
REMARK SMILES IDX 51 78 52 79 56 80 53 81 55 82 54 83
REMARK H PARENT 20 6 10 16 27 32 71 51 49 62
REMARK Flexibility Score: inf
ROOT
ATOM      1  C   UNL A   1      33.199  21.448  26.410  1.00  0.00     0.021 C 
ENDROOT
BRANCH   1   2
ATOM      2  C   UNL A   1      31.950  21.530  25.530  1.00  0.00     0.116 C 
BRANCH   2   3
ATOM      3  N   UNL A   1      30.788  21.963  26.280  1.00  0.00    -0.349 N 
ATOM      4  C   UNL A   1      30.438  23.242  26.657  1.00  0.00     0.287 C 
ATOM      5  O   UNL A   1      29.525  23.355  27.475  1.00  0.00    -0.266 OA
ATOM      6  H   UNL A   1      30.167  21.251  26.557  1.00  0.00     0.163 HD
BRANCH   4   7
ATOM      7  C   UNL A   1      31.135  24.366  26.071  1.00  0.00     0.191 A 
ATOM      8  C   UNL A   1      31.334  26.095  24.708  1.00  0.00     0.161 A 
ATOM      9  C   UNL A   1      32.541  25.966  25.366  1.00  0.00     0.053 A 
ATOM     10  O   UNL A   1      30.490  25.097  25.108  1.00  0.00    -0.450 OA
ATOM     11  C   UNL A   1      32.407  24.874  26.253  1.00  0.00     0.057 A 
BRANCH   8  12
ATOM     12  C   UNL A   1      30.811  27.034  23.654  1.00  0.00     0.248 C 
ATOM     13  C   UNL A   1      31.434  26.719  22.283  1.00  0.00     0.084 C 
BRANCH  12  14
ATOM     14  N   UNL A   1      30.858  28.463  24.065  1.00  0.00    -0.325 N 
ATOM     15  C   UNL A   1      29.838  29.247  23.363  1.00  0.00     0.333 C 
ATOM     16  H   UNL A   1      30.664  28.441  25.066  1.00  0.00     0.348 HD
BRANCH  14  17
ATOM     17  C   UNL A   1      32.171  29.117  23.929  1.00  0.00     0.303 C 
BRANCH  17  18
ATOM     18  C   UNL A   1      32.834  29.480  25.240  1.00  0.00     0.048 A 
ATOM     19  C   UNL A   1      32.316  30.448  26.114  1.00  0.00     0.127 A 
ATOM     20  C   UNL A   1      32.982  30.765  27.303  1.00  0.00     0.047 A 
ATOM     21  C   UNL A   1      34.146  30.085  27.660  1.00  0.00     0.004 A 
ATOM     22  C   UNL A   1      34.006  28.801  25.622  1.00  0.00     0.013 A 
ATOM     23  C   UNL A   1      34.657  29.101  26.820  1.00  0.00     0.001 A 
BRANCH  19  24
ATOM     24  O   UNL A   1      31.232  31.224  25.796  1.00  0.00    -0.496 OA
ATOM     25  C   UNL A   1      31.252  32.491  26.450  1.00  0.00     0.278 C 
ENDBRANCH  19  24
ENDBRANCH  17  18
ENDBRANCH  14  17
ENDBRANCH  12  14
ENDBRANCH   8  12
ENDBRANCH   4   7
ENDBRANCH   2   3
ENDBRANCH   1   2
BRANCH   1  26
ATOM     26  C   UNL A   1      34.450  20.894  25.718  1.00  0.00     0.002 C 
BRANCH  26  27
ATOM     27  C   UNL A   1      35.207  21.880  24.823  1.00  0.00     0.002 C 
BRANCH  27  28
ATOM     28  C   UNL A   1      35.628  23.196  25.484  1.00  0.00     0.021 C 
BRANCH  28  29
ATOM     29  C   UNL A   1      37.030  23.694  25.138  1.00  0.00     0.116 C 
BRANCH  29  30
ATOM     30  N   UNL A   1      38.067  22.717  25.418  1.00  0.00    -0.352 N 
ATOM     31  C   UNL A   1      39.259  22.868  26.082  1.00  0.00     0.251 C 
ATOM     32  H   UNL A   1      37.888  21.810  25.079  1.00  0.00     0.163 HD
ATOM     33  O   UNL A   1      40.060  21.937  26.116  1.00  0.00    -0.269 OA
BRANCH  31  34
ATOM     34  C   UNL A   1      39.605  24.149  26.741  1.00  0.00     0.039 A 
ATOM     35  C   UNL A   1      39.102  24.394  28.024  1.00  0.00     0.014 A 
ATOM     36  C   UNL A   1      40.370  25.124  26.097  1.00  0.00     0.014 A 
ATOM     37  C   UNL A   1      39.405  25.591  28.679  1.00  0.00     0.010 A 
ATOM     38  C   UNL A   1      40.713  26.299  26.768  1.00  0.00     0.010 A 
ATOM     39  C   UNL A   1      40.228  26.545  28.062  1.00  0.00    -0.014 A 
BRANCH  39  40
ATOM     40  C   UNL A   1      40.571  27.817  28.748  1.00  0.00     0.031 A 
ATOM     41  C   UNL A   1      41.930  28.001  29.362  1.00  0.00     0.074 A 
ATOM     42  C   UNL A   1      39.645  28.788  28.864  1.00  0.00     0.049 A 
ATOM     43  N   UNL A   1      42.393  29.009  30.059  1.00  0.00    -0.248 NA
ATOM     44  C   UNL A   1      42.889  26.899  29.188  1.00  0.00     0.031 C 
ATOM     45  C   UNL A   1      38.281  28.728  28.341  1.00  0.00     0.029 A 
ATOM     46  N   UNL A   1      39.717  30.016  29.474  1.00  0.00    -0.354 N 
ATOM     47  C   UNL A   1      43.682  28.652  30.430  1.00  0.00     0.074 A 
ATOM     48  C   UNL A   1      43.921  27.324  29.903  1.00  0.00     0.031 C 
ATOM     49  C   UNL A   1      37.648  29.877  28.636  1.00  0.00     0.029 A 
ATOM     50  C   UNL A   1      38.552  30.739  29.390  1.00  0.00     0.049 A 
ATOM     51  H   UNL A   1      40.525  30.348  29.926  1.00  0.00     0.167 HD
ATOM     52  C   UNL A   1      44.592  29.365  31.136  1.00  0.00     0.031 A 
ATOM     53  C   UNL A   1      38.247  31.960  29.868  1.00  0.00     0.031 A 
ATOM     54  C   UNL A   1      44.374  30.693  31.641  1.00  0.00     0.049 A 
ATOM     55  C   UNL A   1      39.283  32.746  30.618  1.00  0.00     0.074 A 
ATOM     56  C   UNL A   1      45.252  31.509  32.333  1.00  0.00     0.029 A 
ATOM     57  N   UNL A   1      43.193  31.404  31.497  1.00  0.00    -0.354 N 
ATOM     58  N   UNL A   1      40.510  32.407  30.928  1.00  0.00    -0.248 NA
ATOM     59  C   UNL A   1      38.895  34.090  31.069  1.00  0.00     0.031 C 
ATOM     60  C   UNL A   1      44.594  32.710  32.628  1.00  0.00     0.029 A 
ATOM     61  C   UNL A   1      43.319  32.650  32.090  1.00  0.00     0.049 A 
ATOM     62  H   UNL A   1      42.385  31.074  31.043  1.00  0.00     0.167 HD
ATOM     63  C   UNL A   1      41.050  33.503  31.587  1.00  0.00     0.074 A 
ATOM     64  C   UNL A   1      40.020  34.521  31.626  1.00  0.00     0.031 C 
ATOM     65  C   UNL A   1      42.290  33.653  32.111  1.00  0.00     0.031 A 
BRANCH  52  66
ATOM     66  C   UNL A   1      45.913  28.707  31.410  1.00  0.00    -0.014 A 
ATOM     67  C   UNL A   1      46.084  27.860  32.517  1.00  0.00     0.009 A 
ATOM     68  C   UNL A   1      46.993  28.921  30.541  1.00  0.00     0.009 A 
ATOM     69  C   UNL A   1      47.323  27.268  32.766  1.00  0.00     0.001 A 
ATOM     70  C   UNL A   1      48.225  28.310  30.781  1.00  0.00     0.001 A 
ATOM     71  C   UNL A   1      48.391  27.491  31.898  1.00  0.00     0.000 A 
ENDBRANCH  52  66
BRANCH  53  72
ATOM     72  C   UNL A   1      36.900  32.533  29.624  1.00  0.00    -0.014 A 
ATOM     73  C   UNL A   1      36.632  33.227  28.434  1.00  0.00     0.009 A 
ATOM     74  C   UNL A   1      35.880  32.391  30.576  1.00  0.00     0.009 A 
ATOM     75  C   UNL A   1      35.374  33.787  28.212  1.00  0.00     0.001 A 
ATOM     76  C   UNL A   1      34.616  32.936  30.342  1.00  0.00     0.001 A 
ATOM     77  C   UNL A   1      34.366  33.639  29.164  1.00  0.00     0.000 A 
ENDBRANCH  53  72
BRANCH  65  78
ATOM     78  C   UNL A   1      42.613  34.980  32.732  1.00  0.00    -0.014 A 
ATOM     79  C   UNL A   1      43.299  35.970  32.013  1.00  0.00     0.009 A 
ATOM     80  C   UNL A   1      42.197  35.251  34.044  1.00  0.00     0.009 A 
ATOM     81  C   UNL A   1      43.585  37.200  32.607  1.00  0.00     0.001 A 
ATOM     82  C   UNL A   1      42.469  36.489  34.629  1.00  0.00     0.001 A 
ATOM     83  C   UNL A   1      43.168  37.459  33.913  1.00  0.00     0.000 A 
ENDBRANCH  65  78
ENDBRANCH  39  40
ENDBRANCH  31  34
ENDBRANCH  29  30
ENDBRANCH  28  29
ENDBRANCH  27  28
ENDBRANCH  26  27
ENDBRANCH   1  26
TORSDOF 18
ENDMDL
MODEL 2
REMARK VINA RESULT:     -10.2      2.452      8.414
REMARK SMILES COc1ccccc1C[N@@H+](C)[C@@H](C)c1ccc(C(=O)NCCCCCCNC(=O)c2ccc(-c3c4nc(c(-c5ccccc5)c5ccc([nH]5)c(-c5ccccc5)c5nc(c(-c6ccccc6)c6ccc3[nH]6)C=C5)C=C4)cc2)o1
REMARK SMILES IDX 22 1 21 2 20 3 18 4 19 5 17 7 14 8 15 9 78 10 16 11 12 12
REMARK SMILES IDX 13 13 10 14 11 15 9 17 8 18 3 19 4 20 5 21 7 22 6 23 2 24
REMARK SMILES IDX 1 25 23 26 24 27 25 28 26 29 27 30 28 31 29 33 30 34 31 35
REMARK SMILES IDX 77 36 32 37 76 38 33 39 34 40 35 41 70 42 36 43 75 44 69 45
REMARK SMILES IDX 71 46 37 47 74 48 68 49 67 50 38 52 60 53 45 54 59 55 46 56
REMARK SMILES IDX 49 57 58 58 72 59 47 60 48 61 57 63 73 64 50 65 39 66 40 67
REMARK SMILES IDX 44 68 41 69 43 70 42 71 61 72 62 73 66 74 63 75 65 76 64 77
REMARK SMILES IDX 51 78 52 79 56 80 53 81 55 82 54 83
REMARK H PARENT 20 6 10 16 27 32 71 51 49 62
REMARK Flexibility Score: inf
ROOT
ATOM      1  C   UNL A   1      30.603  29.190  23.840  1.00  0.00     0.021 C 
ENDROOT
BRANCH   1   2
ATOM      2  C   UNL A   1      30.716  27.902  23.023  1.00  0.00     0.116 C 
BRANCH   2   3
ATOM      3  N   UNL A   1      31.880  27.910  22.160  1.00  0.00    -0.349 N 
ATOM      4  C   UNL A   1      33.089  27.274  22.344  1.00  0.00     0.287 C 
ATOM      5  O   UNL A   1      34.011  27.594  21.593  1.00  0.00    -0.266 OA
ATOM      6  H   UNL A   1      31.797  28.440  21.334  1.00  0.00     0.163 HD
BRANCH   4   7
ATOM      7  C   UNL A   1      33.208  26.267  23.376  1.00  0.00     0.191 A 
ATOM      8  C   UNL A   1      32.644  24.394  24.406  1.00  0.00     0.161 A 
ATOM      9  C   UNL A   1      33.653  24.970  25.152  1.00  0.00     0.053 A 
ATOM     10  O   UNL A   1      32.345  25.203  23.346  1.00  0.00    -0.450 OA
ATOM     11  C   UNL A   1      34.028  26.157  24.482  1.00  0.00     0.057 A 
BRANCH   8  12
ATOM     12  C   UNL A   1      31.816  23.146  24.553  1.00  0.00     0.248 C 
ATOM     13  C   UNL A   1      31.304  22.995  25.996  1.00  0.00     0.084 C 
BRANCH  12  14
ATOM     14  N   UNL A   1      32.466  21.939  23.974  1.00  0.00    -0.325 N 
ATOM     15  C   UNL A   1      32.396  21.954  22.511  1.00  0.00     0.333 C 
ATOM     16  H   UNL A   1      33.435  22.004  24.286  1.00  0.00     0.348 HD
BRANCH  14  17
ATOM     17  C   UNL A   1      31.969  20.649  24.485  1.00  0.00     0.303 C 
BRANCH  17  18
ATOM     18  C   UNL A   1      32.915  19.485  24.283  1.00  0.00     0.048 A 
ATOM     19  C   UNL A   1      34.212  19.455  24.818  1.00  0.00     0.127 A 
ATOM     20  C   UNL A   1      35.056  18.365  24.581  1.00  0.00     0.047 A 
ATOM     21  C   UNL A   1      34.601  17.268  23.849  1.00  0.00     0.004 A 
ATOM     22  C   UNL A   1      32.473  18.366  23.553  1.00  0.00     0.013 A 
ATOM     23  C   UNL A   1      33.308  17.268  23.337  1.00  0.00     0.001 A 
BRANCH  19  24
ATOM     24  O   UNL A   1      34.767  20.527  25.467  1.00  0.00    -0.496 OA
ATOM     25  C   UNL A   1      35.822  21.133  24.724  1.00  0.00     0.278 C 
ENDBRANCH  19  24
ENDBRANCH  17  18
ENDBRANCH  14  17
ENDBRANCH  12  14
ENDBRANCH   8  12
ENDBRANCH   4   7
ENDBRANCH   2   3
ENDBRANCH   1   2
BRANCH   1  26
ATOM     26  C   UNL A   1      31.746  29.436  24.832  1.00  0.00     0.002 C 
BRANCH  26  27
ATOM     27  C   UNL A   1      31.457  29.057  26.288  1.00  0.00     0.002 C 
BRANCH  27  28
ATOM     28  C   UNL A   1      32.441  28.077  26.933  1.00  0.00     0.021 C 
BRANCH  28  29
ATOM     29  C   UNL A   1      33.800  28.658  27.319  1.00  0.00     0.116 C 
BRANCH  29  30
ATOM     30  N   UNL A   1      33.724  30.036  27.767  1.00  0.00    -0.352 N 
ATOM     31  C   UNL A   1      34.670  30.807  28.397  1.00  0.00     0.251 C 
ATOM     32  H   UNL A   1      32.865  30.485  27.594  1.00  0.00     0.163 HD
ATOM     33  O   UNL A   1      34.371  31.928  28.801  1.00  0.00    -0.269 OA
BRANCH  31  34
ATOM     34  C   UNL A   1      36.043  30.296  28.619  1.00  0.00     0.039 A 
ATOM     35  C   UNL A   1      36.965  30.392  27.569  1.00  0.00     0.014 A 
ATOM     36  C   UNL A   1      36.416  29.686  29.818  1.00  0.00     0.014 A 
ATOM     37  C   UNL A   1      38.269  29.920  27.738  1.00  0.00     0.010 A 
ATOM     38  C   UNL A   1      37.732  29.259  30.004  1.00  0.00     0.010 A 
ATOM     39  C   UNL A   1      38.668  29.366  28.964  1.00  0.00    -0.014 A 
BRANCH  39  40
ATOM     40  C   UNL A   1      40.053  28.871  29.166  1.00  0.00     0.031 A 
ATOM     41  C   UNL A   1      41.095  29.770  29.772  1.00  0.00     0.074 A 
ATOM     42  C   UNL A   1      40.391  27.634  28.758  1.00  0.00     0.049 A 
ATOM     43  N   UNL A   1      42.371  29.544  29.966  1.00  0.00    -0.248 NA
ATOM     44  C   UNL A   1      40.649  31.106  30.198  1.00  0.00     0.031 C 
ATOM     45  C   UNL A   1      39.487  26.670  28.129  1.00  0.00     0.029 A 
ATOM     46  N   UNL A   1      41.597  26.980  28.807  1.00  0.00    -0.354 N 
ATOM     47  C   UNL A   1      42.884  30.714  30.508  1.00  0.00     0.074 A 
ATOM     48  C   UNL A   1      41.788  31.658  30.589  1.00  0.00     0.031 C 
ATOM     49  C   UNL A   1      40.166  25.540  27.866  1.00  0.00     0.029 A 
ATOM     50  C   UNL A   1      41.555  25.711  28.282  1.00  0.00     0.049 A 
ATOM     51  H   UNL A   1      42.414  27.380  29.182  1.00  0.00     0.167 HD
ATOM     52  C   UNL A   1      44.149  30.981  30.911  1.00  0.00     0.031 A 
ATOM     53  C   UNL A   1      42.526  24.787  28.152  1.00  0.00     0.031 A 
ATOM     54  C   UNL A   1      45.237  30.043  30.858  1.00  0.00     0.049 A 
ATOM     55  C   UNL A   1      43.913  25.094  28.639  1.00  0.00     0.074 A 
ATOM     56  C   UNL A   1      46.544  30.211  31.282  1.00  0.00     0.029 A 
ATOM     57  N   UNL A   1      45.140  28.754  30.359  1.00  0.00    -0.354 N 
ATOM     58  N   UNL A   1      44.372  26.193  29.182  1.00  0.00    -0.248 NA
ATOM     59  C   UNL A   1      44.911  24.022  28.507  1.00  0.00     0.031 C 
ATOM     60  C   UNL A   1      47.245  29.028  31.019  1.00  0.00     0.029 A 
ATOM     61  C   UNL A   1      46.364  28.116  30.461  1.00  0.00     0.049 A 
ATOM     62  H   UNL A   1      44.323  28.352  29.985  1.00  0.00     0.167 HD
ATOM     63  C   UNL A   1      45.703  25.939  29.482  1.00  0.00     0.074 A 
ATOM     64  C   UNL A   1      45.977  24.579  29.066  1.00  0.00     0.031 C 
ATOM     65  C   UNL A   1      46.617  26.760  30.053  1.00  0.00     0.031 A 
BRANCH  52  66
ATOM     66  C   UNL A   1      44.421  32.358  31.442  1.00  0.00    -0.014 A 
ATOM     67  C   UNL A   1      44.680  33.430  30.573  1.00  0.00     0.009 A 
ATOM     68  C   UNL A   1      44.400  32.590  32.825  1.00  0.00     0.009 A 
ATOM     69  C   UNL A   1      44.947  34.702  31.083  1.00  0.00     0.001 A 
ATOM     70  C   UNL A   1      44.646  33.868  33.331  1.00  0.00     0.001 A 
ATOM     71  C   UNL A   1      44.928  34.920  32.460  1.00  0.00     0.000 A 
ENDBRANCH  52  66
BRANCH  53  72
ATOM     72  C   UNL A   1      42.212  23.465  27.557  1.00  0.00    -0.014 A 
ATOM     73  C   UNL A   1      41.563  22.483  28.320  1.00  0.00     0.009 A 
ATOM     74  C   UNL A   1      42.562  23.178  26.230  1.00  0.00     0.009 A 
ATOM     75  C   UNL A   1      41.288  21.230  27.771  1.00  0.00     0.001 A 
ATOM     76  C   UNL A   1      42.268  21.930  25.677  1.00  0.00     0.001 A 
ATOM     77  C   UNL A   1      41.638  20.955  26.450  1.00  0.00     0.000 A 
ENDBRANCH  53  72
BRANCH  65  78
ATOM     78  C   UNL A   1      47.984  26.195  30.300  1.00  0.00    -0.014 A 
ATOM     79  C   UNL A   1      48.956  26.175  29.288  1.00  0.00     0.009 A 
ATOM     80  C   UNL A   1      48.311  25.703  31.572  1.00  0.00     0.009 A 
ATOM     81  C   UNL A   1      50.224  25.649  29.541  1.00  0.00     0.001 A 
ATOM     82  C   UNL A   1      49.585  25.194  31.827  1.00  0.00     0.001 A 
ATOM     83  C   UNL A   1      50.538  25.161  30.810  1.00  0.00     0.000 A 
ENDBRANCH  65  78
ENDBRANCH  39  40
ENDBRANCH  31  34
ENDBRANCH  29  30
ENDBRANCH  28  29
ENDBRANCH  27  28
ENDBRANCH  26  27
ENDBRANCH   1  26
TORSDOF 18
ENDMDL
MODEL 3
REMARK VINA RESULT:     -10.1      0.377      5.803
REMARK SMILES COc1ccccc1C[N@@H+](C)[C@@H](C)c1ccc(C(=O)NCCCCCCNC(=O)c2ccc(-c3c4nc(c(-c5ccccc5)c5ccc([nH]5)c(-c5ccccc5)c5nc(c(-c6ccccc6)c6ccc3[nH]6)C=C5)C=C4)cc2)o1
REMARK SMILES IDX 22 1 21 2 20 3 18 4 19 5 17 7 14 8 15 9 78 10 16 11 12 12
REMARK SMILES IDX 13 13 10 14 11 15 9 17 8 18 3 19 4 20 5 21 7 22 6 23 2 24
REMARK SMILES IDX 1 25 23 26 24 27 25 28 26 29 27 30 28 31 29 33 30 34 31 35
REMARK SMILES IDX 77 36 32 37 76 38 33 39 34 40 35 41 70 42 36 43 75 44 69 45
REMARK SMILES IDX 71 46 37 47 74 48 68 49 67 50 38 52 60 53 45 54 59 55 46 56
REMARK SMILES IDX 49 57 58 58 72 59 47 60 48 61 57 63 73 64 50 65 39 66 40 67
REMARK SMILES IDX 44 68 41 69 43 70 42 71 61 72 62 73 66 74 63 75 65 76 64 77
REMARK SMILES IDX 51 78 52 79 56 80 53 81 55 82 54 83
REMARK H PARENT 20 6 10 16 27 32 71 51 49 62
REMARK Flexibility Score: inf
ROOT
ATOM      1  C   UNL A   1      33.117  21.548  26.615  1.00  0.00     0.021 C 
ENDROOT
BRANCH   1   2
ATOM      2  C   UNL A   1      31.893  21.538  25.697  1.00  0.00     0.116 C 
BRANCH   2   3
ATOM      3  N   UNL A   1      30.704  22.011  26.377  1.00  0.00    -0.349 N 
ATOM      4  C   UNL A   1      30.344  23.307  26.674  1.00  0.00     0.287 C 
ATOM      5  O   UNL A   1      29.399  23.463  27.448  1.00  0.00    -0.266 OA
ATOM      6  H   UNL A   1      30.070  21.314  26.664  1.00  0.00     0.163 HD
BRANCH   4   7
ATOM      7  C   UNL A   1      31.068  24.400  26.061  1.00  0.00     0.191 A 
ATOM      8  C   UNL A   1      31.316  26.077  24.643  1.00  0.00     0.161 A 
ATOM      9  C   UNL A   1      32.511  25.952  25.323  1.00  0.00     0.053 A 
ATOM     10  O   UNL A   1      30.449  25.107  25.064  1.00  0.00    -0.450 OA
ATOM     11  C   UNL A   1      32.345  24.893  26.244  1.00  0.00     0.057 A 
BRANCH   8  12
ATOM     12  C   UNL A   1      30.824  26.988  23.550  1.00  0.00     0.248 C 
ATOM     13  C   UNL A   1      31.468  26.621  22.202  1.00  0.00     0.084 C 
BRANCH  12  14
ATOM     14  N   UNL A   1      30.881  28.429  23.916  1.00  0.00    -0.325 N 
ATOM     15  C   UNL A   1      29.896  29.204  23.158  1.00  0.00     0.333 C 
ATOM     16  H   UNL A   1      30.657  28.442  24.911  1.00  0.00     0.348 HD
BRANCH  14  17
ATOM     17  C   UNL A   1      32.209  29.058  23.799  1.00  0.00     0.303 C 
BRANCH  17  18
ATOM     18  C   UNL A   1      32.887  29.348  25.121  1.00  0.00     0.048 A 
ATOM     19  C   UNL A   1      32.369  30.250  26.062  1.00  0.00     0.127 A 
ATOM     20  C   UNL A   1      33.049  30.502  27.258  1.00  0.00     0.047 A 
ATOM     21  C   UNL A   1      34.230  29.821  27.553  1.00  0.00     0.004 A 
ATOM     22  C   UNL A   1      34.077  28.666  25.440  1.00  0.00     0.013 A 
ATOM     23  C   UNL A   1      34.743  28.901  26.645  1.00  0.00     0.001 A 
BRANCH  19  24
ATOM     24  O   UNL A   1      31.268  31.026  25.812  1.00  0.00    -0.496 OA
ATOM     25  C   UNL A   1      31.274  32.245  26.552  1.00  0.00     0.278 C 
ENDBRANCH  19  24
ENDBRANCH  17  18
ENDBRANCH  14  17
ENDBRANCH  12  14
ENDBRANCH   8  12
ENDBRANCH   4   7
ENDBRANCH   2   3
ENDBRANCH   1   2
BRANCH   1  26
ATOM     26  C   UNL A   1      34.433  21.124  25.953  1.00  0.00     0.002 C 
BRANCH  26  27
ATOM     27  C   UNL A   1      35.075  22.160  25.024  1.00  0.00     0.002 C 
BRANCH  27  28
ATOM     28  C   UNL A   1      35.645  23.407  25.705  1.00  0.00     0.021 C 
BRANCH  28  29
ATOM     29  C   UNL A   1      37.031  23.845  25.236  1.00  0.00     0.116 C 
BRANCH  29  30
ATOM     30  N   UNL A   1      38.059  22.851  25.489  1.00  0.00    -0.352 N 
ATOM     31  C   UNL A   1      39.265  22.980  26.132  1.00  0.00     0.251 C 
ATOM     32  H   UNL A   1      37.862  21.949  25.147  1.00  0.00     0.163 HD
ATOM     33  O   UNL A   1      40.053  22.039  26.145  1.00  0.00    -0.269 OA
BRANCH  31  34
ATOM     34  C   UNL A   1      39.640  24.252  26.795  1.00  0.00     0.039 A 
ATOM     35  C   UNL A   1      39.239  24.455  28.120  1.00  0.00     0.014 A 
ATOM     36  C   UNL A   1      40.335  25.257  26.117  1.00  0.00     0.014 A 
ATOM     37  C   UNL A   1      39.572  25.641  28.779  1.00  0.00     0.010 A 
ATOM     38  C   UNL A   1      40.710  26.421  26.789  1.00  0.00     0.010 A 
ATOM     39  C   UNL A   1      40.326  26.626  28.124  1.00  0.00    -0.014 A 
BRANCH  39  40
ATOM     40  C   UNL A   1      40.701  27.887  28.812  1.00  0.00     0.031 A 
ATOM     41  C   UNL A   1      39.690  28.988  28.976  1.00  0.00     0.074 A 
ATOM     42  C   UNL A   1      41.963  28.066  29.246  1.00  0.00     0.049 A 
ATOM     43  N   UNL A   1      39.847  30.184  29.486  1.00  0.00    -0.248 NA
ATOM     44  C   UNL A   1      38.332  28.716  28.482  1.00  0.00     0.031 C 
ATOM     45  C   UNL A   1      43.049  27.092  29.126  1.00  0.00     0.029 A 
ATOM     46  N   UNL A   1      42.545  29.142  29.870  1.00  0.00    -0.354 N 
ATOM     47  C   UNL A   1      38.618  30.816  29.349  1.00  0.00     0.074 A 
ATOM     48  C   UNL A   1      37.733  29.881  28.685  1.00  0.00     0.031 C 
ATOM     49  C   UNL A   1      44.162  27.608  29.675  1.00  0.00     0.029 A 
ATOM     50  C   UNL A   1      43.874  28.955  30.160  1.00  0.00     0.049 A 
ATOM     51  H   UNL A   1      42.057  29.967  30.090  1.00  0.00     0.167 HD
ATOM     52  C   UNL A   1      38.252  32.058  29.748  1.00  0.00     0.031 A 
ATOM     53  C   UNL A   1      44.762  29.776  30.752  1.00  0.00     0.031 A 
ATOM     54  C   UNL A   1      39.114  32.983  30.430  1.00  0.00     0.049 A 
ATOM     55  C   UNL A   1      44.324  31.135  31.215  1.00  0.00     0.074 A 
ATOM     56  C   UNL A   1      38.819  34.249  30.907  1.00  0.00     0.029 A 
ATOM     57  N   UNL A   1      40.442  32.737  30.741  1.00  0.00    -0.354 N 
ATOM     58  N   UNL A   1      43.148  31.702  31.111  1.00  0.00    -0.248 NA
ATOM     59  C   UNL A   1      45.334  31.959  31.894  1.00  0.00     0.031 C 
ATOM     60  C   UNL A   1      39.977  34.778  31.491  1.00  0.00     0.029 A 
ATOM     61  C   UNL A   1      40.981  33.828  31.403  1.00  0.00     0.049 A 
ATOM     62  H   UNL A   1      40.930  31.910  30.524  1.00  0.00     0.167 HD
ATOM     63  C   UNL A   1      43.268  32.938  31.732  1.00  0.00     0.074 A 
ATOM     64  C   UNL A   1      44.629  33.036  32.217  1.00  0.00     0.031 C 
ATOM     65  C   UNL A   1      42.332  33.905  31.888  1.00  0.00     0.031 A 
BRANCH  52  66
ATOM     66  C   UNL A   1      36.846  32.487  29.441  1.00  0.00    -0.014 A 
ATOM     67  C   UNL A   1      35.813  32.297  30.371  1.00  0.00     0.009 A 
ATOM     68  C   UNL A   1      36.557  33.107  28.216  1.00  0.00     0.009 A 
ATOM     69  C   UNL A   1      34.508  32.689  30.065  1.00  0.00     0.001 A 
ATOM     70  C   UNL A   1      35.256  33.517  27.922  1.00  0.00     0.001 A 
ATOM     71  C   UNL A   1      34.231  33.300  28.842  1.00  0.00     0.000 A 
ENDBRANCH  52  66
BRANCH  53  72
ATOM     72  C   UNL A   1      46.158  29.322  30.967  1.00  0.00    -0.014 A 
ATOM     73  C   UNL A   1      46.488  28.563  32.101  1.00  0.00     0.009 A 
ATOM     74  C   UNL A   1      47.165  29.645  30.046  1.00  0.00     0.009 A 
ATOM     75  C   UNL A   1      47.804  28.155  32.318  1.00  0.00     0.001 A 
ATOM     76  C   UNL A   1      48.477  29.218  30.256  1.00  0.00     0.001 A 
ATOM     77  C   UNL A   1      48.797  28.480  31.396  1.00  0.00     0.000 A 
ENDBRANCH  53  72
BRANCH  65  78
ATOM     78  C   UNL A   1      42.737  35.131  32.650  1.00  0.00    -0.014 A 
ATOM     79  C   UNL A   1      42.486  35.247  34.026  1.00  0.00     0.009 A 
ATOM     80  C   UNL A   1      43.406  36.170  31.987  1.00  0.00     0.009 A 
ATOM     81  C   UNL A   1      42.876  36.394  34.718  1.00  0.00     0.001 A 
ATOM     82  C   UNL A   1      43.812  37.309  32.685  1.00  0.00     0.001 A 
ATOM     83  C   UNL A   1      43.540  37.423  34.048  1.00  0.00     0.000 A 
ENDBRANCH  65  78
ENDBRANCH  39  40
ENDBRANCH  31  34
ENDBRANCH  29  30
ENDBRANCH  28  29
ENDBRANCH  27  28
ENDBRANCH  26  27
ENDBRANCH   1  26
TORSDOF 18
ENDMDL
