MODEL 1
REMARK VINA RESULT:     -12.4      0.000      0.000
REMARK SMILES Cc1cc(=O)c(Oc2ccc(C(=O)NCCCCCCNC(=O)c3ccc(-c4c5nc(c(-c6ccccc6)c6ccc([nH]6)c(-c6ccccc6)c6nc(c(-c7ccccc7)c7ccc4[nH]7)C=C6)C=C5)cc3)cc2)c(-c2ccc(S(C)(=O)=O)cc2)o1
REMARK SMILES IDX 16 1 15 2 14 3 12 4 13 5 11 7 8 8 9 9 73 10 10 11 72 12 7 13
REMARK SMILES IDX 6 14 1 15 2 16 3 17 85 18 4 19 74 20 5 21 75 22 76 23 84 24
REMARK SMILES IDX 77 25 83 26 78 27 79 28 80 29 81 30 82 31 17 32 18 33 19 34
REMARK SMILES IDX 20 35 21 36 22 37 23 39 24 40 25 41 71 42 26 43 70 44 27 45
REMARK SMILES IDX 28 46 29 47 64 48 30 49 69 50 63 51 65 52 31 53 68 54 62 55
REMARK SMILES IDX 61 56 32 58 54 59 39 60 53 61 40 62 43 63 52 64 66 65 41 66
REMARK SMILES IDX 42 67 51 69 67 70 44 71 33 72 34 73 38 74 35 75 37 76 36 77
REMARK SMILES IDX 55 78 56 79 60 80 57 81 59 82 58 83 45 84 46 85 50 86 47 87
REMARK SMILES IDX 49 88 48 89
REMARK H PARENT 14 6 21 38 65 57 43 68
REMARK Flexibility Score: inf
ROOT
ATOM      1  C   UNL A   1      31.401  28.064  25.363  1.00  0.00     0.021 C 
ENDROOT
BRANCH   1   2
ATOM      2  C   UNL A   1      31.141  27.545  23.953  1.00  0.00     0.116 C 
BRANCH   2   3
ATOM      3  N   UNL A   1      32.199  27.778  22.991  1.00  0.00    -0.352 N 
ATOM      4  C   UNL A   1      33.257  26.982  22.615  1.00  0.00     0.251 C 
ATOM      5  O   UNL A   1      33.981  27.352  21.692  1.00  0.00    -0.269 OA
ATOM      6  H   UNL A   1      32.153  28.648  22.533  1.00  0.00     0.163 HD
BRANCH   4   7
ATOM      7  C   UNL A   1      33.602  25.733  23.348  1.00  0.00     0.040 A 
ATOM      8  C   UNL A   1      33.839  23.490  24.991  1.00  0.00     0.127 A 
ATOM      9  C   UNL A   1      34.238  24.732  25.472  1.00  0.00     0.048 A 
ATOM     10  C   UNL A   1      33.525  23.335  23.643  1.00  0.00     0.048 A 
ATOM     11  C   UNL A   1      34.080  25.861  24.661  1.00  0.00     0.017 A 
ATOM     12  C   UNL A   1      33.439  24.454  22.813  1.00  0.00     0.017 A 
BRANCH   8  13
ATOM     13  O   UNL A   1      33.851  22.363  25.757  1.00  0.00    -0.449 OA
BRANCH  13  14
ATOM     14  C   UNL A   1      33.945  21.073  25.252  1.00  0.00     0.217 A 
ATOM     15  C   UNL A   1      33.683  17.220  23.309  1.00  0.00     0.088 C 
ATOM     16  C   UNL A   1      33.653  18.524  24.038  1.00  0.00     0.105 A 
ATOM     17  C   UNL A   1      32.521  19.179  24.302  1.00  0.00     0.098 A 
ATOM     18  O   UNL A   1      34.891  19.007  24.407  1.00  0.00    -0.457 OA
ATOM     19  C   UNL A   1      32.595  20.476  24.988  1.00  0.00     0.228 A 
ATOM     20  C   UNL A   1      35.011  20.269  24.986  1.00  0.00     0.180 A 
ATOM     21  O   UNL A   1      31.554  21.035  25.321  1.00  0.00    -0.285 OA
BRANCH  20  22
ATOM     22  C   UNL A   1      36.435  20.574  25.216  1.00  0.00     0.021 A 
ATOM     23  C   UNL A   1      36.810  21.853  25.665  1.00  0.00     0.013 A 
ATOM     24  C   UNL A   1      37.428  19.606  25.003  1.00  0.00     0.013 A 
ATOM     25  C   UNL A   1      38.140  22.126  25.997  1.00  0.00     0.021 A 
ATOM     26  C   UNL A   1      38.761  19.877  25.326  1.00  0.00     0.021 A 
ATOM     27  C   UNL A   1      39.106  21.129  25.842  1.00  0.00     0.067 A 
BRANCH  27  28
ATOM     28  S   UNL A   1      40.754  21.418  26.451  1.00  0.00     0.175 S 
ATOM     29  C   UNL A   1      41.465  19.801  26.555  1.00  0.00     0.163 C 
ATOM     30  O   UNL A   1      41.464  22.151  25.423  1.00  0.00    -0.224 OA
ATOM     31  O   UNL A   1      40.640  21.931  27.805  1.00  0.00    -0.224 OA
ENDBRANCH  27  28
ENDBRANCH  20  22
ENDBRANCH  13  14
ENDBRANCH   8  13
ENDBRANCH   4   7
ENDBRANCH   2   3
ENDBRANCH   1   2
BRANCH   1  32
ATOM     32  C   UNL A   1      31.980  29.471  25.510  1.00  0.00     0.002 C 
BRANCH  32  33
ATOM     33  C   UNL A   1      31.837  30.153  26.872  1.00  0.00     0.002 C 
BRANCH  33  34
ATOM     34  C   UNL A   1      31.622  31.665  26.864  1.00  0.00     0.021 C 
BRANCH  34  35
ATOM     35  C   UNL A   1      32.836  32.515  27.213  1.00  0.00     0.116 C 
BRANCH  35  36
ATOM     36  N   UNL A   1      32.508  33.885  27.573  1.00  0.00    -0.352 N 
ATOM     37  C   UNL A   1      33.127  34.730  28.468  1.00  0.00     0.251 C 
ATOM     38  H   UNL A   1      31.728  34.266  27.109  1.00  0.00     0.163 HD
ATOM     39  O   UNL A   1      32.646  35.831  28.714  1.00  0.00    -0.269 OA
BRANCH  37  40
ATOM     40  C   UNL A   1      34.353  34.290  29.171  1.00  0.00     0.039 A 
ATOM     41  C   UNL A   1      35.618  34.580  28.658  1.00  0.00     0.014 A 
ATOM     42  C   UNL A   1      34.232  33.546  30.349  1.00  0.00     0.014 A 
ATOM     43  C   UNL A   1      36.741  33.967  29.204  1.00  0.00     0.010 A 
ATOM     44  C   UNL A   1      35.375  33.011  30.955  1.00  0.00     0.010 A 
ATOM     45  C   UNL A   1      36.633  33.169  30.356  1.00  0.00    -0.014 A 
BRANCH  45  46
ATOM     46  C   UNL A   1      37.850  32.515  30.908  1.00  0.00     0.031 A 
ATOM     47  C   UNL A   1      38.492  33.014  32.176  1.00  0.00     0.074 A 
ATOM     48  C   UNL A   1      38.345  31.423  30.291  1.00  0.00     0.049 A 
ATOM     49  N   UNL A   1      39.527  32.530  32.818  1.00  0.00    -0.248 NA
ATOM     50  C   UNL A   1      37.904  34.206  32.808  1.00  0.00     0.031 C 
ATOM     51  C   UNL A   1      37.803  30.832  29.067  1.00  0.00     0.029 A 
ATOM     52  N   UNL A   1      39.392  30.599  30.624  1.00  0.00    -0.354 N 
ATOM     53  C   UNL A   1      39.721  33.364  33.912  1.00  0.00     0.074 A 
ATOM     54  C   UNL A   1      38.719  34.403  33.835  1.00  0.00     0.031 C 
ATOM     55  C   UNL A   1      38.478  29.708  28.787  1.00  0.00     0.029 A 
ATOM     56  C   UNL A   1      39.545  29.537  29.766  1.00  0.00     0.049 A 
ATOM     57  H   UNL A   1      39.975  30.754  31.402  1.00  0.00     0.167 HD
ATOM     58  C   UNL A   1      40.643  33.262  34.900  1.00  0.00     0.031 A 
ATOM     59  C   UNL A   1      40.450  28.538  29.753  1.00  0.00     0.031 A 
ATOM     60  C   UNL A   1      41.633  32.220  34.982  1.00  0.00     0.049 A 
ATOM     61  C   UNL A   1      41.495  28.479  30.829  1.00  0.00     0.074 A 
ATOM     62  C   UNL A   1      42.589  32.023  35.963  1.00  0.00     0.029 A 
ATOM     63  N   UNL A   1      41.797  31.205  34.052  1.00  0.00    -0.354 N 
ATOM     64  N   UNL A   1      41.648  29.264  31.869  1.00  0.00    -0.248 NA
ATOM     65  C   UNL A   1      42.490  27.403  30.734  1.00  0.00     0.031 C 
ATOM     66  C   UNL A   1      43.376  30.931  35.592  1.00  0.00     0.029 A 
ATOM     67  C   UNL A   1      42.862  30.398  34.421  1.00  0.00     0.049 A 
ATOM     68  H   UNL A   1      41.241  31.076  33.251  1.00  0.00     0.167 HD
ATOM     69  C   UNL A   1      42.746  28.768  32.559  1.00  0.00     0.074 A 
ATOM     70  C   UNL A   1      43.208  27.603  31.833  1.00  0.00     0.031 C 
ATOM     71  C   UNL A   1      43.319  29.243  33.691  1.00  0.00     0.031 A 
BRANCH  58  72
ATOM     72  C   UNL A   1      40.647  34.308  35.983  1.00  0.00    -0.014 A 
ATOM     73  C   UNL A   1      39.823  34.147  37.109  1.00  0.00     0.009 A 
ATOM     74  C   UNL A   1      41.372  35.501  35.842  1.00  0.00     0.009 A 
ATOM     75  C   UNL A   1      39.710  35.163  38.060  1.00  0.00     0.001 A 
ATOM     76  C   UNL A   1      41.281  36.504  36.810  1.00  0.00     0.001 A 
ATOM     77  C   UNL A   1      40.442  36.340  37.911  1.00  0.00     0.000 A 
ENDBRANCH  58  72
BRANCH  59  78
ATOM     78  C   UNL A   1      40.384  27.515  28.675  1.00  0.00    -0.014 A 
ATOM     79  C   UNL A   1      41.015  27.738  27.440  1.00  0.00     0.009 A 
ATOM     80  C   UNL A   1      39.634  26.342  28.848  1.00  0.00     0.009 A 
ATOM     81  C   UNL A   1      40.865  26.832  26.390  1.00  0.00     0.001 A 
ATOM     82  C   UNL A   1      39.514  25.419  27.807  1.00  0.00     0.001 A 
ATOM     83  C   UNL A   1      40.117  25.670  26.575  1.00  0.00     0.000 A 
ENDBRANCH  59  78
BRANCH  71  84
ATOM     84  C   UNL A   1      44.511  28.510  34.241  1.00  0.00    -0.014 A 
ATOM     85  C   UNL A   1      44.337  27.568  35.270  1.00  0.00     0.009 A 
ATOM     86  C   UNL A   1      45.813  28.830  33.827  1.00  0.00     0.009 A 
ATOM     87  C   UNL A   1      45.441  26.980  35.887  1.00  0.00     0.001 A 
ATOM     88  C   UNL A   1      46.915  28.215  34.426  1.00  0.00     0.001 A 
ATOM     89  C   UNL A   1      46.728  27.301  35.463  1.00  0.00     0.000 A 
ENDBRANCH  71  84
ENDBRANCH  45  46
ENDBRANCH  37  40
ENDBRANCH  35  36
ENDBRANCH  34  35
ENDBRANCH  33  34
ENDBRANCH  32  33
ENDBRANCH   1  32
TORSDOF 17
ENDMDL
MODEL 2
REMARK VINA RESULT:     -12.3      0.483      5.592
REMARK SMILES Cc1cc(=O)c(Oc2ccc(C(=O)NCCCCCCNC(=O)c3ccc(-c4c5nc(c(-c6ccccc6)c6ccc([nH]6)c(-c6ccccc6)c6nc(c(-c7ccccc7)c7ccc4[nH]7)C=C6)C=C5)cc3)cc2)c(-c2ccc(S(C)(=O)=O)cc2)o1
REMARK SMILES IDX 16 1 15 2 14 3 12 4 13 5 11 7 8 8 9 9 73 10 10 11 72 12 7 13
REMARK SMILES IDX 6 14 1 15 2 16 3 17 85 18 4 19 74 20 5 21 75 22 76 23 84 24
REMARK SMILES IDX 77 25 83 26 78 27 79 28 80 29 81 30 82 31 17 32 18 33 19 34
REMARK SMILES IDX 20 35 21 36 22 37 23 39 24 40 25 41 71 42 26 43 70 44 27 45
REMARK SMILES IDX 28 46 29 47 64 48 30 49 69 50 63 51 65 52 31 53 68 54 62 55
REMARK SMILES IDX 61 56 32 58 54 59 39 60 53 61 40 62 43 63 52 64 66 65 41 66
REMARK SMILES IDX 42 67 51 69 67 70 44 71 33 72 34 73 38 74 35 75 37 76 36 77
REMARK SMILES IDX 55 78 56 79 60 80 57 81 59 82 58 83 45 84 46 85 50 86 47 87
REMARK SMILES IDX 49 88 48 89
REMARK H PARENT 14 6 21 38 65 57 43 68
REMARK Flexibility Score: inf
ROOT
ATOM      1  C   UNL A   1      31.330  28.194  25.328  1.00  0.00     0.021 C 
ENDROOT
BRANCH   1   2
ATOM      2  C   UNL A   1      31.169  27.517  23.971  1.00  0.00     0.116 C 
BRANCH   2   3
ATOM      3  N   UNL A   1      32.219  27.776  23.008  1.00  0.00    -0.352 N 
ATOM      4  C   UNL A   1      33.310  27.017  22.649  1.00  0.00     0.251 C 
ATOM      5  O   UNL A   1      34.021  27.400  21.722  1.00  0.00    -0.269 OA
ATOM      6  H   UNL A   1      32.139  28.635  22.534  1.00  0.00     0.163 HD
BRANCH   4   7
ATOM      7  C   UNL A   1      33.703  25.797  23.406  1.00  0.00     0.040 A 
ATOM      8  C   UNL A   1      34.009  23.575  25.066  1.00  0.00     0.127 A 
ATOM      9  C   UNL A   1      34.283  24.844  25.567  1.00  0.00     0.048 A 
ATOM     10  C   UNL A   1      33.791  23.400  23.702  1.00  0.00     0.048 A 
ATOM     11  C   UNL A   1      34.090  25.959  24.745  1.00  0.00     0.017 A 
ATOM     12  C   UNL A   1      33.671  24.510  22.865  1.00  0.00     0.017 A 
BRANCH   8  13
ATOM     13  O   UNL A   1      34.060  22.451  25.835  1.00  0.00    -0.449 OA
BRANCH  13  14
ATOM     14  C   UNL A   1      34.073  21.157  25.331  1.00  0.00     0.217 A 
ATOM     15  C   UNL A   1      33.552  17.318  23.414  1.00  0.00     0.088 C 
ATOM     16  C   UNL A   1      33.613  18.623  24.139  1.00  0.00     0.105 A 
ATOM     17  C   UNL A   1      32.524  19.331  24.444  1.00  0.00     0.098 A 
ATOM     18  O   UNL A   1      34.886  19.047  24.457  1.00  0.00    -0.457 OA
ATOM     19  C   UNL A   1      32.687  20.624  25.122  1.00  0.00     0.228 A 
ATOM     20  C   UNL A   1      35.089  20.303  25.027  1.00  0.00     0.180 A 
ATOM     21  O   UNL A   1      31.687  21.233  25.494  1.00  0.00    -0.285 OA
BRANCH  20  22
ATOM     22  C   UNL A   1      36.533  20.540  25.200  1.00  0.00     0.021 A 
ATOM     23  C   UNL A   1      36.985  21.796  25.642  1.00  0.00     0.013 A 
ATOM     24  C   UNL A   1      37.470  19.530  24.939  1.00  0.00     0.013 A 
ATOM     25  C   UNL A   1      38.339  22.005  25.922  1.00  0.00     0.021 A 
ATOM     26  C   UNL A   1      38.827  19.736  25.208  1.00  0.00     0.021 A 
ATOM     27  C   UNL A   1      39.250  20.966  25.719  1.00  0.00     0.067 A 
BRANCH  27  28
ATOM     28  S   UNL A   1      40.933  21.173  26.261  1.00  0.00     0.175 S 
ATOM     29  C   UNL A   1      40.783  21.911  27.862  1.00  0.00     0.163 C 
ATOM     30  O   UNL A   1      41.491  19.848  26.432  1.00  0.00    -0.224 OA
ATOM     31  O   UNL A   1      41.561  22.151  25.389  1.00  0.00    -0.224 OA
ENDBRANCH  27  28
ENDBRANCH  20  22
ENDBRANCH  13  14
ENDBRANCH   8  13
ENDBRANCH   4   7
ENDBRANCH   2   3
ENDBRANCH   1   2
BRANCH   1  32
ATOM     32  C   UNL A   1      31.629  29.694  25.345  1.00  0.00     0.002 C 
BRANCH  32  33
ATOM     33  C   UNL A   1      31.811  30.359  26.710  1.00  0.00     0.002 C 
BRANCH  33  34
ATOM     34  C   UNL A   1      31.579  31.867  26.776  1.00  0.00     0.021 C 
BRANCH  34  35
ATOM     35  C   UNL A   1      32.780  32.712  27.177  1.00  0.00     0.116 C 
BRANCH  35  36
ATOM     36  N   UNL A   1      32.432  34.054  27.616  1.00  0.00    -0.352 N 
ATOM     37  C   UNL A   1      33.029  34.849  28.568  1.00  0.00     0.251 C 
ATOM     38  H   UNL A   1      31.653  34.454  27.165  1.00  0.00     0.163 HD
ATOM     39  O   UNL A   1      32.533  35.928  28.875  1.00  0.00    -0.269 OA
BRANCH  37  40
ATOM     40  C   UNL A   1      34.251  34.381  29.260  1.00  0.00     0.039 A 
ATOM     41  C   UNL A   1      35.506  34.495  28.658  1.00  0.00     0.014 A 
ATOM     42  C   UNL A   1      34.134  33.786  30.521  1.00  0.00     0.014 A 
ATOM     43  C   UNL A   1      36.600  33.846  29.220  1.00  0.00     0.010 A 
ATOM     44  C   UNL A   1      35.259  33.219  31.131  1.00  0.00     0.010 A 
ATOM     45  C   UNL A   1      36.490  33.194  30.460  1.00  0.00    -0.014 A 
BRANCH  45  46
ATOM     46  C   UNL A   1      37.676  32.497  31.027  1.00  0.00     0.031 A 
ATOM     47  C   UNL A   1      38.247  31.271  30.365  1.00  0.00     0.074 A 
ATOM     48  C   UNL A   1      38.279  33.011  32.118  1.00  0.00     0.049 A 
ATOM     49  N   UNL A   1      39.303  30.572  30.702  1.00  0.00    -0.248 NA
ATOM     50  C   UNL A   1      37.550  30.759  29.174  1.00  0.00     0.031 C 
ATOM     51  C   UNL A   1      37.832  34.204  32.841  1.00  0.00     0.029 A 
ATOM     52  N   UNL A   1      39.410  32.619  32.790  1.00  0.00    -0.354 N 
ATOM     53  C   UNL A   1      39.385  29.536  29.780  1.00  0.00     0.074 A 
ATOM     54  C   UNL A   1      38.258  29.675  28.886  1.00  0.00     0.031 C 
ATOM     55  C   UNL A   1      38.712  34.482  33.812  1.00  0.00     0.029 A 
ATOM     56  C   UNL A   1      39.744  33.451  33.831  1.00  0.00     0.049 A 
ATOM     57  H   UNL A   1      39.931  31.819  32.548  1.00  0.00     0.167 HD
ATOM     58  C   UNL A   1      40.325  28.565  29.680  1.00  0.00     0.031 A 
ATOM     59  C   UNL A   1      40.758  33.392  34.716  1.00  0.00     0.031 A 
ATOM     60  C   UNL A   1      41.454  28.435  30.564  1.00  0.00     0.049 A 
ATOM     61  C   UNL A   1      41.756  32.275  34.617  1.00  0.00     0.074 A 
ATOM     62  C   UNL A   1      42.472  27.498  30.520  1.00  0.00     0.029 A 
ATOM     63  N   UNL A   1      41.714  29.259  31.648  1.00  0.00    -0.354 N 
ATOM     64  N   UNL A   1      41.830  31.317  33.723  1.00  0.00    -0.248 NA
ATOM     65  C   UNL A   1      42.808  32.226  35.641  1.00  0.00     0.031 C 
ATOM     66  C   UNL A   1      43.309  27.711  31.617  1.00  0.00     0.029 A 
ATOM     67  C   UNL A   1      42.858  28.829  32.301  1.00  0.00     0.049 A 
ATOM     68  H   UNL A   1      41.168  30.032  31.915  1.00  0.00     0.167 HD
ATOM     69  C   UNL A   1      42.942  30.562  34.069  1.00  0.00     0.074 A 
ATOM     70  C   UNL A   1      43.525  31.184  35.240  1.00  0.00     0.031 C 
ATOM     71  C   UNL A   1      43.430  29.450  33.468  1.00  0.00     0.031 A 
BRANCH  58  72
ATOM     72  C   UNL A   1      40.184  27.546  28.581  1.00  0.00    -0.014 A 
ATOM     73  C   UNL A   1      39.499  26.345  28.829  1.00  0.00     0.009 A 
ATOM     74  C   UNL A   1      40.822  27.717  27.342  1.00  0.00     0.009 A 
ATOM     75  C   UNL A   1      39.469  25.331  27.870  1.00  0.00     0.001 A 
ATOM     76  C   UNL A   1      40.765  26.712  26.372  1.00  0.00     0.001 A 
ATOM     77  C   UNL A   1      40.100  25.517  26.641  1.00  0.00     0.000 A 
ENDBRANCH  58  72
BRANCH  59  78
ATOM     78  C   UNL A   1      40.866  34.441  35.766  1.00  0.00    -0.014 A 
ATOM     79  C   UNL A   1      40.175  34.308  36.982  1.00  0.00     0.009 A 
ATOM     80  C   UNL A   1      41.603  35.611  35.532  1.00  0.00     0.009 A 
ATOM     81  C   UNL A   1      40.186  35.337  37.923  1.00  0.00     0.001 A 
ATOM     82  C   UNL A   1      41.641  36.626  36.491  1.00  0.00     0.001 A 
ATOM     83  C   UNL A   1      40.922  36.495  37.679  1.00  0.00     0.000 A 
ENDBRANCH  59  78
BRANCH  71  84
ATOM     84  C   UNL A   1      44.666  28.819  34.047  1.00  0.00    -0.014 A 
ATOM     85  C   UNL A   1      45.932  29.187  33.559  1.00  0.00     0.009 A 
ATOM     86  C   UNL A   1      44.578  27.782  34.988  1.00  0.00     0.009 A 
ATOM     87  C   UNL A   1      47.078  28.516  33.984  1.00  0.00     0.001 A 
ATOM     88  C   UNL A   1      45.731  27.133  35.435  1.00  0.00     0.001 A 
ATOM     89  C   UNL A   1      46.978  27.492  34.923  1.00  0.00     0.000 A 
ENDBRANCH  71  84
ENDBRANCH  45  46
ENDBRANCH  37  40
ENDBRANCH  35  36
ENDBRANCH  34  35
ENDBRANCH  33  34
ENDBRANCH  32  33
ENDBRANCH   1  32
TORSDOF 17
ENDMDL
MODEL 3
REMARK VINA RESULT:     -12.0      6.723     10.311
REMARK SMILES Cc1cc(=O)c(Oc2ccc(C(=O)NCCCCCCNC(=O)c3ccc(-c4c5nc(c(-c6ccccc6)c6ccc([nH]6)c(-c6ccccc6)c6nc(c(-c7ccccc7)c7ccc4[nH]7)C=C6)C=C5)cc3)cc2)c(-c2ccc(S(C)(=O)=O)cc2)o1
REMARK SMILES IDX 16 1 15 2 14 3 12 4 13 5 11 7 8 8 9 9 73 10 10 11 72 12 7 13
REMARK SMILES IDX 6 14 1 15 2 16 3 17 85 18 4 19 74 20 5 21 75 22 76 23 84 24
REMARK SMILES IDX 77 25 83 26 78 27 79 28 80 29 81 30 82 31 17 32 18 33 19 34
REMARK SMILES IDX 20 35 21 36 22 37 23 39 24 40 25 41 71 42 26 43 70 44 27 45
REMARK SMILES IDX 28 46 29 47 64 48 30 49 69 50 63 51 65 52 31 53 68 54 62 55
REMARK SMILES IDX 61 56 32 58 54 59 39 60 53 61 40 62 43 63 52 64 66 65 41 66
REMARK SMILES IDX 42 67 51 69 67 70 44 71 33 72 34 73 38 74 35 75 37 76 36 77
REMARK SMILES IDX 55 78 56 79 60 80 57 81 59 82 58 83 45 84 46 85 50 86 47 87
REMARK SMILES IDX 49 88 48 89
REMARK H PARENT 14 6 21 38 65 57 43 68
REMARK Flexibility Score: inf
ROOT
ATOM      1  C   UNL A   1      37.741  29.720  28.733  1.00  0.00     0.021 C 
ENDROOT
BRANCH   1   2
ATOM      2  C   UNL A   1      36.263  29.440  28.482  1.00  0.00     0.116 C 
BRANCH   2   3
ATOM      3  N   UNL A   1      35.479  30.567  28.020  1.00  0.00    -0.352 N 
ATOM      4  C   UNL A   1      34.213  30.614  27.481  1.00  0.00     0.251 C 
ATOM      5  O   UNL A   1      33.705  31.710  27.252  1.00  0.00    -0.269 OA
ATOM      6  H   UNL A   1      35.924  31.440  28.105  1.00  0.00     0.163 HD
BRANCH   4   7
ATOM      7  C   UNL A   1      33.480  29.380  27.086  1.00  0.00     0.040 A 
ATOM      8  C   UNL A   1      32.378  26.845  26.698  1.00  0.00     0.127 A 
ATOM      9  C   UNL A   1      33.628  27.135  26.161  1.00  0.00     0.048 A 
ATOM     10  C   UNL A   1      31.601  27.867  27.238  1.00  0.00     0.048 A 
ATOM     11  C   UNL A   1      34.195  28.393  26.391  1.00  0.00     0.017 A 
ATOM     12  C   UNL A   1      32.140  29.144  27.401  1.00  0.00     0.017 A 
BRANCH   8  13
ATOM     13  O   UNL A   1      31.808  25.610  26.619  1.00  0.00    -0.449 OA
BRANCH  13  14
ATOM     14  C   UNL A   1      31.860  24.793  25.498  1.00  0.00     0.217 A 
ATOM     15  C   UNL A   1      32.034  21.726  22.456  1.00  0.00     0.088 C 
ATOM     16  C   UNL A   1      32.098  22.745  23.548  1.00  0.00     0.105 A 
ATOM     17  C   UNL A   1      32.731  22.528  24.702  1.00  0.00     0.098 A 
ATOM     18  O   UNL A   1      31.439  23.925  23.274  1.00  0.00    -0.457 OA
ATOM     19  C   UNL A   1      32.703  23.575  25.733  1.00  0.00     0.228 A 
ATOM     20  C   UNL A   1      31.320  24.909  24.254  1.00  0.00     0.180 A 
ATOM     21  O   UNL A   1      33.365  23.422  26.756  1.00  0.00    -0.285 OA
BRANCH  20  22
ATOM     22  C   UNL A   1      30.515  26.029  23.735  1.00  0.00     0.021 A 
ATOM     23  C   UNL A   1      29.145  26.105  24.041  1.00  0.00     0.013 A 
ATOM     24  C   UNL A   1      31.094  27.032  22.942  1.00  0.00     0.013 A 
ATOM     25  C   UNL A   1      28.391  27.216  23.654  1.00  0.00     0.021 A 
ATOM     26  C   UNL A   1      30.342  28.142  22.546  1.00  0.00     0.021 A 
ATOM     27  C   UNL A   1      29.000  28.238  22.922  1.00  0.00     0.067 A 
BRANCH  27  28
ATOM     28  S   UNL A   1      28.090  29.735  22.605  1.00  0.00     0.175 S 
ATOM     29  C   UNL A   1      29.038  30.995  23.408  1.00  0.00     0.163 C 
ATOM     30  O   UNL A   1      28.150  29.974  21.178  1.00  0.00    -0.224 OA
ATOM     31  O   UNL A   1      26.820  29.636  23.303  1.00  0.00    -0.224 OA
ENDBRANCH  27  28
ENDBRANCH  20  22
ENDBRANCH  13  14
ENDBRANCH   8  13
ENDBRANCH   4   7
ENDBRANCH   2   3
ENDBRANCH   1   2
BRANCH   1  32
ATOM     32  C   UNL A   1      38.733  29.362  27.627  1.00  0.00     0.002 C 
BRANCH  32  33
ATOM     33  C   UNL A   1      39.857  28.386  27.977  1.00  0.00     0.002 C 
BRANCH  33  34
ATOM     34  C   UNL A   1      39.440  26.972  28.378  1.00  0.00     0.021 C 
BRANCH  34  35
ATOM     35  C   UNL A   1      39.554  25.909  27.294  1.00  0.00     0.116 C 
BRANCH  35  36
ATOM     36  N   UNL A   1      39.964  24.607  27.793  1.00  0.00    -0.352 N 
ATOM     37  C   UNL A   1      41.229  24.103  27.996  1.00  0.00     0.251 C 
ATOM     38  H   UNL A   1      39.228  23.993  28.019  1.00  0.00     0.163 HD
ATOM     39  O   UNL A   1      41.384  22.935  28.336  1.00  0.00    -0.269 OA
BRANCH  37  40
ATOM     40  C   UNL A   1      42.412  24.961  27.758  1.00  0.00     0.039 A 
ATOM     41  C   UNL A   1      43.113  25.528  28.824  1.00  0.00     0.014 A 
ATOM     42  C   UNL A   1      42.806  25.229  26.443  1.00  0.00     0.014 A 
ATOM     43  C   UNL A   1      44.070  26.507  28.576  1.00  0.00     0.010 A 
ATOM     44  C   UNL A   1      43.838  26.142  26.197  1.00  0.00     0.010 A 
ATOM     45  C   UNL A   1      44.440  26.832  27.260  1.00  0.00    -0.014 A 
BRANCH  45  46
ATOM     46  C   UNL A   1      45.456  27.893  27.026  1.00  0.00     0.031 A 
ATOM     47  C   UNL A   1      45.075  29.350  27.036  1.00  0.00     0.074 A 
ATOM     48  C   UNL A   1      46.747  27.540  26.863  1.00  0.00     0.049 A 
ATOM     49  N   UNL A   1      45.845  30.401  26.897  1.00  0.00    -0.248 NA
ATOM     50  C   UNL A   1      43.651  29.674  27.225  1.00  0.00     0.031 C 
ATOM     51  C   UNL A   1      47.247  26.164  26.851  1.00  0.00     0.029 A 
ATOM     52  N   UNL A   1      47.876  28.305  26.709  1.00  0.00    -0.354 N 
ATOM     53  C   UNL A   1      45.001  31.503  26.965  1.00  0.00     0.074 A 
ATOM     54  C   UNL A   1      43.656  30.997  27.126  1.00  0.00     0.031 C 
ATOM     55  C   UNL A   1      48.584  26.183  26.762  1.00  0.00     0.029 A 
ATOM     56  C   UNL A   1      49.033  27.565  26.637  1.00  0.00     0.049 A 
ATOM     57  H   UNL A   1      47.860  29.288  26.656  1.00  0.00     0.167 HD
ATOM     58  C   UNL A   1      45.322  32.819  26.912  1.00  0.00     0.031 A 
ATOM     59  C   UNL A   1      50.315  27.948  26.475  1.00  0.00     0.031 A 
ATOM     60  C   UNL A   1      46.662  33.321  26.763  1.00  0.00     0.049 A 
ATOM     61  C   UNL A   1      50.637  29.410  26.365  1.00  0.00     0.074 A 
ATOM     62  C   UNL A   1      47.083  34.639  26.728  1.00  0.00     0.029 A 
ATOM     63  N   UNL A   1      47.795  32.535  26.623  1.00  0.00    -0.354 N 
ATOM     64  N   UNL A   1      49.828  30.438  26.454  1.00  0.00    -0.248 NA
ATOM     65  C   UNL A   1      52.043  29.767  26.132  1.00  0.00     0.031 C 
ATOM     66  C   UNL A   1      48.460  34.652  26.496  1.00  0.00     0.029 A 
ATOM     67  C   UNL A   1      48.911  33.342  26.467  1.00  0.00     0.049 A 
ATOM     68  H   UNL A   1      47.806  31.551  26.633  1.00  0.00     0.167 HD
ATOM     69  C   UNL A   1      50.627  31.563  26.303  1.00  0.00     0.074 A 
ATOM     70  C   UNL A   1      51.988  31.093  26.138  1.00  0.00     0.031 C 
ATOM     71  C   UNL A   1      50.261  32.868  26.298  1.00  0.00     0.031 A 
BRANCH  58  72
ATOM     72  C   UNL A   1      44.209  33.829  27.005  1.00  0.00    -0.014 A 
ATOM     73  C   UNL A   1      43.687  34.400  25.833  1.00  0.00     0.009 A 
ATOM     74  C   UNL A   1      43.755  34.301  28.247  1.00  0.00     0.009 A 
ATOM     75  C   UNL A   1      42.750  35.433  25.900  1.00  0.00     0.001 A 
ATOM     76  C   UNL A   1      42.794  35.314  28.311  1.00  0.00     0.001 A 
ATOM     77  C   UNL A   1      42.302  35.887  27.139  1.00  0.00     0.000 A 
ENDBRANCH  58  72
BRANCH  59  78
ATOM     78  C   UNL A   1      51.379  26.909  26.417  1.00  0.00    -0.014 A 
ATOM     79  C   UNL A   1      52.196  26.663  27.533  1.00  0.00     0.009 A 
ATOM     80  C   UNL A   1      51.629  26.209  25.228  1.00  0.00     0.009 A 
ATOM     81  C   UNL A   1      53.263  25.768  27.449  1.00  0.00     0.001 A 
ATOM     82  C   UNL A   1      52.677  25.288  25.157  1.00  0.00     0.001 A 
ATOM     83  C   UNL A   1      53.502  25.079  26.262  1.00  0.00     0.000 A 
ENDBRANCH  59  78
BRANCH  71  84
ATOM     84  C   UNL A   1      51.336  33.903  26.119  1.00  0.00    -0.014 A 
ATOM     85  C   UNL A   1      51.683  34.331  24.826  1.00  0.00     0.009 A 
ATOM     86  C   UNL A   1      52.083  34.369  27.212  1.00  0.00     0.009 A 
ATOM     87  C   UNL A   1      52.769  35.185  24.630  1.00  0.00     0.001 A 
ATOM     88  C   UNL A   1      53.150  35.249  27.014  1.00  0.00     0.001 A 
ATOM     89  C   UNL A   1      53.499  35.645  25.723  1.00  0.00     0.000 A 
ENDBRANCH  71  84
ENDBRANCH  45  46
ENDBRANCH  37  40
ENDBRANCH  35  36
ENDBRANCH  34  35
ENDBRANCH  33  34
ENDBRANCH  32  33
ENDBRANCH   1  32
TORSDOF 17
ENDMDL
