MODEL 1
REMARK VINA RESULT:      -9.8      0.000      0.000
REMARK SMILES Cc1noc(C)c1C[NH2+][C@H](C)[C@H](C)C(=O)NCCCCCCNC(=O)c1ccc(-c2c3nc(c(-c4ccccc4)c4ccc([nH]4)c(-c4ccccc4)c4nc(c(-c5ccccc5)c5ccc2[nH]5)C=C4)C=C3)cc1
REMARK SMILES IDX 18 1 17 2 16 3 14 4 15 5 12 7 13 8 10 9 11 10 9 11 8 14 7 15
REMARK SMILES IDX 1 16 2 17 3 18 4 19 5 20 6 21 19 22 20 23 21 24 22 25 23 26
REMARK SMILES IDX 24 27 25 29 26 30 27 31 73 32 28 33 72 34 29 35 30 36 31 37
REMARK SMILES IDX 66 38 32 39 71 40 65 41 67 42 33 43 70 44 64 45 63 46 34 48
REMARK SMILES IDX 56 49 41 50 55 51 42 52 45 53 54 54 68 55 43 56 44 57 53 59
REMARK SMILES IDX 69 60 46 61 35 62 36 63 40 64 37 65 39 66 38 67 57 68 58 69
REMARK SMILES IDX 62 70 59 71 61 72 60 73 47 74 48 75 52 76 49 77 51 78 50 79
REMARK H PARENT 16 6 9 12 9 13 23 28 67 47 45 58
REMARK Flexibility Score: inf
ROOT
ATOM      1  C   UNL A   1      34.927  22.126  24.199  1.00  0.00     0.021 C 
ENDROOT
BRANCH   1   2
ATOM      2  C   UNL A   1      33.633  21.537  24.754  1.00  0.00     0.116 C 
BRANCH   2   3
ATOM      3  N   UNL A   1      33.457  21.847  26.158  1.00  0.00    -0.356 N 
ATOM      4  C   UNL A   1      32.473  22.519  26.810  1.00  0.00     0.228 C 
ATOM      5  O   UNL A   1      32.574  22.622  28.035  1.00  0.00    -0.275 OA
ATOM      6  H   UNL A   1      34.177  21.513  26.741  1.00  0.00     0.163 HD
BRANCH   4   7
ATOM      7  C   UNL A   1      31.271  23.115  26.080  1.00  0.00     0.133 C 
ATOM      8  C   UNL A   1      30.025  23.114  26.973  1.00  0.00     0.024 C 
BRANCH   7   9
ATOM      9  C   UNL A   1      31.610  24.484  25.443  1.00  0.00     0.191 C 
ATOM     10  C   UNL A   1      30.335  25.268  25.101  1.00  0.00     0.076 C 
BRANCH   9  11
ATOM     11  N   UNL A   1      32.407  25.345  26.332  1.00  0.00    -0.339 N 
ATOM     12  H   UNL A   1      31.885  26.202  26.516  1.00  0.00     0.346 HD
ATOM     13  H   UNL A   1      32.585  24.828  27.193  1.00  0.00     0.346 HD
BRANCH  11  14
ATOM     14  C   UNL A   1      33.696  25.698  25.747  1.00  0.00     0.303 C 
BRANCH  14  15
ATOM     15  C   UNL A   1      33.535  26.947  24.966  1.00  0.00     0.071 A 
ATOM     16  C   UNL A   1      33.389  28.728  26.871  1.00  0.00     0.071 C 
ATOM     17  C   UNL A   1      33.387  28.274  25.460  1.00  0.00     0.090 A 
ATOM     18  N   UNL A   1      33.232  29.155  24.465  1.00  0.00    -0.085 NA
ATOM     19  O   UNL A   1      33.278  28.416  23.299  1.00  0.00    -0.361 OA
ATOM     20  C   UNL A   1      33.455  27.103  23.599  1.00  0.00     0.142 A 
ATOM     21  C   UNL A   1      33.511  26.174  22.455  1.00  0.00     0.091 C 
ENDBRANCH  14  15
ENDBRANCH  11  14
ENDBRANCH   9  11
ENDBRANCH   7   9
ENDBRANCH   4   7
ENDBRANCH   2   3
ENDBRANCH   1   2
BRANCH   1  22
ATOM     22  C   UNL A   1      36.203  21.649  24.900  1.00  0.00     0.002 C 
BRANCH  22  23
ATOM     23  C   UNL A   1      36.419  20.133  24.920  1.00  0.00     0.002 C 
BRANCH  23  24
ATOM     24  C   UNL A   1      37.855  19.664  24.667  1.00  0.00     0.021 C 
BRANCH  24  25
ATOM     25  C   UNL A   1      38.886  20.126  25.691  1.00  0.00     0.116 C 
BRANCH  25  26
ATOM     26  N   UNL A   1      40.042  19.252  25.758  1.00  0.00    -0.352 N 
ATOM     27  C   UNL A   1      41.333  19.544  26.105  1.00  0.00     0.251 C 
ATOM     28  H   UNL A   1      39.872  18.312  25.518  1.00  0.00     0.163 HD
ATOM     29  O   UNL A   1      42.208  18.682  25.978  1.00  0.00    -0.269 OA
BRANCH  27  30
ATOM     30  C   UNL A   1      41.701  20.883  26.615  1.00  0.00     0.039 A 
ATOM     31  C   UNL A   1      41.575  21.129  27.985  1.00  0.00     0.014 A 
ATOM     32  C   UNL A   1      42.113  21.908  25.758  1.00  0.00     0.014 A 
ATOM     33  C   UNL A   1      41.883  22.390  28.499  1.00  0.00     0.010 A 
ATOM     34  C   UNL A   1      42.481  23.149  26.279  1.00  0.00     0.010 A 
ATOM     35  C   UNL A   1      42.346  23.408  27.651  1.00  0.00    -0.014 A 
BRANCH  35  36
ATOM     36  C   UNL A   1      42.640  24.760  28.186  1.00  0.00     0.031 A 
ATOM     37  C   UNL A   1      44.053  25.143  28.536  1.00  0.00     0.074 A 
ATOM     38  C   UNL A   1      41.640  25.640  28.375  1.00  0.00     0.049 A 
ATOM     39  N   UNL A   1      44.511  26.280  28.999  1.00  0.00    -0.248 NA
ATOM     40  C   UNL A   1      45.084  24.106  28.366  1.00  0.00     0.031 C 
ATOM     41  C   UNL A   1      40.222  25.381  28.117  1.00  0.00     0.029 A 
ATOM     42  N   UNL A   1      41.665  26.935  28.826  1.00  0.00    -0.354 N 
ATOM     43  C   UNL A   1      45.873  26.087  29.191  1.00  0.00     0.074 A 
ATOM     44  C   UNL A   1      46.161  24.714  28.840  1.00  0.00     0.031 C 
ATOM     45  C   UNL A   1      39.518  26.494  28.382  1.00  0.00     0.029 A 
ATOM     46  C   UNL A   1      40.430  27.535  28.848  1.00  0.00     0.049 A 
ATOM     47  H   UNL A   1      42.491  27.392  29.107  1.00  0.00     0.167 HD
ATOM     48  C   UNL A   1      46.808  26.978  29.601  1.00  0.00     0.031 A 
ATOM     49  C   UNL A   1      40.075  28.787  29.190  1.00  0.00     0.031 A 
ATOM     50  C   UNL A   1      46.533  28.350  29.929  1.00  0.00     0.049 A 
ATOM     51  C   UNL A   1      41.134  29.768  29.606  1.00  0.00     0.074 A 
ATOM     52  C   UNL A   1      47.419  29.343  30.309  1.00  0.00     0.029 A 
ATOM     53  N   UNL A   1      45.272  28.925  29.910  1.00  0.00    -0.354 N 
ATOM     54  N   UNL A   1      42.427  29.587  29.723  1.00  0.00    -0.248 NA
ATOM     55  C   UNL A   1      40.684  31.132  29.916  1.00  0.00     0.031 C 
ATOM     56  C   UNL A   1      46.688  30.513  30.548  1.00  0.00     0.029 A 
ATOM     57  C   UNL A   1      45.354  30.256  30.276  1.00  0.00     0.049 A 
ATOM     58  H   UNL A   1      44.440  28.455  29.670  1.00  0.00     0.167 HD
ATOM     59  C   UNL A   1      42.948  30.821  30.090  1.00  0.00     0.074 A 
ATOM     60  C   UNL A   1      41.834  31.743  30.164  1.00  0.00     0.031 C 
ATOM     61  C   UNL A   1      44.236  31.160  30.342  1.00  0.00     0.031 A 
BRANCH  48  62
ATOM     62  C   UNL A   1      48.221  26.483  29.717  1.00  0.00    -0.014 A 
ATOM     63  C   UNL A   1      49.118  26.588  28.641  1.00  0.00     0.009 A 
ATOM     64  C   UNL A   1      48.669  25.918  30.921  1.00  0.00     0.009 A 
ATOM     65  C   UNL A   1      50.421  26.100  28.756  1.00  0.00     0.001 A 
ATOM     66  C   UNL A   1      49.981  25.455  31.042  1.00  0.00     0.001 A 
ATOM     67  C   UNL A   1      50.853  25.538  29.956  1.00  0.00     0.000 A 
ENDBRANCH  48  62
BRANCH  49  68
ATOM     68  C   UNL A   1      38.652  29.202  29.105  1.00  0.00    -0.014 A 
ATOM     69  C   UNL A   1      38.103  29.604  27.877  1.00  0.00     0.009 A 
ATOM     70  C   UNL A   1      37.840  29.206  30.248  1.00  0.00     0.009 A 
ATOM     71  C   UNL A   1      36.773  30.025  27.801  1.00  0.00     0.001 A 
ATOM     72  C   UNL A   1      36.504  29.605  30.164  1.00  0.00     0.001 A 
ATOM     73  C   UNL A   1      35.975  30.023  28.944  1.00  0.00     0.000 A 
ENDBRANCH  49  68
BRANCH  61  74
ATOM     74  C   UNL A   1      44.508  32.597  30.681  1.00  0.00    -0.014 A 
ATOM     75  C   UNL A   1      44.651  33.017  32.012  1.00  0.00     0.009 A 
ATOM     76  C   UNL A   1      44.645  33.539  29.650  1.00  0.00     0.009 A 
ATOM     77  C   UNL A   1      44.888  34.361  32.305  1.00  0.00     0.001 A 
ATOM     78  C   UNL A   1      44.907  34.877  29.944  1.00  0.00     0.001 A 
ATOM     79  C   UNL A   1      45.018  35.289  31.271  1.00  0.00     0.000 A 
ENDBRANCH  61  74
ENDBRANCH  35  36
ENDBRANCH  27  30
ENDBRANCH  25  26
ENDBRANCH  24  25
ENDBRANCH  23  24
ENDBRANCH  22  23
ENDBRANCH   1  22
TORSDOF 17
ENDMDL
MODEL 2
REMARK VINA RESULT:      -9.6      1.037      6.085
REMARK SMILES Cc1noc(C)c1C[NH2+][C@H](C)[C@H](C)C(=O)NCCCCCCNC(=O)c1ccc(-c2c3nc(c(-c4ccccc4)c4ccc([nH]4)c(-c4ccccc4)c4nc(c(-c5ccccc5)c5ccc2[nH]5)C=C4)C=C3)cc1
REMARK SMILES IDX 18 1 17 2 16 3 14 4 15 5 12 7 13 8 10 9 11 10 9 11 8 14 7 15
REMARK SMILES IDX 1 16 2 17 3 18 4 19 5 20 6 21 19 22 20 23 21 24 22 25 23 26
REMARK SMILES IDX 24 27 25 29 26 30 27 31 73 32 28 33 72 34 29 35 30 36 31 37
REMARK SMILES IDX 66 38 32 39 71 40 65 41 67 42 33 43 70 44 64 45 63 46 34 48
REMARK SMILES IDX 56 49 41 50 55 51 42 52 45 53 54 54 68 55 43 56 44 57 53 59
REMARK SMILES IDX 69 60 46 61 35 62 36 63 40 64 37 65 39 66 38 67 57 68 58 69
REMARK SMILES IDX 62 70 59 71 61 72 60 73 47 74 48 75 52 76 49 77 51 78 50 79
REMARK H PARENT 16 6 9 12 9 13 23 28 67 47 45 58
REMARK Flexibility Score: inf
ROOT
ATOM      1  C   UNL A   1      34.083  21.143  24.392  1.00  0.00     0.021 C 
ENDROOT
BRANCH   1   2
ATOM      2  C   UNL A   1      32.699  20.847  24.964  1.00  0.00     0.116 C 
BRANCH   2   3
ATOM      3  N   UNL A   1      32.530  21.409  26.288  1.00  0.00    -0.356 N 
ATOM      4  C   UNL A   1      32.285  22.681  26.695  1.00  0.00     0.228 C 
ATOM      5  O   UNL A   1      32.170  22.874  27.909  1.00  0.00    -0.275 OA
ATOM      6  H   UNL A   1      32.608  20.755  27.020  1.00  0.00     0.163 HD
BRANCH   4   7
ATOM      7  C   UNL A   1      32.132  23.838  25.711  1.00  0.00     0.133 C 
ATOM      8  C   UNL A   1      30.704  24.395  25.726  1.00  0.00     0.024 C 
BRANCH   7   9
ATOM      9  C   UNL A   1      33.243  24.900  25.900  1.00  0.00     0.191 C 
ATOM     10  C   UNL A   1      34.248  24.865  24.741  1.00  0.00     0.076 C 
BRANCH   9  11
ATOM     11  N   UNL A   1      32.714  26.273  25.956  1.00  0.00    -0.339 N 
ATOM     12  H   UNL A   1      31.696  26.236  25.912  1.00  0.00     0.346 HD
ATOM     13  H   UNL A   1      33.032  26.696  26.830  1.00  0.00     0.346 HD
BRANCH  11  14
ATOM     14  C   UNL A   1      33.202  27.098  24.856  1.00  0.00     0.303 C 
BRANCH  14  15
ATOM     15  C   UNL A   1      32.036  27.635  24.116  1.00  0.00     0.071 A 
ATOM     16  C   UNL A   1      31.565  29.842  25.430  1.00  0.00     0.071 C 
ATOM     17  C   UNL A   1      31.311  28.832  24.376  1.00  0.00     0.090 A 
ATOM     18  N   UNL A   1      30.293  28.986  23.521  1.00  0.00    -0.085 NA
ATOM     19  O   UNL A   1      30.338  27.890  22.683  1.00  0.00    -0.361 OA
ATOM     20  C   UNL A   1      31.373  27.086  23.040  1.00  0.00     0.142 A 
ATOM     21  C   UNL A   1      31.548  25.855  22.245  1.00  0.00     0.091 C 
ENDBRANCH  14  15
ENDBRANCH  11  14
ENDBRANCH   9  11
ENDBRANCH   7   9
ENDBRANCH   4   7
ENDBRANCH   2   3
ENDBRANCH   1   2
BRANCH   1  22
ATOM     22  C   UNL A   1      35.217  20.300  24.986  1.00  0.00     0.002 C 
BRANCH  22  23
ATOM     23  C   UNL A   1      36.634  20.810  24.710  1.00  0.00     0.002 C 
BRANCH  23  24
ATOM     24  C   UNL A   1      37.761  19.804  24.959  1.00  0.00     0.021 C 
BRANCH  24  25
ATOM     25  C   UNL A   1      38.942  20.331  25.769  1.00  0.00     0.116 C 
BRANCH  25  26
ATOM     26  N   UNL A   1      40.038  19.384  25.843  1.00  0.00    -0.352 N 
ATOM     27  C   UNL A   1      41.358  19.603  26.128  1.00  0.00     0.251 C 
ATOM     28  H   UNL A   1      39.797  18.446  25.661  1.00  0.00     0.163 HD
ATOM     29  O   UNL A   1      42.168  18.677  26.018  1.00  0.00    -0.269 OA
BRANCH  27  30
ATOM     30  C   UNL A   1      41.835  20.938  26.551  1.00  0.00     0.039 A 
ATOM     31  C   UNL A   1      41.836  21.241  27.915  1.00  0.00     0.014 A 
ATOM     32  C   UNL A   1      42.225  21.907  25.622  1.00  0.00     0.014 A 
ATOM     33  C   UNL A   1      42.249  22.502  28.350  1.00  0.00     0.010 A 
ATOM     34  C   UNL A   1      42.698  23.145  26.060  1.00  0.00     0.010 A 
ATOM     35  C   UNL A   1      42.691  23.461  27.427  1.00  0.00    -0.014 A 
BRANCH  35  36
ATOM     36  C   UNL A   1      43.097  24.814  27.880  1.00  0.00     0.031 A 
ATOM     37  C   UNL A   1      42.053  25.856  28.178  1.00  0.00     0.074 A 
ATOM     38  C   UNL A   1      44.402  25.116  28.008  1.00  0.00     0.049 A 
ATOM     39  N   UNL A   1      42.210  27.086  28.601  1.00  0.00    -0.248 NA
ATOM     40  C   UNL A   1      40.649  25.475  27.951  1.00  0.00     0.031 C 
ATOM     41  C   UNL A   1      45.515  24.211  27.711  1.00  0.00     0.029 A 
ATOM     42  N   UNL A   1      45.013  26.270  28.428  1.00  0.00    -0.354 N 
ATOM     43  C   UNL A   1      40.932  27.627  28.671  1.00  0.00     0.074 A 
ATOM     44  C   UNL A   1      40.016  26.609  28.204  1.00  0.00     0.031 C 
ATOM     45  C   UNL A   1      46.672  24.835  27.989  1.00  0.00     0.029 A 
ATOM     46  C   UNL A   1      46.383  26.186  28.463  1.00  0.00     0.049 A 
ATOM     47  H   UNL A   1      44.517  27.082  28.680  1.00  0.00     0.167 HD
ATOM     48  C   UNL A   1      40.550  28.852  29.105  1.00  0.00     0.031 A 
ATOM     49  C   UNL A   1      47.303  27.089  28.849  1.00  0.00     0.031 A 
ATOM     50  C   UNL A   1      41.453  29.858  29.591  1.00  0.00     0.049 A 
ATOM     51  C   UNL A   1      46.853  28.428  29.361  1.00  0.00     0.074 A 
ATOM     52  C   UNL A   1      41.159  31.112  30.098  1.00  0.00     0.029 A 
ATOM     53  N   UNL A   1      42.832  29.721  29.638  1.00  0.00    -0.354 N 
ATOM     54  N   UNL A   1      45.637  28.901  29.480  1.00  0.00    -0.248 NA
ATOM     55  C   UNL A   1      47.905  29.348  29.816  1.00  0.00     0.031 C 
ATOM     56  C   UNL A   1      42.364  31.746  30.423  1.00  0.00     0.029 A 
ATOM     57  C   UNL A   1      43.403  30.869  30.157  1.00  0.00     0.049 A 
ATOM     58  H   UNL A   1      43.330  28.924  29.345  1.00  0.00     0.167 HD
ATOM     59  C   UNL A   1      45.775  30.160  30.049  1.00  0.00     0.074 A 
ATOM     60  C   UNL A   1      47.191  30.371  30.262  1.00  0.00     0.031 C 
ATOM     61  C   UNL A   1      44.814  31.061  30.367  1.00  0.00     0.031 A 
BRANCH  48  62
ATOM     62  C   UNL A   1      39.081  29.164  29.068  1.00  0.00    -0.014 A 
ATOM     63  C   UNL A   1      38.489  29.734  27.928  1.00  0.00     0.009 A 
ATOM     64  C   UNL A   1      38.275  28.872  30.178  1.00  0.00     0.009 A 
ATOM     65  C   UNL A   1      37.127  30.043  27.918  1.00  0.00     0.001 A 
ATOM     66  C   UNL A   1      36.908  29.156  30.155  1.00  0.00     0.001 A 
ATOM     67  C   UNL A   1      36.337  29.750  29.030  1.00  0.00     0.000 A 
ENDBRANCH  48  62
BRANCH  49  68
ATOM     68  C   UNL A   1      48.745  26.740  28.813  1.00  0.00    -0.014 A 
ATOM     69  C   UNL A   1      49.475  26.864  27.620  1.00  0.00     0.009 A 
ATOM     70  C   UNL A   1      49.397  26.275  29.965  1.00  0.00     0.009 A 
ATOM     71  C   UNL A   1      50.825  26.507  27.576  1.00  0.00     0.001 A 
ATOM     72  C   UNL A   1      50.753  25.941  29.924  1.00  0.00     0.001 A 
ATOM     73  C   UNL A   1      51.462  26.048  28.728  1.00  0.00     0.000 A 
ENDBRANCH  49  68
BRANCH  61  74
ATOM     74  C   UNL A   1      45.264  32.338  31.016  1.00  0.00    -0.014 A 
ATOM     75  C   UNL A   1      45.779  33.399  30.256  1.00  0.00     0.009 A 
ATOM     76  C   UNL A   1      45.151  32.486  32.407  1.00  0.00     0.009 A 
ATOM     77  C   UNL A   1      46.208  34.570  30.882  1.00  0.00     0.001 A 
ATOM     78  C   UNL A   1      45.556  33.668  33.027  1.00  0.00     0.001 A 
ATOM     79  C   UNL A   1      46.094  34.705  32.267  1.00  0.00     0.000 A 
ENDBRANCH  61  74
ENDBRANCH  35  36
ENDBRANCH  27  30
ENDBRANCH  25  26
ENDBRANCH  24  25
ENDBRANCH  23  24
ENDBRANCH  22  23
ENDBRANCH   1  22
TORSDOF 17
ENDMDL
MODEL 3
REMARK VINA RESULT:      -9.6      5.276     10.167
REMARK SMILES Cc1noc(C)c1C[NH2+][C@H](C)[C@H](C)C(=O)NCCCCCCNC(=O)c1ccc(-c2c3nc(c(-c4ccccc4)c4ccc([nH]4)c(-c4ccccc4)c4nc(c(-c5ccccc5)c5ccc2[nH]5)C=C4)C=C3)cc1
REMARK SMILES IDX 18 1 17 2 16 3 14 4 15 5 12 7 13 8 10 9 11 10 9 11 8 14 7 15
REMARK SMILES IDX 1 16 2 17 3 18 4 19 5 20 6 21 19 22 20 23 21 24 22 25 23 26
REMARK SMILES IDX 24 27 25 29 26 30 27 31 73 32 28 33 72 34 29 35 30 36 31 37
REMARK SMILES IDX 66 38 32 39 71 40 65 41 67 42 33 43 70 44 64 45 63 46 34 48
REMARK SMILES IDX 56 49 41 50 55 51 42 52 45 53 54 54 68 55 43 56 44 57 53 59
REMARK SMILES IDX 69 60 46 61 35 62 36 63 40 64 37 65 39 66 38 67 57 68 58 69
REMARK SMILES IDX 62 70 59 71 61 72 60 73 47 74 48 75 52 76 49 77 51 78 50 79
REMARK H PARENT 16 6 9 12 9 13 23 28 67 47 45 58
REMARK Flexibility Score: inf
ROOT
ATOM      1  C   UNL A   1      35.900  31.871  28.261  1.00  0.00     0.021 C 
ENDROOT
BRANCH   1   2
ATOM      2  C   UNL A   1      35.089  30.746  27.626  1.00  0.00     0.116 C 
BRANCH   2   3
ATOM      3  N   UNL A   1      33.708  31.129  27.412  1.00  0.00    -0.356 N 
ATOM      4  C   UNL A   1      32.681  30.475  26.810  1.00  0.00     0.228 C 
ATOM      5  O   UNL A   1      31.587  31.043  26.784  1.00  0.00    -0.275 OA
ATOM      6  H   UNL A   1      33.475  32.019  27.763  1.00  0.00     0.163 HD
BRANCH   4   7
ATOM      7  C   UNL A   1      32.845  29.084  26.202  1.00  0.00     0.133 C 
ATOM      8  C   UNL A   1      31.757  28.127  26.705  1.00  0.00     0.024 C 
BRANCH   7   9
ATOM      9  C   UNL A   1      32.989  29.146  24.662  1.00  0.00     0.191 C 
ATOM     10  C   UNL A   1      33.235  27.752  24.070  1.00  0.00     0.076 C 
BRANCH   9  11
ATOM     11  N   UNL A   1      31.788  29.679  23.998  1.00  0.00    -0.339 N 
ATOM     12  H   UNL A   1      31.026  29.713  24.675  1.00  0.00     0.346 HD
ATOM     13  H   UNL A   1      32.011  30.610  23.644  1.00  0.00     0.346 HD
BRANCH  11  14
ATOM     14  C   UNL A   1      31.373  28.857  22.866  1.00  0.00     0.303 C 
BRANCH  14  15
ATOM     15  C   UNL A   1      29.900  28.704  22.908  1.00  0.00     0.071 A 
ATOM     16  C   UNL A   1      29.656  26.397  24.109  1.00  0.00     0.071 C 
ATOM     17  C   UNL A   1      29.148  27.619  23.441  1.00  0.00     0.090 A 
ATOM     18  N   UNL A   1      27.833  27.805  23.278  1.00  0.00    -0.085 NA
ATOM     19  O   UNL A   1      27.703  29.020  22.635  1.00  0.00    -0.361 OA
ATOM     20  C   UNL A   1      28.932  29.552  22.413  1.00  0.00     0.142 A 
ATOM     21  C   UNL A   1      28.966  30.851  21.716  1.00  0.00     0.091 C 
ENDBRANCH  14  15
ENDBRANCH  11  14
ENDBRANCH   9  11
ENDBRANCH   7   9
ENDBRANCH   4   7
ENDBRANCH   2   3
ENDBRANCH   1   2
BRANCH   1  22
ATOM     22  C   UNL A   1      35.068  32.933  28.988  1.00  0.00     0.002 C 
BRANCH  22  23
ATOM     23  C   UNL A   1      35.262  34.372  28.503  1.00  0.00     0.002 C 
BRANCH  23  24
ATOM     24  C   UNL A   1      34.108  35.334  28.800  1.00  0.00     0.021 C 
BRANCH  24  25
ATOM     25  C   UNL A   1      32.931  34.731  29.559  1.00  0.00     0.116 C 
BRANCH  25  26
ATOM     26  N   UNL A   1      32.585  35.486  30.749  1.00  0.00    -0.352 N 
ATOM     27  C   UNL A   1      33.181  35.488  31.980  1.00  0.00     0.251 C 
ATOM     28  H   UNL A   1      31.808  36.084  30.656  1.00  0.00     0.163 HD
ATOM     29  O   UNL A   1      32.657  36.111  32.909  1.00  0.00    -0.269 OA
BRANCH  27  30
ATOM     30  C   UNL A   1      34.435  34.741  32.222  1.00  0.00     0.039 A 
ATOM     31  C   UNL A   1      34.344  33.423  32.678  1.00  0.00     0.014 A 
ATOM     32  C   UNL A   1      35.689  35.338  32.059  1.00  0.00     0.014 A 
ATOM     33  C   UNL A   1      35.506  32.697  32.947  1.00  0.00     0.010 A 
ATOM     34  C   UNL A   1      36.849  34.592  32.267  1.00  0.00     0.010 A 
ATOM     35  C   UNL A   1      36.768  33.273  32.737  1.00  0.00    -0.014 A 
BRANCH  35  36
ATOM     36  C   UNL A   1      38.004  32.517  33.055  1.00  0.00     0.031 A 
ATOM     37  C   UNL A   1      38.738  32.777  34.343  1.00  0.00     0.074 A 
ATOM     38  C   UNL A   1      38.481  31.611  32.182  1.00  0.00     0.049 A 
ATOM     39  N   UNL A   1      39.823  32.207  34.806  1.00  0.00    -0.248 NA
ATOM     40  C   UNL A   1      38.194  33.829  35.217  1.00  0.00     0.031 C 
ATOM     41  C   UNL A   1      37.890  31.295  30.880  1.00  0.00     0.029 A 
ATOM     42  N   UNL A   1      39.572  30.784  32.262  1.00  0.00    -0.354 N 
ATOM     43  C   UNL A   1      40.099  32.844  36.009  1.00  0.00     0.074 A 
ATOM     44  C   UNL A   1      39.097  33.872  36.184  1.00  0.00     0.031 C 
ATOM     45  C   UNL A   1      38.608  30.319  30.298  1.00  0.00     0.029 A 
ATOM     46  C   UNL A   1      39.718  29.957  31.176  1.00  0.00     0.049 A 
ATOM     47  H   UNL A   1      40.193  30.784  33.027  1.00  0.00     0.167 HD
ATOM     48  C   UNL A   1      41.084  32.584  36.901  1.00  0.00     0.031 A 
ATOM     49  C   UNL A   1      40.633  29.004  30.921  1.00  0.00     0.031 A 
ATOM     50  C   UNL A   1      42.069  31.548  36.745  1.00  0.00     0.049 A 
ATOM     51  C   UNL A   1      41.695  28.708  31.943  1.00  0.00     0.074 A 
ATOM     52  C   UNL A   1      43.078  31.175  37.616  1.00  0.00     0.029 A 
ATOM     53  N   UNL A   1      42.163  30.713  35.642  1.00  0.00    -0.354 N 
ATOM     54  N   UNL A   1      41.905  29.278  33.104  1.00  0.00    -0.248 NA
ATOM     55  C   UNL A   1      42.630  27.621  31.626  1.00  0.00     0.031 C 
ATOM     56  C   UNL A   1      43.801  30.132  37.025  1.00  0.00     0.029 A 
ATOM     57  C   UNL A   1      43.215  29.831  35.806  1.00  0.00     0.049 A 
ATOM     58  H   UNL A   1      41.567  30.744  34.858  1.00  0.00     0.167 HD
ATOM     59  C   UNL A   1      42.976  28.599  33.669  1.00  0.00     0.074 A 
ATOM     60  C   UNL A   1      43.363  27.569  32.728  1.00  0.00     0.031 C 
ATOM     61  C   UNL A   1      43.585  28.809  34.861  1.00  0.00     0.031 A 
BRANCH  48  62
ATOM     62  C   UNL A   1      41.139  33.444  38.132  1.00  0.00    -0.014 A 
ATOM     63  C   UNL A   1      41.902  34.624  38.158  1.00  0.00     0.009 A 
ATOM     64  C   UNL A   1      40.408  33.081  39.273  1.00  0.00     0.009 A 
ATOM     65  C   UNL A   1      41.963  35.400  39.318  1.00  0.00     0.001 A 
ATOM     66  C   UNL A   1      40.450  33.874  40.422  1.00  0.00     0.001 A 
ATOM     67  C   UNL A   1      41.235  35.027  40.447  1.00  0.00     0.000 A 
ENDBRANCH  48  62
BRANCH  49  68
ATOM     68  C   UNL A   1      40.558  28.222  29.662  1.00  0.00    -0.014 A 
ATOM     69  C   UNL A   1      41.304  28.613  28.539  1.00  0.00     0.009 A 
ATOM     70  C   UNL A   1      39.738  27.088  29.573  1.00  0.00     0.009 A 
ATOM     71  C   UNL A   1      41.211  27.897  27.344  1.00  0.00     0.001 A 
ATOM     72  C   UNL A   1      39.665  26.360  28.384  1.00  0.00     0.001 A 
ATOM     73  C   UNL A   1      40.394  26.770  27.268  1.00  0.00     0.000 A 
ENDBRANCH  49  68
BRANCH  61  74
ATOM     74  C   UNL A   1      44.705  27.880  35.229  1.00  0.00    -0.014 A 
ATOM     75  C   UNL A   1      44.461  26.681  35.917  1.00  0.00     0.009 A 
ATOM     76  C   UNL A   1      46.021  28.200  34.861  1.00  0.00     0.009 A 
ATOM     77  C   UNL A   1      45.520  25.841  36.263  1.00  0.00     0.001 A 
ATOM     78  C   UNL A   1      47.074  27.346  35.186  1.00  0.00     0.001 A 
ATOM     79  C   UNL A   1      46.825  26.172  35.896  1.00  0.00     0.000 A 
ENDBRANCH  61  74
ENDBRANCH  35  36
ENDBRANCH  27  30
ENDBRANCH  25  26
ENDBRANCH  24  25
ENDBRANCH  23  24
ENDBRANCH  22  23
ENDBRANCH   1  22
TORSDOF 17
ENDMDL
