MODEL 1
REMARK VINA RESULT:     -10.6      0.000      0.000
REMARK SMILES O=C(CCc1cccnc1)Nc1ccsc1C(=O)NCCCCCCNC(=O)c1ccc(-c2c3nc(c(-c4ccccc4)c4ccc([nH]4)c(-c4ccccc4)c4nc(c(-c5ccccc5)c5ccc2[nH]5)C=C4)C=C3)cc1
REMARK SMILES IDX 21 1 20 2 19 3 17 4 18 5 16 7 12 8 13 9 14 10 15 11 11 12
REMARK SMILES IDX 1 13 2 14 3 16 4 17 5 18 6 19 10 20 7 21 9 22 8 23 22 24
REMARK SMILES IDX 23 25 24 26 25 27 26 28 27 29 28 31 29 32 30 33 76 34 31 35
REMARK SMILES IDX 75 36 32 37 33 38 34 39 69 40 35 41 74 42 68 43 70 44 36 45
REMARK SMILES IDX 73 46 67 47 66 48 37 50 59 51 44 52 58 53 45 54 48 55 57 56
REMARK SMILES IDX 71 57 46 58 47 59 56 61 72 62 49 63 38 64 39 65 43 66 40 67
REMARK SMILES IDX 42 68 41 69 60 70 61 71 65 72 62 73 64 74 63 75 50 76 51 77
REMARK SMILES IDX 55 78 52 79 54 80 53 81
REMARK H PARENT 19 6 11 15 26 30 70 49 48 60
REMARK Flexibility Score: inf
ROOT
ATOM      1  C   UNL A   1      33.364  28.126  25.677  1.00  0.00     0.021 C 
ENDROOT
BRANCH   1   2
ATOM      2  C   UNL A   1      33.501  26.598  25.689  1.00  0.00     0.116 C 
BRANCH   2   3
ATOM      3  N   UNL A   1      32.528  25.859  26.459  1.00  0.00    -0.351 N 
ATOM      4  C   UNL A   1      32.102  24.549  26.365  1.00  0.00     0.263 C 
ATOM      5  O   UNL A   1      31.205  24.232  27.161  1.00  0.00    -0.268 OA
ATOM      6  H   UNL A   1      32.094  26.378  27.174  1.00  0.00     0.163 HD
BRANCH   4   7
ATOM      7  C   UNL A   1      32.638  23.612  25.380  1.00  0.00     0.115 A 
ATOM      8  C   UNL A   1      32.513  23.494  23.998  1.00  0.00     0.065 A 
ATOM      9  C   UNL A   1      33.250  22.376  23.488  1.00  0.00     0.038 A 
ATOM     10  C   UNL A   1      33.991  21.739  24.454  1.00  0.00     0.068 A 
ATOM     11  S   UNL A   1      33.736  22.420  25.991  1.00  0.00    -0.137 S 
BRANCH   8  12
ATOM     12  N   UNL A   1      31.839  24.419  23.207  1.00  0.00    -0.325 N 
ATOM     13  O   UNL A   1      33.619  25.344  22.064  1.00  0.00    -0.275 OA
ATOM     14  C   UNL A   1      32.428  25.346  22.377  1.00  0.00     0.224 C 
ATOM     15  H   UNL A   1      30.855  24.410  23.246  1.00  0.00     0.169 HD
BRANCH  14  16
ATOM     16  C   UNL A   1      31.538  26.480  21.869  1.00  0.00     0.105 C 
BRANCH  16  17
ATOM     17  C   UNL A   1      31.408  27.755  22.702  1.00  0.00     0.047 C 
BRANCH  17  18
ATOM     18  C   UNL A   1      30.122  28.521  22.520  1.00  0.00    -0.029 A 
ATOM     19  C   UNL A   1      30.036  29.759  21.890  1.00  0.00     0.007 A 
ATOM     20  C   UNL A   1      28.944  28.027  23.066  1.00  0.00     0.114 A 
ATOM     21  C   UNL A   1      28.826  30.454  21.898  1.00  0.00     0.020 A 
ATOM     22  N   UNL A   1      27.762  28.669  23.098  1.00  0.00    -0.264 NA
ATOM     23  C   UNL A   1      27.728  29.880  22.518  1.00  0.00     0.111 A 
ENDBRANCH  17  18
ENDBRANCH  16  17
ENDBRANCH  14  16
ENDBRANCH   8  12
ENDBRANCH   4   7
ENDBRANCH   2   3
ENDBRANCH   1   2
BRANCH   1  24
ATOM     24  C   UNL A   1      32.130  28.839  26.247  1.00  0.00     0.002 C 
BRANCH  24  25
ATOM     25  C   UNL A   1      31.527  30.103  25.618  1.00  0.00     0.002 C 
BRANCH  25  26
ATOM     26  C   UNL A   1      31.413  31.429  26.385  1.00  0.00     0.021 C 
BRANCH  26  27
ATOM     27  C   UNL A   1      32.648  32.033  27.037  1.00  0.00     0.116 C 
BRANCH  27  28
ATOM     28  N   UNL A   1      32.435  33.397  27.469  1.00  0.00    -0.352 N 
ATOM     29  C   UNL A   1      33.102  34.167  28.388  1.00  0.00     0.251 C 
ATOM     30  H   UNL A   1      31.680  33.851  27.027  1.00  0.00     0.163 HD
ATOM     31  O   UNL A   1      32.592  35.234  28.732  1.00  0.00    -0.269 OA
BRANCH  29  32
ATOM     32  C   UNL A   1      34.415  33.785  28.980  1.00  0.00     0.039 A 
ATOM     33  C   UNL A   1      35.572  34.077  28.242  1.00  0.00     0.014 A 
ATOM     34  C   UNL A   1      34.538  33.016  30.143  1.00  0.00     0.014 A 
ATOM     35  C   UNL A   1      36.824  33.590  28.645  1.00  0.00     0.010 A 
ATOM     36  C   UNL A   1      35.798  32.581  30.581  1.00  0.00     0.010 A 
ATOM     37  C   UNL A   1      36.947  32.822  29.810  1.00  0.00    -0.014 A 
BRANCH  37  38
ATOM     38  C   UNL A   1      38.242  32.168  30.152  1.00  0.00     0.031 A 
ATOM     39  C   UNL A   1      39.193  32.838  31.115  1.00  0.00     0.074 A 
ATOM     40  C   UNL A   1      38.579  30.979  29.617  1.00  0.00     0.049 A 
ATOM     41  N   UNL A   1      40.363  32.430  31.545  1.00  0.00    -0.248 NA
ATOM     42  C   UNL A   1      38.785  34.148  31.649  1.00  0.00     0.031 C 
ATOM     43  C   UNL A   1      37.781  30.223  28.652  1.00  0.00     0.029 A 
ATOM     44  N   UNL A   1      39.693  30.198  29.812  1.00  0.00    -0.354 N 
ATOM     45  C   UNL A   1      40.839  33.444  32.371  1.00  0.00     0.074 A 
ATOM     46  C   UNL A   1      39.849  34.498  32.358  1.00  0.00     0.031 C 
ATOM     47  C   UNL A   1      38.424  29.082  28.348  1.00  0.00     0.029 A 
ATOM     48  C   UNL A   1      39.683  29.031  29.087  1.00  0.00     0.049 A 
ATOM     49  H   UNL A   1      40.430  30.450  30.415  1.00  0.00     0.167 HD
ATOM     50  C   UNL A   1      41.987  33.493  33.088  1.00  0.00     0.031 A 
ATOM     51  C   UNL A   1      40.582  28.028  29.028  1.00  0.00     0.031 A 
ATOM     52  C   UNL A   1      42.960  32.436  33.150  1.00  0.00     0.049 A 
ATOM     53  C   UNL A   1      41.819  28.078  29.881  1.00  0.00     0.074 A 
ATOM     54  C   UNL A   1      44.120  32.376  33.903  1.00  0.00     0.029 A 
ATOM     55  N   UNL A   1      42.881  31.251  32.440  1.00  0.00    -0.354 N 
ATOM     56  N   UNL A   1      42.217  29.016  30.704  1.00  0.00    -0.248 NA
ATOM     57  C   UNL A   1      42.717  26.914  29.815  1.00  0.00     0.031 C 
ATOM     58  C   UNL A   1      44.759  31.162  33.628  1.00  0.00     0.029 A 
ATOM     59  C   UNL A   1      43.975  30.455  32.731  1.00  0.00     0.049 A 
ATOM     60  H   UNL A   1      42.154  31.011  31.821  1.00  0.00     0.167 HD
ATOM     61  C   UNL A   1      43.395  28.545  31.272  1.00  0.00     0.074 A 
ATOM     62  C   UNL A   1      43.640  27.233  30.712  1.00  0.00     0.031 C 
ATOM     63  C   UNL A   1      44.202  29.148  32.178  1.00  0.00     0.031 A 
BRANCH  50  64
ATOM     64  C   UNL A   1      42.259  34.747  33.872  1.00  0.00    -0.014 A 
ATOM     65  C   UNL A   1      42.895  35.849  33.282  1.00  0.00     0.009 A 
ATOM     66  C   UNL A   1      41.831  34.839  35.206  1.00  0.00     0.009 A 
ATOM     67  C   UNL A   1      43.126  37.010  34.024  1.00  0.00     0.001 A 
ATOM     68  C   UNL A   1      42.044  36.009  35.937  1.00  0.00     0.001 A 
ATOM     69  C   UNL A   1      42.697  37.090  35.348  1.00  0.00     0.000 A 
ENDBRANCH  50  64
BRANCH  51  70
ATOM     70  C   UNL A   1      40.337  26.862  28.142  1.00  0.00    -0.014 A 
ATOM     71  C   UNL A   1      39.590  25.763  28.597  1.00  0.00     0.009 A 
ATOM     72  C   UNL A   1      40.872  26.831  26.845  1.00  0.00     0.009 A 
ATOM     73  C   UNL A   1      39.410  24.644  27.782  1.00  0.00     0.001 A 
ATOM     74  C   UNL A   1      40.670  25.719  26.024  1.00  0.00     0.001 A 
ATOM     75  C   UNL A   1      39.947  24.624  26.495  1.00  0.00     0.000 A 
ENDBRANCH  51  70
BRANCH  63  76
ATOM     76  C   UNL A   1      45.404  28.380  32.646  1.00  0.00    -0.014 A 
ATOM     77  C   UNL A   1      46.647  28.514  32.011  1.00  0.00     0.009 A 
ATOM     78  C   UNL A   1      45.294  27.530  33.759  1.00  0.00     0.009 A 
ATOM     79  C   UNL A   1      47.751  27.786  32.460  1.00  0.00     0.001 A 
ATOM     80  C   UNL A   1      46.404  26.820  34.219  1.00  0.00     0.001 A 
ATOM     81  C   UNL A   1      47.628  26.942  33.564  1.00  0.00     0.000 A 
ENDBRANCH  63  76
ENDBRANCH  37  38
ENDBRANCH  29  32
ENDBRANCH  27  28
ENDBRANCH  26  27
ENDBRANCH  25  26
ENDBRANCH  24  25
ENDBRANCH   1  24
TORSDOF 17
ENDMDL
MODEL 2
REMARK VINA RESULT:     -10.3      3.428      8.957
REMARK SMILES O=C(CCc1cccnc1)Nc1ccsc1C(=O)NCCCCCCNC(=O)c1ccc(-c2c3nc(c(-c4ccccc4)c4ccc([nH]4)c(-c4ccccc4)c4nc(c(-c5ccccc5)c5ccc2[nH]5)C=C4)C=C3)cc1
REMARK SMILES IDX 21 1 20 2 19 3 17 4 18 5 16 7 12 8 13 9 14 10 15 11 11 12
REMARK SMILES IDX 1 13 2 14 3 16 4 17 5 18 6 19 10 20 7 21 9 22 8 23 22 24
REMARK SMILES IDX 23 25 24 26 25 27 26 28 27 29 28 31 29 32 30 33 76 34 31 35
REMARK SMILES IDX 75 36 32 37 33 38 34 39 69 40 35 41 74 42 68 43 70 44 36 45
REMARK SMILES IDX 73 46 67 47 66 48 37 50 59 51 44 52 58 53 45 54 48 55 57 56
REMARK SMILES IDX 71 57 46 58 47 59 56 61 72 62 49 63 38 64 39 65 43 66 40 67
REMARK SMILES IDX 42 68 41 69 60 70 61 71 65 72 62 73 64 74 63 75 50 76 51 77
REMARK SMILES IDX 55 78 52 79 54 80 53 81
REMARK H PARENT 19 6 11 15 26 30 70 49 48 60
REMARK Flexibility Score: inf
ROOT
ATOM      1  C   UNL A   1      35.627  24.099  25.498  1.00  0.00     0.021 C 
ENDROOT
BRANCH   1   2
ATOM      2  C   UNL A   1      34.401  24.856  24.972  1.00  0.00     0.116 C 
BRANCH   2   3
ATOM      3  N   UNL A   1      34.462  25.335  23.610  1.00  0.00    -0.351 N 
ATOM      4  C   UNL A   1      33.460  25.680  22.724  1.00  0.00     0.263 C 
ATOM      5  O   UNL A   1      33.852  26.016  21.597  1.00  0.00    -0.268 OA
ATOM      6  H   UNL A   1      35.374  25.432  23.252  1.00  0.00     0.163 HD
BRANCH   4   7
ATOM      7  C   UNL A   1      32.042  25.621  23.072  1.00  0.00     0.115 A 
ATOM      8  C   UNL A   1      31.132  24.578  23.224  1.00  0.00     0.065 A 
ATOM      9  C   UNL A   1      29.828  25.053  23.578  1.00  0.00     0.038 A 
ATOM     10  C   UNL A   1      29.793  26.411  23.789  1.00  0.00     0.068 A 
ATOM     11  S   UNL A   1      31.300  27.133  23.474  1.00  0.00    -0.137 S 
BRANCH   8  12
ATOM     12  N   UNL A   1      31.485  23.234  23.142  1.00  0.00    -0.325 N 
ATOM     13  O   UNL A   1      31.489  22.684  25.384  1.00  0.00    -0.275 OA
ATOM     14  C   UNL A   1      31.740  22.405  24.212  1.00  0.00     0.224 C 
ATOM     15  H   UNL A   1      31.559  22.843  22.241  1.00  0.00     0.169 HD
BRANCH  14  16
ATOM     16  C   UNL A   1      32.438  21.081  23.905  1.00  0.00     0.105 C 
BRANCH  16  17
ATOM     17  C   UNL A   1      33.354  20.460  24.960  1.00  0.00     0.047 C 
BRANCH  17  18
ATOM     18  C   UNL A   1      33.427  18.953  24.950  1.00  0.00    -0.029 A 
ATOM     19  C   UNL A   1      32.529  18.127  25.618  1.00  0.00     0.007 A 
ATOM     20  C   UNL A   1      34.484  18.320  24.309  1.00  0.00     0.114 A 
ATOM     21  C   UNL A   1      32.764  16.752  25.668  1.00  0.00     0.020 A 
ATOM     22  N   UNL A   1      34.746  17.001  24.339  1.00  0.00    -0.264 NA
ATOM     23  C   UNL A   1      33.881  16.239  25.029  1.00  0.00     0.111 A 
ENDBRANCH  17  18
ENDBRANCH  16  17
ENDBRANCH  14  16
ENDBRANCH   8  12
ENDBRANCH   4   7
ENDBRANCH   2   3
ENDBRANCH   1   2
BRANCH   1  24
ATOM     24  C   UNL A   1      36.629  23.413  24.558  1.00  0.00     0.002 C 
BRANCH  24  25
ATOM     25  C   UNL A   1      36.472  21.964  24.078  1.00  0.00     0.002 C 
BRANCH  25  26
ATOM     26  C   UNL A   1      37.308  20.811  24.654  1.00  0.00     0.021 C 
BRANCH  26  27
ATOM     27  C   UNL A   1      38.435  21.111  25.631  1.00  0.00     0.116 C 
BRANCH  27  28
ATOM     28  N   UNL A   1      39.387  20.026  25.727  1.00  0.00    -0.352 N 
ATOM     29  C   UNL A   1      40.729  20.026  26.011  1.00  0.00     0.251 C 
ATOM     30  H   UNL A   1      39.006  19.133  25.559  1.00  0.00     0.163 HD
ATOM     31  O   UNL A   1      41.363  18.986  25.823  1.00  0.00    -0.269 OA
BRANCH  29  32
ATOM     32  C   UNL A   1      41.455  21.213  26.547  1.00  0.00     0.039 A 
ATOM     33  C   UNL A   1      41.442  21.412  27.935  1.00  0.00     0.014 A 
ATOM     34  C   UNL A   1      42.003  22.209  25.731  1.00  0.00     0.014 A 
ATOM     35  C   UNL A   1      41.943  22.595  28.497  1.00  0.00     0.010 A 
ATOM     36  C   UNL A   1      42.562  23.365  26.296  1.00  0.00     0.010 A 
ATOM     37  C   UNL A   1      42.494  23.592  27.680  1.00  0.00    -0.014 A 
BRANCH  37  38
ATOM     38  C   UNL A   1      42.877  24.914  28.253  1.00  0.00     0.031 A 
ATOM     39  C   UNL A   1      41.819  25.963  28.500  1.00  0.00     0.074 A 
ATOM     40  C   UNL A   1      44.159  25.189  28.559  1.00  0.00     0.049 A 
ATOM     41  N   UNL A   1      41.948  27.170  28.996  1.00  0.00    -0.248 NA
ATOM     42  C   UNL A   1      40.439  25.617  28.122  1.00  0.00     0.031 C 
ATOM     43  C   UNL A   1      45.295  24.291  28.352  1.00  0.00     0.029 A 
ATOM     44  N   UNL A   1      44.721  26.314  29.114  1.00  0.00    -0.354 N 
ATOM     45  C   UNL A   1      40.677  27.734  28.959  1.00  0.00     0.074 A 
ATOM     46  C   UNL A   1      39.797  26.751  28.366  1.00  0.00     0.031 C 
ATOM     47  C   UNL A   1      46.416  24.894  28.784  1.00  0.00     0.029 A 
ATOM     48  C   UNL A   1      46.081  26.224  29.288  1.00  0.00     0.049 A 
ATOM     49  H   UNL A   1      44.199  27.111  29.362  1.00  0.00     0.167 HD
ATOM     50  C   UNL A   1      40.269  28.951  29.392  1.00  0.00     0.031 A 
ATOM     51  C   UNL A   1      46.959  27.108  29.801  1.00  0.00     0.031 A 
ATOM     52  C   UNL A   1      41.118  29.921  30.027  1.00  0.00     0.049 A 
ATOM     53  C   UNL A   1      46.472  28.428  30.332  1.00  0.00     0.074 A 
ATOM     54  C   UNL A   1      40.774  31.154  30.556  1.00  0.00     0.029 A 
ATOM     55  N   UNL A   1      42.478  29.764  30.230  1.00  0.00    -0.354 N 
ATOM     56  N   UNL A   1      45.255  28.914  30.346  1.00  0.00    -0.248 NA
ATOM     57  C   UNL A   1      47.480  29.310  30.941  1.00  0.00     0.031 C 
ATOM     58  C   UNL A   1      41.934  31.756  31.056  1.00  0.00     0.029 A 
ATOM     59  C   UNL A   1      42.990  30.880  30.869  1.00  0.00     0.049 A 
ATOM     60  H   UNL A   1      43.002  28.976  29.960  1.00  0.00     0.167 HD
ATOM     61  C   UNL A   1      45.347  30.143  30.988  1.00  0.00     0.074 A 
ATOM     62  C   UNL A   1      46.734  30.323  31.361  1.00  0.00     0.031 C 
ATOM     63  C   UNL A   1      44.368  31.043  31.245  1.00  0.00     0.031 A 
BRANCH  50  64
ATOM     64  C   UNL A   1      38.823  29.308  29.188  1.00  0.00    -0.014 A 
ATOM     65  C   UNL A   1      38.365  29.817  27.964  1.00  0.00     0.009 A 
ATOM     66  C   UNL A   1      37.900  29.089  30.223  1.00  0.00     0.009 A 
ATOM     67  C   UNL A   1      37.015  30.130  27.790  1.00  0.00     0.001 A 
ATOM     68  C   UNL A   1      36.548  29.381  30.038  1.00  0.00     0.001 A 
ATOM     69  C   UNL A   1      36.108  29.908  28.824  1.00  0.00     0.000 A 
ENDBRANCH  50  64
BRANCH  51  70
ATOM     70  C   UNL A   1      48.403  26.767  29.869  1.00  0.00    -0.014 A 
ATOM     71  C   UNL A   1      49.274  27.140  28.834  1.00  0.00     0.009 A 
ATOM     72  C   UNL A   1      48.911  26.043  30.959  1.00  0.00     0.009 A 
ATOM     73  C   UNL A   1      50.620  26.769  28.874  1.00  0.00     0.001 A 
ATOM     74  C   UNL A   1      50.262  25.693  31.006  1.00  0.00     0.001 A 
ATOM     75  C   UNL A   1      51.113  26.049  29.961  1.00  0.00     0.000 A 
ENDBRANCH  51  70
BRANCH  63  76
ATOM     76  C   UNL A   1      44.755  32.285  31.995  1.00  0.00    -0.014 A 
ATOM     77  C   UNL A   1      44.722  32.328  33.396  1.00  0.00     0.009 A 
ATOM     78  C   UNL A   1      45.185  33.418  31.287  1.00  0.00     0.009 A 
ATOM     79  C   UNL A   1      45.081  33.495  34.075  1.00  0.00     0.001 A 
ATOM     80  C   UNL A   1      45.564  34.576  31.968  1.00  0.00     0.001 A 
ATOM     81  C   UNL A   1      45.503  34.616  33.360  1.00  0.00     0.000 A 
ENDBRANCH  63  76
ENDBRANCH  37  38
ENDBRANCH  29  32
ENDBRANCH  27  28
ENDBRANCH  26  27
ENDBRANCH  25  26
ENDBRANCH  24  25
ENDBRANCH   1  24
TORSDOF 17
ENDMDL
MODEL 3
REMARK VINA RESULT:     -10.3      3.242      8.267
REMARK SMILES O=C(CCc1cccnc1)Nc1ccsc1C(=O)NCCCCCCNC(=O)c1ccc(-c2c3nc(c(-c4ccccc4)c4ccc([nH]4)c(-c4ccccc4)c4nc(c(-c5ccccc5)c5ccc2[nH]5)C=C4)C=C3)cc1
REMARK SMILES IDX 21 1 20 2 19 3 17 4 18 5 16 7 12 8 13 9 14 10 15 11 11 12
REMARK SMILES IDX 1 13 2 14 3 16 4 17 5 18 6 19 10 20 7 21 9 22 8 23 22 24
REMARK SMILES IDX 23 25 24 26 25 27 26 28 27 29 28 31 29 32 30 33 76 34 31 35
REMARK SMILES IDX 75 36 32 37 33 38 34 39 69 40 35 41 74 42 68 43 70 44 36 45
REMARK SMILES IDX 73 46 67 47 66 48 37 50 59 51 44 52 58 53 45 54 48 55 57 56
REMARK SMILES IDX 71 57 46 58 47 59 56 61 72 62 49 63 38 64 39 65 43 66 40 67
REMARK SMILES IDX 42 68 41 69 60 70 61 71 65 72 62 73 64 74 63 75 50 76 51 77
REMARK SMILES IDX 55 78 52 79 54 80 53 81
REMARK H PARENT 19 6 11 15 26 30 70 49 48 60
REMARK Flexibility Score: inf
ROOT
ATOM      1  C   UNL A   1      35.473  23.246  25.815  1.00  0.00     0.021 C 
ENDROOT
BRANCH   1   2
ATOM      2  C   UNL A   1      34.528  22.617  26.846  1.00  0.00     0.116 C 
BRANCH   2   3
ATOM      3  N   UNL A   1      33.202  23.182  26.951  1.00  0.00    -0.351 N 
ATOM      4  C   UNL A   1      32.121  23.126  26.093  1.00  0.00     0.263 C 
ATOM      5  O   UNL A   1      31.126  23.766  26.464  1.00  0.00    -0.268 OA
ATOM      6  H   UNL A   1      33.042  23.695  27.775  1.00  0.00     0.163 HD
BRANCH   4   7
ATOM      7  C   UNL A   1      32.154  22.398  24.826  1.00  0.00     0.115 A 
ATOM      8  C   UNL A   1      32.116  22.791  23.491  1.00  0.00     0.065 A 
ATOM      9  C   UNL A   1      32.173  21.669  22.601  1.00  0.00     0.038 A 
ATOM     10  C   UNL A   1      32.358  20.476  23.258  1.00  0.00     0.068 A 
ATOM     11  S   UNL A   1      32.369  20.684  24.946  1.00  0.00    -0.137 S 
BRANCH   8  12
ATOM     12  N   UNL A   1      32.127  24.121  23.082  1.00  0.00    -0.325 N 
ATOM     13  O   UNL A   1      34.391  24.415  22.737  1.00  0.00    -0.275 OA
ATOM     14  C   UNL A   1      33.252  24.874  22.832  1.00  0.00     0.224 C 
ATOM     15  H   UNL A   1      31.254  24.561  22.962  1.00  0.00     0.169 HD
BRANCH  14  16
ATOM     16  C   UNL A   1      33.060  26.387  22.732  1.00  0.00     0.105 C 
BRANCH  16  17
ATOM     17  C   UNL A   1      33.862  27.302  23.657  1.00  0.00     0.047 C 
BRANCH  17  18
ATOM     18  C   UNL A   1      33.196  27.644  24.967  1.00  0.00    -0.029 A 
ATOM     19  C   UNL A   1      33.851  28.246  26.038  1.00  0.00     0.007 A 
ATOM     20  C   UNL A   1      31.872  27.284  25.181  1.00  0.00     0.114 A 
ATOM     21  C   UNL A   1      33.187  28.390  27.257  1.00  0.00     0.020 A 
ATOM     22  N   UNL A   1      31.202  27.401  26.342  1.00  0.00    -0.264 NA
ATOM     23  C   UNL A   1      31.879  27.947  27.365  1.00  0.00     0.111 A 
ENDBRANCH  17  18
ENDBRANCH  16  17
ENDBRANCH  14  16
ENDBRANCH   8  12
ENDBRANCH   4   7
ENDBRANCH   2   3
ENDBRANCH   1   2
BRANCH   1  24
ATOM     24  C   UNL A   1      36.312  22.395  24.850  1.00  0.00     0.002 C 
BRANCH  24  25
ATOM     25  C   UNL A   1      36.276  20.861  24.838  1.00  0.00     0.002 C 
BRANCH  25  26
ATOM     26  C   UNL A   1      37.551  20.007  24.917  1.00  0.00     0.021 C 
BRANCH  26  27
ATOM     27  C   UNL A   1      38.759  20.524  25.683  1.00  0.00     0.116 C 
BRANCH  27  28
ATOM     28  N   UNL A   1      39.820  19.545  25.770  1.00  0.00    -0.352 N 
ATOM     29  C   UNL A   1      41.160  19.687  26.027  1.00  0.00     0.251 C 
ATOM     30  H   UNL A   1      39.530  18.615  25.617  1.00  0.00     0.163 HD
ATOM     31  O   UNL A   1      41.895  18.716  25.836  1.00  0.00    -0.269 OA
BRANCH  29  32
ATOM     32  C   UNL A   1      41.768  20.948  26.539  1.00  0.00     0.039 A 
ATOM     33  C   UNL A   1      41.733  21.173  27.923  1.00  0.00     0.014 A 
ATOM     34  C   UNL A   1      42.222  21.975  25.703  1.00  0.00     0.014 A 
ATOM     35  C   UNL A   1      42.119  22.409  28.460  1.00  0.00     0.010 A 
ATOM     36  C   UNL A   1      42.667  23.190  26.245  1.00  0.00     0.010 A 
ATOM     37  C   UNL A   1      42.574  23.438  27.623  1.00  0.00    -0.014 A 
BRANCH  37  38
ATOM     38  C   UNL A   1      42.829  24.801  28.169  1.00  0.00     0.031 A 
ATOM     39  C   UNL A   1      44.233  25.212  28.545  1.00  0.00     0.074 A 
ATOM     40  C   UNL A   1      41.822  25.680  28.332  1.00  0.00     0.049 A 
ATOM     41  N   UNL A   1      44.662  26.352  29.029  1.00  0.00    -0.248 NA
ATOM     42  C   UNL A   1      45.289  24.201  28.372  1.00  0.00     0.031 C 
ATOM     43  C   UNL A   1      40.412  25.422  28.043  1.00  0.00     0.029 A 
ATOM     44  N   UNL A   1      41.837  26.978  28.785  1.00  0.00    -0.354 N 
ATOM     45  C   UNL A   1      46.026  26.183  29.246  1.00  0.00     0.074 A 
ATOM     46  C   UNL A   1      46.348  24.824  28.870  1.00  0.00     0.031 C 
ATOM     47  C   UNL A   1      39.698  26.528  28.313  1.00  0.00     0.029 A 
ATOM     48  C   UNL A   1      40.597  27.570  28.806  1.00  0.00     0.049 A 
ATOM     49  H   UNL A   1      42.658  27.440  29.069  1.00  0.00     0.167 HD
ATOM     50  C   UNL A   1      46.936  27.077  29.702  1.00  0.00     0.031 A 
ATOM     51  C   UNL A   1      40.225  28.812  29.172  1.00  0.00     0.031 A 
ATOM     52  C   UNL A   1      46.644  28.445  30.035  1.00  0.00     0.049 A 
ATOM     53  C   UNL A   1      41.263  29.806  29.615  1.00  0.00     0.074 A 
ATOM     54  C   UNL A   1      47.518  29.439  30.443  1.00  0.00     0.029 A 
ATOM     55  N   UNL A   1      45.383  29.015  29.990  1.00  0.00    -0.354 N 
ATOM     56  N   UNL A   1      42.556  29.645  29.751  1.00  0.00    -0.248 NA
ATOM     57  C   UNL A   1      40.789  31.162  29.932  1.00  0.00     0.031 C 
ATOM     58  C   UNL A   1      46.780  30.606  30.670  1.00  0.00     0.029 A 
ATOM     59  C   UNL A   1      45.454  30.344  30.369  1.00  0.00     0.049 A 
ATOM     60  H   UNL A   1      44.560  28.544  29.727  1.00  0.00     0.167 HD
ATOM     61  C   UNL A   1      43.052  30.883  30.141  1.00  0.00     0.074 A 
ATOM     62  C   UNL A   1      41.925  31.789  30.206  1.00  0.00     0.031 C 
ATOM     63  C   UNL A   1      44.329  31.238  30.420  1.00  0.00     0.031 A 
BRANCH  50  64
ATOM     64  C   UNL A   1      48.351  26.599  29.871  1.00  0.00    -0.014 A 
ATOM     65  C   UNL A   1      49.304  26.774  28.856  1.00  0.00     0.009 A 
ATOM     66  C   UNL A   1      48.744  26.006  31.081  1.00  0.00     0.009 A 
ATOM     67  C   UNL A   1      50.617  26.336  29.039  1.00  0.00     0.001 A 
ATOM     68  C   UNL A   1      50.063  25.589  31.268  1.00  0.00     0.001 A 
ATOM     69  C   UNL A   1      50.996  25.748  30.245  1.00  0.00     0.000 A 
ENDBRANCH  50  64
BRANCH  51  70
ATOM     70  C   UNL A   1      38.795  29.208  29.111  1.00  0.00    -0.014 A 
ATOM     71  C   UNL A   1      37.977  29.108  30.247  1.00  0.00     0.009 A 
ATOM     72  C   UNL A   1      38.235  29.664  27.907  1.00  0.00     0.009 A 
ATOM     73  C   UNL A   1      36.619  29.427  30.172  1.00  0.00     0.001 A 
ATOM     74  C   UNL A   1      36.882  30.004  27.841  1.00  0.00     0.001 A 
ATOM     75  C   UNL A   1      36.074  29.877  28.970  1.00  0.00     0.000 A 
ENDBRANCH  51  70
BRANCH  63  76
ATOM     76  C   UNL A   1      44.581  32.672  30.785  1.00  0.00    -0.014 A 
ATOM     77  C   UNL A   1      44.860  33.634  29.804  1.00  0.00     0.009 A 
ATOM     78  C   UNL A   1      44.508  33.069  32.130  1.00  0.00     0.009 A 
ATOM     79  C   UNL A   1      45.096  34.963  30.165  1.00  0.00     0.001 A 
ATOM     80  C   UNL A   1      44.723  34.401  32.486  1.00  0.00     0.001 A 
ATOM     81  C   UNL A   1      45.025  35.344  31.505  1.00  0.00     0.000 A 
ENDBRANCH  63  76
ENDBRANCH  37  38
ENDBRANCH  29  32
ENDBRANCH  27  28
ENDBRANCH  26  27
ENDBRANCH  25  26
ENDBRANCH  24  25
ENDBRANCH   1  24
TORSDOF 17
ENDMDL
