MODEL 1
REMARK VINA RESULT:     -10.5      0.000      0.000
REMARK SMILES CC[NH2+][C@]1(C(=O)NCCCCCCNC(=O)c2ccc(-c3c4nc(c(-c5ccccc5)c5ccc([nH]5)c(-c5ccccc5)c5nc(c(-c6ccccc6)c6ccc3[nH]6)C=C5)C=C4)cc2)CC[C@@H]([N@@H+]2CCO[C@@H](CC)C2)C1
REMARK SMILES IDX 10 1 9 2 8 3 7 4 5 5 6 6 4 8 65 9 76 10 66 11 67 12 3 13
REMARK SMILES IDX 2 16 1 17 68 18 69 19 75 20 70 22 72 23 71 24 73 25 74 26
REMARK SMILES IDX 11 27 12 28 13 29 14 30 15 31 16 33 17 34 18 35 64 36 19 37
REMARK SMILES IDX 63 38 20 39 21 40 22 41 57 42 23 43 62 44 56 45 58 46 24 47
REMARK SMILES IDX 61 48 55 49 54 50 25 52 47 53 32 54 46 55 33 56 36 57 45 58
REMARK SMILES IDX 59 59 34 60 35 61 44 63 60 64 37 65 26 66 27 67 31 68 28 69
REMARK SMILES IDX 30 70 29 71 48 72 49 73 53 74 50 75 52 76 51 77 38 78 39 79
REMARK SMILES IDX 43 80 40 81 42 82 41 83
REMARK H PARENT 7 7 3 14 3 15 68 21 14 32 58 51 36 62
REMARK Flexibility Score: inf
ROOT
ATOM      1  C   UNL A   1      32.248  30.100  26.164  1.00  0.00     0.002 C 
ENDROOT
BRANCH   1   2
ATOM      2  C   UNL A   1      31.894  29.093  27.261  1.00  0.00     0.021 C 
BRANCH   2   3
ATOM      3  C   UNL A   1      32.428  27.685  27.026  1.00  0.00     0.116 C 
BRANCH   3   4
ATOM      4  N   UNL A   1      31.359  26.714  26.969  1.00  0.00    -0.351 N 
ATOM      5  C   UNL A   1      30.722  26.160  25.894  1.00  0.00     0.281 C 
ATOM      6  O   UNL A   1      29.806  25.376  26.148  1.00  0.00    -0.268 OA
ATOM      7  H   UNL A   1      31.037  26.402  27.846  1.00  0.00     0.163 HD
BRANCH   5   8
ATOM      8  C   UNL A   1      31.157  26.551  24.437  1.00  0.00     0.181 C 
ATOM      9  C   UNL A   1      32.694  26.471  24.328  1.00  0.00     0.085 C 
ATOM     10  C   UNL A   1      30.681  25.472  23.435  1.00  0.00     0.144 C 
ATOM     11  C   UNL A   1      33.006  26.033  22.909  1.00  0.00     0.072 C 
ATOM     12  C   UNL A   1      31.854  25.105  22.506  1.00  0.00     0.191 C 
BRANCH   8  13
ATOM     13  N   UNL A   1      30.453  27.807  24.095  1.00  0.00    -0.334 N 
ATOM     14  H   UNL A   1      29.820  28.019  24.867  1.00  0.00     0.347 HD
ATOM     15  H   UNL A   1      31.203  28.480  23.935  1.00  0.00     0.347 HD
BRANCH  13  16
ATOM     16  C   UNL A   1      29.671  27.847  22.875  1.00  0.00     0.257 C 
ATOM     17  C   UNL A   1      28.459  28.741  23.095  1.00  0.00     0.071 C 
ENDBRANCH  13  16
ENDBRANCH   8  13
BRANCH  12  18
ATOM     18  N   UNL A   1      32.216  23.686  22.370  1.00  0.00    -0.328 N 
ATOM     19  C   UNL A   1      31.603  22.790  23.370  1.00  0.00     0.291 C 
ATOM     20  C   UNL A   1      33.632  23.332  22.194  1.00  0.00     0.294 C 
ATOM     21  H   UNL A   1      31.791  23.525  21.457  1.00  0.00     0.348 HD
ATOM     22  C   UNL A   1      32.448  22.494  24.629  1.00  0.00     0.222 C 
ATOM     23  C   UNL A   1      34.419  23.209  23.511  1.00  0.00     0.173 C 
ATOM     24  O   UNL A   1      33.817  22.193  24.334  1.00  0.00    -0.367 OA
BRANCH  23  25
ATOM     25  C   UNL A   1      35.887  22.809  23.305  1.00  0.00     0.034 C 
ATOM     26  C   UNL A   1      36.840  23.312  24.379  1.00  0.00     0.007 C 
ENDBRANCH  23  25
ENDBRANCH  12  18
ENDBRANCH   5   8
ENDBRANCH   3   4
ENDBRANCH   2   3
ENDBRANCH   1   2
BRANCH   1  27
ATOM     27  C   UNL A   1      31.111  31.035  25.739  1.00  0.00     0.002 C 
BRANCH  27  28
ATOM     28  C   UNL A   1      31.075  32.389  26.448  1.00  0.00     0.021 C 
BRANCH  28  29
ATOM     29  C   UNL A   1      32.389  32.812  27.092  1.00  0.00     0.116 C 
BRANCH  29  30
ATOM     30  N   UNL A   1      32.319  34.148  27.659  1.00  0.00    -0.352 N 
ATOM     31  C   UNL A   1      33.113  34.722  28.616  1.00  0.00     0.251 C 
ATOM     32  H   UNL A   1      31.602  34.721  27.303  1.00  0.00     0.163 HD
ATOM     33  O   UNL A   1      32.803  35.804  29.111  1.00  0.00    -0.269 OA
BRANCH  31  34
ATOM     34  C   UNL A   1      34.331  34.025  29.074  1.00  0.00     0.039 A 
ATOM     35  C   UNL A   1      35.559  34.373  28.507  1.00  0.00     0.014 A 
ATOM     36  C   UNL A   1      34.265  33.038  30.062  1.00  0.00     0.014 A 
ATOM     37  C   UNL A   1      36.729  33.769  28.969  1.00  0.00     0.010 A 
ATOM     38  C   UNL A   1      35.438  32.494  30.575  1.00  0.00     0.010 A 
ATOM     39  C   UNL A   1      36.680  32.849  30.031  1.00  0.00    -0.014 A 
BRANCH  39  40
ATOM     40  C   UNL A   1      37.923  32.260  30.587  1.00  0.00     0.031 A 
ATOM     41  C   UNL A   1      38.495  30.999  30.003  1.00  0.00     0.074 A 
ATOM     42  C   UNL A   1      38.499  32.825  31.664  1.00  0.00     0.049 A 
ATOM     43  N   UNL A   1      39.550  30.320  30.378  1.00  0.00    -0.248 NA
ATOM     44  C   UNL A   1      37.772  30.408  28.866  1.00  0.00     0.031 C 
ATOM     45  C   UNL A   1      38.013  34.020  32.356  1.00  0.00     0.029 A 
ATOM     46  N   UNL A   1      39.618  32.462  32.371  1.00  0.00    -0.354 N 
ATOM     47  C   UNL A   1      39.606  29.216  29.537  1.00  0.00     0.074 A 
ATOM     48  C   UNL A   1      38.450  29.287  28.670  1.00  0.00     0.031 C 
ATOM     49  C   UNL A   1      38.842  34.307  33.371  1.00  0.00     0.029 A 
ATOM     50  C   UNL A   1      39.893  33.297  33.427  1.00  0.00     0.049 A 
ATOM     51  H   UNL A   1      40.171  31.681  32.143  1.00  0.00     0.167 HD
ATOM     52  C   UNL A   1      40.543  28.239  29.481  1.00  0.00     0.031 A 
ATOM     53  C   UNL A   1      40.878  33.251  34.344  1.00  0.00     0.031 A 
ATOM     54  C   UNL A   1      41.690  28.170  30.346  1.00  0.00     0.049 A 
ATOM     55  C   UNL A   1      41.903  32.157  34.269  1.00  0.00     0.074 A 
ATOM     56  C   UNL A   1      42.735  27.263  30.323  1.00  0.00     0.029 A 
ATOM     57  N   UNL A   1      41.939  29.038  31.399  1.00  0.00    -0.354 N 
ATOM     58  N   UNL A   1      41.991  31.167  33.413  1.00  0.00    -0.248 NA
ATOM     59  C   UNL A   1      42.971  32.181  35.277  1.00  0.00     0.031 C 
ATOM     60  C   UNL A   1      43.580  27.542  31.402  1.00  0.00     0.029 A 
ATOM     61  C   UNL A   1      43.100  28.665  32.057  1.00  0.00     0.049 A 
ATOM     62  H   UNL A   1      41.374  29.807  31.643  1.00  0.00     0.167 HD
ATOM     63  C   UNL A   1      43.134  30.461  33.767  1.00  0.00     0.074 A 
ATOM     64  C   UNL A   1      43.713  31.148  34.903  1.00  0.00     0.031 C 
ATOM     65  C   UNL A   1      43.655  29.345  33.200  1.00  0.00     0.031 A 
BRANCH  52  66
ATOM     66  C   UNL A   1      40.341  27.151  28.460  1.00  0.00    -0.014 A 
ATOM     67  C   UNL A   1      40.879  27.249  27.167  1.00  0.00     0.009 A 
ATOM     68  C   UNL A   1      39.602  26.007  28.800  1.00  0.00     0.009 A 
ATOM     69  C   UNL A   1      40.637  26.251  26.220  1.00  0.00     0.001 A 
ATOM     70  C   UNL A   1      39.390  24.994  27.862  1.00  0.00     0.001 A 
ATOM     71  C   UNL A   1      39.895  25.124  26.569  1.00  0.00     0.000 A 
ENDBRANCH  52  66
BRANCH  53  72
ATOM     72  C   UNL A   1      40.940  34.293  35.401  1.00  0.00    -0.014 A 
ATOM     73  C   UNL A   1      41.629  35.495  35.181  1.00  0.00     0.009 A 
ATOM     74  C   UNL A   1      40.277  34.105  36.625  1.00  0.00     0.009 A 
ATOM     75  C   UNL A   1      41.664  36.481  36.169  1.00  0.00     0.001 A 
ATOM     76  C   UNL A   1      40.290  35.105  37.599  1.00  0.00     0.001 A 
ATOM     77  C   UNL A   1      40.988  36.289  37.374  1.00  0.00     0.000 A 
ENDBRANCH  53  72
BRANCH  65  78
ATOM     78  C   UNL A   1      44.929  28.806  33.791  1.00  0.00    -0.014 A 
ATOM     79  C   UNL A   1      46.185  29.257  33.355  1.00  0.00     0.009 A 
ATOM     80  C   UNL A   1      44.868  27.860  34.827  1.00  0.00     0.009 A 
ATOM     81  C   UNL A   1      47.353  28.747  33.924  1.00  0.00     0.001 A 
ATOM     82  C   UNL A   1      46.037  27.375  35.413  1.00  0.00     0.001 A 
ATOM     83  C   UNL A   1      47.279  27.812  34.954  1.00  0.00     0.000 A 
ENDBRANCH  65  78
ENDBRANCH  39  40
ENDBRANCH  31  34
ENDBRANCH  29  30
ENDBRANCH  28  29
ENDBRANCH  27  28
ENDBRANCH   1  27
TORSDOF 17
ENDMDL
MODEL 2
REMARK VINA RESULT:     -10.3      4.708      9.864
REMARK SMILES CC[NH2+][C@]1(C(=O)NCCCCCCNC(=O)c2ccc(-c3c4nc(c(-c5ccccc5)c5ccc([nH]5)c(-c5ccccc5)c5nc(c(-c6ccccc6)c6ccc3[nH]6)C=C5)C=C4)cc2)CC[C@@H]([N@@H+]2CCO[C@@H](CC)C2)C1
REMARK SMILES IDX 10 1 9 2 8 3 7 4 5 5 6 6 4 8 65 9 76 10 66 11 67 12 3 13
REMARK SMILES IDX 2 16 1 17 68 18 69 19 75 20 70 22 72 23 71 24 73 25 74 26
REMARK SMILES IDX 11 27 12 28 13 29 14 30 15 31 16 33 17 34 18 35 64 36 19 37
REMARK SMILES IDX 63 38 20 39 21 40 22 41 57 42 23 43 62 44 56 45 58 46 24 47
REMARK SMILES IDX 61 48 55 49 54 50 25 52 47 53 32 54 46 55 33 56 36 57 45 58
REMARK SMILES IDX 59 59 34 60 35 61 44 63 60 64 37 65 26 66 27 67 31 68 28 69
REMARK SMILES IDX 30 70 29 71 48 72 49 73 53 74 50 75 52 76 51 77 38 78 39 79
REMARK SMILES IDX 43 80 40 81 42 82 41 83
REMARK H PARENT 7 7 3 14 3 15 68 21 14 32 58 51 36 62
REMARK Flexibility Score: inf
ROOT
ATOM      1  C   UNL A   1      37.268  22.043  24.491  1.00  0.00     0.002 C 
ENDROOT
BRANCH   1   2
ATOM      2  C   UNL A   1      37.297  23.122  25.576  1.00  0.00     0.021 C 
BRANCH   2   3
ATOM      3  C   UNL A   1      36.043  23.986  25.646  1.00  0.00     0.116 C 
BRANCH   3   4
ATOM      4  N   UNL A   1      35.467  24.191  24.337  1.00  0.00    -0.351 N 
ATOM      5  C   UNL A   1      34.238  23.846  23.846  1.00  0.00     0.281 C 
ATOM      6  O   UNL A   1      34.028  24.115  22.662  1.00  0.00    -0.268 OA
ATOM      7  H   UNL A   1      36.053  24.653  23.694  1.00  0.00     0.163 HD
BRANCH   5   8
ATOM      8  C   UNL A   1      33.196  23.128  24.776  1.00  0.00     0.181 C 
ATOM      9  C   UNL A   1      33.158  23.843  26.143  1.00  0.00     0.085 C 
ATOM     10  C   UNL A   1      31.763  23.344  24.231  1.00  0.00     0.144 C 
ATOM     11  C   UNL A   1      31.731  23.737  26.647  1.00  0.00     0.072 C 
ATOM     12  C   UNL A   1      30.851  23.778  25.393  1.00  0.00     0.191 C 
BRANCH   8  13
ATOM     13  N   UNL A   1      33.476  21.676  24.704  1.00  0.00    -0.334 N 
ATOM     14  H   UNL A   1      33.882  21.492  23.786  1.00  0.00     0.347 HD
ATOM     15  H   UNL A   1      34.083  21.498  25.505  1.00  0.00     0.347 HD
BRANCH  13  16
ATOM     16  C   UNL A   1      32.373  20.753  24.880  1.00  0.00     0.257 C 
ATOM     17  C   UNL A   1      32.529  19.605  23.893  1.00  0.00     0.071 C 
ENDBRANCH  13  16
ENDBRANCH   8  13
BRANCH  12  18
ATOM     18  N   UNL A   1      30.053  25.003  25.231  1.00  0.00    -0.328 N 
ATOM     19  C   UNL A   1      29.908  25.472  23.839  1.00  0.00     0.291 C 
ATOM     20  C   UNL A   1      30.332  26.149  26.109  1.00  0.00     0.294 C 
ATOM     21  H   UNL A   1      29.164  24.631  25.564  1.00  0.00     0.348 HD
ATOM     22  C   UNL A   1      30.932  26.527  23.365  1.00  0.00     0.222 C 
ATOM     23  C   UNL A   1      31.475  27.056  25.617  1.00  0.00     0.173 C 
ATOM     24  O   UNL A   1      31.144  27.576  24.316  1.00  0.00    -0.367 OA
BRANCH  23  25
ATOM     25  C   UNL A   1      31.728  28.262  26.533  1.00  0.00     0.034 C 
ATOM     26  C   UNL A   1      33.074  28.249  27.243  1.00  0.00     0.007 C 
ENDBRANCH  23  25
ENDBRANCH  12  18
ENDBRANCH   5   8
ENDBRANCH   3   4
ENDBRANCH   2   3
ENDBRANCH   1   2
BRANCH   1  27
ATOM     27  C   UNL A   1      36.892  20.638  24.972  1.00  0.00     0.002 C 
BRANCH  27  28
ATOM     28  C   UNL A   1      38.041  19.628  25.010  1.00  0.00     0.021 C 
BRANCH  28  29
ATOM     29  C   UNL A   1      39.283  20.096  25.757  1.00  0.00     0.116 C 
BRANCH  29  30
ATOM     30  N   UNL A   1      40.272  19.042  25.895  1.00  0.00    -0.352 N 
ATOM     31  C   UNL A   1      41.621  19.146  26.111  1.00  0.00     0.251 C 
ATOM     32  H   UNL A   1      39.924  18.123  25.824  1.00  0.00     0.163 HD
ATOM     33  O   UNL A   1      42.341  18.154  26.023  1.00  0.00    -0.269 OA
BRANCH  31  34
ATOM     34  C   UNL A   1      42.214  20.461  26.425  1.00  0.00     0.039 A 
ATOM     35  C   UNL A   1      42.701  21.247  25.379  1.00  0.00     0.014 A 
ATOM     36  C   UNL A   1      42.286  20.919  27.744  1.00  0.00     0.014 A 
ATOM     37  C   UNL A   1      43.210  22.518  25.649  1.00  0.00     0.010 A 
ATOM     38  C   UNL A   1      42.722  22.215  28.003  1.00  0.00     0.010 A 
ATOM     39  C   UNL A   1      43.193  23.025  26.960  1.00  0.00    -0.014 A 
BRANCH  39  40
ATOM     40  C   UNL A   1      43.656  24.404  27.250  1.00  0.00     0.031 A 
ATOM     41  C   UNL A   1      42.675  25.467  27.655  1.00  0.00     0.074 A 
ATOM     42  C   UNL A   1      44.955  24.715  27.082  1.00  0.00     0.049 A 
ATOM     43  N   UNL A   1      42.889  26.732  27.915  1.00  0.00    -0.248 NA
ATOM     44  C   UNL A   1      41.264  25.062  27.756  1.00  0.00     0.031 C 
ATOM     45  C   UNL A   1      45.999  23.787  26.642  1.00  0.00     0.029 A 
ATOM     46  N   UNL A   1      45.618  25.905  27.254  1.00  0.00    -0.354 N 
ATOM     47  C   UNL A   1      41.641  27.276  28.190  1.00  0.00     0.074 A 
ATOM     48  C   UNL A   1      40.671  26.218  28.014  1.00  0.00     0.031 C 
ATOM     49  C   UNL A   1      47.174  24.434  26.605  1.00  0.00     0.029 A 
ATOM     50  C   UNL A   1      46.961  25.829  26.977  1.00  0.00     0.049 A 
ATOM     51  H   UNL A   1      45.174  26.732  27.549  1.00  0.00     0.167 HD
ATOM     52  C   UNL A   1      41.332  28.539  28.571  1.00  0.00     0.031 A 
ATOM     53  C   UNL A   1      47.915  26.777  27.012  1.00  0.00     0.031 A 
ATOM     54  C   UNL A   1      42.298  29.590  28.744  1.00  0.00     0.049 A 
ATOM     55  C   UNL A   1      47.551  28.173  27.430  1.00  0.00     0.074 A 
ATOM     56  C   UNL A   1      42.097  30.883  29.196  1.00  0.00     0.029 A 
ATOM     57  N   UNL A   1      43.652  29.473  28.461  1.00  0.00    -0.354 N 
ATOM     58  N   UNL A   1      46.380  28.652  27.772  1.00  0.00    -0.248 NA
ATOM     59  C   UNL A   1      48.643  29.154  27.480  1.00  0.00     0.031 C 
ATOM     60  C   UNL A   1      43.315  31.566  29.123  1.00  0.00     0.029 A 
ATOM     61  C   UNL A   1      44.290  30.681  28.691  1.00  0.00     0.049 A 
ATOM     62  H   UNL A   1      44.093  28.653  28.143  1.00  0.00     0.167 HD
ATOM     63  C   UNL A   1      46.595  29.985  28.096  1.00  0.00     0.074 A 
ATOM     64  C   UNL A   1      48.013  30.231  27.927  1.00  0.00     0.031 C 
ATOM     65  C   UNL A   1      45.698  30.919  28.499  1.00  0.00     0.031 A 
BRANCH  52  66
ATOM     66  C   UNL A   1      39.877  28.851  28.799  1.00  0.00    -0.014 A 
ATOM     67  C   UNL A   1      39.059  29.335  27.765  1.00  0.00     0.009 A 
ATOM     68  C   UNL A   1      39.313  28.654  30.069  1.00  0.00     0.009 A 
ATOM     69  C   UNL A   1      37.724  29.666  28.011  1.00  0.00     0.001 A 
ATOM     70  C   UNL A   1      37.970  28.952  30.305  1.00  0.00     0.001 A 
ATOM     71  C   UNL A   1      37.181  29.471  29.280  1.00  0.00     0.000 A 
ENDBRANCH  52  66
BRANCH  53  72
ATOM     72  C   UNL A   1      49.312  26.421  26.651  1.00  0.00    -0.014 A 
ATOM     73  C   UNL A   1      49.793  26.644  25.353  1.00  0.00     0.009 A 
ATOM     74  C   UNL A   1      50.182  25.889  27.616  1.00  0.00     0.009 A 
ATOM     75  C   UNL A   1      51.113  26.329  25.025  1.00  0.00     0.001 A 
ATOM     76  C   UNL A   1      51.510  25.603  27.292  1.00  0.00     0.001 A 
ATOM     77  C   UNL A   1      51.973  25.818  25.996  1.00  0.00     0.000 A 
ENDBRANCH  53  72
BRANCH  65  78
ATOM     78  C   UNL A   1      46.229  32.294  28.802  1.00  0.00    -0.014 A 
ATOM     79  C   UNL A   1      46.267  33.294  27.817  1.00  0.00     0.009 A 
ATOM     80  C   UNL A   1      46.659  32.602  30.101  1.00  0.00     0.009 A 
ATOM     81  C   UNL A   1      46.757  34.565  28.122  1.00  0.00     0.001 A 
ATOM     82  C   UNL A   1      47.119  33.882  30.410  1.00  0.00     0.001 A 
ATOM     83  C   UNL A   1      47.177  34.860  29.418  1.00  0.00     0.000 A 
ENDBRANCH  65  78
ENDBRANCH  39  40
ENDBRANCH  31  34
ENDBRANCH  29  30
ENDBRANCH  28  29
ENDBRANCH  27  28
ENDBRANCH   1  27
TORSDOF 17
ENDMDL
MODEL 3
REMARK VINA RESULT:     -10.2      3.617      8.868
REMARK SMILES CC[NH2+][C@]1(C(=O)NCCCCCCNC(=O)c2ccc(-c3c4nc(c(-c5ccccc5)c5ccc([nH]5)c(-c5ccccc5)c5nc(c(-c6ccccc6)c6ccc3[nH]6)C=C5)C=C4)cc2)CC[C@@H]([N@@H+]2CCO[C@@H](CC)C2)C1
REMARK SMILES IDX 10 1 9 2 8 3 7 4 5 5 6 6 4 8 65 9 76 10 66 11 67 12 3 13
REMARK SMILES IDX 2 16 1 17 68 18 69 19 75 20 70 22 72 23 71 24 73 25 74 26
REMARK SMILES IDX 11 27 12 28 13 29 14 30 15 31 16 33 17 34 18 35 64 36 19 37
REMARK SMILES IDX 63 38 20 39 21 40 22 41 57 42 23 43 62 44 56 45 58 46 24 47
REMARK SMILES IDX 61 48 55 49 54 50 25 52 47 53 32 54 46 55 33 56 36 57 45 58
REMARK SMILES IDX 59 59 34 60 35 61 44 63 60 64 37 65 26 66 27 67 31 68 28 69
REMARK SMILES IDX 30 70 29 71 48 72 49 73 53 74 50 75 52 76 51 77 38 78 39 79
REMARK SMILES IDX 43 80 40 81 42 82 41 83
REMARK H PARENT 7 7 3 14 3 15 68 21 14 32 58 51 36 62
REMARK Flexibility Score: inf
ROOT
ATOM      1  C   UNL A   1      37.349  22.369  24.813  1.00  0.00     0.002 C 
ENDROOT
BRANCH   1   2
ATOM      2  C   UNL A   1      36.664  23.169  25.923  1.00  0.00     0.021 C 
BRANCH   2   3
ATOM      3  C   UNL A   1      35.434  23.950  25.476  1.00  0.00     0.116 C 
BRANCH   3   4
ATOM      4  N   UNL A   1      34.312  23.723  26.358  1.00  0.00    -0.351 N 
ATOM      5  C   UNL A   1      32.977  23.624  26.085  1.00  0.00     0.281 C 
ATOM      6  O   UNL A   1      32.232  23.466  27.054  1.00  0.00    -0.268 OA
ATOM      7  H   UNL A   1      34.548  23.625  27.309  1.00  0.00     0.163 HD
BRANCH   5   8
ATOM      8  C   UNL A   1      32.468  23.734  24.604  1.00  0.00     0.181 C 
ATOM      9  C   UNL A   1      30.925  23.769  24.598  1.00  0.00     0.085 C 
ATOM     10  C   UNL A   1      32.849  25.112  24.013  1.00  0.00     0.144 C 
ATOM     11  C   UNL A   1      30.516  24.649  23.432  1.00  0.00     0.072 C 
ATOM     12  C   UNL A   1      31.612  25.715  23.321  1.00  0.00     0.191 C 
BRANCH   8  13
ATOM     13  N   UNL A   1      33.190  22.707  23.818  1.00  0.00    -0.334 N 
ATOM     14  H   UNL A   1      33.168  23.003  22.842  1.00  0.00     0.347 HD
ATOM     15  H   UNL A   1      34.113  22.663  24.250  1.00  0.00     0.347 HD
BRANCH  13  16
ATOM     16  C   UNL A   1      32.708  21.341  23.864  1.00  0.00     0.257 C 
ATOM     17  C   UNL A   1      32.084  20.992  22.521  1.00  0.00     0.071 C 
ENDBRANCH  13  16
ENDBRANCH   8  13
BRANCH  12  18
ATOM     18  N   UNL A   1      31.198  27.075  23.698  1.00  0.00    -0.328 N 
ATOM     19  C   UNL A   1      31.644  28.139  22.777  1.00  0.00     0.291 C 
ATOM     20  C   UNL A   1      31.394  27.514  25.088  1.00  0.00     0.294 C 
ATOM     21  H   UNL A   1      30.191  26.941  23.608  1.00  0.00     0.348 HD
ATOM     22  C   UNL A   1      32.966  28.848  23.143  1.00  0.00     0.222 C 
ATOM     23  C   UNL A   1      32.801  28.067  25.382  1.00  0.00     0.173 C 
ATOM     24  O   UNL A   1      33.056  29.199  24.529  1.00  0.00    -0.367 OA
BRANCH  23  25
ATOM     25  C   UNL A   1      32.973  28.547  26.829  1.00  0.00     0.034 C 
ATOM     26  C   UNL A   1      33.109  30.054  26.988  1.00  0.00     0.007 C 
ENDBRANCH  23  25
ENDBRANCH  12  18
ENDBRANCH   5   8
ENDBRANCH   3   4
ENDBRANCH   2   3
ENDBRANCH   1   2
BRANCH   1  27
ATOM     27  C   UNL A   1      36.867  20.924  24.652  1.00  0.00     0.002 C 
BRANCH  27  28
ATOM     28  C   UNL A   1      37.930  19.848  24.877  1.00  0.00     0.021 C 
BRANCH  28  29
ATOM     29  C   UNL A   1      39.029  20.227  25.861  1.00  0.00     0.116 C 
BRANCH  29  30
ATOM     30  N   UNL A   1      40.151  19.306  25.815  1.00  0.00    -0.352 N 
ATOM     31  C   UNL A   1      41.480  19.553  26.037  1.00  0.00     0.251 C 
ATOM     32  H   UNL A   1      39.925  18.374  25.594  1.00  0.00     0.163 HD
ATOM     33  O   UNL A   1      42.322  18.694  25.780  1.00  0.00    -0.269 OA
BRANCH  31  34
ATOM     34  C   UNL A   1      41.905  20.865  26.563  1.00  0.00     0.039 A 
ATOM     35  C   UNL A   1      42.324  21.848  25.663  1.00  0.00     0.014 A 
ATOM     36  C   UNL A   1      41.887  21.129  27.936  1.00  0.00     0.014 A 
ATOM     37  C   UNL A   1      42.671  23.114  26.135  1.00  0.00     0.010 A 
ATOM     38  C   UNL A   1      42.159  22.413  28.397  1.00  0.00     0.010 A 
ATOM     39  C   UNL A   1      42.559  23.416  27.503  1.00  0.00    -0.014 A 
BRANCH  39  40
ATOM     40  C   UNL A   1      42.847  24.780  28.009  1.00  0.00     0.031 A 
ATOM     41  C   UNL A   1      44.246  25.169  28.397  1.00  0.00     0.074 A 
ATOM     42  C   UNL A   1      41.835  25.649  28.184  1.00  0.00     0.049 A 
ATOM     43  N   UNL A   1      44.682  26.300  28.890  1.00  0.00    -0.248 NA
ATOM     44  C   UNL A   1      45.287  24.141  28.236  1.00  0.00     0.031 C 
ATOM     45  C   UNL A   1      40.425  25.377  27.895  1.00  0.00     0.029 A 
ATOM     46  N   UNL A   1      41.835  26.938  28.656  1.00  0.00    -0.354 N 
ATOM     47  C   UNL A   1      46.040  26.115  29.114  1.00  0.00     0.074 A 
ATOM     48  C   UNL A   1      46.345  24.748  28.755  1.00  0.00     0.031 C 
ATOM     49  C   UNL A   1      39.701  26.473  28.170  1.00  0.00     0.029 A 
ATOM     50  C   UNL A   1      40.587  27.509  28.692  1.00  0.00     0.049 A 
ATOM     51  H   UNL A   1      42.652  27.409  28.940  1.00  0.00     0.167 HD
ATOM     52  C   UNL A   1      46.955  27.007  29.564  1.00  0.00     0.031 A 
ATOM     53  C   UNL A   1      40.195  28.729  29.105  1.00  0.00     0.031 A 
ATOM     54  C   UNL A   1      46.649  28.367  29.923  1.00  0.00     0.049 A 
ATOM     55  C   UNL A   1      41.223  29.702  29.606  1.00  0.00     0.074 A 
ATOM     56  C   UNL A   1      47.515  29.370  30.320  1.00  0.00     0.029 A 
ATOM     57  N   UNL A   1      45.373  28.911  29.939  1.00  0.00    -0.354 N 
ATOM     58  N   UNL A   1      42.518  29.541  29.731  1.00  0.00    -0.248 NA
ATOM     59  C   UNL A   1      40.737  31.027  30.011  1.00  0.00     0.031 C 
ATOM     60  C   UNL A   1      46.756  30.501  30.640  1.00  0.00     0.029 A 
ATOM     61  C   UNL A   1      45.424  30.224  30.377  1.00  0.00     0.049 A 
ATOM     62  H   UNL A   1      44.552  28.434  29.678  1.00  0.00     0.167 HD
ATOM     63  C   UNL A   1      43.006  30.750  30.210  1.00  0.00     0.074 A 
ATOM     64  C   UNL A   1      41.868  31.638  30.335  1.00  0.00     0.031 C 
ATOM     65  C   UNL A   1      44.282  31.092  30.516  1.00  0.00     0.031 A 
BRANCH  52  66
ATOM     66  C   UNL A   1      48.372  26.521  29.716  1.00  0.00    -0.014 A 
ATOM     67  C   UNL A   1      48.829  25.953  30.916  1.00  0.00     0.009 A 
ATOM     68  C   UNL A   1      49.265  26.631  28.638  1.00  0.00     0.009 A 
ATOM     69  C   UNL A   1      50.161  25.555  31.052  1.00  0.00     0.001 A 
ATOM     70  C   UNL A   1      50.587  26.201  28.764  1.00  0.00     0.001 A 
ATOM     71  C   UNL A   1      51.037  25.677  29.975  1.00  0.00     0.000 A 
ENDBRANCH  52  66
BRANCH  53  72
ATOM     72  C   UNL A   1      38.755  29.094  29.042  1.00  0.00    -0.014 A 
ATOM     73  C   UNL A   1      37.940  28.978  30.177  1.00  0.00     0.009 A 
ATOM     74  C   UNL A   1      38.200  29.595  27.854  1.00  0.00     0.009 A 
ATOM     75  C   UNL A   1      36.593  29.344  30.119  1.00  0.00     0.001 A 
ATOM     76  C   UNL A   1      36.861  29.987  27.808  1.00  0.00     0.001 A 
ATOM     77  C   UNL A   1      36.057  29.856  28.938  1.00  0.00     0.000 A 
ENDBRANCH  53  72
BRANCH  65  78
ATOM     78  C   UNL A   1      44.518  32.495  31.003  1.00  0.00    -0.014 A 
ATOM     79  C   UNL A   1      44.764  33.547  30.107  1.00  0.00     0.009 A 
ATOM     80  C   UNL A   1      44.454  32.774  32.378  1.00  0.00     0.009 A 
ATOM     81  C   UNL A   1      44.973  34.844  30.581  1.00  0.00     0.001 A 
ATOM     82  C   UNL A   1      44.633  34.076  32.846  1.00  0.00     0.001 A 
ATOM     83  C   UNL A   1      44.903  35.108  31.948  1.00  0.00     0.000 A 
ENDBRANCH  65  78
ENDBRANCH  39  40
ENDBRANCH  31  34
ENDBRANCH  29  30
ENDBRANCH  28  29
ENDBRANCH  27  28
ENDBRANCH   1  27
TORSDOF 17
ENDMDL
