MODEL 1
REMARK VINA RESULT:     -10.6      0.000      0.000
REMARK SMILES O=C(NCCCCCCNC(=O)c1ccc(CNC(=O)c2cccnc2)o1)c1ccc(-c2c3nc(c(-c4ccccc4)c4ccc([nH]4)c(-c4ccccc4)c4nc(c(-c5ccccc5)c5ccc2[nH]5)C=C4)C=C3)cc1
REMARK SMILES IDX 7 1 6 2 5 3 4 4 3 5 1 6 2 7 28 9 29 10 75 11 30 12 74 13
REMARK SMILES IDX 31 14 32 15 33 16 68 17 34 18 73 19 67 20 69 21 35 22 72 23
REMARK SMILES IDX 66 24 65 25 36 27 58 28 43 29 57 30 44 31 47 32 56 33 70 34
REMARK SMILES IDX 45 35 46 36 55 38 71 39 48 40 37 41 38 42 42 43 39 44 41 45
REMARK SMILES IDX 40 46 59 47 60 48 64 49 61 50 63 51 62 52 49 53 50 54 54 55
REMARK SMILES IDX 51 56 53 57 52 58 8 59 9 60 10 61 11 62 12 64 13 65 14 66
REMARK SMILES IDX 27 67 15 68 16 69 17 70 18 71 19 72 20 74 21 75 22 76 26 77
REMARK SMILES IDX 23 78 25 79 24 80
REMARK H PARENT 3 8 69 26 47 37 10 63 18 73
REMARK Flexibility Score: inf
ROOT
ATOM      1  C   UNL A   1      38.537  22.206  25.760  1.00  0.00     0.002 C 
ENDROOT
BRANCH   1   2
ATOM      2  C   UNL A   1      37.767  21.116  25.008  1.00  0.00     0.002 C 
BRANCH   2   3
ATOM      3  C   UNL A   1      38.428  19.738  24.981  1.00  0.00     0.021 C 
BRANCH   3   4
ATOM      4  C   UNL A   1      39.358  19.437  26.150  1.00  0.00     0.116 C 
BRANCH   4   5
ATOM      5  N   UNL A   1      40.662  18.951  25.732  1.00  0.00    -0.352 N 
ATOM      6  O   UNL A   1      42.862  19.063  25.232  1.00  0.00    -0.269 OA
ATOM      7  C   UNL A   1      41.880  19.591  25.746  1.00  0.00     0.251 C 
ATOM      8  H   UNL A   1      40.676  18.028  25.389  1.00  0.00     0.163 HD
BRANCH   7   9
ATOM      9  C   UNL A   1      42.000  20.938  26.348  1.00  0.00     0.039 A 
ATOM     10  C   UNL A   1      42.303  22.051  25.562  1.00  0.00     0.014 A 
ATOM     11  C   UNL A   1      41.815  21.084  27.726  1.00  0.00     0.014 A 
ATOM     12  C   UNL A   1      42.583  23.270  26.172  1.00  0.00     0.010 A 
ATOM     13  C   UNL A   1      42.013  22.332  28.327  1.00  0.00     0.010 A 
ATOM     14  C   UNL A   1      42.445  23.425  27.561  1.00  0.00    -0.014 A 
BRANCH  14  15
ATOM     15  C   UNL A   1      42.742  24.744  28.178  1.00  0.00     0.031 A 
ATOM     16  C   UNL A   1      44.150  25.141  28.532  1.00  0.00     0.074 A 
ATOM     17  C   UNL A   1      41.732  25.616  28.371  1.00  0.00     0.049 A 
ATOM     18  N   UNL A   1      44.590  26.283  29.001  1.00  0.00    -0.248 NA
ATOM     19  C   UNL A   1      45.201  24.128  28.344  1.00  0.00     0.031 C 
ATOM     20  C   UNL A   1      40.321  25.351  28.078  1.00  0.00     0.029 A 
ATOM     21  N   UNL A   1      41.741  26.909  28.828  1.00  0.00    -0.354 N 
ATOM     22  C   UNL A   1      45.957  26.117  29.188  1.00  0.00     0.074 A 
ATOM     23  C   UNL A   1      46.273  24.760  28.801  1.00  0.00     0.031 C 
ATOM     24  C   UNL A   1      39.611  26.466  28.301  1.00  0.00     0.029 A 
ATOM     25  C   UNL A   1      40.503  27.504  28.803  1.00  0.00     0.049 A 
ATOM     26  H   UNL A   1      42.553  27.366  29.143  1.00  0.00     0.167 HD
ATOM     27  C   UNL A   1      46.868  27.016  29.637  1.00  0.00     0.031 A 
ATOM     28  C   UNL A   1      40.124  28.749  29.146  1.00  0.00     0.031 A 
ATOM     29  C   UNL A   1      46.561  28.371  30.013  1.00  0.00     0.049 A 
ATOM     30  C   UNL A   1      41.152  29.720  29.644  1.00  0.00     0.074 A 
ATOM     31  C   UNL A   1      47.425  29.365  30.440  1.00  0.00     0.029 A 
ATOM     32  N   UNL A   1      45.289  28.923  30.007  1.00  0.00    -0.354 N 
ATOM     33  N   UNL A   1      42.446  29.559  29.773  1.00  0.00    -0.248 NA
ATOM     34  C   UNL A   1      40.665  31.049  30.040  1.00  0.00     0.031 C 
ATOM     35  C   UNL A   1      46.670  30.506  30.734  1.00  0.00     0.029 A 
ATOM     36  C   UNL A   1      45.343  30.237  30.443  1.00  0.00     0.049 A 
ATOM     37  H   UNL A   1      44.470  28.451  29.734  1.00  0.00     0.167 HD
ATOM     38  C   UNL A   1      42.931  30.770  30.245  1.00  0.00     0.074 A 
ATOM     39  C   UNL A   1      41.795  31.662  30.361  1.00  0.00     0.031 C 
ATOM     40  C   UNL A   1      44.205  31.111  30.556  1.00  0.00     0.031 A 
BRANCH  27  41
ATOM     41  C   UNL A   1      48.291  26.551  29.775  1.00  0.00    -0.014 A 
ATOM     42  C   UNL A   1      49.225  26.737  28.743  1.00  0.00     0.009 A 
ATOM     43  C   UNL A   1      48.715  25.958  30.975  1.00  0.00     0.009 A 
ATOM     44  C   UNL A   1      50.545  26.309  28.899  1.00  0.00     0.001 A 
ATOM     45  C   UNL A   1      50.042  25.554  31.137  1.00  0.00     0.001 A 
ATOM     46  C   UNL A   1      50.953  25.722  30.097  1.00  0.00     0.000 A 
ENDBRANCH  27  41
BRANCH  28  47
ATOM     47  C   UNL A   1      38.699  29.148  29.018  1.00  0.00    -0.014 A 
ATOM     48  C   UNL A   1      38.212  29.665  27.808  1.00  0.00     0.009 A 
ATOM     49  C   UNL A   1      37.818  29.003  30.100  1.00  0.00     0.009 A 
ATOM     50  C   UNL A   1      36.874  30.047  27.692  1.00  0.00     0.001 A 
ATOM     51  C   UNL A   1      36.475  29.360  29.972  1.00  0.00     0.001 A 
ATOM     52  C   UNL A   1      36.006  29.889  28.771  1.00  0.00     0.000 A 
ENDBRANCH  28  47
BRANCH  40  53
ATOM     53  C   UNL A   1      44.437  32.521  31.020  1.00  0.00    -0.014 A 
ATOM     54  C   UNL A   1      44.396  32.855  32.382  1.00  0.00     0.009 A 
ATOM     55  C   UNL A   1      44.714  33.524  30.079  1.00  0.00     0.009 A 
ATOM     56  C   UNL A   1      44.592  34.176  32.790  1.00  0.00     0.001 A 
ATOM     57  C   UNL A   1      44.935  34.838  30.492  1.00  0.00     0.001 A 
ATOM     58  C   UNL A   1      44.863  35.166  31.845  1.00  0.00     0.000 A 
ENDBRANCH  40  53
ENDBRANCH  14  15
ENDBRANCH   7   9
ENDBRANCH   4   5
ENDBRANCH   3   4
ENDBRANCH   2   3
ENDBRANCH   1   2
BRANCH   1  59
ATOM     59  C   UNL A   1      37.799  23.539  25.943  1.00  0.00     0.021 C 
BRANCH  59  60
ATOM     60  C   UNL A   1      36.554  23.721  25.075  1.00  0.00     0.116 C 
BRANCH  60  61
ATOM     61  N   UNL A   1      35.516  24.460  25.768  1.00  0.00    -0.349 N 
ATOM     62  C   UNL A   1      34.158  24.445  25.546  1.00  0.00     0.286 C 
ATOM     63  H   UNL A   1      35.824  25.051  26.492  1.00  0.00     0.163 HD
ATOM     64  O   UNL A   1      33.475  25.298  26.113  1.00  0.00    -0.266 OA
BRANCH  62  65
ATOM     65  C   UNL A   1      33.615  23.433  24.672  1.00  0.00     0.191 A 
ATOM     66  C   UNL A   1      33.250  23.453  23.337  1.00  0.00     0.056 A 
ATOM     67  O   UNL A   1      33.379  22.190  25.186  1.00  0.00    -0.454 OA
ATOM     68  C   UNL A   1      32.752  22.165  23.029  1.00  0.00     0.048 A 
ATOM     69  C   UNL A   1      32.835  21.431  24.193  1.00  0.00     0.124 A 
BRANCH  69  70
ATOM     70  C   UNL A   1      32.408  20.062  24.569  1.00  0.00     0.191 C 
BRANCH  70  71
ATOM     71  N   UNL A   1      32.091  19.299  23.381  1.00  0.00    -0.345 N 
ATOM     72  C   UNL A   1      32.618  18.104  22.963  1.00  0.00     0.253 C 
ATOM     73  H   UNL A   1      31.405  19.690  22.794  1.00  0.00     0.164 HD
ATOM     74  O   UNL A   1      32.329  17.650  21.861  1.00  0.00    -0.269 OA
BRANCH  72  75
ATOM     75  C   UNL A   1      33.551  17.361  23.824  1.00  0.00     0.058 A 
ATOM     76  C   UNL A   1      34.807  17.853  24.182  1.00  0.00     0.017 A 
ATOM     77  C   UNL A   1      33.154  16.132  24.331  1.00  0.00     0.124 A 
ATOM     78  C   UNL A   1      35.640  17.069  24.976  1.00  0.00     0.021 A 
ATOM     79  N   UNL A   1      33.947  15.352  25.109  1.00  0.00    -0.264 NA
ATOM     80  C   UNL A   1      35.172  15.836  25.406  1.00  0.00     0.111 A 
ENDBRANCH  72  75
ENDBRANCH  70  71
ENDBRANCH  69  70
ENDBRANCH  62  65
ENDBRANCH  60  61
ENDBRANCH  59  60
ENDBRANCH   1  59
TORSDOF 16
ENDMDL
MODEL 2
REMARK VINA RESULT:     -10.5      4.664      9.956
REMARK SMILES O=C(NCCCCCCNC(=O)c1ccc(CNC(=O)c2cccnc2)o1)c1ccc(-c2c3nc(c(-c4ccccc4)c4ccc([nH]4)c(-c4ccccc4)c4nc(c(-c5ccccc5)c5ccc2[nH]5)C=C4)C=C3)cc1
REMARK SMILES IDX 7 1 6 2 5 3 4 4 3 5 1 6 2 7 28 9 29 10 75 11 30 12 74 13
REMARK SMILES IDX 31 14 32 15 33 16 68 17 34 18 73 19 67 20 69 21 35 22 72 23
REMARK SMILES IDX 66 24 65 25 36 27 58 28 43 29 57 30 44 31 47 32 56 33 70 34
REMARK SMILES IDX 45 35 46 36 55 38 71 39 48 40 37 41 38 42 42 43 39 44 41 45
REMARK SMILES IDX 40 46 59 47 60 48 64 49 61 50 63 51 62 52 49 53 50 54 54 55
REMARK SMILES IDX 51 56 53 57 52 58 8 59 9 60 10 61 11 62 12 64 13 65 14 66
REMARK SMILES IDX 27 67 15 68 16 69 17 70 18 71 19 72 20 74 21 75 22 76 26 77
REMARK SMILES IDX 23 78 25 79 24 80
REMARK H PARENT 3 8 69 26 47 37 10 63 18 73
REMARK Flexibility Score: inf
ROOT
ATOM      1  C   UNL A   1      33.742  30.205  27.334  1.00  0.00     0.002 C 
ENDROOT
BRANCH   1   2
ATOM      2  C   UNL A   1      32.214  30.125  27.257  1.00  0.00     0.002 C 
BRANCH   2   3
ATOM      3  C   UNL A   1      31.491  31.453  27.035  1.00  0.00     0.021 C 
BRANCH   3   4
ATOM      4  C   UNL A   1      32.380  32.619  26.619  1.00  0.00     0.116 C 
BRANCH   4   5
ATOM      5  N   UNL A   1      32.213  33.792  27.459  1.00  0.00    -0.352 N 
ATOM      6  O   UNL A   1      32.630  35.195  29.179  1.00  0.00    -0.269 OA
ATOM      7  C   UNL A   1      32.997  34.244  28.496  1.00  0.00     0.251 C 
ATOM      8  H   UNL A   1      31.425  34.346  27.256  1.00  0.00     0.163 HD
BRANCH   7   9
ATOM      9  C   UNL A   1      34.270  33.558  28.813  1.00  0.00     0.039 A 
ATOM     10  C   UNL A   1      34.355  32.658  29.877  1.00  0.00     0.014 A 
ATOM     11  C   UNL A   1      35.400  33.830  28.036  1.00  0.00     0.014 A 
ATOM     12  C   UNL A   1      35.596  32.163  30.264  1.00  0.00     0.010 A 
ATOM     13  C   UNL A   1      36.633  33.261  28.375  1.00  0.00     0.010 A 
ATOM     14  C   UNL A   1      36.750  32.460  29.520  1.00  0.00    -0.014 A 
BRANCH  14  15
ATOM     15  C   UNL A   1      38.058  31.905  29.956  1.00  0.00     0.031 A 
ATOM     16  C   UNL A   1      38.867  32.571  31.036  1.00  0.00     0.074 A 
ATOM     17  C   UNL A   1      38.494  30.755  29.406  1.00  0.00     0.049 A 
ATOM     18  N   UNL A   1      39.988  32.174  31.588  1.00  0.00    -0.248 NA
ATOM     19  C   UNL A   1      38.364  33.850  31.562  1.00  0.00     0.031 C 
ATOM     20  C   UNL A   1      37.807  30.014  28.344  1.00  0.00     0.029 A 
ATOM     21  N   UNL A   1      39.599  29.991  29.684  1.00  0.00    -0.354 N 
ATOM     22  C   UNL A   1      40.335  33.161  32.502  1.00  0.00     0.074 A 
ATOM     23  C   UNL A   1      39.318  34.187  32.419  1.00  0.00     0.031 C 
ATOM     24  C   UNL A   1      38.471  28.874  28.106  1.00  0.00     0.029 A 
ATOM     25  C   UNL A   1      39.655  28.827  28.956  1.00  0.00     0.049 A 
ATOM     26  H   UNL A   1      40.284  30.251  30.340  1.00  0.00     0.167 HD
ATOM     27  C   UNL A   1      41.400  33.208  33.339  1.00  0.00     0.031 A 
ATOM     28  C   UNL A   1      40.558  27.831  28.969  1.00  0.00     0.031 A 
ATOM     29  C   UNL A   1      42.408  32.185  33.434  1.00  0.00     0.049 A 
ATOM     30  C   UNL A   1      41.729  27.910  29.902  1.00  0.00     0.074 A 
ATOM     31  C   UNL A   1      43.502  32.127  34.282  1.00  0.00     0.029 A 
ATOM     32  N   UNL A   1      42.447  31.040  32.654  1.00  0.00    -0.354 N 
ATOM     33  N   UNL A   1      42.017  28.832  30.788  1.00  0.00    -0.248 NA
ATOM     34  C   UNL A   1      42.700  26.810  29.836  1.00  0.00     0.031 C 
ATOM     35  C   UNL A   1      44.227  30.968  33.985  1.00  0.00     0.029 A 
ATOM     36  C   UNL A   1      43.557  30.280  32.986  1.00  0.00     0.049 A 
ATOM     37  H   UNL A   1      41.785  30.802  31.966  1.00  0.00     0.167 HD
ATOM     38  C   UNL A   1      43.189  28.412  31.401  1.00  0.00     0.074 A 
ATOM     39  C   UNL A   1      43.548  27.144  30.798  1.00  0.00     0.031 C 
ATOM     40  C   UNL A   1      43.904  29.023  32.376  1.00  0.00     0.031 A 
BRANCH  27  41
ATOM     41  C   UNL A   1      41.548  34.427  34.206  1.00  0.00    -0.014 A 
ATOM     42  C   UNL A   1      41.058  34.453  35.521  1.00  0.00     0.009 A 
ATOM     43  C   UNL A   1      42.230  35.551  33.714  1.00  0.00     0.009 A 
ATOM     44  C   UNL A   1      41.219  35.592  36.314  1.00  0.00     0.001 A 
ATOM     45  C   UNL A   1      42.411  36.680  34.517  1.00  0.00     0.001 A 
ATOM     46  C   UNL A   1      41.899  36.702  35.813  1.00  0.00     0.000 A 
ENDBRANCH  27  41
BRANCH  28  47
ATOM     47  C   UNL A   1      40.380  26.661  28.070  1.00  0.00    -0.014 A 
ATOM     48  C   UNL A   1      39.687  25.524  28.512  1.00  0.00     0.009 A 
ATOM     49  C   UNL A   1      40.891  26.683  26.764  1.00  0.00     0.009 A 
ATOM     50  C   UNL A   1      39.527  24.423  27.668  1.00  0.00     0.001 A 
ATOM     51  C   UNL A   1      40.705  25.591  25.913  1.00  0.00     0.001 A 
ATOM     52  C   UNL A   1      40.031  24.459  26.369  1.00  0.00     0.000 A 
ENDBRANCH  28  47
BRANCH  40  53
ATOM     53  C   UNL A   1      45.129  28.308  32.870  1.00  0.00    -0.014 A 
ATOM     54  C   UNL A   1      46.389  28.545  32.301  1.00  0.00     0.009 A 
ATOM     55  C   UNL A   1      45.019  27.396  33.931  1.00  0.00     0.009 A 
ATOM     56  C   UNL A   1      47.511  27.852  32.760  1.00  0.00     0.001 A 
ATOM     57  C   UNL A   1      46.147  26.726  34.406  1.00  0.00     0.001 A 
ATOM     58  C   UNL A   1      47.389  26.945  33.813  1.00  0.00     0.000 A 
ENDBRANCH  40  53
ENDBRANCH  14  15
ENDBRANCH   7   9
ENDBRANCH   4   5
ENDBRANCH   3   4
ENDBRANCH   2   3
ENDBRANCH   1   2
BRANCH   1  59
ATOM     59  C   UNL A   1      34.505  29.019  26.732  1.00  0.00     0.021 C 
BRANCH  59  60
ATOM     60  C   UNL A   1      33.747  28.228  25.665  1.00  0.00     0.116 C 
BRANCH  60  61
ATOM     61  N   UNL A   1      34.096  26.821  25.686  1.00  0.00    -0.349 N 
ATOM     62  C   UNL A   1      33.259  25.729  25.678  1.00  0.00     0.286 C 
ATOM     63  H   UNL A   1      35.059  26.621  25.710  1.00  0.00     0.163 HD
ATOM     64  O   UNL A   1      33.756  24.625  25.901  1.00  0.00    -0.266 OA
BRANCH  62  65
ATOM     65  C   UNL A   1      31.858  25.938  25.403  1.00  0.00     0.191 A 
ATOM     66  C   UNL A   1      30.710  25.408  25.964  1.00  0.00     0.056 A 
ATOM     67  O   UNL A   1      31.515  26.806  24.405  1.00  0.00    -0.454 OA
ATOM     68  C   UNL A   1      29.615  25.967  25.262  1.00  0.00     0.048 A 
ATOM     69  C   UNL A   1      30.155  26.804  24.309  1.00  0.00     0.124 A 
BRANCH  69  70
ATOM     70  C   UNL A   1      29.572  27.612  23.212  1.00  0.00     0.191 C 
BRANCH  70  71
ATOM     71  N   UNL A   1      28.128  27.608  23.308  1.00  0.00    -0.345 N 
ATOM     72  C   UNL A   1      27.255  28.655  23.163  1.00  0.00     0.253 C 
ATOM     73  H   UNL A   1      27.717  26.735  23.504  1.00  0.00     0.164 HD
ATOM     74  O   UNL A   1      26.061  28.505  23.401  1.00  0.00    -0.269 OA
BRANCH  72  75
ATOM     75  C   UNL A   1      27.743  29.976  22.736  1.00  0.00     0.058 A 
ATOM     76  C   UNL A   1      28.049  30.997  23.638  1.00  0.00     0.017 A 
ATOM     77  C   UNL A   1      27.940  30.208  21.383  1.00  0.00     0.124 A 
ATOM     78  C   UNL A   1      28.475  32.228  23.146  1.00  0.00     0.021 A 
ATOM     79  N   UNL A   1      28.357  31.398  20.881  1.00  0.00    -0.264 NA
ATOM     80  C   UNL A   1      28.607  32.380  21.773  1.00  0.00     0.111 A 
ENDBRANCH  72  75
ENDBRANCH  70  71
ENDBRANCH  69  70
ENDBRANCH  62  65
ENDBRANCH  60  61
ENDBRANCH  59  60
ENDBRANCH   1  59
TORSDOF 16
ENDMDL
MODEL 3
REMARK VINA RESULT:     -10.5      2.296      6.954
REMARK SMILES O=C(NCCCCCCNC(=O)c1ccc(CNC(=O)c2cccnc2)o1)c1ccc(-c2c3nc(c(-c4ccccc4)c4ccc([nH]4)c(-c4ccccc4)c4nc(c(-c5ccccc5)c5ccc2[nH]5)C=C4)C=C3)cc1
REMARK SMILES IDX 7 1 6 2 5 3 4 4 3 5 1 6 2 7 28 9 29 10 75 11 30 12 74 13
REMARK SMILES IDX 31 14 32 15 33 16 68 17 34 18 73 19 67 20 69 21 35 22 72 23
REMARK SMILES IDX 66 24 65 25 36 27 58 28 43 29 57 30 44 31 47 32 56 33 70 34
REMARK SMILES IDX 45 35 46 36 55 38 71 39 48 40 37 41 38 42 42 43 39 44 41 45
REMARK SMILES IDX 40 46 59 47 60 48 64 49 61 50 63 51 62 52 49 53 50 54 54 55
REMARK SMILES IDX 51 56 53 57 52 58 8 59 9 60 10 61 11 62 12 64 13 65 14 66
REMARK SMILES IDX 27 67 15 68 16 69 17 70 18 71 19 72 20 74 21 75 22 76 26 77
REMARK SMILES IDX 23 78 25 79 24 80
REMARK H PARENT 3 8 69 26 47 37 10 63 18 73
REMARK Flexibility Score: inf
ROOT
ATOM      1  C   UNL A   1      34.153  25.842  24.799  1.00  0.00     0.002 C 
ENDROOT
BRANCH   1   2
ATOM      2  C   UNL A   1      34.554  24.457  24.282  1.00  0.00     0.002 C 
BRANCH   2   3
ATOM      3  C   UNL A   1      35.211  23.532  25.306  1.00  0.00     0.021 C 
BRANCH   3   4
ATOM      4  C   UNL A   1      36.575  23.985  25.813  1.00  0.00     0.116 C 
BRANCH   4   5
ATOM      5  N   UNL A   1      37.538  22.901  25.909  1.00  0.00    -0.352 N 
ATOM      6  O   UNL A   1      39.549  21.928  26.240  1.00  0.00    -0.269 OA
ATOM      7  C   UNL A   1      38.841  22.925  26.350  1.00  0.00     0.251 C 
ATOM      8  H   UNL A   1      37.210  22.021  25.616  1.00  0.00     0.163 HD
BRANCH   7   9
ATOM      9  C   UNL A   1      39.405  24.167  26.923  1.00  0.00     0.039 A 
ATOM     10  C   UNL A   1      39.259  24.463  28.279  1.00  0.00     0.014 A 
ATOM     11  C   UNL A   1      40.085  25.055  26.084  1.00  0.00     0.014 A 
ATOM     12  C   UNL A   1      39.641  25.712  28.758  1.00  0.00     0.010 A 
ATOM     13  C   UNL A   1      40.547  26.276  26.588  1.00  0.00     0.010 A 
ATOM     14  C   UNL A   1      40.287  26.635  27.919  1.00  0.00    -0.014 A 
BRANCH  14  15
ATOM     15  C   UNL A   1      40.691  27.956  28.466  1.00  0.00     0.031 A 
ATOM     16  C   UNL A   1      39.679  29.043  28.710  1.00  0.00     0.074 A 
ATOM     17  C   UNL A   1      41.982  28.157  28.797  1.00  0.00     0.049 A 
ATOM     18  N   UNL A   1      39.853  30.221  29.256  1.00  0.00    -0.248 NA
ATOM     19  C   UNL A   1      38.295  28.781  28.282  1.00  0.00     0.031 C 
ATOM     20  C   UNL A   1      43.064  27.187  28.603  1.00  0.00     0.029 A 
ATOM     21  N   UNL A   1      42.598  29.228  29.393  1.00  0.00    -0.354 N 
ATOM     22  C   UNL A   1      38.614  30.849  29.212  1.00  0.00     0.074 A 
ATOM     23  C   UNL A   1      37.699  29.930  28.570  1.00  0.00     0.031 C 
ATOM     24  C   UNL A   1      44.194  27.681  29.129  1.00  0.00     0.029 A 
ATOM     25  C   UNL A   1      43.931  29.019  29.647  1.00  0.00     0.049 A 
ATOM     26  H   UNL A   1      42.130  30.063  29.618  1.00  0.00     0.167 HD
ATOM     27  C   UNL A   1      38.266  32.077  29.670  1.00  0.00     0.031 A 
ATOM     28  C   UNL A   1      44.846  29.814  30.231  1.00  0.00     0.031 A 
ATOM     29  C   UNL A   1      39.169  32.990  30.321  1.00  0.00     0.049 A 
ATOM     30  C   UNL A   1      44.435  31.169  30.724  1.00  0.00     0.074 A 
ATOM     31  C   UNL A   1      38.897  34.239  30.854  1.00  0.00     0.029 A 
ATOM     32  N   UNL A   1      40.520  32.754  30.525  1.00  0.00    -0.354 N 
ATOM     33  N   UNL A   1      43.249  31.727  30.713  1.00  0.00    -0.248 NA
ATOM     34  C   UNL A   1      45.491  32.003  31.314  1.00  0.00     0.031 C 
ATOM     35  C   UNL A   1      40.093  34.777  31.343  1.00  0.00     0.029 A 
ATOM     36  C   UNL A   1      41.099  33.842  31.158  1.00  0.00     0.049 A 
ATOM     37  H   UNL A   1      40.996  31.935  30.260  1.00  0.00     0.167 HD
ATOM     38  C   UNL A   1      43.411  32.968  31.313  1.00  0.00     0.074 A 
ATOM     39  C   UNL A   1      44.805  33.072  31.693  1.00  0.00     0.031 C 
ATOM     40  C   UNL A   1      42.486  33.934  31.527  1.00  0.00     0.031 A 
BRANCH  27  41
ATOM     41  C   UNL A   1      36.845  32.520  29.458  1.00  0.00    -0.014 A 
ATOM     42  C   UNL A   1      35.864  32.328  30.445  1.00  0.00     0.009 A 
ATOM     43  C   UNL A   1      36.494  33.180  28.271  1.00  0.00     0.009 A 
ATOM     44  C   UNL A   1      34.554  32.761  30.231  1.00  0.00     0.001 A 
ATOM     45  C   UNL A   1      35.188  33.634  28.071  1.00  0.00     0.001 A 
ATOM     46  C   UNL A   1      34.218  33.417  29.047  1.00  0.00     0.000 A 
ENDBRANCH  27  41
BRANCH  28  47
ATOM     47  C   UNL A   1      46.244  29.338  30.390  1.00  0.00    -0.014 A 
ATOM     48  C   UNL A   1      46.646  28.692  31.568  1.00  0.00     0.009 A 
ATOM     49  C   UNL A   1      47.179  29.518  29.359  1.00  0.00     0.009 A 
ATOM     50  C   UNL A   1      47.963  28.253  31.719  1.00  0.00     0.001 A 
ATOM     51  C   UNL A   1      48.487  29.053  29.501  1.00  0.00     0.001 A 
ATOM     52  C   UNL A   1      48.880  28.428  30.683  1.00  0.00     0.000 A 
ENDBRANCH  28  47
BRANCH  40  53
ATOM     53  C   UNL A   1      42.952  35.175  32.235  1.00  0.00    -0.014 A 
ATOM     54  C   UNL A   1      43.622  36.197  31.546  1.00  0.00     0.009 A 
ATOM     55  C   UNL A   1      42.702  35.326  33.608  1.00  0.00     0.009 A 
ATOM     56  C   UNL A   1      44.066  37.332  32.228  1.00  0.00     0.001 A 
ATOM     57  C   UNL A   1      43.124  36.473  34.280  1.00  0.00     0.001 A 
ATOM     58  C   UNL A   1      43.816  37.470  33.593  1.00  0.00     0.000 A 
ENDBRANCH  40  53
ENDBRANCH  14  15
ENDBRANCH   7   9
ENDBRANCH   4   5
ENDBRANCH   3   4
ENDBRANCH   2   3
ENDBRANCH   1   2
BRANCH   1  59
ATOM     59  C   UNL A   1      33.358  25.861  26.111  1.00  0.00     0.021 C 
BRANCH  59  60
ATOM     60  C   UNL A   1      31.857  26.109  25.961  1.00  0.00     0.116 C 
BRANCH  60  61
ATOM     61  N   UNL A   1      31.077  25.211  26.790  1.00  0.00    -0.349 N 
ATOM     62  C   UNL A   1      30.593  23.960  26.482  1.00  0.00     0.286 C 
ATOM     63  H   UNL A   1      30.863  25.541  27.692  1.00  0.00     0.163 HD
ATOM     64  O   UNL A   1      29.784  23.451  27.257  1.00  0.00    -0.266 OA
BRANCH  62  65
ATOM     65  C   UNL A   1      31.065  23.318  25.278  1.00  0.00     0.191 A 
ATOM     66  C   UNL A   1      30.899  23.617  23.937  1.00  0.00     0.056 A 
ATOM     67  O   UNL A   1      31.820  22.186  25.399  1.00  0.00    -0.454 OA
ATOM     68  C   UNL A   1      31.572  22.609  23.207  1.00  0.00     0.048 A 
ATOM     69  C   UNL A   1      32.106  21.747  24.141  1.00  0.00     0.124 A 
BRANCH  69  70
ATOM     70  C   UNL A   1      32.841  20.464  24.043  1.00  0.00     0.191 C 
BRANCH  70  71
ATOM     71  N   UNL A   1      32.307  19.669  22.958  1.00  0.00    -0.345 N 
ATOM     72  C   UNL A   1      32.424  18.320  22.744  1.00  0.00     0.253 C 
ATOM     73  H   UNL A   1      31.790  20.164  22.282  1.00  0.00     0.164 HD
ATOM     74  O   UNL A   1      32.015  17.819  21.702  1.00  0.00    -0.269 OA
BRANCH  72  75
ATOM     75  C   UNL A   1      33.057  17.459  23.755  1.00  0.00     0.058 A 
ATOM     76  C   UNL A   1      34.405  17.098  23.706  1.00  0.00     0.017 A 
ATOM     77  C   UNL A   1      32.292  17.012  24.822  1.00  0.00     0.124 A 
ATOM     78  C   UNL A   1      34.915  16.253  24.688  1.00  0.00     0.021 A 
ATOM     79  N   UNL A   1      32.769  16.191  25.793  1.00  0.00    -0.264 NA
ATOM     80  C   UNL A   1      34.065  15.826  25.697  1.00  0.00     0.111 A 
ENDBRANCH  72  75
ENDBRANCH  70  71
ENDBRANCH  69  70
ENDBRANCH  62  65
ENDBRANCH  60  61
ENDBRANCH  59  60
ENDBRANCH   1  59
TORSDOF 16
ENDMDL
