MODEL 1
REMARK VINA RESULT:     -10.6      0.000      0.000
REMARK SMILES CC(C)[NH2+][C@@]1(C(=O)NCCCCCCNC(=O)c2ccc(-c3c4nc(c(-c5ccccc5)c5ccc([nH]5)c(-c5ccccc5)c5nc(c(-c6ccccc6)c6ccc3[nH]6)C=C5)C=C4)cc2)CCC[C@H](SC2CCCCC2)C1
REMARK SMILES IDX 11 1 10 2 9 3 8 4 6 5 7 6 5 8 66 9 77 10 67 11 69 12 68 13
REMARK SMILES IDX 4 14 2 17 1 18 3 19 70 20 71 21 72 22 76 23 73 24 75 25
REMARK SMILES IDX 74 26 12 27 13 28 14 29 15 30 16 31 17 33 18 34 19 35 65 36
REMARK SMILES IDX 20 37 64 38 21 39 22 40 23 41 58 42 24 43 63 44 57 45 59 46
REMARK SMILES IDX 25 47 62 48 56 49 55 50 26 52 48 53 33 54 47 55 34 56 37 57
REMARK SMILES IDX 46 58 60 59 35 60 36 61 45 63 61 64 38 65 27 66 28 67 32 68
REMARK SMILES IDX 29 69 31 70 30 71 49 72 50 73 54 74 51 75 53 76 52 77 39 78
REMARK SMILES IDX 40 79 44 80 41 81 43 82 42 83
REMARK H PARENT 8 7 4 15 4 16 15 32 59 51 37 62
REMARK Flexibility Score: inf
ROOT
ATOM      1  C   UNL A   1      38.230  22.469  25.728  1.00  0.00     0.002 C 
ENDROOT
BRANCH   1   2
ATOM      2  C   UNL A   1      37.369  23.667  26.148  1.00  0.00     0.021 C 
BRANCH   2   3
ATOM      3  C   UNL A   1      35.878  23.615  25.809  1.00  0.00     0.116 C 
BRANCH   3   4
ATOM      4  N   UNL A   1      35.157  22.755  26.739  1.00  0.00    -0.351 N 
ATOM      5  C   UNL A   1      34.040  21.988  26.723  1.00  0.00     0.281 C 
ATOM      6  O   UNL A   1      33.713  21.591  27.859  1.00  0.00    -0.268 OA
ATOM      7  H   UNL A   1      35.602  22.723  27.618  1.00  0.00     0.163 HD
BRANCH   5   8
ATOM      8  C   UNL A   1      33.105  21.572  25.475  1.00  0.00     0.176 C 
ATOM      9  C   UNL A   1      33.822  21.640  24.117  1.00  0.00     0.079 C 
ATOM     10  C   UNL A   1      31.772  22.378  25.617  1.00  0.00     0.093 C 
ATOM     11  C   UNL A   1      33.539  22.893  23.300  1.00  0.00     0.008 C 
ATOM     12  C   UNL A   1      31.408  23.456  24.553  1.00  0.00     0.053 C 
ATOM     13  C   UNL A   1      32.051  23.142  23.209  1.00  0.00     0.015 C 
BRANCH   8  14
ATOM     14  N   UNL A   1      32.832  20.127  25.802  1.00  0.00    -0.332 N 
ATOM     15  H   UNL A   1      33.406  19.922  26.620  1.00  0.00     0.347 HD
ATOM     16  H   UNL A   1      31.812  20.142  25.843  1.00  0.00     0.347 HD
BRANCH  14  17
ATOM     17  C   UNL A   1      33.034  18.999  24.896  1.00  0.00     0.176 C 
ATOM     18  C   UNL A   1      32.752  17.720  25.701  1.00  0.00     0.075 C 
ATOM     19  C   UNL A   1      32.179  18.949  23.629  1.00  0.00     0.075 C 
ENDBRANCH  14  17
ENDBRANCH   8  14
BRANCH  12  20
ATOM     20  S   UNL A   1      31.544  25.063  25.442  1.00  0.00    -0.155 SA
BRANCH  20  21
ATOM     21  C   UNL A   1      31.877  26.478  24.334  1.00  0.00     0.047 C 
ATOM     22  C   UNL A   1      31.287  27.857  24.586  1.00  0.00     0.014 C 
ATOM     23  C   UNL A   1      33.396  26.563  24.112  1.00  0.00     0.014 C 
ATOM     24  C   UNL A   1      31.612  28.821  23.445  1.00  0.00     0.001 C 
ATOM     25  C   UNL A   1      33.724  27.526  22.973  1.00  0.00     0.001 C 
ATOM     26  C   UNL A   1      33.113  28.903  23.204  1.00  0.00     0.000 C 
ENDBRANCH  20  21
ENDBRANCH  12  20
ENDBRANCH   5   8
ENDBRANCH   3   4
ENDBRANCH   2   3
ENDBRANCH   1   2
BRANCH   1  27
ATOM     27  C   UNL A   1      37.609  21.518  24.694  1.00  0.00     0.002 C 
BRANCH  27  28
ATOM     28  C   UNL A   1      38.117  20.064  24.686  1.00  0.00     0.021 C 
BRANCH  28  29
ATOM     29  C   UNL A   1      38.730  19.534  25.991  1.00  0.00     0.116 C 
BRANCH  29  30
ATOM     30  N   UNL A   1      40.027  18.902  25.801  1.00  0.00    -0.352 N 
ATOM     31  C   UNL A   1      41.308  19.390  25.925  1.00  0.00     0.251 C 
ATOM     32  H   UNL A   1      39.980  17.956  25.535  1.00  0.00     0.163 HD
ATOM     33  O   UNL A   1      42.246  18.679  25.571  1.00  0.00    -0.269 OA
BRANCH  31  34
ATOM     34  C   UNL A   1      41.612  20.750  26.453  1.00  0.00     0.039 A 
ATOM     35  C   UNL A   1      41.405  20.993  27.817  1.00  0.00     0.014 A 
ATOM     36  C   UNL A   1      41.973  21.820  25.634  1.00  0.00     0.014 A 
ATOM     37  C   UNL A   1      41.620  22.269  28.359  1.00  0.00     0.010 A 
ATOM     38  C   UNL A   1      42.234  23.088  26.186  1.00  0.00     0.010 A 
ATOM     39  C   UNL A   1      42.074  23.332  27.560  1.00  0.00    -0.014 A 
BRANCH  39  40
ATOM     40  C   UNL A   1      42.404  24.658  28.175  1.00  0.00     0.031 A 
ATOM     41  C   UNL A   1      43.803  25.018  28.613  1.00  0.00     0.074 A 
ATOM     42  C   UNL A   1      41.425  25.571  28.359  1.00  0.00     0.049 A 
ATOM     43  N   UNL A   1      44.249  26.157  29.093  1.00  0.00    -0.248 NA
ATOM     44  C   UNL A   1      44.828  23.970  28.520  1.00  0.00     0.031 C 
ATOM     45  C   UNL A   1      40.010  25.371  28.047  1.00  0.00     0.029 A 
ATOM     46  N   UNL A   1      41.477  26.859  28.845  1.00  0.00    -0.354 N 
ATOM     47  C   UNL A   1      45.599  25.960  29.365  1.00  0.00     0.074 A 
ATOM     48  C   UNL A   1      45.887  24.578  29.038  1.00  0.00     0.031 C 
ATOM     49  C   UNL A   1      39.337  26.505  28.301  1.00  0.00     0.029 A 
ATOM     50  C   UNL A   1      40.264  27.506  28.823  1.00  0.00     0.049 A 
ATOM     51  H   UNL A   1      42.304  27.276  29.177  1.00  0.00     0.167 HD
ATOM     52  C   UNL A   1      46.522  26.842  29.821  1.00  0.00     0.031 A 
ATOM     53  C   UNL A   1      39.923  28.763  29.170  1.00  0.00     0.031 A 
ATOM     54  C   UNL A   1      46.268  28.225  30.139  1.00  0.00     0.049 A 
ATOM     55  C   UNL A   1      40.964  29.723  29.671  1.00  0.00     0.074 A 
ATOM     56  C   UNL A   1      47.175  29.199  30.529  1.00  0.00     0.029 A 
ATOM     57  N   UNL A   1      45.024  28.830  30.115  1.00  0.00    -0.354 N 
ATOM     58  N   UNL A   1      42.250  29.539  29.829  1.00  0.00    -0.248 NA
ATOM     59  C   UNL A   1      40.500  31.073  30.033  1.00  0.00     0.031 C 
ATOM     60  C   UNL A   1      46.471  30.381  30.787  1.00  0.00     0.029 A 
ATOM     61  C   UNL A   1      45.134  30.154  30.512  1.00  0.00     0.049 A 
ATOM     62  H   UNL A   1      44.184  28.385  29.854  1.00  0.00     0.167 HD
ATOM     63  C   UNL A   1      42.751  30.752  30.284  1.00  0.00     0.074 A 
ATOM     64  C   UNL A   1      41.637  31.671  30.363  1.00  0.00     0.031 C 
ATOM     65  C   UNL A   1      44.028  31.071  30.605  1.00  0.00     0.031 A 
BRANCH  52  66
ATOM     66  C   UNL A   1      47.928  26.339  30.007  1.00  0.00    -0.014 A 
ATOM     67  C   UNL A   1      48.379  25.900  31.261  1.00  0.00     0.009 A 
ATOM     68  C   UNL A   1      48.789  26.238  28.902  1.00  0.00     0.009 A 
ATOM     69  C   UNL A   1      49.676  25.403  31.412  1.00  0.00     0.001 A 
ATOM     70  C   UNL A   1      50.075  25.717  29.051  1.00  0.00     0.001 A 
ATOM     71  C   UNL A   1      50.521  25.309  30.306  1.00  0.00     0.000 A 
ENDBRANCH  52  66
BRANCH  53  72
ATOM     72  C   UNL A   1      38.513  29.210  29.027  1.00  0.00    -0.014 A 
ATOM     73  C   UNL A   1      38.044  29.697  27.798  1.00  0.00     0.009 A 
ATOM     74  C   UNL A   1      37.637  29.165  30.122  1.00  0.00     0.009 A 
ATOM     75  C   UNL A   1      36.730  30.150  27.673  1.00  0.00     0.001 A 
ATOM     76  C   UNL A   1      36.316  29.597  29.987  1.00  0.00     0.001 A 
ATOM     77  C   UNL A   1      35.867  30.096  28.765  1.00  0.00     0.000 A 
ENDBRANCH  53  72
BRANCH  65  78
ATOM     78  C   UNL A   1      44.299  32.480  31.055  1.00  0.00    -0.014 A 
ATOM     79  C   UNL A   1      44.254  32.830  32.414  1.00  0.00     0.009 A 
ATOM     80  C   UNL A   1      44.626  33.465  30.111  1.00  0.00     0.009 A 
ATOM     81  C   UNL A   1      44.501  34.146  32.814  1.00  0.00     0.001 A 
ATOM     82  C   UNL A   1      44.895  34.775  30.516  1.00  0.00     0.001 A 
ATOM     83  C   UNL A   1      44.824  35.116  31.865  1.00  0.00     0.000 A 
ENDBRANCH  65  78
ENDBRANCH  39  40
ENDBRANCH  31  34
ENDBRANCH  29  30
ENDBRANCH  28  29
ENDBRANCH  27  28
ENDBRANCH   1  27
TORSDOF 17
ENDMDL
MODEL 2
REMARK VINA RESULT:     -10.4      1.338      3.851
REMARK SMILES CC(C)[NH2+][C@@]1(C(=O)NCCCCCCNC(=O)c2ccc(-c3c4nc(c(-c5ccccc5)c5ccc([nH]5)c(-c5ccccc5)c5nc(c(-c6ccccc6)c6ccc3[nH]6)C=C5)C=C4)cc2)CCC[C@H](SC2CCCCC2)C1
REMARK SMILES IDX 11 1 10 2 9 3 8 4 6 5 7 6 5 8 66 9 77 10 67 11 69 12 68 13
REMARK SMILES IDX 4 14 2 17 1 18 3 19 70 20 71 21 72 22 76 23 73 24 75 25
REMARK SMILES IDX 74 26 12 27 13 28 14 29 15 30 16 31 17 33 18 34 19 35 65 36
REMARK SMILES IDX 20 37 64 38 21 39 22 40 23 41 58 42 24 43 63 44 57 45 59 46
REMARK SMILES IDX 25 47 62 48 56 49 55 50 26 52 48 53 33 54 47 55 34 56 37 57
REMARK SMILES IDX 46 58 60 59 35 60 36 61 45 63 61 64 38 65 27 66 28 67 32 68
REMARK SMILES IDX 29 69 31 70 30 71 49 72 50 73 54 74 51 75 53 76 52 77 39 78
REMARK SMILES IDX 40 79 44 80 41 81 43 82 42 83
REMARK H PARENT 8 7 4 15 4 16 15 32 59 51 37 62
REMARK Flexibility Score: inf
ROOT
ATOM      1  C   UNL A   1      38.112  22.387  25.770  1.00  0.00     0.002 C 
ENDROOT
BRANCH   1   2
ATOM      2  C   UNL A   1      37.280  23.661  25.965  1.00  0.00     0.021 C 
BRANCH   2   3
ATOM      3  C   UNL A   1      35.763  23.540  25.811  1.00  0.00     0.116 C 
BRANCH   3   4
ATOM      4  N   UNL A   1      35.261  24.466  24.804  1.00  0.00    -0.351 N 
ATOM      5  C   UNL A   1      34.069  24.759  24.228  1.00  0.00     0.281 C 
ATOM      6  O   UNL A   1      34.185  25.514  23.241  1.00  0.00    -0.268 OA
ATOM      7  H   UNL A   1      35.982  25.033  24.445  1.00  0.00     0.163 HD
BRANCH   5   8
ATOM      8  C   UNL A   1      32.590  24.247  24.622  1.00  0.00     0.176 C 
ATOM      9  C   UNL A   1      32.289  24.335  26.127  1.00  0.00     0.079 C 
ATOM     10  C   UNL A   1      32.393  22.855  23.936  1.00  0.00     0.093 C 
ATOM     11  C   UNL A   1      32.429  23.025  26.891  1.00  0.00     0.008 C 
ATOM     12  C   UNL A   1      32.245  21.578  24.817  1.00  0.00     0.053 C 
ATOM     13  C   UNL A   1      31.678  21.918  26.188  1.00  0.00     0.015 C 
BRANCH   8  14
ATOM     14  N   UNL A   1      31.743  25.264  23.902  1.00  0.00    -0.332 N 
ATOM     15  H   UNL A   1      32.374  25.727  23.249  1.00  0.00     0.347 HD
ATOM     16  H   UNL A   1      30.977  24.668  23.587  1.00  0.00     0.347 HD
BRANCH  14  17
ATOM     17  C   UNL A   1      30.986  26.340  24.537  1.00  0.00     0.176 C 
ATOM     18  C   UNL A   1      31.311  27.632  23.769  1.00  0.00     0.075 C 
ATOM     19  C   UNL A   1      29.464  26.199  24.586  1.00  0.00     0.075 C 
ENDBRANCH  14  17
ENDBRANCH   8  14
BRANCH  12  20
ATOM     20  S   UNL A   1      33.787  20.616  24.517  1.00  0.00    -0.155 SA
BRANCH  20  21
ATOM     21  C   UNL A   1      33.641  18.853  24.977  1.00  0.00     0.047 C 
ATOM     22  C   UNL A   1      32.339  18.083  24.820  1.00  0.00     0.014 C 
ATOM     23  C   UNL A   1      34.811  18.094  24.330  1.00  0.00     0.014 C 
ATOM     24  C   UNL A   1      32.451  16.672  25.397  1.00  0.00     0.001 C 
ATOM     25  C   UNL A   1      34.925  16.684  24.905  1.00  0.00     0.001 C 
ATOM     26  C   UNL A   1      33.616  15.913  24.777  1.00  0.00     0.000 C 
ENDBRANCH  20  21
ENDBRANCH  12  20
ENDBRANCH   5   8
ENDBRANCH   3   4
ENDBRANCH   2   3
ENDBRANCH   1   2
BRANCH   1  27
ATOM     27  C   UNL A   1      37.556  21.361  24.772  1.00  0.00     0.002 C 
BRANCH  27  28
ATOM     28  C   UNL A   1      38.188  19.956  24.787  1.00  0.00     0.021 C 
BRANCH  28  29
ATOM     29  C   UNL A   1      38.909  19.531  26.074  1.00  0.00     0.116 C 
BRANCH  29  30
ATOM     30  N   UNL A   1      40.212  18.929  25.830  1.00  0.00    -0.352 N 
ATOM     31  C   UNL A   1      41.485  19.444  25.912  1.00  0.00     0.251 C 
ATOM     32  H   UNL A   1      40.175  17.985  25.558  1.00  0.00     0.163 HD
ATOM     33  O   UNL A   1      42.425  18.757  25.517  1.00  0.00    -0.269 OA
BRANCH  31  34
ATOM     34  C   UNL A   1      41.779  20.806  26.441  1.00  0.00     0.039 A 
ATOM     35  C   UNL A   1      41.636  21.028  27.816  1.00  0.00     0.014 A 
ATOM     36  C   UNL A   1      42.070  21.894  25.618  1.00  0.00     0.014 A 
ATOM     37  C   UNL A   1      41.844  22.303  28.362  1.00  0.00     0.010 A 
ATOM     38  C   UNL A   1      42.325  23.163  26.172  1.00  0.00     0.010 A 
ATOM     39  C   UNL A   1      42.228  23.387  27.555  1.00  0.00    -0.014 A 
BRANCH  39  40
ATOM     40  C   UNL A   1      42.553  24.715  28.168  1.00  0.00     0.031 A 
ATOM     41  C   UNL A   1      43.955  25.088  28.590  1.00  0.00     0.074 A 
ATOM     42  C   UNL A   1      41.569  25.618  28.367  1.00  0.00     0.049 A 
ATOM     43  N   UNL A   1      44.397  26.229  29.067  1.00  0.00    -0.248 NA
ATOM     44  C   UNL A   1      44.988  24.049  28.480  1.00  0.00     0.031 C 
ATOM     45  C   UNL A   1      40.152  25.405  28.073  1.00  0.00     0.029 A 
ATOM     46  N   UNL A   1      41.614  26.905  28.855  1.00  0.00    -0.354 N 
ATOM     47  C   UNL A   1      45.751  26.044  29.320  1.00  0.00     0.074 A 
ATOM     48  C   UNL A   1      46.048  24.666  28.987  1.00  0.00     0.031 C 
ATOM     49  C   UNL A   1      39.472  26.533  28.338  1.00  0.00     0.029 A 
ATOM     50  C   UNL A   1      40.395  27.541  28.851  1.00  0.00     0.049 A 
ATOM     51  H   UNL A   1      42.442  27.330  29.178  1.00  0.00     0.167 HD
ATOM     52  C   UNL A   1      46.672  26.933  29.767  1.00  0.00     0.031 A 
ATOM     53  C   UNL A   1      40.047  28.794  29.205  1.00  0.00     0.031 A 
ATOM     54  C   UNL A   1      46.409  28.313  30.091  1.00  0.00     0.049 A 
ATOM     55  C   UNL A   1      41.086  29.763  29.695  1.00  0.00     0.074 A 
ATOM     56  C   UNL A   1      47.312  29.295  30.472  1.00  0.00     0.029 A 
ATOM     57  N   UNL A   1      45.159  28.907  30.084  1.00  0.00    -0.354 N 
ATOM     58  N   UNL A   1      42.375  29.591  29.835  1.00  0.00    -0.248 NA
ATOM     59  C   UNL A   1      40.614  31.108  30.065  1.00  0.00     0.031 C 
ATOM     60  C   UNL A   1      46.601  30.470  30.741  1.00  0.00     0.029 A 
ATOM     61  C   UNL A   1      45.262  30.232  30.483  1.00  0.00     0.049 A 
ATOM     62  H   UNL A   1      44.321  28.455  29.833  1.00  0.00     0.167 HD
ATOM     63  C   UNL A   1      42.871  30.807  30.287  1.00  0.00     0.074 A 
ATOM     64  C   UNL A   1      41.749  31.715  30.383  1.00  0.00     0.031 C 
ATOM     65  C   UNL A   1      44.149  31.137  30.593  1.00  0.00     0.031 A 
BRANCH  52  66
ATOM     66  C   UNL A   1      48.085  26.443  29.934  1.00  0.00    -0.014 A 
ATOM     67  C   UNL A   1      49.023  26.578  28.899  1.00  0.00     0.009 A 
ATOM     68  C   UNL A   1      48.500  25.904  31.162  1.00  0.00     0.009 A 
ATOM     69  C   UNL A   1      50.341  26.150  29.080  1.00  0.00     0.001 A 
ATOM     70  C   UNL A   1      49.823  25.502  31.348  1.00  0.00     0.001 A 
ATOM     71  C   UNL A   1      50.740  25.616  30.305  1.00  0.00     0.000 A 
ENDBRANCH  52  66
BRANCH  53  72
ATOM     72  C   UNL A   1      38.631  29.228  29.081  1.00  0.00    -0.014 A 
ATOM     73  C   UNL A   1      37.766  29.145  30.182  1.00  0.00     0.009 A 
ATOM     74  C   UNL A   1      38.138  29.711  27.861  1.00  0.00     0.009 A 
ATOM     75  C   UNL A   1      36.426  29.518  30.057  1.00  0.00     0.001 A 
ATOM     76  C   UNL A   1      36.804  30.107  27.745  1.00  0.00     0.001 A 
ATOM     77  C   UNL A   1      35.948  30.003  28.841  1.00  0.00     0.000 A 
ENDBRANCH  53  72
BRANCH  65  78
ATOM     78  C   UNL A   1      44.412  32.548  31.042  1.00  0.00    -0.014 A 
ATOM     79  C   UNL A   1      44.692  33.566  30.116  1.00  0.00     0.009 A 
ATOM     80  C   UNL A   1      44.354  32.869  32.407  1.00  0.00     0.009 A 
ATOM     81  C   UNL A   1      44.942  34.869  30.552  1.00  0.00     0.001 A 
ATOM     82  C   UNL A   1      44.580  34.179  32.838  1.00  0.00     0.001 A 
ATOM     83  C   UNL A   1      44.882  35.175  31.911  1.00  0.00     0.000 A 
ENDBRANCH  65  78
ENDBRANCH  39  40
ENDBRANCH  31  34
ENDBRANCH  29  30
ENDBRANCH  28  29
ENDBRANCH  27  28
ENDBRANCH   1  27
TORSDOF 17
ENDMDL
MODEL 3
REMARK VINA RESULT:     -10.2      3.470      8.448
REMARK SMILES CC(C)[NH2+][C@@]1(C(=O)NCCCCCCNC(=O)c2ccc(-c3c4nc(c(-c5ccccc5)c5ccc([nH]5)c(-c5ccccc5)c5nc(c(-c6ccccc6)c6ccc3[nH]6)C=C5)C=C4)cc2)CCC[C@H](SC2CCCCC2)C1
REMARK SMILES IDX 11 1 10 2 9 3 8 4 6 5 7 6 5 8 66 9 77 10 67 11 69 12 68 13
REMARK SMILES IDX 4 14 2 17 1 18 3 19 70 20 71 21 72 22 76 23 73 24 75 25
REMARK SMILES IDX 74 26 12 27 13 28 14 29 15 30 16 31 17 33 18 34 19 35 65 36
REMARK SMILES IDX 20 37 64 38 21 39 22 40 23 41 58 42 24 43 63 44 57 45 59 46
REMARK SMILES IDX 25 47 62 48 56 49 55 50 26 52 48 53 33 54 47 55 34 56 37 57
REMARK SMILES IDX 46 58 60 59 35 60 36 61 45 63 61 64 38 65 27 66 28 67 32 68
REMARK SMILES IDX 29 69 31 70 30 71 49 72 50 73 54 74 51 75 53 76 52 77 39 78
REMARK SMILES IDX 40 79 44 80 41 81 43 82 42 83
REMARK H PARENT 8 7 4 15 4 16 15 32 59 51 37 62
REMARK Flexibility Score: inf
ROOT
ATOM      1  C   UNL A   1      33.976  29.474  27.747  1.00  0.00     0.002 C 
ENDROOT
BRANCH   1   2
ATOM      2  C   UNL A   1      34.612  28.445  26.804  1.00  0.00     0.021 C 
BRANCH   2   3
ATOM      3  C   UNL A   1      33.698  27.775  25.776  1.00  0.00     0.116 C 
BRANCH   3   4
ATOM      4  N   UNL A   1      33.072  26.580  26.328  1.00  0.00    -0.351 N 
ATOM      5  C   UNL A   1      32.275  25.579  25.882  1.00  0.00     0.281 C 
ATOM      6  O   UNL A   1      31.824  24.875  26.809  1.00  0.00    -0.268 OA
ATOM      7  H   UNL A   1      33.286  26.471  27.283  1.00  0.00     0.163 HD
BRANCH   5   8
ATOM      8  C   UNL A   1      31.830  25.222  24.372  1.00  0.00     0.176 C 
ATOM      9  C   UNL A   1      32.991  25.246  23.366  1.00  0.00     0.079 C 
ATOM     10  C   UNL A   1      30.584  26.109  24.044  1.00  0.00     0.093 C 
ATOM     11  C   UNL A   1      33.094  26.514  22.530  1.00  0.00     0.008 C 
ATOM     12  C   UNL A   1      30.691  27.207  22.945  1.00  0.00     0.053 C 
ATOM     13  C   UNL A   1      31.755  26.855  21.916  1.00  0.00     0.015 C 
BRANCH   8  14
ATOM     14  N   UNL A   1      31.374  23.796  24.547  1.00  0.00    -0.332 N 
ATOM     15  H   UNL A   1      31.120  23.712  25.531  1.00  0.00     0.347 HD
ATOM     16  H   UNL A   1      30.682  23.736  23.799  1.00  0.00     0.347 HD
BRANCH  14  17
ATOM     17  C   UNL A   1      32.172  22.608  24.252  1.00  0.00     0.176 C 
ATOM     18  C   UNL A   1      31.872  21.580  25.355  1.00  0.00     0.075 C 
ATOM     19  C   UNL A   1      31.946  21.923  22.903  1.00  0.00     0.075 C 
ENDBRANCH  14  17
ENDBRANCH   8  14
BRANCH  12  20
ATOM     20  S   UNL A   1      30.589  28.803  23.860  1.00  0.00    -0.155 SA
BRANCH  20  21
ATOM     21  C   UNL A   1      29.306  29.930  23.210  1.00  0.00     0.047 C 
ATOM     22  C   UNL A   1      29.016  31.279  23.851  1.00  0.00     0.014 C 
ATOM     23  C   UNL A   1      29.524  30.078  21.695  1.00  0.00     0.014 C 
ATOM     24  C   UNL A   1      27.815  31.961  23.197  1.00  0.00     0.001 C 
ATOM     25  C   UNL A   1      28.326  30.760  21.039  1.00  0.00     0.001 C 
ATOM     26  C   UNL A   1      28.010  32.100  21.693  1.00  0.00     0.000 C 
ENDBRANCH  20  21
ENDBRANCH  12  20
ENDBRANCH   5   8
ENDBRANCH   3   4
ENDBRANCH   2   3
ENDBRANCH   1   2
BRANCH   1  27
ATOM     27  C   UNL A   1      33.915  30.919  27.230  1.00  0.00     0.002 C 
BRANCH  27  28
ATOM     28  C   UNL A   1      32.609  31.697  27.478  1.00  0.00     0.021 C 
BRANCH  28  29
ATOM     29  C   UNL A   1      32.472  33.064  26.791  1.00  0.00     0.116 C 
BRANCH  29  30
ATOM     30  N   UNL A   1      32.319  34.166  27.729  1.00  0.00    -0.352 N 
ATOM     31  C   UNL A   1      33.067  34.548  28.819  1.00  0.00     0.251 C 
ATOM     32  H   UNL A   1      31.541  34.741  27.552  1.00  0.00     0.163 HD
ATOM     33  O   UNL A   1      32.643  35.450  29.538  1.00  0.00    -0.269 OA
BRANCH  31  34
ATOM     34  C   UNL A   1      34.362  33.905  29.182  1.00  0.00     0.039 A 
ATOM     35  C   UNL A   1      35.464  34.116  28.343  1.00  0.00     0.014 A 
ATOM     36  C   UNL A   1      34.496  33.010  30.243  1.00  0.00     0.014 A 
ATOM     37  C   UNL A   1      36.693  33.492  28.603  1.00  0.00     0.010 A 
ATOM     38  C   UNL A   1      35.741  32.421  30.532  1.00  0.00     0.010 A 
ATOM     39  C   UNL A   1      36.865  32.661  29.724  1.00  0.00    -0.014 A 
BRANCH  39  40
ATOM     40  C   UNL A   1      38.212  32.091  30.048  1.00  0.00     0.031 A 
ATOM     41  C   UNL A   1      39.187  32.794  30.962  1.00  0.00     0.074 A 
ATOM     42  C   UNL A   1      38.586  30.912  29.505  1.00  0.00     0.049 A 
ATOM     43  N   UNL A   1      40.359  32.383  31.390  1.00  0.00    -0.248 NA
ATOM     44  C   UNL A   1      38.813  34.131  31.443  1.00  0.00     0.031 C 
ATOM     45  C   UNL A   1      37.796  30.125  28.558  1.00  0.00     0.029 A 
ATOM     46  N   UNL A   1      39.729  30.163  29.682  1.00  0.00    -0.354 N 
ATOM     47  C   UNL A   1      40.863  33.409  32.181  1.00  0.00     0.074 A 
ATOM     48  C   UNL A   1      39.889  34.481  32.136  1.00  0.00     0.031 C 
ATOM     49  C   UNL A   1      38.449  28.986  28.277  1.00  0.00     0.029 A 
ATOM     50  C   UNL A   1      39.720  28.972  28.996  1.00  0.00     0.049 A 
ATOM     51  H   UNL A   1      40.481  30.453  30.248  1.00  0.00     0.167 HD
ATOM     52  C   UNL A   1      42.013  33.458  32.897  1.00  0.00     0.031 A 
ATOM     53  C   UNL A   1      40.619  27.968  28.949  1.00  0.00     0.031 A 
ATOM     54  C   UNL A   1      42.993  32.403  32.973  1.00  0.00     0.049 A 
ATOM     55  C   UNL A   1      41.885  28.043  29.753  1.00  0.00     0.074 A 
ATOM     56  C   UNL A   1      44.144  32.350  33.745  1.00  0.00     0.029 A 
ATOM     57  N   UNL A   1      42.947  31.223  32.251  1.00  0.00    -0.354 N 
ATOM     58  N   UNL A   1      42.293  28.983  30.567  1.00  0.00    -0.248 NA
ATOM     59  C   UNL A   1      42.812  26.904  29.636  1.00  0.00     0.031 C 
ATOM     60  C   UNL A   1      44.819  31.159  33.454  1.00  0.00     0.029 A 
ATOM     61  C   UNL A   1      44.064  30.450  32.536  1.00  0.00     0.049 A 
ATOM     62  H   UNL A   1      42.228  30.969  31.628  1.00  0.00     0.167 HD
ATOM     63  C   UNL A   1      43.509  28.541  31.075  1.00  0.00     0.074 A 
ATOM     64  C   UNL A   1      43.766  27.243  30.492  1.00  0.00     0.031 C 
ATOM     65  C   UNL A   1      44.334  29.163  31.951  1.00  0.00     0.031 A 
BRANCH  52  66
ATOM     66  C   UNL A   1      42.290  34.712  33.681  1.00  0.00    -0.014 A 
ATOM     67  C   UNL A   1      42.934  35.808  33.087  1.00  0.00     0.009 A 
ATOM     68  C   UNL A   1      41.840  34.824  35.006  1.00  0.00     0.009 A 
ATOM     69  C   UNL A   1      43.153  36.979  33.816  1.00  0.00     0.001 A 
ATOM     70  C   UNL A   1      42.038  36.006  35.723  1.00  0.00     0.001 A 
ATOM     71  C   UNL A   1      42.702  37.078  35.132  1.00  0.00     0.000 A 
ENDBRANCH  52  66
BRANCH  53  72
ATOM     72  C   UNL A   1      40.340  26.767  28.120  1.00  0.00    -0.014 A 
ATOM     73  C   UNL A   1      40.875  26.658  26.827  1.00  0.00     0.009 A 
ATOM     74  C   UNL A   1      39.527  25.736  28.610  1.00  0.00     0.009 A 
ATOM     75  C   UNL A   1      40.584  25.547  26.034  1.00  0.00     0.001 A 
ATOM     76  C   UNL A   1      39.257  24.614  27.823  1.00  0.00     0.001 A 
ATOM     77  C   UNL A   1      39.779  24.525  26.534  1.00  0.00     0.000 A 
ENDBRANCH  53  72
BRANCH  65  78
ATOM     78  C   UNL A   1      45.589  28.440  32.353  1.00  0.00    -0.014 A 
ATOM     79  C   UNL A   1      46.791  28.626  31.650  1.00  0.00     0.009 A 
ATOM     80  C   UNL A   1      45.578  27.581  33.463  1.00  0.00     0.009 A 
ATOM     81  C   UNL A   1      47.947  27.940  32.033  1.00  0.00     0.001 A 
ATOM     82  C   UNL A   1      46.741  26.916  33.857  1.00  0.00     0.001 A 
ATOM     83  C   UNL A   1      47.922  27.089  33.137  1.00  0.00     0.000 A 
ENDBRANCH  65  78
ENDBRANCH  39  40
ENDBRANCH  31  34
ENDBRANCH  29  30
ENDBRANCH  28  29
ENDBRANCH  27  28
ENDBRANCH   1  27
TORSDOF 17
ENDMDL
