MODEL 1
REMARK VINA RESULT:     -11.8      0.000      0.000
REMARK SMILES C[C@]12C=CC(=O)C=C1CC[C@H]1[C@H]2[C@H](O)C[C@]2(C)[C@H]1CC[C@]2(O)C(=O)COC(=O)CCC(=O)NCCCCCCNC(=O)c1ccc(-c2c3nc(c(-c4ccccc4)c4ccc([nH]4)c(-c4ccccc4)c4nc(c(-c5ccccc5)c5ccc2[nH]5)C=C4)C=C3)cc1
REMARK SMILES IDX 34 1 33 2 31 3 32 4 30 6 29 7 27 8 28 9 26 10 25 11 23 12
REMARK SMILES IDX 24 13 21 14 1 15 2 16 3 17 8 18 12 19 4 20 7 21 9 22 11 23
REMARK SMILES IDX 13 24 5 25 10 26 18 27 15 28 6 29 16 30 19 31 17 32 20 33
REMARK SMILES IDX 14 34 22 36 35 38 36 39 37 40 38 41 39 42 40 43 41 44 42 46
REMARK SMILES IDX 43 47 44 48 90 49 45 50 89 51 46 52 47 53 48 54 83 55 49 56
REMARK SMILES IDX 88 57 82 58 84 59 50 60 87 61 81 62 80 63 51 65 73 66 58 67
REMARK SMILES IDX 72 68 59 69 62 70 71 71 85 72 60 73 61 74 70 76 86 77 63 78
REMARK SMILES IDX 52 79 53 80 57 81 54 82 56 83 55 84 74 85 75 86 79 87 76 88
REMARK SMILES IDX 78 89 77 90 64 91 65 92 69 93 66 94 68 95 67 96
REMARK H PARENT 33 5 14 35 22 37 40 45 84 64 62 75
REMARK Flexibility Score: inf
ROOT
ATOM      1  C   UNL A   1      35.190  31.212  28.067  1.00  0.00     0.116 C 
ENDROOT
BRANCH   1   2
ATOM      2  N   UNL A   1      33.870  31.350  27.476  1.00  0.00    -0.356 N 
ATOM      3  C   UNL A   1      32.899  30.429  27.223  1.00  0.00     0.220 C 
ATOM      4  O   UNL A   1      31.796  30.841  26.853  1.00  0.00    -0.275 OA
ATOM      5  H   UNL A   1      33.636  32.270  27.214  1.00  0.00     0.163 HD
BRANCH   3   6
ATOM      6  C   UNL A   1      33.154  28.939  27.330  1.00  0.00     0.111 C 
BRANCH   6   7
ATOM      7  C   UNL A   1      31.869  28.198  27.682  1.00  0.00     0.132 C 
BRANCH   7   8
ATOM      8  C   UNL A   1      31.393  27.255  26.610  1.00  0.00     0.306 C 
ATOM      9  O   UNL A   1      31.123  26.076  26.813  1.00  0.00    -0.252 OA
BRANCH   8  10
ATOM     10  O   UNL A   1      31.263  27.886  25.416  1.00  0.00    -0.458 OA
BRANCH  10  11
ATOM     11  C   UNL A   1      32.165  27.547  24.358  1.00  0.00     0.311 C 
BRANCH  11  12
ATOM     12  C   UNL A   1      31.722  26.477  23.311  1.00  0.00     0.202 C 
ATOM     13  O   UNL A   1      30.524  26.210  23.201  1.00  0.00    -0.293 OA
BRANCH  12  14
ATOM     14  C   UNL A   1      32.833  25.720  22.530  1.00  0.00     0.132 C 
ATOM     15  C   UNL A   1      32.024  19.753  25.224  1.00  0.00     0.021 C 
ATOM     16  C   UNL A   1      33.143  20.034  24.183  1.00  0.00     0.013 C 
ATOM     17  C   UNL A   1      32.962  19.032  23.027  1.00  0.00    -0.012 C 
ATOM     18  C   UNL A   1      34.535  19.689  24.763  1.00  0.00    -0.056 C 
ATOM     19  C   UNL A   1      32.957  21.551  23.790  1.00  0.00     0.035 C 
ATOM     20  C   UNL A   1      33.039  17.709  23.302  1.00  0.00     0.048 C 
ATOM     21  C   UNL A   1      34.980  18.414  24.798  1.00  0.00     0.052 C 
ATOM     22  C   UNL A   1      35.632  20.700  24.899  1.00  0.00     0.032 C 
ATOM     23  C   UNL A   1      34.265  22.191  23.323  1.00  0.00    -0.000 C 
ATOM     24  C   UNL A   1      31.782  21.844  22.828  1.00  0.00     0.119 C 
ATOM     25  C   UNL A   1      34.244  17.325  24.119  1.00  0.00     0.178 C 
ATOM     26  C   UNL A   1      35.302  22.095  24.451  1.00  0.00     0.009 C 
ATOM     27  C   UNL A   1      34.133  23.670  22.937  1.00  0.00     0.002 C 
ATOM     28  C   UNL A   1      31.587  23.362  22.677  1.00  0.00     0.042 C 
ATOM     29  O   UNL A   1      34.625  16.164  24.197  1.00  0.00    -0.290 OA
ATOM     30  C   UNL A   1      32.843  24.139  22.207  1.00  0.00     0.009 C 
ATOM     31  C   UNL A   1      34.260  24.655  24.091  1.00  0.00     0.008 C 
ATOM     32  C   UNL A   1      33.059  23.840  20.688  1.00  0.00     0.015 C 
ATOM     33  C   UNL A   1      34.089  25.959  23.369  1.00  0.00     0.044 C 
BRANCH  24  34
ATOM     34  O   UNL A   1      31.984  21.255  21.551  1.00  0.00    -0.393 OA
ATOM     35  H   UNL A   1      32.854  20.826  21.527  1.00  0.00     0.210 HD
ENDBRANCH  24  34
BRANCH  14  36
ATOM     36  O   UNL A   1      32.960  26.396  21.295  1.00  0.00    -0.381 OA
ATOM     37  H   UNL A   1      32.180  26.219  20.747  1.00  0.00     0.212 HD
ENDBRANCH  14  36
ENDBRANCH  12  14
ENDBRANCH  11  12
ENDBRANCH  10  11
ENDBRANCH   8  10
ENDBRANCH   7   8
ENDBRANCH   6   7
ENDBRANCH   3   6
ENDBRANCH   1   2
BRANCH   1  38
ATOM     38  C   UNL A   1      35.995  32.522  28.078  1.00  0.00     0.021 C 
BRANCH  38  39
ATOM     39  C   UNL A   1      35.452  33.656  28.956  1.00  0.00     0.002 C 
BRANCH  39  40
ATOM     40  C   UNL A   1      34.547  34.692  28.267  1.00  0.00     0.002 C 
BRANCH  40  41
ATOM     41  C   UNL A   1      33.275  35.152  28.998  1.00  0.00     0.021 C 
BRANCH  41  42
ATOM     42  C   UNL A   1      33.305  36.471  29.781  1.00  0.00     0.116 C 
BRANCH  42  43
ATOM     43  N   UNL A   1      32.438  36.464  30.943  1.00  0.00    -0.352 N 
ATOM     44  C   UNL A   1      32.519  35.770  32.128  1.00  0.00     0.251 C 
ATOM     45  H   UNL A   1      31.657  37.058  30.872  1.00  0.00     0.163 HD
ATOM     46  O   UNL A   1      31.543  35.788  32.878  1.00  0.00    -0.269 OA
BRANCH  44  47
ATOM     47  C   UNL A   1      33.720  34.991  32.548  1.00  0.00     0.039 A 
ATOM     48  C   UNL A   1      34.971  35.619  32.448  1.00  0.00     0.014 A 
ATOM     49  C   UNL A   1      33.678  33.642  32.912  1.00  0.00     0.014 A 
ATOM     50  C   UNL A   1      36.152  34.920  32.735  1.00  0.00     0.010 A 
ATOM     51  C   UNL A   1      34.859  32.954  33.246  1.00  0.00     0.010 A 
ATOM     52  C   UNL A   1      36.113  33.582  33.157  1.00  0.00    -0.014 A 
BRANCH  52  53
ATOM     53  C   UNL A   1      37.376  32.865  33.515  1.00  0.00     0.031 A 
ATOM     54  C   UNL A   1      38.001  31.853  32.586  1.00  0.00     0.074 A 
ATOM     55  C   UNL A   1      37.979  33.122  34.695  1.00  0.00     0.049 A 
ATOM     56  N   UNL A   1      39.112  31.169  32.733  1.00  0.00    -0.248 NA
ATOM     57  C   UNL A   1      37.281  31.561  31.339  1.00  0.00     0.031 C 
ATOM     58  C   UNL A   1      37.487  34.058  35.708  1.00  0.00     0.029 A 
ATOM     59  N   UNL A   1      39.139  32.624  35.240  1.00  0.00    -0.354 N 
ATOM     60  C   UNL A   1      39.222  30.365  31.603  1.00  0.00     0.074 A 
ATOM     61  C   UNL A   1      38.038  30.612  30.806  1.00  0.00     0.031 C 
ATOM     62  C   UNL A   1      38.353  34.089  36.733  1.00  0.00     0.029 A 
ATOM     63  C   UNL A   1      39.438  33.149  36.474  1.00  0.00     0.049 A 
ATOM     64  H   UNL A   1      39.702  31.955  34.788  1.00  0.00     0.167 HD
ATOM     65  C   UNL A   1      40.217  29.511  31.251  1.00  0.00     0.031 A 
ATOM     66  C   UNL A   1      40.463  32.904  37.313  1.00  0.00     0.031 A 
ATOM     67  C   UNL A   1      41.389  29.243  32.047  1.00  0.00     0.049 A 
ATOM     68  C   UNL A   1      41.530  31.922  36.924  1.00  0.00     0.074 A 
ATOM     69  C   UNL A   1      42.468  28.426  31.748  1.00  0.00     0.029 A 
ATOM     70  N   UNL A   1      41.631  29.770  33.306  1.00  0.00    -0.354 N 
ATOM     71  N   UNL A   1      41.644  31.219  35.823  1.00  0.00    -0.248 NA
ATOM     72  C   UNL A   1      42.616  31.710  37.892  1.00  0.00     0.031 C 
ATOM     73  C   UNL A   1      43.326  28.405  32.853  1.00  0.00     0.029 A 
ATOM     74  C   UNL A   1      42.821  29.267  33.812  1.00  0.00     0.049 A 
ATOM     75  H   UNL A   1      41.045  30.408  33.773  1.00  0.00     0.167 HD
ATOM     76  C   UNL A   1      42.823  30.496  35.959  1.00  0.00     0.074 A 
ATOM     77  C   UNL A   1      43.396  30.863  37.238  1.00  0.00     0.031 C 
ATOM     78  C   UNL A   1      43.378  29.609  35.096  1.00  0.00     0.031 A 
BRANCH  65  79
ATOM     79  C   UNL A   1      40.064  28.776  29.942  1.00  0.00    -0.014 A 
ATOM     80  C   UNL A   1      39.503  27.489  29.886  1.00  0.00     0.009 A 
ATOM     81  C   UNL A   1      40.462  29.390  28.742  1.00  0.00     0.009 A 
ATOM     82  C   UNL A   1      39.394  26.815  28.667  1.00  0.00     0.001 A 
ATOM     83  C   UNL A   1      40.319  28.727  27.522  1.00  0.00     0.001 A 
ATOM     84  C   UNL A   1      39.799  27.434  27.485  1.00  0.00     0.000 A 
ENDBRANCH  65  79
BRANCH  66  85
ATOM     85  C   UNL A   1      40.530  33.602  38.624  1.00  0.00    -0.014 A 
ATOM     86  C   UNL A   1      39.954  33.037  39.772  1.00  0.00     0.009 A 
ATOM     87  C   UNL A   1      41.170  34.845  38.729  1.00  0.00     0.009 A 
ATOM     88  C   UNL A   1      40.020  33.706  40.998  1.00  0.00     0.001 A 
ATOM     89  C   UNL A   1      41.253  35.499  39.960  1.00  0.00     0.001 A 
ATOM     90  C   UNL A   1      40.681  34.929  41.094  1.00  0.00     0.000 A 
ENDBRANCH  66  85
BRANCH  78  91
ATOM     91  C   UNL A   1      44.685  28.984  35.503  1.00  0.00    -0.014 A 
ATOM     92  C   UNL A   1      44.730  27.756  36.184  1.00  0.00     0.009 A 
ATOM     93  C   UNL A   1      45.894  29.624  35.186  1.00  0.00     0.009 A 
ATOM     94  C   UNL A   1      45.953  27.206  36.575  1.00  0.00     0.001 A 
ATOM     95  C   UNL A   1      47.117  29.057  35.548  1.00  0.00     0.001 A 
ATOM     96  C   UNL A   1      47.146  27.854  36.252  1.00  0.00     0.000 A 
ENDBRANCH  78  91
ENDBRANCH  52  53
ENDBRANCH  44  47
ENDBRANCH  42  43
ENDBRANCH  41  42
ENDBRANCH  40  41
ENDBRANCH  39  40
ENDBRANCH  38  39
ENDBRANCH   1  38
TORSDOF 21
ENDMDL
MODEL 2
REMARK VINA RESULT:     -11.7      0.296      5.403
REMARK SMILES C[C@]12C=CC(=O)C=C1CC[C@H]1[C@H]2[C@H](O)C[C@]2(C)[C@H]1CC[C@]2(O)C(=O)COC(=O)CCC(=O)NCCCCCCNC(=O)c1ccc(-c2c3nc(c(-c4ccccc4)c4ccc([nH]4)c(-c4ccccc4)c4nc(c(-c5ccccc5)c5ccc2[nH]5)C=C4)C=C3)cc1
REMARK SMILES IDX 34 1 33 2 31 3 32 4 30 6 29 7 27 8 28 9 26 10 25 11 23 12
REMARK SMILES IDX 24 13 21 14 1 15 2 16 3 17 8 18 12 19 4 20 7 21 9 22 11 23
REMARK SMILES IDX 13 24 5 25 10 26 18 27 15 28 6 29 16 30 19 31 17 32 20 33
REMARK SMILES IDX 14 34 22 36 35 38 36 39 37 40 38 41 39 42 40 43 41 44 42 46
REMARK SMILES IDX 43 47 44 48 90 49 45 50 89 51 46 52 47 53 48 54 83 55 49 56
REMARK SMILES IDX 88 57 82 58 84 59 50 60 87 61 81 62 80 63 51 65 73 66 58 67
REMARK SMILES IDX 72 68 59 69 62 70 71 71 85 72 60 73 61 74 70 76 86 77 63 78
REMARK SMILES IDX 52 79 53 80 57 81 54 82 56 83 55 84 74 85 75 86 79 87 76 88
REMARK SMILES IDX 78 89 77 90 64 91 65 92 69 93 66 94 68 95 67 96
REMARK H PARENT 33 5 14 35 22 37 40 45 84 64 62 75
REMARK Flexibility Score: inf
ROOT
ATOM      1  C   UNL A   1      35.219  31.370  28.039  1.00  0.00     0.116 C 
ENDROOT
BRANCH   1   2
ATOM      2  N   UNL A   1      33.874  31.498  27.503  1.00  0.00    -0.356 N 
ATOM      3  C   UNL A   1      32.931  30.561  27.208  1.00  0.00     0.220 C 
ATOM      4  O   UNL A   1      31.802  30.954  26.906  1.00  0.00    -0.275 OA
ATOM      5  H   UNL A   1      33.595  32.426  27.322  1.00  0.00     0.163 HD
BRANCH   3   6
ATOM      6  C   UNL A   1      33.248  29.079  27.187  1.00  0.00     0.111 C 
BRANCH   6   7
ATOM      7  C   UNL A   1      32.059  28.269  27.691  1.00  0.00     0.132 C 
BRANCH   7   8
ATOM      8  C   UNL A   1      31.507  27.299  26.681  1.00  0.00     0.306 C 
ATOM      9  O   UNL A   1      31.225  26.133  26.942  1.00  0.00    -0.252 OA
BRANCH   8  10
ATOM     10  O   UNL A   1      31.325  27.889  25.473  1.00  0.00    -0.458 OA
BRANCH  10  11
ATOM     11  C   UNL A   1      32.210  27.551  24.403  1.00  0.00     0.311 C 
BRANCH  11  12
ATOM     12  C   UNL A   1      31.753  26.479  23.363  1.00  0.00     0.202 C 
ATOM     13  O   UNL A   1      30.552  26.212  23.270  1.00  0.00    -0.293 OA
BRANCH  12  14
ATOM     14  C   UNL A   1      32.852  25.719  22.569  1.00  0.00     0.132 C 
ATOM     15  C   UNL A   1      32.029  19.742  25.235  1.00  0.00     0.021 C 
ATOM     16  C   UNL A   1      33.141  20.023  24.187  1.00  0.00     0.013 C 
ATOM     17  C   UNL A   1      32.945  19.028  23.027  1.00  0.00    -0.012 C 
ATOM     18  C   UNL A   1      34.536  19.666  24.753  1.00  0.00    -0.056 C 
ATOM     19  C   UNL A   1      32.961  21.543  23.804  1.00  0.00     0.035 C 
ATOM     20  C   UNL A   1      33.016  17.703  23.293  1.00  0.00     0.048 C 
ATOM     21  C   UNL A   1      34.974  18.388  24.777  1.00  0.00     0.052 C 
ATOM     22  C   UNL A   1      35.640  20.669  24.886  1.00  0.00     0.032 C 
ATOM     23  C   UNL A   1      34.270  22.178  23.330  1.00  0.00    -0.000 C 
ATOM     24  C   UNL A   1      31.780  21.849  22.853  1.00  0.00     0.119 C 
ATOM     25  C   UNL A   1      34.225  17.307  24.098  1.00  0.00     0.178 C 
ATOM     26  C   UNL A   1      35.314  22.068  24.449  1.00  0.00     0.009 C 
ATOM     27  C   UNL A   1      34.143  23.659  22.953  1.00  0.00     0.002 C 
ATOM     28  C   UNL A   1      31.593  23.368  22.713  1.00  0.00     0.042 C 
ATOM     29  O   UNL A   1      34.600  16.144  24.166  1.00  0.00    -0.290 OA
ATOM     30  C   UNL A   1      32.850  24.141  22.237  1.00  0.00     0.009 C 
ATOM     31  C   UNL A   1      34.286  24.637  24.112  1.00  0.00     0.008 C 
ATOM     32  C   UNL A   1      33.052  23.849  20.715  1.00  0.00     0.015 C 
ATOM     33  C   UNL A   1      34.116  25.946  23.399  1.00  0.00     0.044 C 
BRANCH  24  34
ATOM     34  O   UNL A   1      31.968  21.266  21.572  1.00  0.00    -0.393 OA
ATOM     35  H   UNL A   1      32.888  20.971  21.482  1.00  0.00     0.210 HD
ENDBRANCH  24  34
BRANCH  14  36
ATOM     36  O   UNL A   1      32.974  26.402  21.337  1.00  0.00    -0.381 OA
ATOM     37  H   UNL A   1      33.205  27.329  21.503  1.00  0.00     0.212 HD
ENDBRANCH  14  36
ENDBRANCH  12  14
ENDBRANCH  11  12
ENDBRANCH  10  11
ENDBRANCH   8  10
ENDBRANCH   7   8
ENDBRANCH   6   7
ENDBRANCH   3   6
ENDBRANCH   1   2
BRANCH   1  38
ATOM     38  C   UNL A   1      36.001  32.692  28.051  1.00  0.00     0.021 C 
BRANCH  38  39
ATOM     39  C   UNL A   1      35.434  33.820  28.922  1.00  0.00     0.002 C 
BRANCH  39  40
ATOM     40  C   UNL A   1      34.527  34.846  28.223  1.00  0.00     0.002 C 
BRANCH  40  41
ATOM     41  C   UNL A   1      33.248  35.302  28.944  1.00  0.00     0.021 C 
BRANCH  41  42
ATOM     42  C   UNL A   1      33.298  36.562  29.818  1.00  0.00     0.116 C 
BRANCH  42  43
ATOM     43  N   UNL A   1      32.446  36.480  30.988  1.00  0.00    -0.352 N 
ATOM     44  C   UNL A   1      32.550  35.721  32.130  1.00  0.00     0.251 C 
ATOM     45  H   UNL A   1      31.657  37.067  30.959  1.00  0.00     0.163 HD
ATOM     46  O   UNL A   1      31.583  35.685  32.892  1.00  0.00    -0.269 OA
BRANCH  44  47
ATOM     47  C   UNL A   1      33.765  34.935  32.492  1.00  0.00     0.039 A 
ATOM     48  C   UNL A   1      34.997  35.606  32.498  1.00  0.00     0.014 A 
ATOM     49  C   UNL A   1      33.758  33.552  32.698  1.00  0.00     0.014 A 
ATOM     50  C   UNL A   1      36.193  34.914  32.736  1.00  0.00     0.010 A 
ATOM     51  C   UNL A   1      34.953  32.865  32.984  1.00  0.00     0.010 A 
ATOM     52  C   UNL A   1      36.187  33.536  33.002  1.00  0.00    -0.014 A 
BRANCH  52  53
ATOM     53  C   UNL A   1      37.464  32.821  33.310  1.00  0.00     0.031 A 
ATOM     54  C   UNL A   1      38.226  33.079  34.587  1.00  0.00     0.074 A 
ATOM     55  C   UNL A   1      37.955  31.921  32.433  1.00  0.00     0.049 A 
ATOM     56  N   UNL A   1      39.332  32.518  35.020  1.00  0.00    -0.248 NA
ATOM     57  C   UNL A   1      37.688  34.109  35.486  1.00  0.00     0.031 C 
ATOM     58  C   UNL A   1      37.345  31.576  31.147  1.00  0.00     0.029 A 
ATOM     59  N   UNL A   1      39.076  31.126  32.491  1.00  0.00    -0.354 N 
ATOM     60  C   UNL A   1      39.621  33.126  36.237  1.00  0.00     0.074 A 
ATOM     61  C   UNL A   1      38.602  34.135  36.446  1.00  0.00     0.031 C 
ATOM     62  C   UNL A   1      38.080  30.621  30.555  1.00  0.00     0.029 A 
ATOM     63  C   UNL A   1      39.233  30.314  31.394  1.00  0.00     0.049 A 
ATOM     64  H   UNL A   1      39.706  31.139  33.247  1.00  0.00     0.167 HD
ATOM     65  C   UNL A   1      40.630  32.867  37.108  1.00  0.00     0.031 A 
ATOM     66  C   UNL A   1      40.196  29.423  31.085  1.00  0.00     0.031 A 
ATOM     67  C   UNL A   1      41.661  31.881  36.900  1.00  0.00     0.049 A 
ATOM     68  C   UNL A   1      41.328  29.183  32.043  1.00  0.00     0.074 A 
ATOM     69  C   UNL A   1      42.696  31.521  37.748  1.00  0.00     0.029 A 
ATOM     70  N   UNL A   1      41.800  31.107  35.758  1.00  0.00    -0.354 N 
ATOM     71  N   UNL A   1      41.548  29.727  33.215  1.00  0.00    -0.248 NA
ATOM     72  C   UNL A   1      42.338  28.196  31.635  1.00  0.00     0.031 C 
ATOM     73  C   UNL A   1      43.499  30.582  37.092  1.00  0.00     0.029 A 
ATOM     74  C   UNL A   1      42.924  30.301  35.864  1.00  0.00     0.049 A 
ATOM     75  H   UNL A   1      41.191  31.126  34.985  1.00  0.00     0.167 HD
ATOM     76  C   UNL A   1      42.710  29.135  33.692  1.00  0.00     0.074 A 
ATOM     77  C   UNL A   1      43.135  28.176  32.693  1.00  0.00     0.031 C 
ATOM     78  C   UNL A   1      43.363  29.367  34.858  1.00  0.00     0.031 A 
BRANCH  65  79
ATOM     79  C   UNL A   1      40.682  33.692  38.370  1.00  0.00    -0.014 A 
ATOM     80  C   UNL A   1      41.376  34.913  38.420  1.00  0.00     0.009 A 
ATOM     81  C   UNL A   1      40.002  33.258  39.521  1.00  0.00     0.009 A 
ATOM     82  C   UNL A   1      41.434  35.650  39.605  1.00  0.00     0.001 A 
ATOM     83  C   UNL A   1      40.033  34.015  40.694  1.00  0.00     0.001 A 
ATOM     84  C   UNL A   1      40.760  35.202  40.741  1.00  0.00     0.000 A 
ENDBRANCH  65  79
BRANCH  66  85
ATOM     85  C   UNL A   1      40.137  28.687  29.795  1.00  0.00    -0.014 A 
ATOM     86  C   UNL A   1      39.503  27.439  29.705  1.00  0.00     0.009 A 
ATOM     87  C   UNL A   1      40.723  29.234  28.645  1.00  0.00     0.009 A 
ATOM     88  C   UNL A   1      39.458  26.756  28.486  1.00  0.00     0.001 A 
ATOM     89  C   UNL A   1      40.657  28.558  27.424  1.00  0.00     0.001 A 
ATOM     90  C   UNL A   1      40.022  27.321  27.345  1.00  0.00     0.000 A 
ENDBRANCH  66  85
BRANCH  78  91
ATOM     91  C   UNL A   1      44.603  28.555  35.122  1.00  0.00    -0.014 A 
ATOM     92  C   UNL A   1      45.875  29.013  34.741  1.00  0.00     0.009 A 
ATOM     93  C   UNL A   1      44.500  27.318  35.778  1.00  0.00     0.009 A 
ATOM     94  C   UNL A   1      47.009  28.231  34.973  1.00  0.00     0.001 A 
ATOM     95  C   UNL A   1      45.638  26.553  36.040  1.00  0.00     0.001 A 
ATOM     96  C   UNL A   1      46.890  27.005  35.626  1.00  0.00     0.000 A 
ENDBRANCH  78  91
ENDBRANCH  52  53
ENDBRANCH  44  47
ENDBRANCH  42  43
ENDBRANCH  41  42
ENDBRANCH  40  41
ENDBRANCH  39  40
ENDBRANCH  38  39
ENDBRANCH   1  38
TORSDOF 21
ENDMDL
MODEL 3
REMARK VINA RESULT:     -11.4      6.902     10.382
REMARK SMILES C[C@]12C=CC(=O)C=C1CC[C@H]1[C@H]2[C@H](O)C[C@]2(C)[C@H]1CC[C@]2(O)C(=O)COC(=O)CCC(=O)NCCCCCCNC(=O)c1ccc(-c2c3nc(c(-c4ccccc4)c4ccc([nH]4)c(-c4ccccc4)c4nc(c(-c5ccccc5)c5ccc2[nH]5)C=C4)C=C3)cc1
REMARK SMILES IDX 34 1 33 2 31 3 32 4 30 6 29 7 27 8 28 9 26 10 25 11 23 12
REMARK SMILES IDX 24 13 21 14 1 15 2 16 3 17 8 18 12 19 4 20 7 21 9 22 11 23
REMARK SMILES IDX 13 24 5 25 10 26 18 27 15 28 6 29 16 30 19 31 17 32 20 33
REMARK SMILES IDX 14 34 22 36 35 38 36 39 37 40 38 41 39 42 40 43 41 44 42 46
REMARK SMILES IDX 43 47 44 48 90 49 45 50 89 51 46 52 47 53 48 54 83 55 49 56
REMARK SMILES IDX 88 57 82 58 84 59 50 60 87 61 81 62 80 63 51 65 73 66 58 67
REMARK SMILES IDX 72 68 59 69 62 70 71 71 85 72 60 73 61 74 70 76 86 77 63 78
REMARK SMILES IDX 52 79 53 80 57 81 54 82 56 83 55 84 74 85 75 86 79 87 76 88
REMARK SMILES IDX 78 89 77 90 64 91 65 92 69 93 66 94 68 95 67 96
REMARK H PARENT 33 5 14 35 22 37 40 45 84 64 62 75
REMARK Flexibility Score: inf
ROOT
ATOM      1  C   UNL A   1      38.841  29.272  27.417  1.00  0.00     0.116 C 
ENDROOT
BRANCH   1   2
ATOM      2  N   UNL A   1      38.601  30.161  28.541  1.00  0.00    -0.356 N 
ATOM      3  C   UNL A   1      37.464  30.441  29.237  1.00  0.00     0.220 C 
ATOM      4  O   UNL A   1      37.568  31.124  30.260  1.00  0.00    -0.275 OA
ATOM      5  H   UNL A   1      39.399  30.645  28.855  1.00  0.00     0.163 HD
BRANCH   3   6
ATOM      6  C   UNL A   1      36.097  29.990  28.764  1.00  0.00     0.111 C 
BRANCH   6   7
ATOM      7  C   UNL A   1      35.640  30.824  27.573  1.00  0.00     0.132 C 
BRANCH   7   8
ATOM      8  C   UNL A   1      34.386  31.619  27.828  1.00  0.00     0.306 C 
ATOM      9  O   UNL A   1      34.351  32.845  27.846  1.00  0.00    -0.252 OA
BRANCH   8  10
ATOM     10  O   UNL A   1      33.309  30.809  27.989  1.00  0.00    -0.458 OA
BRANCH  10  11
ATOM     11  C   UNL A   1      32.470  30.550  26.861  1.00  0.00     0.311 C 
BRANCH  11  12
ATOM     12  C   UNL A   1      31.805  29.143  26.730  1.00  0.00     0.202 C 
ATOM     13  O   UNL A   1      31.355  28.599  27.741  1.00  0.00    -0.293 OA
BRANCH  12  14
ATOM     14  C   UNL A   1      31.843  28.447  25.341  1.00  0.00     0.132 C 
ATOM     15  C   UNL A   1      33.302  22.336  27.348  1.00  0.00     0.021 C 
ATOM     16  C   UNL A   1      33.169  22.690  25.842  1.00  0.00     0.013 C 
ATOM     17  C   UNL A   1      32.115  21.746  25.235  1.00  0.00    -0.012 C 
ATOM     18  C   UNL A   1      34.468  22.340  25.077  1.00  0.00    -0.056 C 
ATOM     19  C   UNL A   1      32.790  24.221  25.819  1.00  0.00     0.035 C 
ATOM     20  C   UNL A   1      32.339  20.412  25.282  1.00  0.00     0.048 C 
ATOM     21  C   UNL A   1      34.730  21.074  24.687  1.00  0.00     0.052 C 
ATOM     22  C   UNL A   1      35.276  23.362  24.337  1.00  0.00     0.032 C 
ATOM     23  C   UNL A   1      33.239  24.908  24.528  1.00  0.00    -0.000 C 
ATOM     24  C   UNL A   1      31.321  24.543  26.177  1.00  0.00     0.119 C 
ATOM     25  C   UNL A   1      33.710  20.008  24.807  1.00  0.00     0.178 C 
ATOM     26  C   UNL A   1      34.762  24.772  24.390  1.00  0.00     0.009 C 
ATOM     27  C   UNL A   1      32.897  26.402  24.465  1.00  0.00     0.002 C 
ATOM     28  C   UNL A   1      31.128  26.063  26.309  1.00  0.00     0.042 C 
ATOM     29  O   UNL A   1      33.969  18.852  24.500  1.00  0.00    -0.290 OA
ATOM     30  C   UNL A   1      31.546  26.886  25.064  1.00  0.00     0.009 C 
ATOM     31  C   UNL A   1      33.917  27.329  25.112  1.00  0.00     0.008 C 
ATOM     32  C   UNL A   1      30.466  26.669  23.954  1.00  0.00     0.015 C 
ATOM     33  C   UNL A   1      33.281  28.665  24.868  1.00  0.00     0.044 C 
BRANCH  24  34
ATOM     34  O   UNL A   1      30.416  24.024  25.213  1.00  0.00    -0.393 OA
ATOM     35  H   UNL A   1      30.192  24.719  24.573  1.00  0.00     0.210 HD
ENDBRANCH  24  34
BRANCH  14  36
ATOM     36  O   UNL A   1      30.964  29.188  24.519  1.00  0.00    -0.381 OA
ATOM     37  H   UNL A   1      30.187  28.648  24.305  1.00  0.00     0.212 HD
ENDBRANCH  14  36
ENDBRANCH  12  14
ENDBRANCH  11  12
ENDBRANCH  10  11
ENDBRANCH   8  10
ENDBRANCH   7   8
ENDBRANCH   6   7
ENDBRANCH   3   6
ENDBRANCH   1   2
BRANCH   1  38
ATOM     38  C   UNL A   1      40.309  28.838  27.283  1.00  0.00     0.021 C 
BRANCH  38  39
ATOM     39  C   UNL A   1      40.731  27.586  28.062  1.00  0.00     0.002 C 
BRANCH  39  40
ATOM     40  C   UNL A   1      39.601  26.692  28.600  1.00  0.00     0.002 C 
BRANCH  40  41
ATOM     41  C   UNL A   1      39.642  25.190  28.276  1.00  0.00     0.021 C 
BRANCH  41  42
ATOM     42  C   UNL A   1      39.624  24.746  26.807  1.00  0.00     0.116 C 
BRANCH  42  43
ATOM     43  N   UNL A   1      40.446  23.579  26.553  1.00  0.00    -0.352 N 
ATOM     44  C   UNL A   1      41.787  23.461  26.271  1.00  0.00     0.251 C 
ATOM     45  H   UNL A   1      39.961  22.724  26.587  1.00  0.00     0.163 HD
ATOM     46  O   UNL A   1      42.206  22.366  25.895  1.00  0.00    -0.269 OA
BRANCH  44  47
ATOM     47  C   UNL A   1      42.757  24.589  26.387  1.00  0.00     0.039 A 
ATOM     48  C   UNL A   1      43.162  25.225  25.204  1.00  0.00     0.014 A 
ATOM     49  C   UNL A   1      43.373  24.957  27.588  1.00  0.00     0.014 A 
ATOM     50  C   UNL A   1      44.141  26.229  25.225  1.00  0.00     0.010 A 
ATOM     51  C   UNL A   1      44.320  25.998  27.615  1.00  0.00     0.010 A 
ATOM     52  C   UNL A   1      44.721  26.644  26.434  1.00  0.00    -0.014 A 
BRANCH  52  53
ATOM     53  C   UNL A   1      45.722  27.756  26.449  1.00  0.00     0.031 A 
ATOM     54  C   UNL A   1      47.203  27.488  26.331  1.00  0.00     0.074 A 
ATOM     55  C   UNL A   1      45.301  29.032  26.572  1.00  0.00     0.049 A 
ATOM     56  N   UNL A   1      48.199  28.343  26.294  1.00  0.00    -0.248 NA
ATOM     57  C   UNL A   1      47.620  26.081  26.259  1.00  0.00     0.031 C 
ATOM     58  C   UNL A   1      43.906  29.450  26.716  1.00  0.00     0.029 A 
ATOM     59  N   UNL A   1      46.005  30.213  26.589  1.00  0.00    -0.354 N 
ATOM     60  C   UNL A   1      49.358  27.579  26.197  1.00  0.00     0.074 A 
ATOM     61  C   UNL A   1      48.941  26.192  26.233  1.00  0.00     0.031 C 
ATOM     62  C   UNL A   1      43.854  30.791  26.775  1.00  0.00     0.029 A 
ATOM     63  C   UNL A   1      45.210  31.327  26.715  1.00  0.00     0.049 A 
ATOM     64  H   UNL A   1      46.985  30.257  26.517  1.00  0.00     0.167 HD
ATOM     65  C   UNL A   1      50.647  27.987  26.078  1.00  0.00     0.031 A 
ATOM     66  C   UNL A   1      45.525  32.635  26.783  1.00  0.00     0.031 A 
ATOM     67  C   UNL A   1      51.074  29.365  26.063  1.00  0.00     0.049 A 
ATOM     68  C   UNL A   1      46.962  33.063  26.693  1.00  0.00     0.074 A 
ATOM     69  C   UNL A   1      52.354  29.871  25.902  1.00  0.00     0.029 A 
ATOM     70  N   UNL A   1      50.236  30.457  26.230  1.00  0.00    -0.354 N 
ATOM     71  N   UNL A   1      48.035  32.327  26.542  1.00  0.00    -0.248 NA
ATOM     72  C   UNL A   1      47.225  34.507  26.774  1.00  0.00     0.031 C 
ATOM     73  C   UNL A   1      52.300  31.262  26.041  1.00  0.00     0.029 A 
ATOM     74  C   UNL A   1      50.977  31.631  26.215  1.00  0.00     0.049 A 
ATOM     75  H   UNL A   1      49.260  30.408  26.343  1.00  0.00     0.167 HD
ATOM     76  C   UNL A   1      49.100  33.218  26.490  1.00  0.00     0.074 A 
ATOM     77  C   UNL A   1      48.538  34.549  26.604  1.00  0.00     0.031 C 
ATOM     78  C   UNL A   1      50.422  32.953  26.357  1.00  0.00     0.031 A 
BRANCH  65  79
ATOM     79  C   UNL A   1      51.705  26.916  25.979  1.00  0.00    -0.014 A 
ATOM     80  C   UNL A   1      52.338  26.404  27.124  1.00  0.00     0.009 A 
ATOM     81  C   UNL A   1      52.054  26.389  24.725  1.00  0.00     0.009 A 
ATOM     82  C   UNL A   1      53.333  25.429  27.010  1.00  0.00     0.001 A 
ATOM     83  C   UNL A   1      53.024  25.390  24.617  1.00  0.00     0.001 A 
ATOM     84  C   UNL A   1      53.673  24.921  25.757  1.00  0.00     0.000 A 
ENDBRANCH  65  79
BRANCH  66  85
ATOM     85  C   UNL A   1      44.451  33.648  26.952  1.00  0.00    -0.014 A 
ATOM     86  C   UNL A   1      43.980  33.993  28.228  1.00  0.00     0.009 A 
ATOM     87  C   UNL A   1      43.887  34.273  25.831  1.00  0.00     0.009 A 
ATOM     88  C   UNL A   1      42.966  34.945  28.374  1.00  0.00     0.001 A 
ATOM     89  C   UNL A   1      42.890  35.238  25.982  1.00  0.00     0.001 A 
ATOM     90  C   UNL A   1      42.432  35.576  27.252  1.00  0.00     0.000 A 
ENDBRANCH  66  85
BRANCH  78  91
ATOM     91  C   UNL A   1      51.357  34.133  26.313  1.00  0.00    -0.014 A 
ATOM     92  C   UNL A   1      51.664  34.780  25.104  1.00  0.00     0.009 A 
ATOM     93  C   UNL A   1      51.927  34.616  27.501  1.00  0.00     0.009 A 
ATOM     94  C   UNL A   1      52.554  35.856  25.083  1.00  0.00     0.001 A 
ATOM     95  C   UNL A   1      52.791  35.713  27.482  1.00  0.00     0.001 A 
ATOM     96  C   UNL A   1      53.113  36.325  26.271  1.00  0.00     0.000 A 
ENDBRANCH  78  91
ENDBRANCH  52  53
ENDBRANCH  44  47
ENDBRANCH  42  43
ENDBRANCH  41  42
ENDBRANCH  40  41
ENDBRANCH  39  40
ENDBRANCH  38  39
ENDBRANCH   1  38
TORSDOF 21
ENDMDL
