MODEL 1
REMARK VINA RESULT:     -11.7      0.000      0.000
REMARK SMILES Cc1ccc(NC(=O)C[C@@H](C(=O)NCCCCCCNC(=O)c2ccc(-c3c4nc(c(-c5ccccc5)c5ccc([nH]5)c(-c5ccccc5)c5nc(c(-c6ccccc6)c6ccc3[nH]6)C=C5)C=C4)cc2)[C@@H](C)c2ccccc2)cc1Br
REMARK SMILES IDX 16 1 15 2 14 3 13 4 11 5 12 6 10 8 9 9 7 10 6 11 8 13 5 14
REMARK SMILES IDX 1 15 2 16 3 17 80 18 4 19 79 20 81 21 71 22 72 23 73 24
REMARK SMILES IDX 74 25 78 26 75 27 77 28 76 29 17 30 18 31 19 32 20 33 21 34
REMARK SMILES IDX 22 36 23 37 24 38 70 39 25 40 69 41 26 42 27 43 28 44 63 45
REMARK SMILES IDX 29 46 68 47 62 48 64 49 30 50 67 51 61 52 60 53 31 55 53 56
REMARK SMILES IDX 38 57 52 58 39 59 42 60 51 61 65 62 40 63 41 64 50 66 66 67
REMARK SMILES IDX 43 68 32 69 33 70 37 71 34 72 36 73 35 74 54 75 55 76 59 77
REMARK SMILES IDX 56 78 58 79 57 80 44 81 45 82 49 83 46 84 48 85 47 86
REMARK H PARENT 13 7 6 12 20 35 64 54 42 65
REMARK Flexibility Score: inf
ROOT
ATOM      1  C   UNL A   1      32.442  29.471  26.902  1.00  0.00     0.002 C 
ENDROOT
BRANCH   1   2
ATOM      2  C   UNL A   1      31.654  28.188  27.212  1.00  0.00     0.021 C 
BRANCH   2   3
ATOM      3  C   UNL A   1      32.181  26.898  26.570  1.00  0.00     0.116 C 
BRANCH   3   4
ATOM      4  N   UNL A   1      31.417  25.752  27.010  1.00  0.00    -0.356 N 
ATOM      5  C   UNL A   1      31.422  24.437  26.698  1.00  0.00     0.224 C 
ATOM      6  O   UNL A   1      30.465  23.817  27.159  1.00  0.00    -0.275 OA
ATOM      7  H   UNL A   1      30.742  25.982  27.688  1.00  0.00     0.163 HD
BRANCH   5   8
ATOM      8  C   UNL A   1      32.530  23.771  25.876  1.00  0.00     0.095 C 
BRANCH   8   9
ATOM      9  C   UNL A   1      32.088  22.565  25.002  1.00  0.00     0.114 C 
BRANCH   9  10
ATOM     10  C   UNL A   1      32.107  22.559  23.494  1.00  0.00     0.225 C 
ATOM     11  N   UNL A   1      31.697  23.604  22.723  1.00  0.00    -0.326 N 
ATOM     12  H   UNL A   1      31.597  23.390  21.768  1.00  0.00     0.169 HD
ATOM     13  O   UNL A   1      32.512  21.550  22.903  1.00  0.00    -0.275 OA
BRANCH  11  14
ATOM     14  C   UNL A   1      31.392  24.929  23.055  1.00  0.00     0.042 A 
ATOM     15  C   UNL A   1      29.869  28.942  23.385  1.00  0.00     0.045 C 
ATOM     16  C   UNL A   1      30.454  27.558  23.385  1.00  0.00    -0.037 A 
ATOM     17  C   UNL A   1      29.613  26.466  23.636  1.00  0.00     0.007 A 
ATOM     18  C   UNL A   1      31.802  27.307  23.083  1.00  0.00     0.022 A 
ATOM     19  C   UNL A   1      30.092  25.163  23.510  1.00  0.00     0.026 A 
ATOM     20  C   UNL A   1      32.267  25.997  22.905  1.00  0.00     0.042 A 
ATOM     21  Br  UNL A   1      33.057  28.718  22.865  1.00  0.00    -0.050 Br
ENDBRANCH  11  14
ENDBRANCH   9  10
ENDBRANCH   8   9
BRANCH   8  22
ATOM     22  C   UNL A   1      33.773  23.282  26.742  1.00  0.00     0.029 C 
ATOM     23  C   UNL A   1      33.348  22.150  27.714  1.00  0.00     0.013 C 
BRANCH  22  24
ATOM     24  C   UNL A   1      35.069  22.889  26.023  1.00  0.00    -0.044 A 
ATOM     25  C   UNL A   1      35.872  23.798  25.319  1.00  0.00     0.004 A 
ATOM     26  C   UNL A   1      35.427  21.531  25.952  1.00  0.00     0.004 A 
ATOM     27  C   UNL A   1      36.982  23.360  24.585  1.00  0.00     0.000 A 
ATOM     28  C   UNL A   1      36.558  21.096  25.263  1.00  0.00     0.000 A 
ATOM     29  C   UNL A   1      37.335  22.013  24.570  1.00  0.00     0.000 A 
ENDBRANCH  22  24
ENDBRANCH   8  22
ENDBRANCH   5   8
ENDBRANCH   3   4
ENDBRANCH   2   3
ENDBRANCH   1   2
BRANCH   1  30
ATOM     30  C   UNL A   1      31.718  30.476  26.011  1.00  0.00     0.002 C 
BRANCH  30  31
ATOM     31  C   UNL A   1      31.448  31.825  26.673  1.00  0.00     0.021 C 
BRANCH  31  32
ATOM     32  C   UNL A   1      32.670  32.473  27.313  1.00  0.00     0.116 C 
BRANCH  32  33
ATOM     33  N   UNL A   1      32.439  33.866  27.660  1.00  0.00    -0.352 N 
ATOM     34  C   UNL A   1      33.151  34.651  28.533  1.00  0.00     0.251 C 
ATOM     35  H   UNL A   1      31.678  34.301  27.213  1.00  0.00     0.163 HD
ATOM     36  O   UNL A   1      32.738  35.752  28.879  1.00  0.00    -0.269 OA
BRANCH  34  37
ATOM     37  C   UNL A   1      34.420  34.126  29.074  1.00  0.00     0.039 A 
ATOM     38  C   UNL A   1      34.400  33.381  30.252  1.00  0.00     0.014 A 
ATOM     39  C   UNL A   1      35.611  34.316  28.367  1.00  0.00     0.014 A 
ATOM     40  C   UNL A   1      35.574  32.774  30.696  1.00  0.00     0.010 A 
ATOM     41  C   UNL A   1      36.758  33.640  28.764  1.00  0.00     0.010 A 
ATOM     42  C   UNL A   1      36.754  32.871  29.938  1.00  0.00    -0.014 A 
BRANCH  42  43
ATOM     43  C   UNL A   1      37.999  32.186  30.368  1.00  0.00     0.031 A 
ATOM     44  C   UNL A   1      38.887  32.823  31.400  1.00  0.00     0.074 A 
ATOM     45  C   UNL A   1      38.353  31.018  29.796  1.00  0.00     0.049 A 
ATOM     46  N   UNL A   1      40.026  32.397  31.885  1.00  0.00    -0.248 NA
ATOM     47  C   UNL A   1      38.452  34.122  31.942  1.00  0.00     0.031 C 
ATOM     48  C   UNL A   1      37.599  30.320  28.754  1.00  0.00     0.029 A 
ATOM     49  N   UNL A   1      39.443  30.213  30.014  1.00  0.00    -0.354 N 
ATOM     50  C   UNL A   1      40.446  33.379  32.774  1.00  0.00     0.074 A 
ATOM     51  C   UNL A   1      39.474  34.447  32.716  1.00  0.00     0.031 C 
ATOM     52  C   UNL A   1      38.230  29.174  28.448  1.00  0.00     0.029 A 
ATOM     53  C   UNL A   1      39.451  29.077  29.240  1.00  0.00     0.049 A 
ATOM     54  H   UNL A   1      40.151  30.429  30.662  1.00  0.00     0.167 HD
ATOM     55  C   UNL A   1      41.532  33.381  33.584  1.00  0.00     0.031 A 
ATOM     56  C   UNL A   1      40.346  28.073  29.173  1.00  0.00     0.031 A 
ATOM     57  C   UNL A   1      42.494  32.315  33.643  1.00  0.00     0.049 A 
ATOM     58  C   UNL A   1      41.556  28.111  30.065  1.00  0.00     0.074 A 
ATOM     59  C   UNL A   1      43.599  32.197  34.468  1.00  0.00     0.029 A 
ATOM     60  N   UNL A   1      42.470  31.186  32.839  1.00  0.00    -0.354 N 
ATOM     61  N   UNL A   1      41.900  29.011  30.956  1.00  0.00    -0.248 NA
ATOM     62  C   UNL A   1      42.496  26.987  29.950  1.00  0.00     0.031 C 
ATOM     63  C   UNL A   1      44.277  31.025  34.121  1.00  0.00     0.029 A 
ATOM     64  C   UNL A   1      43.558  30.379  33.127  1.00  0.00     0.049 A 
ATOM     65  H   UNL A   1      41.782  30.987  32.164  1.00  0.00     0.167 HD
ATOM     66  C   UNL A   1      43.079  28.548  31.526  1.00  0.00     0.074 A 
ATOM     67  C   UNL A   1      43.379  27.279  30.894  1.00  0.00     0.031 C 
ATOM     68  C   UNL A   1      43.844  29.121  32.487  1.00  0.00     0.031 A 
BRANCH  55  69
ATOM     69  C   UNL A   1      41.735  34.585  34.463  1.00  0.00    -0.014 A 
ATOM     70  C   UNL A   1      42.445  35.708  34.010  1.00  0.00     0.009 A 
ATOM     71  C   UNL A   1      41.186  34.607  35.753  1.00  0.00     0.009 A 
ATOM     72  C   UNL A   1      42.638  36.811  34.845  1.00  0.00     0.001 A 
ATOM     73  C   UNL A   1      41.350  35.724  36.576  1.00  0.00     0.001 A 
ATOM     74  C   UNL A   1      42.085  36.819  36.125  1.00  0.00     0.000 A 
ENDBRANCH  55  69
BRANCH  56  75
ATOM     75  C   UNL A   1      40.126  26.937  28.239  1.00  0.00    -0.014 A 
ATOM     76  C   UNL A   1      40.680  26.954  26.950  1.00  0.00     0.009 A 
ATOM     77  C   UNL A   1      39.351  25.832  28.627  1.00  0.00     0.009 A 
ATOM     78  C   UNL A   1      40.439  25.905  26.060  1.00  0.00     0.001 A 
ATOM     79  C   UNL A   1      39.138  24.769  27.747  1.00  0.00     0.001 A 
ATOM     80  C   UNL A   1      39.672  24.811  26.461  1.00  0.00     0.000 A 
ENDBRANCH  56  75
BRANCH  68  81
ATOM     81  C   UNL A   1      45.063  28.365  32.938  1.00  0.00    -0.014 A 
ATOM     82  C   UNL A   1      44.997  27.420  33.972  1.00  0.00     0.009 A 
ATOM     83  C   UNL A   1      46.289  28.575  32.286  1.00  0.00     0.009 A 
ATOM     84  C   UNL A   1      46.142  26.725  34.369  1.00  0.00     0.001 A 
ATOM     85  C   UNL A   1      47.424  27.855  32.662  1.00  0.00     0.001 A 
ATOM     86  C   UNL A   1      47.352  26.940  33.710  1.00  0.00     0.000 A 
ENDBRANCH  68  81
ENDBRANCH  42  43
ENDBRANCH  34  37
ENDBRANCH  32  33
ENDBRANCH  31  32
ENDBRANCH  30  31
ENDBRANCH   1  30
TORSDOF 18
ENDMDL
MODEL 2
REMARK VINA RESULT:     -11.6      1.648      6.306
REMARK SMILES Cc1ccc(NC(=O)C[C@@H](C(=O)NCCCCCCNC(=O)c2ccc(-c3c4nc(c(-c5ccccc5)c5ccc([nH]5)c(-c5ccccc5)c5nc(c(-c6ccccc6)c6ccc3[nH]6)C=C5)C=C4)cc2)[C@@H](C)c2ccccc2)cc1Br
REMARK SMILES IDX 16 1 15 2 14 3 13 4 11 5 12 6 10 8 9 9 7 10 6 11 8 13 5 14
REMARK SMILES IDX 1 15 2 16 3 17 80 18 4 19 79 20 81 21 71 22 72 23 73 24
REMARK SMILES IDX 74 25 78 26 75 27 77 28 76 29 17 30 18 31 19 32 20 33 21 34
REMARK SMILES IDX 22 36 23 37 24 38 70 39 25 40 69 41 26 42 27 43 28 44 63 45
REMARK SMILES IDX 29 46 68 47 62 48 64 49 30 50 67 51 61 52 60 53 31 55 53 56
REMARK SMILES IDX 38 57 52 58 39 59 42 60 51 61 65 62 40 63 41 64 50 66 66 67
REMARK SMILES IDX 43 68 32 69 33 70 37 71 34 72 36 73 35 74 54 75 55 76 59 77
REMARK SMILES IDX 56 78 58 79 57 80 44 81 45 82 49 83 46 84 48 85 47 86
REMARK H PARENT 13 7 6 12 20 35 64 54 42 65
REMARK Flexibility Score: inf
ROOT
ATOM      1  C   UNL A   1      31.783  29.263  26.288  1.00  0.00     0.002 C 
ENDROOT
BRANCH   1   2
ATOM      2  C   UNL A   1      32.052  29.416  24.782  1.00  0.00     0.021 C 
BRANCH   2   3
ATOM      3  C   UNL A   1      33.477  29.099  24.313  1.00  0.00     0.116 C 
BRANCH   3   4
ATOM      4  N   UNL A   1      33.462  28.427  23.033  1.00  0.00    -0.356 N 
ATOM      5  C   UNL A   1      33.385  27.134  22.644  1.00  0.00     0.224 C 
ATOM      6  O   UNL A   1      33.607  26.965  21.446  1.00  0.00    -0.275 OA
ATOM      7  H   UNL A   1      33.523  29.050  22.274  1.00  0.00     0.163 HD
BRANCH   5   8
ATOM      8  C   UNL A   1      33.026  25.989  23.596  1.00  0.00     0.095 C 
BRANCH   8   9
ATOM      9  C   UNL A   1      31.632  26.090  24.276  1.00  0.00     0.114 C 
BRANCH   9  10
ATOM     10  C   UNL A   1      30.446  25.236  23.907  1.00  0.00     0.225 C 
ATOM     11  N   UNL A   1      30.503  23.886  23.736  1.00  0.00    -0.326 N 
ATOM     12  H   UNL A   1      29.700  23.494  23.324  1.00  0.00     0.169 HD
ATOM     13  O   UNL A   1      29.346  25.778  23.740  1.00  0.00    -0.275 OA
BRANCH  11  14
ATOM     14  C   UNL A   1      31.506  22.961  24.044  1.00  0.00     0.042 A 
ATOM     15  C   UNL A   1      33.961  19.501  24.775  1.00  0.00     0.045 C 
ATOM     16  C   UNL A   1      33.211  20.778  24.526  1.00  0.00    -0.037 A 
ATOM     17  C   UNL A   1      32.770  21.065  23.227  1.00  0.00     0.007 A 
ATOM     18  C   UNL A   1      32.880  21.674  25.555  1.00  0.00     0.022 A 
ATOM     19  C   UNL A   1      31.957  22.170  22.985  1.00  0.00     0.026 A 
ATOM     20  C   UNL A   1      32.019  22.754  25.319  1.00  0.00     0.042 A 
ATOM     21  Br  UNL A   1      33.545  21.455  27.322  1.00  0.00    -0.050 Br
ENDBRANCH  11  14
ENDBRANCH   9  10
ENDBRANCH   8   9
BRANCH   8  22
ATOM     22  C   UNL A   1      34.090  25.756  24.758  1.00  0.00     0.029 C 
ATOM     23  C   UNL A   1      33.403  25.827  26.147  1.00  0.00     0.013 C 
BRANCH  22  24
ATOM     24  C   UNL A   1      35.001  24.526  24.691  1.00  0.00    -0.044 A 
ATOM     25  C   UNL A   1      35.764  24.066  25.775  1.00  0.00     0.004 A 
ATOM     26  C   UNL A   1      35.190  23.879  23.456  1.00  0.00     0.004 A 
ATOM     27  C   UNL A   1      36.668  23.006  25.621  1.00  0.00     0.000 A 
ATOM     28  C   UNL A   1      36.052  22.793  23.311  1.00  0.00     0.000 A 
ATOM     29  C   UNL A   1      36.800  22.359  24.395  1.00  0.00     0.000 A 
ENDBRANCH  22  24
ENDBRANCH   8  22
ENDBRANCH   5   8
ENDBRANCH   3   4
ENDBRANCH   2   3
ENDBRANCH   1   2
BRANCH   1  30
ATOM     30  C   UNL A   1      32.416  30.336  27.170  1.00  0.00     0.002 C 
BRANCH  30  31
ATOM     31  C   UNL A   1      31.747  31.705  27.074  1.00  0.00     0.021 C 
BRANCH  31  32
ATOM     32  C   UNL A   1      32.702  32.862  26.804  1.00  0.00     0.116 C 
BRANCH  32  33
ATOM     33  N   UNL A   1      32.446  34.002  27.668  1.00  0.00    -0.352 N 
ATOM     34  C   UNL A   1      33.143  34.392  28.785  1.00  0.00     0.251 C 
ATOM     35  H   UNL A   1      31.678  34.566  27.421  1.00  0.00     0.163 HD
ATOM     36  O   UNL A   1      32.711  35.263  29.532  1.00  0.00    -0.269 OA
BRANCH  34  37
ATOM     37  C   UNL A   1      34.420  33.717  29.087  1.00  0.00     0.039 A 
ATOM     38  C   UNL A   1      35.581  34.138  28.440  1.00  0.00     0.014 A 
ATOM     39  C   UNL A   1      34.466  32.719  30.065  1.00  0.00     0.014 A 
ATOM     40  C   UNL A   1      36.808  33.593  28.817  1.00  0.00     0.010 A 
ATOM     41  C   UNL A   1      35.697  32.242  30.498  1.00  0.00     0.010 A 
ATOM     42  C   UNL A   1      36.880  32.665  29.871  1.00  0.00    -0.014 A 
BRANCH  42  43
ATOM     43  C   UNL A   1      38.183  32.117  30.322  1.00  0.00     0.031 A 
ATOM     44  C   UNL A   1      38.684  30.816  29.759  1.00  0.00     0.074 A 
ATOM     45  C   UNL A   1      38.892  32.763  31.269  1.00  0.00     0.049 A 
ATOM     46  N   UNL A   1      39.781  30.161  30.044  1.00  0.00    -0.248 NA
ATOM     47  C   UNL A   1      37.828  30.149  28.763  1.00  0.00     0.031 C 
ATOM     48  C   UNL A   1      38.494  34.012  31.923  1.00  0.00     0.029 A 
ATOM     49  N   UNL A   1      40.098  32.455  31.846  1.00  0.00    -0.354 N 
ATOM     50  C   UNL A   1      39.738  29.004  29.276  1.00  0.00     0.074 A 
ATOM     51  C   UNL A   1      38.482  29.017  28.560  1.00  0.00     0.031 C 
ATOM     52  C   UNL A   1      39.456  34.381  32.785  1.00  0.00     0.029 A 
ATOM     53  C   UNL A   1      40.514  33.378  32.776  1.00  0.00     0.049 A 
ATOM     54  H   UNL A   1      40.615  31.651  31.616  1.00  0.00     0.167 HD
ATOM     55  C   UNL A   1      40.670  28.029  29.158  1.00  0.00     0.031 A 
ATOM     56  C   UNL A   1      41.623  33.408  33.539  1.00  0.00     0.031 A 
ATOM     57  C   UNL A   1      41.920  28.021  29.867  1.00  0.00     0.049 A 
ATOM     58  C   UNL A   1      42.633  32.301  33.408  1.00  0.00     0.074 A 
ATOM     59  C   UNL A   1      42.956  27.108  29.777  1.00  0.00     0.029 A 
ATOM     60  N   UNL A   1      42.302  28.969  30.804  1.00  0.00    -0.354 N 
ATOM     61  N   UNL A   1      42.613  31.252  32.620  1.00  0.00    -0.248 NA
ATOM     62  C   UNL A   1      43.824  32.388  34.264  1.00  0.00     0.031 C 
ATOM     63  C   UNL A   1      43.937  27.471  30.704  1.00  0.00     0.029 A 
ATOM     64  C   UNL A   1      43.544  28.647  31.323  1.00  0.00     0.049 A 
ATOM     65  H   UNL A   1      41.768  29.755  31.062  1.00  0.00     0.167 HD
ATOM     66  C   UNL A   1      43.798  30.572  32.865  1.00  0.00     0.074 A 
ATOM     67  C   UNL A   1      44.522  31.337  33.860  1.00  0.00     0.031 C 
ATOM     68  C   UNL A   1      44.249  29.417  32.315  1.00  0.00     0.031 A 
BRANCH  55  69
ATOM     69  C   UNL A   1      40.361  26.886  28.231  1.00  0.00    -0.014 A 
ATOM     70  C   UNL A   1      40.867  26.849  26.922  1.00  0.00     0.009 A 
ATOM     71  C   UNL A   1      39.573  25.816  28.682  1.00  0.00     0.009 A 
ATOM     72  C   UNL A   1      40.555  25.787  26.070  1.00  0.00     0.001 A 
ATOM     73  C   UNL A   1      39.290  24.738  27.840  1.00  0.00     0.001 A 
ATOM     74  C   UNL A   1      39.772  24.730  26.532  1.00  0.00     0.000 A 
ENDBRANCH  55  69
BRANCH  56  75
ATOM     75  C   UNL A   1      41.848  34.532  34.486  1.00  0.00    -0.014 A 
ATOM     76  C   UNL A   1      42.505  35.699  34.068  1.00  0.00     0.009 A 
ATOM     77  C   UNL A   1      41.417  34.441  35.820  1.00  0.00     0.009 A 
ATOM     78  C   UNL A   1      42.751  36.737  34.969  1.00  0.00     0.001 A 
ATOM     79  C   UNL A   1      41.636  35.493  36.711  1.00  0.00     0.001 A 
ATOM     80  C   UNL A   1      42.312  36.636  36.288  1.00  0.00     0.000 A 
ENDBRANCH  56  75
BRANCH  68  81
ATOM     81  C   UNL A   1      45.602  28.929  32.752  1.00  0.00    -0.014 A 
ATOM     82  C   UNL A   1      45.747  28.040  33.828  1.00  0.00     0.009 A 
ATOM     83  C   UNL A   1      46.746  29.334  32.046  1.00  0.00     0.009 A 
ATOM     84  C   UNL A   1      47.014  27.596  34.211  1.00  0.00     0.001 A 
ATOM     85  C   UNL A   1      48.008  28.861  32.409  1.00  0.00     0.001 A 
ATOM     86  C   UNL A   1      48.142  28.002  33.498  1.00  0.00     0.000 A 
ENDBRANCH  68  81
ENDBRANCH  42  43
ENDBRANCH  34  37
ENDBRANCH  32  33
ENDBRANCH  31  32
ENDBRANCH  30  31
ENDBRANCH   1  30
TORSDOF 18
ENDMDL
MODEL 3
REMARK VINA RESULT:     -11.4      1.512      3.933
REMARK SMILES Cc1ccc(NC(=O)C[C@@H](C(=O)NCCCCCCNC(=O)c2ccc(-c3c4nc(c(-c5ccccc5)c5ccc([nH]5)c(-c5ccccc5)c5nc(c(-c6ccccc6)c6ccc3[nH]6)C=C5)C=C4)cc2)[C@@H](C)c2ccccc2)cc1Br
REMARK SMILES IDX 16 1 15 2 14 3 13 4 11 5 12 6 10 8 9 9 7 10 6 11 8 13 5 14
REMARK SMILES IDX 1 15 2 16 3 17 80 18 4 19 79 20 81 21 71 22 72 23 73 24
REMARK SMILES IDX 74 25 78 26 75 27 77 28 76 29 17 30 18 31 19 32 20 33 21 34
REMARK SMILES IDX 22 36 23 37 24 38 70 39 25 40 69 41 26 42 27 43 28 44 63 45
REMARK SMILES IDX 29 46 68 47 62 48 64 49 30 50 67 51 61 52 60 53 31 55 53 56
REMARK SMILES IDX 38 57 52 58 39 59 42 60 51 61 65 62 40 63 41 64 50 66 66 67
REMARK SMILES IDX 43 68 32 69 33 70 37 71 34 72 36 73 35 74 54 75 55 76 59 77
REMARK SMILES IDX 56 78 58 79 57 80 44 81 45 82 49 83 46 84 48 85 47 86
REMARK H PARENT 13 7 6 12 20 35 64 54 42 65
REMARK Flexibility Score: inf
ROOT
ATOM      1  C   UNL A   1      33.200  30.001  26.830  1.00  0.00     0.002 C 
ENDROOT
BRANCH   1   2
ATOM      2  C   UNL A   1      33.416  28.519  27.176  1.00  0.00     0.021 C 
BRANCH   2   3
ATOM      3  C   UNL A   1      33.701  27.582  25.996  1.00  0.00     0.116 C 
BRANCH   3   4
ATOM      4  N   UNL A   1      32.769  26.476  25.976  1.00  0.00    -0.356 N 
ATOM      5  C   UNL A   1      31.763  26.102  25.154  1.00  0.00     0.224 C 
ATOM      6  O   UNL A   1      31.072  25.189  25.603  1.00  0.00    -0.275 OA
ATOM      7  H   UNL A   1      32.895  25.858  26.731  1.00  0.00     0.163 HD
BRANCH   5   8
ATOM      8  C   UNL A   1      31.523  26.731  23.778  1.00  0.00     0.095 C 
BRANCH   8   9
ATOM      9  C   UNL A   1      32.586  26.404  22.692  1.00  0.00     0.114 C 
BRANCH   9  10
ATOM     10  C   UNL A   1      32.332  25.519  21.499  1.00  0.00     0.225 C 
ATOM     11  N   UNL A   1      32.783  24.239  21.390  1.00  0.00    -0.326 N 
ATOM     12  H   UNL A   1      32.697  23.852  20.489  1.00  0.00     0.169 HD
ATOM     13  O   UNL A   1      31.681  25.968  20.547  1.00  0.00    -0.275 OA
BRANCH  11  14
ATOM     14  C   UNL A   1      33.349  23.379  22.337  1.00  0.00     0.042 A 
ATOM     15  C   UNL A   1      34.395  21.000  25.769  1.00  0.00     0.045 C 
ATOM     16  C   UNL A   1      34.114  21.760  24.505  1.00  0.00    -0.037 A 
ATOM     17  C   UNL A   1      32.932  21.496  23.801  1.00  0.00     0.007 A 
ATOM     18  C   UNL A   1      34.962  22.773  24.027  1.00  0.00     0.022 A 
ATOM     19  C   UNL A   1      32.574  22.274  22.703  1.00  0.00     0.026 A 
ATOM     20  C   UNL A   1      34.575  23.589  22.956  1.00  0.00     0.042 A 
ATOM     21  Br  UNL A   1      36.654  23.117  24.823  1.00  0.00    -0.050 Br
ENDBRANCH  11  14
ENDBRANCH   9  10
ENDBRANCH   8   9
BRANCH   8  22
ATOM     22  C   UNL A   1      31.368  28.315  23.810  1.00  0.00     0.029 C 
ATOM     23  C   UNL A   1      32.389  28.982  22.850  1.00  0.00     0.013 C 
BRANCH  22  24
ATOM     24  C   UNL A   1      29.980  28.929  23.598  1.00  0.00    -0.044 A 
ATOM     25  C   UNL A   1      28.866  28.197  23.162  1.00  0.00     0.004 A 
ATOM     26  C   UNL A   1      29.820  30.320  23.727  1.00  0.00     0.004 A 
ATOM     27  C   UNL A   1      27.652  28.834  22.874  1.00  0.00     0.000 A 
ATOM     28  C   UNL A   1      28.600  30.953  23.488  1.00  0.00     0.000 A 
ATOM     29  C   UNL A   1      27.513  30.208  23.053  1.00  0.00     0.000 A 
ENDBRANCH  22  24
ENDBRANCH   8  22
ENDBRANCH   5   8
ENDBRANCH   3   4
ENDBRANCH   2   3
ENDBRANCH   1   2
BRANCH   1  30
ATOM     30  C   UNL A   1      31.740  30.439  26.746  1.00  0.00     0.002 C 
BRANCH  30  31
ATOM     31  C   UNL A   1      31.530  31.948  26.841  1.00  0.00     0.021 C 
BRANCH  31  32
ATOM     32  C   UNL A   1      32.774  32.739  27.228  1.00  0.00     0.116 C 
BRANCH  32  33
ATOM     33  N   UNL A   1      32.456  34.086  27.672  1.00  0.00    -0.352 N 
ATOM     34  C   UNL A   1      33.055  34.812  28.673  1.00  0.00     0.251 C 
ATOM     35  H   UNL A   1      31.720  34.535  27.197  1.00  0.00     0.163 HD
ATOM     36  O   UNL A   1      32.568  35.863  29.073  1.00  0.00    -0.269 OA
BRANCH  34  37
ATOM     37  C   UNL A   1      34.290  34.283  29.280  1.00  0.00     0.039 A 
ATOM     38  C   UNL A   1      34.202  33.507  30.436  1.00  0.00     0.014 A 
ATOM     39  C   UNL A   1      35.523  34.499  28.656  1.00  0.00     0.014 A 
ATOM     40  C   UNL A   1      35.351  32.897  30.938  1.00  0.00     0.010 A 
ATOM     41  C   UNL A   1      36.648  33.822  29.109  1.00  0.00     0.010 A 
ATOM     42  C   UNL A   1      36.576  33.022  30.260  1.00  0.00    -0.014 A 
BRANCH  42  43
ATOM     43  C   UNL A   1      37.796  32.335  30.751  1.00  0.00     0.031 A 
ATOM     44  C   UNL A   1      38.561  32.905  31.914  1.00  0.00     0.074 A 
ATOM     45  C   UNL A   1      38.242  31.229  30.124  1.00  0.00     0.049 A 
ATOM     46  N   UNL A   1      39.663  32.469  32.471  1.00  0.00    -0.248 NA
ATOM     47  C   UNL A   1      38.034  34.142  32.515  1.00  0.00     0.031 C 
ATOM     48  C   UNL A   1      37.613  30.602  28.959  1.00  0.00     0.029 A 
ATOM     49  N   UNL A   1      39.333  30.436  30.379  1.00  0.00    -0.354 N 
ATOM     50  C   UNL A   1      39.964  33.382  33.473  1.00  0.00     0.074 A 
ATOM     51  C   UNL A   1      38.967  34.427  33.409  1.00  0.00     0.031 C 
ATOM     52  C   UNL A   1      38.308  29.502  28.624  1.00  0.00     0.029 A 
ATOM     53  C   UNL A   1      39.452  29.370  29.520  1.00  0.00     0.049 A 
ATOM     54  H   UNL A   1      39.969  30.614  31.109  1.00  0.00     0.167 HD
ATOM     55  C   UNL A   1      40.967  33.344  34.382  1.00  0.00     0.031 A 
ATOM     56  C   UNL A   1      40.382  28.399  29.459  1.00  0.00     0.031 A 
ATOM     57  C   UNL A   1      41.955  32.301  34.447  1.00  0.00     0.049 A 
ATOM     58  C   UNL A   1      41.500  28.391  30.464  1.00  0.00     0.074 A 
ATOM     59  C   UNL A   1      42.980  32.142  35.363  1.00  0.00     0.029 A 
ATOM     60  N   UNL A   1      42.045  31.243  33.555  1.00  0.00    -0.354 N 
ATOM     61  N   UNL A   1      41.728  29.221  31.454  1.00  0.00    -0.248 NA
ATOM     62  C   UNL A   1      42.484  27.306  30.350  1.00  0.00     0.031 C 
ATOM     63  C   UNL A   1      43.727  31.021  34.989  1.00  0.00     0.029 A 
ATOM     64  C   UNL A   1      43.127  30.443  33.881  1.00  0.00     0.049 A 
ATOM     65  H   UNL A   1      41.430  31.085  32.803  1.00  0.00     0.167 HD
ATOM     66  C   UNL A   1      42.863  28.742  32.096  1.00  0.00     0.074 A 
ATOM     67  C   UNL A   1      43.264  27.539  31.395  1.00  0.00     0.031 C 
ATOM     68  C   UNL A   1      43.514  29.252  33.171  1.00  0.00     0.031 A 
BRANCH  55  69
ATOM     69  C   UNL A   1      41.046  34.474  35.371  1.00  0.00    -0.014 A 
ATOM     70  C   UNL A   1      41.859  35.594  35.137  1.00  0.00     0.009 A 
ATOM     71  C   UNL A   1      40.277  34.430  36.544  1.00  0.00     0.009 A 
ATOM     72  C   UNL A   1      41.932  36.627  36.075  1.00  0.00     0.001 A 
ATOM     73  C   UNL A   1      40.325  35.478  37.465  1.00  0.00     0.001 A 
ATOM     74  C   UNL A   1      41.160  36.570  37.234  1.00  0.00     0.000 A 
ENDBRANCH  55  69
BRANCH  56  75
ATOM     75  C   UNL A   1      40.289  27.340  28.418  1.00  0.00    -0.014 A 
ATOM     76  C   UNL A   1      40.923  27.501  27.177  1.00  0.00     0.009 A 
ATOM     77  C   UNL A   1      39.557  26.166  28.656  1.00  0.00     0.009 A 
ATOM     78  C   UNL A   1      40.802  26.524  26.186  1.00  0.00     0.001 A 
ATOM     79  C   UNL A   1      39.464  25.176  27.675  1.00  0.00     0.001 A 
ATOM     80  C   UNL A   1      40.077  25.360  26.438  1.00  0.00     0.000 A 
ENDBRANCH  56  75
BRANCH  68  81
ATOM     81  C   UNL A   1      44.709  28.491  33.675  1.00  0.00    -0.014 A 
ATOM     82  C   UNL A   1      46.006  28.784  33.227  1.00  0.00     0.009 A 
ATOM     83  C   UNL A   1      44.535  27.492  34.647  1.00  0.00     0.009 A 
ATOM     84  C   UNL A   1      47.101  28.068  33.716  1.00  0.00     0.001 A 
ATOM     85  C   UNL A   1      45.634  26.802  35.158  1.00  0.00     0.001 A 
ATOM     86  C   UNL A   1      46.914  27.082  34.684  1.00  0.00     0.000 A 
ENDBRANCH  68  81
ENDBRANCH  42  43
ENDBRANCH  34  37
ENDBRANCH  32  33
ENDBRANCH  31  32
ENDBRANCH  30  31
ENDBRANCH   1  30
TORSDOF 18
ENDMDL
