MODEL 1
REMARK VINA RESULT:     -10.7      0.000      0.000
REMARK SMILES CC1=NN(c2ccc(Cl)c(C(=O)NCCCCCCNC(=O)c3ccc(-c4c5nc(c(-c6ccccc6)c6ccc([nH]6)c(-c6ccccc6)c6nc(c(-c7ccccc7)c7ccc4[nH]7)C=C6)C=C5)cc3)c2)C(=O)/C1=C\c1ccc(N(C)C)c(Br)c1
REMARK SMILES IDX 16 1 15 2 14 3 13 4 11 5 12 6 10 8 5 9 6 10 71 11 7 12 8 13
REMARK SMILES IDX 9 14 4 15 1 16 2 17 3 18 74 19 72 20 75 21 73 22 76 23 77 24
REMARK SMILES IDX 85 25 78 26 83 27 79 28 84 29 80 30 81 31 82 32 17 33 18 34
REMARK SMILES IDX 19 35 20 36 21 37 22 39 23 40 24 41 70 42 25 43 69 44 26 45
REMARK SMILES IDX 27 46 28 47 63 48 29 49 68 50 62 51 64 52 30 53 67 54 61 55
REMARK SMILES IDX 60 56 31 58 53 59 38 60 52 61 39 62 42 63 51 64 65 65 40 66
REMARK SMILES IDX 41 67 50 69 66 70 43 71 32 72 33 73 37 74 34 75 36 76 35 77
REMARK SMILES IDX 54 78 55 79 59 80 56 81 58 82 57 83 44 84 45 85 49 86 46 87
REMARK SMILES IDX 48 88 47 89
REMARK H PARENT 13 7 20 38 64 57 42 68
REMARK Flexibility Score: inf
ROOT
ATOM      1  C   UNL A   1      40.916  27.292  29.108  1.00  0.00     0.002 C 
ENDROOT
BRANCH   1   2
ATOM      2  C   UNL A   1      41.416  28.709  28.814  1.00  0.00     0.021 C 
BRANCH   2   3
ATOM      3  C   UNL A   1      42.015  29.475  29.986  1.00  0.00     0.116 C 
BRANCH   3   4
ATOM      4  N   UNL A   1      41.637  30.873  30.060  1.00  0.00    -0.352 N 
ATOM      5  C   UNL A   1      40.400  31.451  30.242  1.00  0.00     0.252 C 
ATOM      6  O   UNL A   1      40.334  32.679  30.309  1.00  0.00    -0.269 OA
ATOM      7  H   UNL A   1      42.383  31.509  29.966  1.00  0.00     0.163 HD
BRANCH   5   8
ATOM      8  C   UNL A   1      39.136  30.665  30.286  1.00  0.00     0.060 A 
ATOM      9  C   UNL A   1      36.888  30.393  29.376  1.00  0.00     0.070 A 
ATOM     10  C   UNL A   1      36.676  29.338  30.268  1.00  0.00     0.030 A 
ATOM     11  C   UNL A   1      38.155  30.986  29.312  1.00  0.00     0.044 A 
ATOM     12  C   UNL A   1      37.625  29.020  31.229  1.00  0.00     0.023 A 
ATOM     13  C   UNL A   1      38.802  29.761  31.307  1.00  0.00     0.053 A 
ATOM     14  Cl  UNL A   1      39.638  29.633  32.815  1.00  0.00    -0.083 Cl
BRANCH   9  15
ATOM     15  N   UNL A   1      35.762  30.959  28.746  1.00  0.00    -0.196 N 
ATOM     16  C   UNL A   1      33.481  33.684  28.172  1.00  0.00     0.069 C 
ATOM     17  C   UNL A   1      34.243  32.405  28.287  1.00  0.00     0.071 C 
ATOM     18  N   UNL A   1      35.311  32.239  29.032  1.00  0.00    -0.169 NA
ATOM     19  C   UNL A   1      33.863  31.176  27.560  1.00  0.00     0.065 C 
ATOM     20  C   UNL A   1      34.972  30.243  27.834  1.00  0.00     0.280 C 
ATOM     21  C   UNL A   1      32.726  30.907  26.900  1.00  0.00     0.024 C 
ATOM     22  O   UNL A   1      35.116  29.121  27.381  1.00  0.00    -0.267 OA
BRANCH  21  23
ATOM     23  C   UNL A   1      32.379  29.543  26.470  1.00  0.00    -0.024 A 
ATOM     24  C   UNL A   1      31.779  28.632  27.319  1.00  0.00     0.010 A 
ATOM     25  C   UNL A   1      32.592  29.162  25.146  1.00  0.00     0.026 A 
ATOM     26  C   UNL A   1      31.368  27.375  26.827  1.00  0.00     0.028 A 
ATOM     27  C   UNL A   1      32.185  27.898  24.655  1.00  0.00     0.041 A 
ATOM     28  C   UNL A   1      31.542  26.942  25.485  1.00  0.00     0.051 A 
ATOM     29  Br  UNL A   1      32.642  27.684  22.808  1.00  0.00    -0.049 Br
BRANCH  28  30
ATOM     30  N   UNL A   1      31.099  25.670  25.110  1.00  0.00    -0.377 N 
ATOM     31  C   UNL A   1      31.369  24.467  25.899  1.00  0.00     0.143 C 
ATOM     32  C   UNL A   1      30.144  25.444  24.028  1.00  0.00     0.143 C 
ENDBRANCH  28  30
ENDBRANCH  21  23
ENDBRANCH   9  15
ENDBRANCH   5   8
ENDBRANCH   3   4
ENDBRANCH   2   3
ENDBRANCH   1   2
BRANCH   1  33
ATOM     33  C   UNL A   1      39.517  26.915  28.609  1.00  0.00     0.002 C 
BRANCH  33  34
ATOM     34  C   UNL A   1      39.311  25.479  28.117  1.00  0.00     0.021 C 
BRANCH  34  35
ATOM     35  C   UNL A   1      39.741  25.188  26.685  1.00  0.00     0.116 C 
BRANCH  35  36
ATOM     36  N   UNL A   1      40.455  23.931  26.546  1.00  0.00    -0.352 N 
ATOM     37  C   UNL A   1      41.797  23.699  26.360  1.00  0.00     0.251 C 
ATOM     38  H   UNL A   1      39.895  23.124  26.594  1.00  0.00     0.163 HD
ATOM     39  O   UNL A   1      42.198  22.558  26.146  1.00  0.00    -0.269 OA
BRANCH  37  40
ATOM     40  C   UNL A   1      42.764  24.820  26.385  1.00  0.00     0.039 A 
ATOM     41  C   UNL A   1      43.374  25.150  27.599  1.00  0.00     0.014 A 
ATOM     42  C   UNL A   1      43.059  25.555  25.234  1.00  0.00     0.014 A 
ATOM     43  C   UNL A   1      44.325  26.172  27.645  1.00  0.00     0.010 A 
ATOM     44  C   UNL A   1      44.059  26.528  25.268  1.00  0.00     0.010 A 
ATOM     45  C   UNL A   1      44.701  26.848  26.474  1.00  0.00    -0.014 A 
BRANCH  45  46
ATOM     46  C   UNL A   1      45.761  27.888  26.491  1.00  0.00     0.031 A 
ATOM     47  C   UNL A   1      45.398  29.340  26.644  1.00  0.00     0.074 A 
ATOM     48  C   UNL A   1      47.051  27.533  26.323  1.00  0.00     0.049 A 
ATOM     49  N   UNL A   1      46.176  30.393  26.627  1.00  0.00    -0.248 NA
ATOM     50  C   UNL A   1      43.970  29.652  26.822  1.00  0.00     0.031 C 
ATOM     51  C   UNL A   1      47.536  26.164  26.140  1.00  0.00     0.029 A 
ATOM     52  N   UNL A   1      48.189  28.298  26.273  1.00  0.00    -0.354 N 
ATOM     53  C   UNL A   1      45.335  31.488  26.782  1.00  0.00     0.074 A 
ATOM     54  C   UNL A   1      43.982  30.977  26.840  1.00  0.00     0.031 C 
ATOM     55  C   UNL A   1      48.875  26.183  26.029  1.00  0.00     0.029 A 
ATOM     56  C   UNL A   1      49.338  27.565  26.088  1.00  0.00     0.049 A 
ATOM     57  H   UNL A   1      48.185  29.278  26.362  1.00  0.00     0.167 HD
ATOM     58  C   UNL A   1      45.657  32.799  26.891  1.00  0.00     0.031 A 
ATOM     59  C   UNL A   1      50.619  27.963  25.971  1.00  0.00     0.031 A 
ATOM     60  C   UNL A   1      47.001  33.311  26.837  1.00  0.00     0.049 A 
ATOM     61  C   UNL A   1      50.944  29.430  26.051  1.00  0.00     0.074 A 
ATOM     62  C   UNL A   1      47.430  34.621  26.968  1.00  0.00     0.029 A 
ATOM     63  N   UNL A   1      48.132  32.537  26.637  1.00  0.00    -0.354 N 
ATOM     64  N   UNL A   1      50.140  30.446  26.248  1.00  0.00    -0.248 NA
ATOM     65  C   UNL A   1      52.358  29.801  25.900  1.00  0.00     0.031 C 
ATOM     66  C   UNL A   1      48.819  34.645  26.800  1.00  0.00     0.029 A 
ATOM     67  C   UNL A   1      49.258  33.343  26.623  1.00  0.00     0.049 A 
ATOM     68  H   UNL A   1      48.136  31.559  26.523  1.00  0.00     0.167 HD
ATOM     69  C   UNL A   1      50.954  31.571  26.281  1.00  0.00     0.074 A 
ATOM     70  C   UNL A   1      52.315  31.110  26.098  1.00  0.00     0.031 C 
ATOM     71  C   UNL A   1      50.606  32.869  26.448  1.00  0.00     0.031 A 
BRANCH  58  72
ATOM     72  C   UNL A   1      44.530  33.776  27.081  1.00  0.00    -0.014 A 
ATOM     73  C   UNL A   1      44.042  34.078  28.363  1.00  0.00     0.009 A 
ATOM     74  C   UNL A   1      43.976  34.435  25.972  1.00  0.00     0.009 A 
ATOM     75  C   UNL A   1      43.001  34.994  28.527  1.00  0.00     0.001 A 
ATOM     76  C   UNL A   1      42.955  35.372  26.142  1.00  0.00     0.001 A 
ATOM     77  C   UNL A   1      42.463  35.644  27.418  1.00  0.00     0.000 A 
ENDBRANCH  58  72
BRANCH  59  78
ATOM     78  C   UNL A   1      51.702  26.963  25.776  1.00  0.00    -0.014 A 
ATOM     79  C   UNL A   1      52.145  26.639  24.483  1.00  0.00     0.009 A 
ATOM     80  C   UNL A   1      52.278  26.306  26.873  1.00  0.00     0.009 A 
ATOM     81  C   UNL A   1      53.115  25.652  24.293  1.00  0.00     0.001 A 
ATOM     82  C   UNL A   1      53.270  25.342  26.682  1.00  0.00     0.001 A 
ATOM     83  C   UNL A   1      53.678  25.007  25.392  1.00  0.00     0.000 A 
ENDBRANCH  59  78
BRANCH  71  84
ATOM     84  C   UNL A   1      51.718  33.879  26.488  1.00  0.00    -0.014 A 
ATOM     85  C   UNL A   1      52.361  34.214  27.690  1.00  0.00     0.009 A 
ATOM     86  C   UNL A   1      52.153  34.479  25.295  1.00  0.00     0.009 A 
ATOM     87  C   UNL A   1      53.392  35.155  27.700  1.00  0.00     0.001 A 
ATOM     88  C   UNL A   1      53.205  35.395  25.304  1.00  0.00     0.001 A 
ATOM     89  C   UNL A   1      53.816  35.741  26.509  1.00  0.00     0.000 A 
ENDBRANCH  71  84
ENDBRANCH  45  46
ENDBRANCH  37  40
ENDBRANCH  35  36
ENDBRANCH  34  35
ENDBRANCH  33  34
ENDBRANCH   1  33
TORSDOF 16
ENDMDL
MODEL 2
REMARK VINA RESULT:     -10.5      0.323      5.562
REMARK SMILES CC1=NN(c2ccc(Cl)c(C(=O)NCCCCCCNC(=O)c3ccc(-c4c5nc(c(-c6ccccc6)c6ccc([nH]6)c(-c6ccccc6)c6nc(c(-c7ccccc7)c7ccc4[nH]7)C=C6)C=C5)cc3)c2)C(=O)/C1=C\c1ccc(N(C)C)c(Br)c1
REMARK SMILES IDX 16 1 15 2 14 3 13 4 11 5 12 6 10 8 5 9 6 10 71 11 7 12 8 13
REMARK SMILES IDX 9 14 4 15 1 16 2 17 3 18 74 19 72 20 75 21 73 22 76 23 77 24
REMARK SMILES IDX 85 25 78 26 83 27 79 28 84 29 80 30 81 31 82 32 17 33 18 34
REMARK SMILES IDX 19 35 20 36 21 37 22 39 23 40 24 41 70 42 25 43 69 44 26 45
REMARK SMILES IDX 27 46 28 47 63 48 29 49 68 50 62 51 64 52 30 53 67 54 61 55
REMARK SMILES IDX 60 56 31 58 53 59 38 60 52 61 39 62 42 63 51 64 65 65 40 66
REMARK SMILES IDX 41 67 50 69 66 70 43 71 32 72 33 73 37 74 34 75 36 76 35 77
REMARK SMILES IDX 54 78 55 79 59 80 56 81 58 82 57 83 44 84 45 85 49 86 46 87
REMARK SMILES IDX 48 88 47 89
REMARK H PARENT 13 7 20 38 64 57 42 68
REMARK Flexibility Score: inf
ROOT
ATOM      1  C   UNL A   1      40.746  27.234  29.288  1.00  0.00     0.002 C 
ENDROOT
BRANCH   1   2
ATOM      2  C   UNL A   1      41.454  28.538  28.908  1.00  0.00     0.021 C 
BRANCH   2   3
ATOM      3  C   UNL A   1      42.076  29.331  30.051  1.00  0.00     0.116 C 
BRANCH   3   4
ATOM      4  N   UNL A   1      41.731  30.739  30.077  1.00  0.00    -0.352 N 
ATOM      5  C   UNL A   1      40.508  31.352  30.243  1.00  0.00     0.252 C 
ATOM      6  O   UNL A   1      40.471  32.582  30.266  1.00  0.00    -0.269 OA
ATOM      7  H   UNL A   1      42.490  31.354  29.957  1.00  0.00     0.163 HD
BRANCH   5   8
ATOM      8  C   UNL A   1      39.226  30.597  30.320  1.00  0.00     0.060 A 
ATOM      9  C   UNL A   1      36.966  30.351  29.436  1.00  0.00     0.070 A 
ATOM     10  C   UNL A   1      36.736  29.328  30.362  1.00  0.00     0.030 A 
ATOM     11  C   UNL A   1      38.246  30.911  29.345  1.00  0.00     0.044 A 
ATOM     12  C   UNL A   1      37.685  29.018  31.324  1.00  0.00     0.023 A 
ATOM     13  C   UNL A   1      38.881  29.732  31.371  1.00  0.00     0.053 A 
ATOM     14  Cl  UNL A   1      39.725  29.630  32.876  1.00  0.00    -0.083 Cl
BRANCH   9  15
ATOM     15  N   UNL A   1      35.847  30.924  28.798  1.00  0.00    -0.196 N 
ATOM     16  C   UNL A   1      33.591  33.665  28.203  1.00  0.00     0.069 C 
ATOM     17  C   UNL A   1      34.343  32.381  28.326  1.00  0.00     0.071 C 
ATOM     18  N   UNL A   1      35.404  32.207  29.078  1.00  0.00    -0.169 NA
ATOM     19  C   UNL A   1      33.958  31.152  27.600  1.00  0.00     0.065 C 
ATOM     20  C   UNL A   1      35.057  30.211  27.883  1.00  0.00     0.280 C 
ATOM     21  C   UNL A   1      32.823  30.890  26.934  1.00  0.00     0.024 C 
ATOM     22  O   UNL A   1      35.196  29.087  27.434  1.00  0.00    -0.267 OA
BRANCH  21  23
ATOM     23  C   UNL A   1      32.468  29.528  26.505  1.00  0.00    -0.024 A 
ATOM     24  C   UNL A   1      31.796  28.646  27.330  1.00  0.00     0.010 A 
ATOM     25  C   UNL A   1      32.748  29.119  25.202  1.00  0.00     0.026 A 
ATOM     26  C   UNL A   1      31.384  27.391  26.835  1.00  0.00     0.028 A 
ATOM     27  C   UNL A   1      32.341  27.858  24.707  1.00  0.00     0.041 A 
ATOM     28  C   UNL A   1      31.626  26.932  25.512  1.00  0.00     0.051 A 
ATOM     29  Br  UNL A   1      32.900  27.602  22.894  1.00  0.00    -0.049 Br
BRANCH  28  30
ATOM     30  N   UNL A   1      31.174  25.664  25.131  1.00  0.00    -0.377 N 
ATOM     31  C   UNL A   1      30.314  25.442  23.967  1.00  0.00     0.143 C 
ATOM     32  C   UNL A   1      31.687  24.425  25.710  1.00  0.00     0.143 C 
ENDBRANCH  28  30
ENDBRANCH  21  23
ENDBRANCH   9  15
ENDBRANCH   5   8
ENDBRANCH   3   4
ENDBRANCH   2   3
ENDBRANCH   1   2
BRANCH   1  33
ATOM     33  C   UNL A   1      39.429  26.909  28.575  1.00  0.00     0.002 C 
BRANCH  33  34
ATOM     34  C   UNL A   1      39.246  25.480  28.058  1.00  0.00     0.021 C 
BRANCH  34  35
ATOM     35  C   UNL A   1      39.975  25.130  26.767  1.00  0.00     0.116 C 
BRANCH  35  36
ATOM     36  N   UNL A   1      40.604  23.821  26.802  1.00  0.00    -0.352 N 
ATOM     37  C   UNL A   1      41.932  23.482  26.711  1.00  0.00     0.251 C 
ATOM     38  H   UNL A   1      39.986  23.063  26.907  1.00  0.00     0.163 HD
ATOM     39  O   UNL A   1      42.260  22.301  26.642  1.00  0.00    -0.269 OA
BRANCH  37  40
ATOM     40  C   UNL A   1      42.975  24.533  26.665  1.00  0.00     0.039 A 
ATOM     41  C   UNL A   1      43.401  24.998  25.417  1.00  0.00     0.014 A 
ATOM     42  C   UNL A   1      43.545  25.047  27.832  1.00  0.00     0.014 A 
ATOM     43  C   UNL A   1      44.350  26.021  25.342  1.00  0.00     0.010 A 
ATOM     44  C   UNL A   1      44.440  26.115  27.758  1.00  0.00     0.010 A 
ATOM     45  C   UNL A   1      44.852  26.612  26.512  1.00  0.00    -0.014 A 
BRANCH  45  46
ATOM     46  C   UNL A   1      45.808  27.747  26.451  1.00  0.00     0.031 A 
ATOM     47  C   UNL A   1      47.284  27.492  26.308  1.00  0.00     0.074 A 
ATOM     48  C   UNL A   1      45.354  29.011  26.571  1.00  0.00     0.049 A 
ATOM     49  N   UNL A   1      48.274  28.349  26.294  1.00  0.00    -0.248 NA
ATOM     50  C   UNL A   1      47.705  26.086  26.184  1.00  0.00     0.031 C 
ATOM     51  C   UNL A   1      43.951  29.396  26.738  1.00  0.00     0.029 A 
ATOM     52  N   UNL A   1      46.028  30.206  26.575  1.00  0.00    -0.354 N 
ATOM     53  C   UNL A   1      49.430  27.590  26.168  1.00  0.00     0.074 A 
ATOM     54  C   UNL A   1      49.025  26.200  26.164  1.00  0.00     0.031 C 
ATOM     55  C   UNL A   1      43.866  30.736  26.798  1.00  0.00     0.029 A 
ATOM     56  C   UNL A   1      45.209  31.301  26.718  1.00  0.00     0.049 A 
ATOM     57  H   UNL A   1      47.006  30.274  26.484  1.00  0.00     0.167 HD
ATOM     58  C   UNL A   1      50.712  28.008  26.044  1.00  0.00     0.031 A 
ATOM     59  C   UNL A   1      45.507  32.613  26.785  1.00  0.00     0.031 A 
ATOM     60  C   UNL A   1      51.118  29.389  26.045  1.00  0.00     0.049 A 
ATOM     61  C   UNL A   1      46.944  33.047  26.689  1.00  0.00     0.074 A 
ATOM     62  C   UNL A   1      52.392  29.912  25.895  1.00  0.00     0.029 A 
ATOM     63  N   UNL A   1      50.260  30.463  26.203  1.00  0.00    -0.354 N 
ATOM     64  N   UNL A   1      48.020  32.317  26.521  1.00  0.00    -0.248 NA
ATOM     65  C   UNL A   1      47.204  34.491  26.784  1.00  0.00     0.031 C 
ATOM     66  C   UNL A   1      52.308  31.304  26.009  1.00  0.00     0.029 A 
ATOM     67  C   UNL A   1      50.976  31.648  26.172  1.00  0.00     0.049 A 
ATOM     68  H   UNL A   1      49.284  30.396  26.319  1.00  0.00     0.167 HD
ATOM     69  C   UNL A   1      49.078  33.214  26.454  1.00  0.00     0.074 A 
ATOM     70  C   UNL A   1      48.513  34.541  26.586  1.00  0.00     0.031 C 
ATOM     71  C   UNL A   1      50.400  32.961  26.297  1.00  0.00     0.031 A 
BRANCH  58  72
ATOM     72  C   UNL A   1      51.774  26.954  25.895  1.00  0.00    -0.014 A 
ATOM     73  C   UNL A   1      52.427  26.420  27.018  1.00  0.00     0.009 A 
ATOM     74  C   UNL A   1      52.098  26.456  24.623  1.00  0.00     0.009 A 
ATOM     75  C   UNL A   1      53.405  25.435  26.868  1.00  0.00     0.001 A 
ATOM     76  C   UNL A   1      53.055  25.450  24.478  1.00  0.00     0.001 A 
ATOM     77  C   UNL A   1      53.714  24.947  25.599  1.00  0.00     0.000 A 
ENDBRANCH  58  72
BRANCH  59  78
ATOM     78  C   UNL A   1      44.426  33.622  26.941  1.00  0.00    -0.014 A 
ATOM     79  C   UNL A   1      43.875  34.254  25.814  1.00  0.00     0.009 A 
ATOM     80  C   UNL A   1      43.961  33.984  28.214  1.00  0.00     0.009 A 
ATOM     81  C   UNL A   1      42.908  35.251  25.962  1.00  0.00     0.001 A 
ATOM     82  C   UNL A   1      42.970  34.958  28.358  1.00  0.00     0.001 A 
ATOM     83  C   UNL A   1      42.455  35.599  27.232  1.00  0.00     0.000 A 
ENDBRANCH  59  78
BRANCH  71  84
ATOM     84  C   UNL A   1      51.321  34.146  26.212  1.00  0.00    -0.014 A 
ATOM     85  C   UNL A   1      51.956  34.663  27.352  1.00  0.00     0.009 A 
ATOM     86  C   UNL A   1      51.583  34.731  24.963  1.00  0.00     0.009 A 
ATOM     87  C   UNL A   1      52.808  35.764  27.245  1.00  0.00     0.001 A 
ATOM     88  C   UNL A   1      52.459  35.811  24.855  1.00  0.00     0.001 A 
ATOM     89  C   UNL A   1      53.062  36.334  25.998  1.00  0.00     0.000 A 
ENDBRANCH  71  84
ENDBRANCH  45  46
ENDBRANCH  37  40
ENDBRANCH  35  36
ENDBRANCH  34  35
ENDBRANCH  33  34
ENDBRANCH   1  33
TORSDOF 16
ENDMDL
MODEL 3
REMARK VINA RESULT:     -10.5      5.818     12.151
REMARK SMILES CC1=NN(c2ccc(Cl)c(C(=O)NCCCCCCNC(=O)c3ccc(-c4c5nc(c(-c6ccccc6)c6ccc([nH]6)c(-c6ccccc6)c6nc(c(-c7ccccc7)c7ccc4[nH]7)C=C6)C=C5)cc3)c2)C(=O)/C1=C\c1ccc(N(C)C)c(Br)c1
REMARK SMILES IDX 16 1 15 2 14 3 13 4 11 5 12 6 10 8 5 9 6 10 71 11 7 12 8 13
REMARK SMILES IDX 9 14 4 15 1 16 2 17 3 18 74 19 72 20 75 21 73 22 76 23 77 24
REMARK SMILES IDX 85 25 78 26 83 27 79 28 84 29 80 30 81 31 82 32 17 33 18 34
REMARK SMILES IDX 19 35 20 36 21 37 22 39 23 40 24 41 70 42 25 43 69 44 26 45
REMARK SMILES IDX 27 46 28 47 63 48 29 49 68 50 62 51 64 52 30 53 67 54 61 55
REMARK SMILES IDX 60 56 31 58 53 59 38 60 52 61 39 62 42 63 51 64 65 65 40 66
REMARK SMILES IDX 41 67 50 69 66 70 43 71 32 72 33 73 37 74 34 75 36 76 35 77
REMARK SMILES IDX 54 78 55 79 59 80 56 81 58 82 57 83 44 84 45 85 49 86 46 87
REMARK SMILES IDX 48 88 47 89
REMARK H PARENT 13 7 20 38 64 57 42 68
REMARK Flexibility Score: inf
ROOT
ATOM      1  C   UNL A   1      44.284  24.200  32.764  1.00  0.00     0.002 C 
ENDROOT
BRANCH   1   2
ATOM      2  C   UNL A   1      44.446  24.016  31.252  1.00  0.00     0.021 C 
BRANCH   2   3
ATOM      3  C   UNL A   1      45.378  24.992  30.545  1.00  0.00     0.116 C 
BRANCH   3   4
ATOM      4  N   UNL A   1      45.981  25.991  31.404  1.00  0.00    -0.352 N 
ATOM      5  C   UNL A   1      47.227  26.577  31.348  1.00  0.00     0.252 C 
ATOM      6  O   UNL A   1      47.503  27.443  32.180  1.00  0.00    -0.269 OA
ATOM      7  H   UNL A   1      45.411  26.300  32.144  1.00  0.00     0.163 HD
BRANCH   5   8
ATOM      8  C   UNL A   1      48.277  26.160  30.378  1.00  0.00     0.060 A 
ATOM      9  C   UNL A   1      48.836  25.804  28.029  1.00  0.00     0.070 A 
ATOM     10  C   UNL A   1      50.104  25.361  28.419  1.00  0.00     0.030 A 
ATOM     11  C   UNL A   1      47.962  26.305  29.002  1.00  0.00     0.044 A 
ATOM     12  C   UNL A   1      50.421  25.210  29.760  1.00  0.00     0.023 A 
ATOM     13  C   UNL A   1      49.466  25.502  30.732  1.00  0.00     0.053 A 
ATOM     14  Cl  UNL A   1      49.772  24.798  32.281  1.00  0.00    -0.083 Cl
BRANCH   9  15
ATOM     15  N   UNL A   1      48.414  25.518  26.716  1.00  0.00    -0.196 N 
ATOM     16  C   UNL A   1      48.490  26.088  23.162  1.00  0.00     0.069 C 
ATOM     17  C   UNL A   1      48.238  25.712  24.585  1.00  0.00     0.071 C 
ATOM     18  N   UNL A   1      48.857  26.237  25.616  1.00  0.00    -0.169 NA
ATOM     19  C   UNL A   1      47.245  24.691  24.981  1.00  0.00     0.065 C 
ATOM     20  C   UNL A   1      47.458  24.531  26.432  1.00  0.00     0.280 C 
ATOM     21  C   UNL A   1      46.284  24.120  24.239  1.00  0.00     0.024 C 
ATOM     22  O   UNL A   1      46.902  23.740  27.173  1.00  0.00    -0.267 OA
BRANCH  21  23
ATOM     23  C   UNL A   1      45.196  23.335  24.844  1.00  0.00    -0.024 A 
ATOM     24  C   UNL A   1      44.104  23.929  25.448  1.00  0.00     0.010 A 
ATOM     25  C   UNL A   1      45.215  21.944  24.751  1.00  0.00     0.026 A 
ATOM     26  C   UNL A   1      43.038  23.134  25.916  1.00  0.00     0.028 A 
ATOM     27  C   UNL A   1      44.147  21.146  25.226  1.00  0.00     0.041 A 
ATOM     28  C   UNL A   1      42.996  21.716  25.830  1.00  0.00     0.051 A 
ATOM     29  Br  UNL A   1      44.496  19.282  24.966  1.00  0.00    -0.049 Br
BRANCH  28  30
ATOM     30  N   UNL A   1      41.886  21.029  26.332  1.00  0.00    -0.377 N 
ATOM     31  C   UNL A   1      41.994  19.947  27.312  1.00  0.00     0.143 C 
ATOM     32  C   UNL A   1      40.509  21.462  26.105  1.00  0.00     0.143 C 
ENDBRANCH  28  30
ENDBRANCH  21  23
ENDBRANCH   9  15
ENDBRANCH   5   8
ENDBRANCH   3   4
ENDBRANCH   2   3
ENDBRANCH   1   2
BRANCH   1  33
ATOM     33  C   UNL A   1      44.387  22.950  33.645  1.00  0.00     0.002 C 
BRANCH  33  34
ATOM     34  C   UNL A   1      45.644  22.799  34.505  1.00  0.00     0.021 C 
BRANCH  34  35
ATOM     35  C   UNL A   1      46.656  23.935  34.426  1.00  0.00     0.116 C 
BRANCH  35  36
ATOM     36  N   UNL A   1      46.981  24.504  35.721  1.00  0.00    -0.352 N 
ATOM     37  C   UNL A   1      46.493  25.634  36.331  1.00  0.00     0.251 C 
ATOM     38  H   UNL A   1      47.652  24.006  36.241  1.00  0.00     0.163 HD
ATOM     39  O   UNL A   1      46.982  26.020  37.390  1.00  0.00    -0.269 OA
BRANCH  37  40
ATOM     40  C   UNL A   1      45.397  26.412  35.708  1.00  0.00     0.039 A 
ATOM     41  C   UNL A   1      45.725  27.551  34.966  1.00  0.00     0.014 A 
ATOM     42  C   UNL A   1      44.059  26.040  35.862  1.00  0.00     0.014 A 
ATOM     43  C   UNL A   1      44.717  28.279  34.328  1.00  0.00     0.010 A 
ATOM     44  C   UNL A   1      43.063  26.727  35.168  1.00  0.00     0.010 A 
ATOM     45  C   UNL A   1      43.381  27.854  34.395  1.00  0.00    -0.014 A 
BRANCH  45  46
ATOM     46  C   UNL A   1      42.307  28.574  33.665  1.00  0.00     0.031 A 
ATOM     47  C   UNL A   1      41.443  29.577  34.380  1.00  0.00     0.074 A 
ATOM     48  C   UNL A   1      42.075  28.294  32.367  1.00  0.00     0.049 A 
ATOM     49  N   UNL A   1      40.423  30.262  33.927  1.00  0.00    -0.248 NA
ATOM     50  C   UNL A   1      41.754  29.830  35.797  1.00  0.00     0.031 C 
ATOM     51  C   UNL A   1      42.824  27.326  31.561  1.00  0.00     0.029 A 
ATOM     52  N   UNL A   1      41.139  28.795  31.497  1.00  0.00    -0.354 N 
ATOM     53  C   UNL A   1      39.968  31.018  35.000  1.00  0.00     0.074 A 
ATOM     54  C   UNL A   1      40.787  30.669  36.140  1.00  0.00     0.031 C 
ATOM     55  C   UNL A   1      42.338  27.327  30.309  1.00  0.00     0.029 A 
ATOM     56  C   UNL A   1      41.218  28.259  30.233  1.00  0.00     0.049 A 
ATOM     57  H   UNL A   1      40.474  29.474  31.753  1.00  0.00     0.167 HD
ATOM     58  C   UNL A   1      38.973  31.937  35.031  1.00  0.00     0.031 A 
ATOM     59  C   UNL A   1      40.467  28.487  29.139  1.00  0.00     0.031 A 
ATOM     60  C   UNL A   1      38.157  32.288  33.898  1.00  0.00     0.049 A 
ATOM     61  C   UNL A   1      39.339  29.480  29.214  1.00  0.00     0.074 A 
ATOM     62  C   UNL A   1      37.144  33.230  33.825  1.00  0.00     0.029 A 
ATOM     63  N   UNL A   1      38.263  31.714  32.643  1.00  0.00    -0.354 N 
ATOM     64  N   UNL A   1      38.955  30.221  30.224  1.00  0.00    -0.248 NA
ATOM     65  C   UNL A   1      38.548  29.672  27.990  1.00  0.00     0.031 C 
ATOM     66  C   UNL A   1      36.605  33.191  32.534  1.00  0.00     0.029 A 
ATOM     67  C   UNL A   1      37.321  32.267  31.791  1.00  0.00     0.049 A 
ATOM     68  H   UNL A   1      38.911  31.016  32.392  1.00  0.00     0.167 HD
ATOM     69  C   UNL A   1      37.903  30.992  29.749  1.00  0.00     0.074 A 
ATOM     70  C   UNL A   1      37.718  30.639  28.356  1.00  0.00     0.031 C 
ATOM     71  C   UNL A   1      37.155  31.911  30.406  1.00  0.00     0.031 A 
BRANCH  58  72
ATOM     72  C   UNL A   1      38.711  32.630  36.339  1.00  0.00    -0.014 A 
ATOM     73  C   UNL A   1      39.279  33.883  36.621  1.00  0.00     0.009 A 
ATOM     74  C   UNL A   1      37.855  32.046  37.286  1.00  0.00     0.009 A 
ATOM     75  C   UNL A   1      39.021  34.521  37.836  1.00  0.00     0.001 A 
ATOM     76  C   UNL A   1      37.575  32.700  38.487  1.00  0.00     0.001 A 
ATOM     77  C   UNL A   1      38.165  33.932  38.765  1.00  0.00     0.000 A 
ENDBRANCH  58  72
BRANCH  59  78
ATOM     78  C   UNL A   1      40.755  27.773  27.867  1.00  0.00    -0.014 A 
ATOM     79  C   UNL A   1      40.214  26.498  27.629  1.00  0.00     0.009 A 
ATOM     80  C   UNL A   1      41.595  28.343  26.898  1.00  0.00     0.009 A 
ATOM     81  C   UNL A   1      40.538  25.798  26.465  1.00  0.00     0.001 A 
ATOM     82  C   UNL A   1      41.891  27.653  25.720  1.00  0.00     0.001 A 
ATOM     83  C   UNL A   1      41.372  26.376  25.511  1.00  0.00     0.000 A 
ENDBRANCH  59  78
BRANCH  71  84
ATOM     84  C   UNL A   1      36.101  32.633  29.614  1.00  0.00    -0.014 A 
ATOM     85  C   UNL A   1      34.806  32.111  29.471  1.00  0.00     0.009 A 
ATOM     86  C   UNL A   1      36.401  33.875  29.032  1.00  0.00     0.009 A 
ATOM     87  C   UNL A   1      33.845  32.802  28.731  1.00  0.00     0.001 A 
ATOM     88  C   UNL A   1      35.430  34.578  28.320  1.00  0.00     0.001 A 
ATOM     89  C   UNL A   1      34.155  34.036  28.161  1.00  0.00     0.000 A 
ENDBRANCH  71  84
ENDBRANCH  45  46
ENDBRANCH  37  40
ENDBRANCH  35  36
ENDBRANCH  34  35
ENDBRANCH  33  34
ENDBRANCH   1  33
TORSDOF 16
ENDMDL
