MODEL 1
REMARK VINA RESULT:     -11.0      0.000      0.000
REMARK SMILES Cc1cc(C(=O)N2CCC[C@@H]2C)sc1/C=C/C(=O)NCCCCCCNC(=O)c1ccc(-c2c3nc(c(-c4ccccc4)c4ccc([nH]4)c(-c4ccccc4)c4nc(c(-c5ccccc5)c5ccc2[nH]5)C=C4)C=C3)cc1
REMARK SMILES IDX 22 1 21 2 20 3 19 4 17 5 18 6 16 8 15 9 14 10 1 11 2 12 3 13
REMARK SMILES IDX 4 14 13 15 5 16 6 17 7 18 8 19 11 20 9 21 10 22 12 23 23 24
REMARK SMILES IDX 24 25 25 26 26 27 27 28 28 30 29 31 30 32 76 33 31 34 75 35
REMARK SMILES IDX 32 36 33 37 34 38 69 39 35 40 74 41 68 42 70 43 36 44 73 45
REMARK SMILES IDX 67 46 66 47 37 49 59 50 44 51 58 52 45 53 48 54 57 55 71 56
REMARK SMILES IDX 46 57 47 58 56 60 72 61 49 62 38 63 39 64 43 65 40 66 42 67
REMARK SMILES IDX 41 68 60 69 61 70 65 71 62 72 64 73 63 74 50 75 51 76 55 77
REMARK SMILES IDX 52 78 54 79 53 80
REMARK H PARENT 19 7 26 29 70 48 48 59
REMARK Flexibility Score: inf
ROOT
ATOM      1  C   UNL A   1      34.757  20.789  25.043  1.00  0.00     0.002 C 
ENDROOT
BRANCH   1   2
ATOM      2  C   UNL A   1      33.434  20.251  24.482  1.00  0.00     0.021 C 
BRANCH   2   3
ATOM      3  C   UNL A   1      32.223  21.094  24.884  1.00  0.00     0.116 C 
BRANCH   3   4
ATOM      4  N   UNL A   1      32.302  21.446  26.288  1.00  0.00    -0.353 N 
ATOM      5  C   UNL A   1      32.328  22.659  26.896  1.00  0.00     0.244 C 
ATOM      6  O   UNL A   1      32.339  22.729  28.122  1.00  0.00    -0.270 OA
ATOM      7  H   UNL A   1      32.343  20.678  26.903  1.00  0.00     0.163 HD
BRANCH   5   8
ATOM      8  C   UNL A   1      32.235  23.900  26.100  1.00  0.00     0.072 C 
ATOM      9  C   UNL A   1      31.545  24.991  26.468  1.00  0.00     0.025 C 
BRANCH   9  10
ATOM     10  C   UNL A   1      31.497  26.169  25.662  1.00  0.00     0.031 A 
ATOM     11  C   UNL A   1      33.630  27.391  26.428  1.00  0.00     0.046 C 
ATOM     12  C   UNL A   1      32.359  27.260  25.650  1.00  0.00    -0.032 A 
ATOM     13  C   UNL A   1      31.906  28.275  24.736  1.00  0.00     0.029 A 
ATOM     14  C   UNL A   1      30.760  27.930  24.042  1.00  0.00     0.093 A 
ATOM     15  S   UNL A   1      30.249  26.376  24.505  1.00  0.00    -0.130 S 
BRANCH  14  16
ATOM     16  C   UNL A   1      30.186  28.659  22.914  1.00  0.00     0.264 C 
ATOM     17  O   UNL A   1      30.483  28.345  21.757  1.00  0.00    -0.268 OA
BRANCH  16  18
ATOM     18  N   UNL A   1      29.230  29.647  23.115  1.00  0.00    -0.335 N 
ATOM     19  C   UNL A   1      29.566  30.801  23.921  1.00  0.00     0.120 C 
ATOM     20  C   UNL A   1      27.837  29.728  22.664  1.00  0.00     0.082 C 
ATOM     21  C   UNL A   1      28.719  31.894  23.300  1.00  0.00     0.024 C 
ATOM     22  C   UNL A   1      27.413  31.174  22.983  1.00  0.00     0.026 C 
ATOM     23  C   UNL A   1      26.956  28.719  23.395  1.00  0.00     0.031 C 
ENDBRANCH  16  18
ENDBRANCH  14  16
ENDBRANCH   9  10
ENDBRANCH   5   8
ENDBRANCH   3   4
ENDBRANCH   2   3
ENDBRANCH   1   2
BRANCH   1  24
ATOM     24  C   UNL A   1      35.266  22.069  24.371  1.00  0.00     0.002 C 
BRANCH  24  25
ATOM     25  C   UNL A   1      35.687  23.182  25.334  1.00  0.00     0.021 C 
BRANCH  25  26
ATOM     26  C   UNL A   1      37.106  23.698  25.116  1.00  0.00     0.116 C 
BRANCH  26  27
ATOM     27  N   UNL A   1      38.102  22.704  25.483  1.00  0.00    -0.352 N 
ATOM     28  C   UNL A   1      39.303  22.872  26.126  1.00  0.00     0.251 C 
ATOM     29  H   UNL A   1      37.883  21.777  25.234  1.00  0.00     0.163 HD
ATOM     30  O   UNL A   1      40.121  21.959  26.154  1.00  0.00    -0.269 OA
BRANCH  28  31
ATOM     31  C   UNL A   1      39.615  24.162  26.775  1.00  0.00     0.039 A 
ATOM     32  C   UNL A   1      39.166  24.390  28.078  1.00  0.00     0.014 A 
ATOM     33  C   UNL A   1      40.327  25.151  26.091  1.00  0.00     0.014 A 
ATOM     34  C   UNL A   1      39.477  25.592  28.715  1.00  0.00     0.010 A 
ATOM     35  C   UNL A   1      40.695  26.321  26.752  1.00  0.00     0.010 A 
ATOM     36  C   UNL A   1      40.267  26.555  28.067  1.00  0.00    -0.014 A 
BRANCH  36  37
ATOM     37  C   UNL A   1      40.653  27.815  28.747  1.00  0.00     0.031 A 
ATOM     38  C   UNL A   1      39.656  28.930  28.899  1.00  0.00     0.074 A 
ATOM     39  C   UNL A   1      41.920  27.981  29.173  1.00  0.00     0.049 A 
ATOM     40  N   UNL A   1      39.821  30.122  29.414  1.00  0.00    -0.248 NA
ATOM     41  C   UNL A   1      38.300  28.682  28.381  1.00  0.00     0.031 C 
ATOM     42  C   UNL A   1      42.992  26.991  29.051  1.00  0.00     0.029 A 
ATOM     43  N   UNL A   1      42.522  29.049  29.789  1.00  0.00    -0.354 N 
ATOM     44  C   UNL A   1      38.601  30.769  29.269  1.00  0.00     0.074 A 
ATOM     45  C   UNL A   1      37.720  29.857  28.572  1.00  0.00     0.031 C 
ATOM     46  C   UNL A   1      44.112  27.487  29.600  1.00  0.00     0.029 A 
ATOM     47  C   UNL A   1      43.849  28.841  30.076  1.00  0.00     0.049 A 
ATOM     48  H   UNL A   1      42.048  29.884  30.005  1.00  0.00     0.167 HD
ATOM     49  C   UNL A   1      38.240  32.004  29.690  1.00  0.00     0.031 A 
ATOM     50  C   UNL A   1      44.755  29.652  30.654  1.00  0.00     0.031 A 
ATOM     51  C   UNL A   1      39.114  32.907  30.391  1.00  0.00     0.049 A 
ATOM     52  C   UNL A   1      44.334  31.024  31.101  1.00  0.00     0.074 A 
ATOM     53  C   UNL A   1      38.825  34.157  30.911  1.00  0.00     0.029 A 
ATOM     54  N   UNL A   1      40.449  32.659  30.664  1.00  0.00    -0.354 N 
ATOM     55  N   UNL A   1      43.157  31.595  31.016  1.00  0.00    -0.248 NA
ATOM     56  C   UNL A   1      45.366  31.857  31.734  1.00  0.00     0.031 C 
ATOM     57  C   UNL A   1      40.001  34.686  31.454  1.00  0.00     0.029 A 
ATOM     58  C   UNL A   1      41.007  33.743  31.322  1.00  0.00     0.049 A 
ATOM     59  H   UNL A   1      40.931  31.833  30.425  1.00  0.00     0.167 HD
ATOM     60  C   UNL A   1      43.300  32.844  31.606  1.00  0.00     0.074 A 
ATOM     61  C   UNL A   1      44.673  32.939  32.059  1.00  0.00     0.031 C 
ATOM     62  C   UNL A   1      42.376  33.824  31.761  1.00  0.00     0.031 A 
BRANCH  49  63
ATOM     63  C   UNL A   1      36.835  32.452  29.393  1.00  0.00    -0.014 A 
ATOM     64  C   UNL A   1      36.518  33.109  28.193  1.00  0.00     0.009 A 
ATOM     65  C   UNL A   1      35.809  32.194  30.316  1.00  0.00     0.009 A 
ATOM     66  C   UNL A   1      35.211  33.534  27.943  1.00  0.00     0.001 A 
ATOM     67  C   UNL A   1      34.498  32.592  30.049  1.00  0.00     0.001 A 
ATOM     68  C   UNL A   1      34.203  33.272  28.869  1.00  0.00     0.000 A 
ENDBRANCH  49  63
BRANCH  50  69
ATOM     69  C   UNL A   1      46.148  29.178  30.863  1.00  0.00    -0.014 A 
ATOM     70  C   UNL A   1      46.516  28.565  32.070  1.00  0.00     0.009 A 
ATOM     71  C   UNL A   1      47.114  29.335  29.858  1.00  0.00     0.009 A 
ATOM     72  C   UNL A   1      47.830  28.138  32.275  1.00  0.00     0.001 A 
ATOM     73  C   UNL A   1      48.421  28.882  30.056  1.00  0.00     0.001 A 
ATOM     74  C   UNL A   1      48.779  28.293  31.267  1.00  0.00     0.000 A 
ENDBRANCH  50  69
BRANCH  62  75
ATOM     75  C   UNL A   1      42.813  35.071  32.475  1.00  0.00    -0.014 A 
ATOM     76  C   UNL A   1      43.505  36.091  31.804  1.00  0.00     0.009 A 
ATOM     77  C   UNL A   1      42.492  35.244  33.831  1.00  0.00     0.009 A 
ATOM     78  C   UNL A   1      43.896  37.245  32.487  1.00  0.00     0.001 A 
ATOM     79  C   UNL A   1      42.859  36.410  34.503  1.00  0.00     0.001 A 
ATOM     80  C   UNL A   1      43.569  37.405  33.833  1.00  0.00     0.000 A 
ENDBRANCH  62  75
ENDBRANCH  36  37
ENDBRANCH  28  31
ENDBRANCH  26  27
ENDBRANCH  25  26
ENDBRANCH  24  25
ENDBRANCH   1  24
TORSDOF 16
ENDMDL
MODEL 2
REMARK VINA RESULT:     -10.9      2.334      8.462
REMARK SMILES Cc1cc(C(=O)N2CCC[C@@H]2C)sc1/C=C/C(=O)NCCCCCCNC(=O)c1ccc(-c2c3nc(c(-c4ccccc4)c4ccc([nH]4)c(-c4ccccc4)c4nc(c(-c5ccccc5)c5ccc2[nH]5)C=C4)C=C3)cc1
REMARK SMILES IDX 22 1 21 2 20 3 19 4 17 5 18 6 16 8 15 9 14 10 1 11 2 12 3 13
REMARK SMILES IDX 4 14 13 15 5 16 6 17 7 18 8 19 11 20 9 21 10 22 12 23 23 24
REMARK SMILES IDX 24 25 25 26 26 27 27 28 28 30 29 31 30 32 76 33 31 34 75 35
REMARK SMILES IDX 32 36 33 37 34 38 69 39 35 40 74 41 68 42 70 43 36 44 73 45
REMARK SMILES IDX 67 46 66 47 37 49 59 50 44 51 58 52 45 53 48 54 57 55 71 56
REMARK SMILES IDX 46 57 47 58 56 60 72 61 49 62 38 63 39 64 43 65 40 66 42 67
REMARK SMILES IDX 41 68 60 69 61 70 65 71 62 72 64 73 63 74 50 75 51 76 55 77
REMARK SMILES IDX 52 78 54 79 53 80
REMARK H PARENT 19 7 26 29 70 48 48 59
REMARK Flexibility Score: inf
ROOT
ATOM      1  C   UNL A   1      30.777  29.527  24.277  1.00  0.00     0.002 C 
ENDROOT
BRANCH   1   2
ATOM      2  C   UNL A   1      31.578  28.983  23.087  1.00  0.00     0.021 C 
BRANCH   2   3
ATOM      3  C   UNL A   1      31.376  27.485  22.859  1.00  0.00     0.116 C 
BRANCH   3   4
ATOM      4  N   UNL A   1      31.976  27.085  21.601  1.00  0.00    -0.353 N 
ATOM      5  C   UNL A   1      32.620  25.942  21.253  1.00  0.00     0.244 C 
ATOM      6  O   UNL A   1      33.006  25.785  20.098  1.00  0.00    -0.270 OA
ATOM      7  H   UNL A   1      31.906  27.752  20.881  1.00  0.00     0.163 HD
BRANCH   5   8
ATOM      8  C   UNL A   1      32.768  24.837  22.222  1.00  0.00     0.072 C 
ATOM      9  C   UNL A   1      33.927  24.226  22.511  1.00  0.00     0.025 C 
BRANCH   9  10
ATOM     10  C   UNL A   1      34.012  23.167  23.464  1.00  0.00     0.031 A 
ATOM     11  C   UNL A   1      35.602  24.191  25.212  1.00  0.00     0.046 C 
ATOM     12  C   UNL A   1      34.769  23.093  24.629  1.00  0.00    -0.032 A 
ATOM     13  C   UNL A   1      34.625  21.812  25.266  1.00  0.00     0.029 A 
ATOM     14  C   UNL A   1      33.741  20.964  24.623  1.00  0.00     0.093 A 
ATOM     15  S   UNL A   1      33.093  21.735  23.254  1.00  0.00    -0.130 S 
BRANCH  14  16
ATOM     16  C   UNL A   1      33.240  19.692  25.138  1.00  0.00     0.264 C 
ATOM     17  O   UNL A   1      32.424  19.676  26.063  1.00  0.00    -0.268 OA
BRANCH  16  18
ATOM     18  N   UNL A   1      33.596  18.490  24.538  1.00  0.00    -0.335 N 
ATOM     19  C   UNL A   1      34.970  18.042  24.616  1.00  0.00     0.120 C 
ATOM     20  C   UNL A   1      32.794  17.544  23.756  1.00  0.00     0.082 C 
ATOM     21  C   UNL A   1      34.824  16.532  24.610  1.00  0.00     0.024 C 
ATOM     22  C   UNL A   1      33.695  16.303  23.611  1.00  0.00     0.026 C 
ATOM     23  C   UNL A   1      32.425  18.121  22.392  1.00  0.00     0.031 C 
ENDBRANCH  16  18
ENDBRANCH  14  16
ENDBRANCH   9  10
ENDBRANCH   5   8
ENDBRANCH   3   4
ENDBRANCH   2   3
ENDBRANCH   1   2
BRANCH   1  24
ATOM     24  C   UNL A   1      31.607  29.801  25.538  1.00  0.00     0.002 C 
BRANCH  24  25
ATOM     25  C   UNL A   1      31.334  31.148  26.211  1.00  0.00     0.021 C 
BRANCH  25  26
ATOM     26  C   UNL A   1      32.534  31.736  26.948  1.00  0.00     0.116 C 
BRANCH  26  27
ATOM     27  N   UNL A   1      32.301  33.117  27.338  1.00  0.00    -0.352 N 
ATOM     28  C   UNL A   1      33.014  33.909  28.202  1.00  0.00     0.251 C 
ATOM     29  H   UNL A   1      31.519  33.546  26.921  1.00  0.00     0.163 HD
ATOM     30  O   UNL A   1      32.550  34.976  28.589  1.00  0.00    -0.269 OA
BRANCH  28  31
ATOM     31  C   UNL A   1      34.342  33.468  28.678  1.00  0.00     0.039 A 
ATOM     32  C   UNL A   1      34.431  32.775  29.887  1.00  0.00     0.014 A 
ATOM     33  C   UNL A   1      35.496  33.758  27.945  1.00  0.00     0.014 A 
ATOM     34  C   UNL A   1      35.674  32.326  30.336  1.00  0.00     0.010 A 
ATOM     35  C   UNL A   1      36.725  33.251  28.358  1.00  0.00     0.010 A 
ATOM     36  C   UNL A   1      36.826  32.536  29.562  1.00  0.00    -0.014 A 
BRANCH  36  37
ATOM     37  C   UNL A   1      38.148  32.021  29.995  1.00  0.00     0.031 A 
ATOM     38  C   UNL A   1      38.653  30.702  29.478  1.00  0.00     0.074 A 
ATOM     39  C   UNL A   1      38.866  32.709  30.903  1.00  0.00     0.049 A 
ATOM     40  N   UNL A   1      39.754  30.064  29.781  1.00  0.00    -0.248 NA
ATOM     41  C   UNL A   1      37.795  29.997  28.511  1.00  0.00     0.031 C 
ATOM     42  C   UNL A   1      38.469  33.981  31.509  1.00  0.00     0.029 A 
ATOM     43  N   UNL A   1      40.079  32.430  31.479  1.00  0.00    -0.354 N 
ATOM     44  C   UNL A   1      39.715  28.878  29.058  1.00  0.00     0.074 A 
ATOM     45  C   UNL A   1      38.458  28.863  28.341  1.00  0.00     0.031 C 
ATOM     46  C   UNL A   1      39.434  34.386  32.351  1.00  0.00     0.029 A 
ATOM     47  C   UNL A   1      40.496  33.385  32.373  1.00  0.00     0.049 A 
ATOM     48  H   UNL A   1      40.602  31.622  31.270  1.00  0.00     0.167 HD
ATOM     49  C   UNL A   1      40.646  27.898  28.984  1.00  0.00     0.031 A 
ATOM     50  C   UNL A   1      41.607  33.446  33.131  1.00  0.00     0.031 A 
ATOM     51  C   UNL A   1      41.899  27.918  29.691  1.00  0.00     0.049 A 
ATOM     52  C   UNL A   1      42.619  32.339  33.042  1.00  0.00     0.074 A 
ATOM     53  C   UNL A   1      42.934  27.001  29.636  1.00  0.00     0.029 A 
ATOM     54  N   UNL A   1      42.284  28.904  30.585  1.00  0.00    -0.354 N 
ATOM     55  N   UNL A   1      42.597  31.258  32.302  1.00  0.00    -0.248 NA
ATOM     56  C   UNL A   1      43.815  32.470  33.886  1.00  0.00     0.031 C 
ATOM     57  C   UNL A   1      43.924  27.406  30.537  1.00  0.00     0.029 A 
ATOM     58  C   UNL A   1      43.530  28.604  31.110  1.00  0.00     0.049 A 
ATOM     59  H   UNL A   1      41.750  29.699  30.814  1.00  0.00     0.167 HD
ATOM     60  C   UNL A   1      43.785  30.591  32.572  1.00  0.00     0.074 A 
ATOM     61  C   UNL A   1      44.511  31.399  33.530  1.00  0.00     0.031 C 
ATOM     62  C   UNL A   1      44.236  29.416  32.069  1.00  0.00     0.031 A 
BRANCH  49  63
ATOM     63  C   UNL A   1      40.334  26.714  28.110  1.00  0.00    -0.014 A 
ATOM     64  C   UNL A   1      40.785  26.650  26.781  1.00  0.00     0.009 A 
ATOM     65  C   UNL A   1      39.599  25.637  28.629  1.00  0.00     0.009 A 
ATOM     66  C   UNL A   1      40.470  25.551  25.979  1.00  0.00     0.001 A 
ATOM     67  C   UNL A   1      39.313  24.525  27.834  1.00  0.00     0.001 A 
ATOM     68  C   UNL A   1      39.737  24.490  26.507  1.00  0.00     0.000 A 
ENDBRANCH  49  63
BRANCH  50  69
ATOM     69  C   UNL A   1      41.830  34.611  34.026  1.00  0.00    -0.014 A 
ATOM     70  C   UNL A   1      42.446  35.774  33.539  1.00  0.00     0.009 A 
ATOM     71  C   UNL A   1      41.429  34.568  35.369  1.00  0.00     0.009 A 
ATOM     72  C   UNL A   1      42.675  36.861  34.385  1.00  0.00     0.001 A 
ATOM     73  C   UNL A   1      41.634  35.667  36.206  1.00  0.00     0.001 A 
ATOM     74  C   UNL A   1      42.265  36.809  35.715  1.00  0.00     0.000 A 
ENDBRANCH  50  69
BRANCH  62  75
ATOM     75  C   UNL A   1      45.589  28.949  32.524  1.00  0.00    -0.014 A 
ATOM     76  C   UNL A   1      45.745  28.203  33.703  1.00  0.00     0.009 A 
ATOM     77  C   UNL A   1      46.721  29.228  31.740  1.00  0.00     0.009 A 
ATOM     78  C   UNL A   1      47.012  27.775  34.103  1.00  0.00     0.001 A 
ATOM     79  C   UNL A   1      47.981  28.774  32.128  1.00  0.00     0.001 A 
ATOM     80  C   UNL A   1      48.127  28.056  33.314  1.00  0.00     0.000 A 
ENDBRANCH  62  75
ENDBRANCH  36  37
ENDBRANCH  28  31
ENDBRANCH  26  27
ENDBRANCH  25  26
ENDBRANCH  24  25
ENDBRANCH   1  24
TORSDOF 16
ENDMDL
MODEL 3
REMARK VINA RESULT:     -10.8      0.509      5.900
REMARK SMILES Cc1cc(C(=O)N2CCC[C@@H]2C)sc1/C=C/C(=O)NCCCCCCNC(=O)c1ccc(-c2c3nc(c(-c4ccccc4)c4ccc([nH]4)c(-c4ccccc4)c4nc(c(-c5ccccc5)c5ccc2[nH]5)C=C4)C=C3)cc1
REMARK SMILES IDX 22 1 21 2 20 3 19 4 17 5 18 6 16 8 15 9 14 10 1 11 2 12 3 13
REMARK SMILES IDX 4 14 13 15 5 16 6 17 7 18 8 19 11 20 9 21 10 22 12 23 23 24
REMARK SMILES IDX 24 25 25 26 26 27 27 28 28 30 29 31 30 32 76 33 31 34 75 35
REMARK SMILES IDX 32 36 33 37 34 38 69 39 35 40 74 41 68 42 70 43 36 44 73 45
REMARK SMILES IDX 67 46 66 47 37 49 59 50 44 51 58 52 45 53 48 54 57 55 71 56
REMARK SMILES IDX 46 57 47 58 56 60 72 61 49 62 38 63 39 64 43 65 40 66 42 67
REMARK SMILES IDX 41 68 60 69 61 70 65 71 62 72 64 73 63 74 50 75 51 76 55 77
REMARK SMILES IDX 52 78 54 79 53 80
REMARK H PARENT 19 7 26 29 70 48 48 59
REMARK Flexibility Score: inf
ROOT
ATOM      1  C   UNL A   1      34.579  20.826  24.958  1.00  0.00     0.002 C 
ENDROOT
BRANCH   1   2
ATOM      2  C   UNL A   1      33.230  20.542  24.285  1.00  0.00     0.021 C 
BRANCH   2   3
ATOM      3  C   UNL A   1      32.124  21.502  24.724  1.00  0.00     0.116 C 
BRANCH   3   4
ATOM      4  N   UNL A   1      32.177  21.703  26.159  1.00  0.00    -0.353 N 
ATOM      5  C   UNL A   1      32.257  22.844  26.889  1.00  0.00     0.244 C 
ATOM      6  O   UNL A   1      32.231  22.788  28.116  1.00  0.00    -0.270 OA
ATOM      7  H   UNL A   1      32.151  20.876  26.692  1.00  0.00     0.163 HD
BRANCH   5   8
ATOM      8  C   UNL A   1      32.266  24.163  26.225  1.00  0.00     0.072 C 
ATOM      9  C   UNL A   1      31.180  24.927  26.031  1.00  0.00     0.025 C 
BRANCH   9  10
ATOM     10  C   UNL A   1      31.249  26.200  25.389  1.00  0.00     0.031 A 
ATOM     11  C   UNL A   1      33.337  27.213  26.504  1.00  0.00     0.046 C 
ATOM     12  C   UNL A   1      32.144  27.243  25.602  1.00  0.00    -0.032 A 
ATOM     13  C   UNL A   1      31.815  28.388  24.795  1.00  0.00     0.029 A 
ATOM     14  C   UNL A   1      30.731  28.189  23.960  1.00  0.00     0.093 A 
ATOM     15  S   UNL A   1      30.126  26.614  24.161  1.00  0.00    -0.130 S 
BRANCH  14  16
ATOM     16  C   UNL A   1      30.292  29.084  22.891  1.00  0.00     0.264 C 
ATOM     17  O   UNL A   1      30.762  28.970  21.755  1.00  0.00    -0.268 OA
BRANCH  16  18
ATOM     18  N   UNL A   1      29.279  30.009  23.107  1.00  0.00    -0.335 N 
ATOM     19  C   UNL A   1      29.521  31.129  23.991  1.00  0.00     0.120 C 
ATOM     20  C   UNL A   1      27.903  30.047  22.601  1.00  0.00     0.082 C 
ATOM     21  C   UNL A   1      28.642  32.213  23.396  1.00  0.00     0.024 C 
ATOM     22  C   UNL A   1      27.390  31.448  22.983  1.00  0.00     0.026 C 
ATOM     23  C   UNL A   1      27.047  28.953  23.235  1.00  0.00     0.031 C 
ENDBRANCH  16  18
ENDBRANCH  14  16
ENDBRANCH   9  10
ENDBRANCH   5   8
ENDBRANCH   3   4
ENDBRANCH   2   3
ENDBRANCH   1   2
BRANCH   1  24
ATOM     24  C   UNL A   1      35.371  21.988  24.346  1.00  0.00     0.002 C 
BRANCH  24  25
ATOM     25  C   UNL A   1      35.727  23.113  25.321  1.00  0.00     0.021 C 
BRANCH  25  26
ATOM     26  C   UNL A   1      37.121  23.699  25.123  1.00  0.00     0.116 C 
BRANCH  26  27
ATOM     27  N   UNL A   1      38.161  22.740  25.463  1.00  0.00    -0.352 N 
ATOM     28  C   UNL A   1      39.356  22.944  26.105  1.00  0.00     0.251 C 
ATOM     29  H   UNL A   1      37.980  21.810  25.193  1.00  0.00     0.163 HD
ATOM     30  O   UNL A   1      40.213  22.067  26.109  1.00  0.00    -0.269 OA
BRANCH  28  31
ATOM     31  C   UNL A   1      39.616  24.231  26.783  1.00  0.00     0.039 A 
ATOM     32  C   UNL A   1      39.123  24.427  28.074  1.00  0.00     0.014 A 
ATOM     33  C   UNL A   1      40.322  25.249  26.135  1.00  0.00     0.014 A 
ATOM     34  C   UNL A   1      39.384  25.626  28.739  1.00  0.00     0.010 A 
ATOM     35  C   UNL A   1      40.641  26.416  26.824  1.00  0.00     0.010 A 
ATOM     36  C   UNL A   1      40.169  26.619  28.130  1.00  0.00    -0.014 A 
BRANCH  36  37
ATOM     37  C   UNL A   1      40.502  27.878  28.840  1.00  0.00     0.031 A 
ATOM     38  C   UNL A   1      41.839  28.038  29.509  1.00  0.00     0.074 A 
ATOM     39  C   UNL A   1      39.579  28.852  28.936  1.00  0.00     0.049 A 
ATOM     40  N   UNL A   1      42.292  29.039  30.220  1.00  0.00    -0.248 NA
ATOM     41  C   UNL A   1      42.783  26.915  29.382  1.00  0.00     0.031 C 
ATOM     42  C   UNL A   1      38.232  28.804  28.364  1.00  0.00     0.029 A 
ATOM     43  N   UNL A   1      39.632  30.074  29.558  1.00  0.00    -0.354 N 
ATOM     44  C   UNL A   1      43.561  28.661  30.639  1.00  0.00     0.074 A 
ATOM     45  C   UNL A   1      43.787  27.320  30.145  1.00  0.00     0.031 C 
ATOM     46  C   UNL A   1      37.597  29.955  28.638  1.00  0.00     0.029 A 
ATOM     47  C   UNL A   1      38.475  30.803  29.436  1.00  0.00     0.049 A 
ATOM     48  H   UNL A   1      40.424  30.397  30.045  1.00  0.00     0.167 HD
ATOM     49  C   UNL A   1      44.465  29.371  31.355  1.00  0.00     0.031 A 
ATOM     50  C   UNL A   1      38.154  32.019  29.918  1.00  0.00     0.031 A 
ATOM     51  C   UNL A   1      44.243  30.708  31.839  1.00  0.00     0.049 A 
ATOM     52  C   UNL A   1      39.168  32.782  30.723  1.00  0.00     0.074 A 
ATOM     53  C   UNL A   1      45.118  31.534  32.523  1.00  0.00     0.029 A 
ATOM     54  N   UNL A   1      43.059  31.413  31.693  1.00  0.00    -0.354 N 
ATOM     55  N   UNL A   1      40.389  32.438  31.052  1.00  0.00    -0.248 NA
ATOM     56  C   UNL A   1      38.761  34.107  31.211  1.00  0.00     0.031 C 
ATOM     57  C   UNL A   1      44.445  32.719  32.836  1.00  0.00     0.029 A 
ATOM     58  C   UNL A   1      43.170  32.654  32.297  1.00  0.00     0.049 A 
ATOM     59  H   UNL A   1      42.257  31.080  31.228  1.00  0.00     0.167 HD
ATOM     60  C   UNL A   1      40.905  33.512  31.765  1.00  0.00     0.074 A 
ATOM     61  C   UNL A   1      39.871  34.525  31.805  1.00  0.00     0.031 C 
ATOM     62  C   UNL A   1      42.128  33.648  32.334  1.00  0.00     0.031 A 
BRANCH  49  63
ATOM     63  C   UNL A   1      45.777  28.705  31.666  1.00  0.00    -0.014 A 
ATOM     64  C   UNL A   1      45.981  28.028  32.879  1.00  0.00     0.009 A 
ATOM     65  C   UNL A   1      46.817  28.735  30.723  1.00  0.00     0.009 A 
ATOM     66  C   UNL A   1      47.213  27.431  33.158  1.00  0.00     0.001 A 
ATOM     67  C   UNL A   1      48.036  28.111  30.992  1.00  0.00     0.001 A 
ATOM     68  C   UNL A   1      48.237  27.470  32.214  1.00  0.00     0.000 A 
ENDBRANCH  49  63
BRANCH  50  69
ATOM     69  C   UNL A   1      36.816  32.600  29.633  1.00  0.00    -0.014 A 
ATOM     70  C   UNL A   1      36.580  33.284  28.431  1.00  0.00     0.009 A 
ATOM     71  C   UNL A   1      35.770  32.473  30.559  1.00  0.00     0.009 A 
ATOM     72  C   UNL A   1      35.329  33.848  28.172  1.00  0.00     0.001 A 
ATOM     73  C   UNL A   1      34.512  33.015  30.284  1.00  0.00     0.001 A 
ATOM     74  C   UNL A   1      34.296  33.709  29.096  1.00  0.00     0.000 A 
ENDBRANCH  50  69
BRANCH  62  75
ATOM     75  C   UNL A   1      42.423  34.950  33.022  1.00  0.00    -0.014 A 
ATOM     76  C   UNL A   1      43.188  35.948  32.398  1.00  0.00     0.009 A 
ATOM     77  C   UNL A   1      41.894  35.197  34.300  1.00  0.00     0.009 A 
ATOM     78  C   UNL A   1      43.444  37.154  33.054  1.00  0.00     0.001 A 
ATOM     79  C   UNL A   1      42.128  36.413  34.940  1.00  0.00     0.001 A 
ATOM     80  C   UNL A   1      42.910  37.387  34.321  1.00  0.00     0.000 A 
ENDBRANCH  62  75
ENDBRANCH  36  37
ENDBRANCH  28  31
ENDBRANCH  26  27
ENDBRANCH  25  26
ENDBRANCH  24  25
ENDBRANCH   1  24
TORSDOF 16
ENDMDL
