MODEL 1
REMARK VINA RESULT:     -11.3      0.000      0.000
REMARK SMILES O=C(NCCCCCCNC(=O)c1ccc(-c2ccc(Cl)c3ccccc23)o1)c1ccc(-c2c3nc(c(-c4ccccc4)c4ccc([nH]4)c(-c4ccccc4)c4nc(c(-c5ccccc5)c5ccc2[nH]5)C=C4)C=C3)cc1
REMARK SMILES IDX 6 1 5 2 4 3 3 4 1 5 2 6 29 8 30 9 76 10 31 11 75 12 32 13
REMARK SMILES IDX 33 14 34 15 69 16 35 17 74 18 68 19 70 20 36 21 73 22 67 23
REMARK SMILES IDX 66 24 37 26 59 27 44 28 58 29 45 30 48 31 57 32 71 33 46 34
REMARK SMILES IDX 47 35 56 37 72 38 49 39 38 40 39 41 43 42 40 43 42 44 41 45
REMARK SMILES IDX 60 46 61 47 65 48 62 49 64 50 63 51 50 52 51 53 55 54 52 55
REMARK SMILES IDX 54 56 53 57 7 58 8 59 9 60 10 61 11 62 12 64 13 65 14 66
REMARK SMILES IDX 28 67 15 68 16 69 17 70 18 71 27 72 19 73 22 74 26 75 20 76
REMARK SMILES IDX 23 77 25 78 21 79 24 80
REMARK H PARENT 3 7 70 25 48 36 10 63
REMARK Flexibility Score: inf
ROOT
ATOM      1  C   UNL A   1      31.873  28.244  25.714  1.00  0.00     0.002 C 
ENDROOT
BRANCH   1   2
ATOM      2  C   UNL A   1      32.440  27.980  27.109  1.00  0.00     0.021 C 
BRANCH   2   3
ATOM      3  C   UNL A   1      33.787  28.634  27.384  1.00  0.00     0.116 C 
BRANCH   3   4
ATOM      4  N   UNL A   1      33.662  30.032  27.760  1.00  0.00    -0.352 N 
ATOM      5  O   UNL A   1      34.243  31.959  28.781  1.00  0.00    -0.269 OA
ATOM      6  C   UNL A   1      34.572  30.845  28.389  1.00  0.00     0.251 C 
ATOM      7  H   UNL A   1      32.803  30.456  27.529  1.00  0.00     0.163 HD
BRANCH   6   8
ATOM      8  C   UNL A   1      35.951  30.362  28.615  1.00  0.00     0.039 A 
ATOM      9  C   UNL A   1      36.941  30.562  27.650  1.00  0.00     0.014 A 
ATOM     10  C   UNL A   1      36.257  29.705  29.810  1.00  0.00     0.014 A 
ATOM     11  C   UNL A   1      38.195  29.988  27.819  1.00  0.00     0.010 A 
ATOM     12  C   UNL A   1      37.546  29.206  30.018  1.00  0.00     0.010 A 
ATOM     13  C   UNL A   1      38.518  29.322  29.013  1.00  0.00    -0.014 A 
BRANCH  13  14
ATOM     14  C   UNL A   1      39.902  28.824  29.214  1.00  0.00     0.031 A 
ATOM     15  C   UNL A   1      40.314  27.451  28.766  1.00  0.00     0.074 A 
ATOM     16  C   UNL A   1      40.802  29.646  29.791  1.00  0.00     0.049 A 
ATOM     17  N   UNL A   1      41.489  26.878  28.849  1.00  0.00    -0.248 NA
ATOM     18  C   UNL A   1      39.278  26.607  28.150  1.00  0.00     0.031 C 
ATOM     19  C   UNL A   1      40.519  31.002  30.270  1.00  0.00     0.029 A 
ATOM     20  N   UNL A   1      42.134  29.472  30.055  1.00  0.00    -0.354 N 
ATOM     21  C   UNL A   1      41.332  25.606  28.313  1.00  0.00     0.074 A 
ATOM     22  C   UNL A   1      39.942  25.480  27.930  1.00  0.00     0.031 C 
ATOM     23  C   UNL A   1      41.652  31.553  30.724  1.00  0.00     0.029 A 
ATOM     24  C   UNL A   1      42.725  30.570  30.632  1.00  0.00     0.049 A 
ATOM     25  H   UNL A   1      42.623  28.642  29.852  1.00  0.00     0.167 HD
ATOM     26  C   UNL A   1      42.264  24.635  28.149  1.00  0.00     0.031 A 
ATOM     27  C   UNL A   1      43.985  30.763  31.061  1.00  0.00     0.031 A 
ATOM     28  C   UNL A   1      43.645  24.761  28.542  1.00  0.00     0.049 A 
ATOM     29  C   UNL A   1      44.981  29.651  30.914  1.00  0.00     0.074 A 
ATOM     30  C   UNL A   1      44.670  23.842  28.397  1.00  0.00     0.029 A 
ATOM     31  N   UNL A   1      44.192  25.873  29.165  1.00  0.00    -0.354 N 
ATOM     32  N   UNL A   1      44.825  28.469  30.370  1.00  0.00    -0.248 NA
ATOM     33  C   UNL A   1      46.330  29.903  31.439  1.00  0.00     0.031 C 
ATOM     34  C   UNL A   1      45.823  24.374  28.982  1.00  0.00     0.029 A 
ATOM     35  C   UNL A   1      45.533  25.651  29.435  1.00  0.00     0.049 A 
ATOM     36  H   UNL A   1      43.701  26.697  29.382  1.00  0.00     0.167 HD
ATOM     37  C   UNL A   1      46.058  27.842  30.469  1.00  0.00     0.074 A 
ATOM     38  C   UNL A   1      46.958  28.784  31.104  1.00  0.00     0.031 C 
ATOM     39  C   UNL A   1      46.414  26.596  30.072  1.00  0.00     0.031 A 
BRANCH  26  40
ATOM     40  C   UNL A   1      41.816  23.334  27.542  1.00  0.00    -0.014 A 
ATOM     41  C   UNL A   1      42.006  23.059  26.179  1.00  0.00     0.009 A 
ATOM     42  C   UNL A   1      41.239  22.346  28.357  1.00  0.00     0.009 A 
ATOM     43  C   UNL A   1      41.601  21.836  25.638  1.00  0.00     0.001 A 
ATOM     44  C   UNL A   1      40.859  21.114  27.820  1.00  0.00     0.001 A 
ATOM     45  C   UNL A   1      41.032  20.863  26.460  1.00  0.00     0.000 A 
ENDBRANCH  26  40
BRANCH  27  46
ATOM     46  C   UNL A   1      44.364  32.054  31.688  1.00  0.00    -0.014 A 
ATOM     47  C   UNL A   1      44.228  32.247  33.071  1.00  0.00     0.009 A 
ATOM     48  C   UNL A   1      44.873  33.102  30.904  1.00  0.00     0.009 A 
ATOM     49  C   UNL A   1      44.570  33.471  33.650  1.00  0.00     0.001 A 
ATOM     50  C   UNL A   1      45.245  34.313  31.490  1.00  0.00     0.001 A 
ATOM     51  C   UNL A   1      45.083  34.500  32.861  1.00  0.00     0.000 A 
ENDBRANCH  27  46
BRANCH  39  52
ATOM     52  C   UNL A   1      47.847  26.198  30.284  1.00  0.00    -0.014 A 
ATOM     53  C   UNL A   1      48.303  25.749  31.533  1.00  0.00     0.009 A 
ATOM     54  C   UNL A   1      48.749  26.254  29.210  1.00  0.00     0.009 A 
ATOM     55  C   UNL A   1      49.644  25.402  31.712  1.00  0.00     0.001 A 
ATOM     56  C   UNL A   1      50.081  25.876  29.384  1.00  0.00     0.001 A 
ATOM     57  C   UNL A   1      50.529  25.460  30.637  1.00  0.00     0.000 A 
ENDBRANCH  39  52
ENDBRANCH  13  14
ENDBRANCH   6   8
ENDBRANCH   3   4
ENDBRANCH   2   3
ENDBRANCH   1   2
BRANCH   1  58
ATOM     58  C   UNL A   1      30.716  27.332  25.295  1.00  0.00     0.002 C 
BRANCH  58  59
ATOM     59  C   UNL A   1      30.314  27.416  23.819  1.00  0.00     0.021 C 
BRANCH  59  60
ATOM     60  C   UNL A   1      30.747  26.223  22.968  1.00  0.00     0.116 C 
BRANCH  60  61
ATOM     61  N   UNL A   1      31.855  26.566  22.095  1.00  0.00    -0.349 N 
ATOM     62  C   UNL A   1      33.203  26.402  22.321  1.00  0.00     0.287 C 
ATOM     63  H   UNL A   1      31.610  26.968  21.230  1.00  0.00     0.163 HD
ATOM     64  O   UNL A   1      33.985  26.986  21.570  1.00  0.00    -0.266 OA
BRANCH  62  65
ATOM     65  C   UNL A   1      33.615  25.549  23.410  1.00  0.00     0.192 A 
ATOM     66  C   UNL A   1      34.083  25.837  24.680  1.00  0.00     0.057 A 
ATOM     67  O   UNL A   1      33.558  24.191  23.242  1.00  0.00    -0.451 OA
ATOM     68  C   UNL A   1      34.365  24.601  25.299  1.00  0.00     0.052 A 
ATOM     69  C   UNL A   1      34.045  23.622  24.381  1.00  0.00     0.135 A 
BRANCH  69  70
ATOM     70  C   UNL A   1      34.077  22.164  24.436  1.00  0.00     0.025 A 
ATOM     71  C   UNL A   1      32.836  21.510  24.402  1.00  0.00     0.014 A 
ATOM     72  C   UNL A   1      35.280  21.410  24.584  1.00  0.00    -0.006 A 
ATOM     73  C   UNL A   1      32.755  20.131  24.523  1.00  0.00     0.022 A 
ATOM     74  C   UNL A   1      35.196  19.994  24.721  1.00  0.00     0.001 A 
ATOM     75  C   UNL A   1      36.569  22.002  24.626  1.00  0.00     0.009 A 
ATOM     76  C   UNL A   1      33.919  19.381  24.687  1.00  0.00     0.048 A 
ATOM     77  C   UNL A   1      36.393  19.257  24.893  1.00  0.00     0.010 A 
ATOM     78  C   UNL A   1      37.732  21.247  24.790  1.00  0.00     0.001 A 
ATOM     79  Cl  UNL A   1      33.707  17.667  24.859  1.00  0.00    -0.084 Cl
ATOM     80  C   UNL A   1      37.643  19.872  24.927  1.00  0.00     0.001 A 
ENDBRANCH  69  70
ENDBRANCH  62  65
ENDBRANCH  60  61
ENDBRANCH  59  60
ENDBRANCH  58  59
ENDBRANCH   1  58
TORSDOF 14
ENDMDL
MODEL 2
REMARK VINA RESULT:     -11.2      2.492      6.944
REMARK SMILES O=C(NCCCCCCNC(=O)c1ccc(-c2ccc(Cl)c3ccccc23)o1)c1ccc(-c2c3nc(c(-c4ccccc4)c4ccc([nH]4)c(-c4ccccc4)c4nc(c(-c5ccccc5)c5ccc2[nH]5)C=C4)C=C3)cc1
REMARK SMILES IDX 6 1 5 2 4 3 3 4 1 5 2 6 29 8 30 9 76 10 31 11 75 12 32 13
REMARK SMILES IDX 33 14 34 15 69 16 35 17 74 18 68 19 70 20 36 21 73 22 67 23
REMARK SMILES IDX 66 24 37 26 59 27 44 28 58 29 45 30 48 31 57 32 71 33 46 34
REMARK SMILES IDX 47 35 56 37 72 38 49 39 38 40 39 41 43 42 40 43 42 44 41 45
REMARK SMILES IDX 60 46 61 47 65 48 62 49 64 50 63 51 50 52 51 53 55 54 52 55
REMARK SMILES IDX 54 56 53 57 7 58 8 59 9 60 10 61 11 62 12 64 13 65 14 66
REMARK SMILES IDX 28 67 15 68 16 69 17 70 18 71 27 72 19 73 22 74 26 75 20 76
REMARK SMILES IDX 23 77 25 78 21 79 24 80
REMARK H PARENT 3 7 70 25 48 36 10 63
REMARK Flexibility Score: inf
ROOT
ATOM      1  C   UNL A   1      31.562  30.335  26.334  1.00  0.00     0.002 C 
ENDROOT
BRANCH   1   2
ATOM      2  C   UNL A   1      31.391  31.829  26.612  1.00  0.00     0.021 C 
BRANCH   2   3
ATOM      3  C   UNL A   1      32.678  32.563  26.962  1.00  0.00     0.116 C 
BRANCH   3   4
ATOM      4  N   UNL A   1      32.433  33.830  27.630  1.00  0.00    -0.352 N 
ATOM      5  O   UNL A   1      32.708  35.427  29.203  1.00  0.00    -0.269 OA
ATOM      6  C   UNL A   1      33.148  34.432  28.638  1.00  0.00     0.251 C 
ATOM      7  H   UNL A   1      31.644  34.328  27.315  1.00  0.00     0.163 HD
BRANCH   6   8
ATOM      8  C   UNL A   1      34.445  33.858  29.056  1.00  0.00     0.039 A 
ATOM      9  C   UNL A   1      35.617  34.172  28.364  1.00  0.00     0.014 A 
ATOM     10  C   UNL A   1      34.488  33.000  30.158  1.00  0.00     0.014 A 
ATOM     11  C   UNL A   1      36.804  33.525  28.687  1.00  0.00     0.010 A 
ATOM     12  C   UNL A   1      35.701  32.419  30.538  1.00  0.00     0.010 A 
ATOM     13  C   UNL A   1      36.863  32.657  29.789  1.00  0.00    -0.014 A 
BRANCH  13  14
ATOM     14  C   UNL A   1      38.170  32.074  30.183  1.00  0.00     0.031 A 
ATOM     15  C   UNL A   1      39.069  32.760  31.172  1.00  0.00     0.074 A 
ATOM     16  C   UNL A   1      38.531  30.889  29.650  1.00  0.00     0.049 A 
ATOM     17  N   UNL A   1      40.230  32.368  31.636  1.00  0.00    -0.248 NA
ATOM     18  C   UNL A   1      38.614  34.052  31.708  1.00  0.00     0.031 C 
ATOM     19  C   UNL A   1      37.741  30.128  28.677  1.00  0.00     0.029 A 
ATOM     20  N   UNL A   1      39.637  30.110  29.863  1.00  0.00    -0.354 N 
ATOM     21  C   UNL A   1      40.651  33.368  32.504  1.00  0.00     0.074 A 
ATOM     22  C   UNL A   1      39.634  34.398  32.482  1.00  0.00     0.031 C 
ATOM     23  C   UNL A   1      38.365  28.972  28.415  1.00  0.00     0.029 A 
ATOM     24  C   UNL A   1      39.626  28.938  29.144  1.00  0.00     0.049 A 
ATOM     25  H   UNL A   1      40.369  30.363  30.469  1.00  0.00     0.167 HD
ATOM     26  C   UNL A   1      41.779  33.420  33.253  1.00  0.00     0.031 A 
ATOM     27  C   UNL A   1      40.537  27.952  29.063  1.00  0.00     0.031 A 
ATOM     28  C   UNL A   1      42.795  32.397  33.262  1.00  0.00     0.049 A 
ATOM     29  C   UNL A   1      41.800  28.062  29.865  1.00  0.00     0.074 A 
ATOM     30  C   UNL A   1      43.962  32.348  34.005  1.00  0.00     0.029 A 
ATOM     31  N   UNL A   1      42.767  31.248  32.486  1.00  0.00    -0.354 N 
ATOM     32  N   UNL A   1      42.164  28.996  30.708  1.00  0.00    -0.248 NA
ATOM     33  C   UNL A   1      42.777  26.977  29.704  1.00  0.00     0.031 C 
ATOM     34  C   UNL A   1      44.668  31.198  33.637  1.00  0.00     0.029 A 
ATOM     35  C   UNL A   1      43.910  30.498  32.712  1.00  0.00     0.049 A 
ATOM     36  H   UNL A   1      42.043  31.002  31.867  1.00  0.00     0.167 HD
ATOM     37  C   UNL A   1      43.403  28.605  31.194  1.00  0.00     0.074 A 
ATOM     38  C   UNL A   1      43.716  27.336  30.568  1.00  0.00     0.031 C 
ATOM     39  C   UNL A   1      44.211  29.240  32.078  1.00  0.00     0.031 A 
BRANCH  26  40
ATOM     40  C   UNL A   1      41.993  34.639  34.108  1.00  0.00    -0.014 A 
ATOM     41  C   UNL A   1      41.676  34.637  35.476  1.00  0.00     0.009 A 
ATOM     42  C   UNL A   1      42.569  35.792  33.549  1.00  0.00     0.009 A 
ATOM     43  C   UNL A   1      41.901  35.773  36.258  1.00  0.00     0.001 A 
ATOM     44  C   UNL A   1      42.818  36.916  34.338  1.00  0.00     0.001 A 
ATOM     45  C   UNL A   1      42.476  36.909  35.689  1.00  0.00     0.000 A 
ENDBRANCH  26  40
BRANCH  27  46
ATOM     46  C   UNL A   1      40.292  26.789  28.173  1.00  0.00    -0.014 A 
ATOM     47  C   UNL A   1      40.805  26.765  26.868  1.00  0.00     0.009 A 
ATOM     48  C   UNL A   1      39.546  25.690  28.630  1.00  0.00     0.009 A 
ATOM     49  C   UNL A   1      40.555  25.675  26.031  1.00  0.00     0.001 A 
ATOM     50  C   UNL A   1      39.326  24.588  27.802  1.00  0.00     0.001 A 
ATOM     51  C   UNL A   1      39.821  24.586  26.500  1.00  0.00     0.000 A 
ENDBRANCH  27  46
BRANCH  39  52
ATOM     52  C   UNL A   1      45.495  28.550  32.442  1.00  0.00    -0.014 A 
ATOM     53  C   UNL A   1      46.683  28.801  31.738  1.00  0.00     0.009 A 
ATOM     54  C   UNL A   1      45.519  27.653  33.520  1.00  0.00     0.009 A 
ATOM     55  C   UNL A   1      47.861  28.135  32.083  1.00  0.00     0.001 A 
ATOM     56  C   UNL A   1      46.704  27.013  33.883  1.00  0.00     0.001 A 
ATOM     57  C   UNL A   1      47.872  27.247  33.158  1.00  0.00     0.000 A 
ENDBRANCH  39  52
ENDBRANCH  13  14
ENDBRANCH   6   8
ENDBRANCH   3   4
ENDBRANCH   2   3
ENDBRANCH   1   2
BRANCH   1  58
ATOM     58  C   UNL A   1      32.781  29.682  26.990  1.00  0.00     0.002 C 
BRANCH  58  59
ATOM     59  C   UNL A   1      32.764  28.151  27.034  1.00  0.00     0.021 C 
BRANCH  59  60
ATOM     60  C   UNL A   1      31.848  27.491  26.004  1.00  0.00     0.116 C 
BRANCH  60  61
ATOM     61  N   UNL A   1      30.819  26.690  26.642  1.00  0.00    -0.349 N 
ATOM     62  C   UNL A   1      30.252  25.517  26.197  1.00  0.00     0.287 C 
ATOM     63  H   UNL A   1      30.484  27.030  27.503  1.00  0.00     0.163 HD
ATOM     64  O   UNL A   1      29.223  25.131  26.753  1.00  0.00    -0.266 OA
BRANCH  62  65
ATOM     65  C   UNL A   1      30.903  24.808  25.121  1.00  0.00     0.192 A 
ATOM     66  C   UNL A   1      30.911  25.016  23.753  1.00  0.00     0.057 A 
ATOM     67  O   UNL A   1      31.680  23.721  25.422  1.00  0.00    -0.451 OA
ATOM     68  C   UNL A   1      31.692  23.985  23.190  1.00  0.00     0.052 A 
ATOM     69  C   UNL A   1      32.130  23.207  24.242  1.00  0.00     0.135 A 
BRANCH  69  70
ATOM     70  C   UNL A   1      32.992  22.032  24.314  1.00  0.00     0.025 A 
ATOM     71  C   UNL A   1      32.362  20.786  24.169  1.00  0.00     0.014 A 
ATOM     72  C   UNL A   1      34.392  22.100  24.581  1.00  0.00    -0.006 A 
ATOM     73  C   UNL A   1      33.082  19.607  24.295  1.00  0.00     0.022 A 
ATOM     74  C   UNL A   1      35.129  20.888  24.722  1.00  0.00     0.001 A 
ATOM     75  C   UNL A   1      35.096  23.323  24.739  1.00  0.00     0.009 A 
ATOM     76  C   UNL A   1      34.447  19.655  24.574  1.00  0.00     0.048 A 
ATOM     77  C   UNL A   1      36.513  20.965  25.013  1.00  0.00     0.010 A 
ATOM     78  C   UNL A   1      36.463  23.366  25.018  1.00  0.00     0.001 A 
ATOM     79  Cl  UNL A   1      35.248  18.125  24.742  1.00  0.00    -0.084 Cl
ATOM     80  C   UNL A   1      37.171  22.185  25.160  1.00  0.00     0.001 A 
ENDBRANCH  69  70
ENDBRANCH  62  65
ENDBRANCH  60  61
ENDBRANCH  59  60
ENDBRANCH  58  59
ENDBRANCH   1  58
TORSDOF 14
ENDMDL
MODEL 3
REMARK VINA RESULT:     -11.2      2.410      6.822
REMARK SMILES O=C(NCCCCCCNC(=O)c1ccc(-c2ccc(Cl)c3ccccc23)o1)c1ccc(-c2c3nc(c(-c4ccccc4)c4ccc([nH]4)c(-c4ccccc4)c4nc(c(-c5ccccc5)c5ccc2[nH]5)C=C4)C=C3)cc1
REMARK SMILES IDX 6 1 5 2 4 3 3 4 1 5 2 6 29 8 30 9 76 10 31 11 75 12 32 13
REMARK SMILES IDX 33 14 34 15 69 16 35 17 74 18 68 19 70 20 36 21 73 22 67 23
REMARK SMILES IDX 66 24 37 26 59 27 44 28 58 29 45 30 48 31 57 32 71 33 46 34
REMARK SMILES IDX 47 35 56 37 72 38 49 39 38 40 39 41 43 42 40 43 42 44 41 45
REMARK SMILES IDX 60 46 61 47 65 48 62 49 64 50 63 51 50 52 51 53 55 54 52 55
REMARK SMILES IDX 54 56 53 57 7 58 8 59 9 60 10 61 11 62 12 64 13 65 14 66
REMARK SMILES IDX 28 67 15 68 16 69 17 70 18 71 27 72 19 73 22 74 26 75 20 76
REMARK SMILES IDX 23 77 25 78 21 79 24 80
REMARK H PARENT 3 7 70 25 48 36 10 63
REMARK Flexibility Score: inf
ROOT
ATOM      1  C   UNL A   1      31.651  30.246  25.120  1.00  0.00     0.002 C 
ENDROOT
BRANCH   1   2
ATOM      2  C   UNL A   1      31.218  31.418  26.001  1.00  0.00     0.021 C 
BRANCH   2   3
ATOM      3  C   UNL A   1      32.251  31.859  27.029  1.00  0.00     0.116 C 
BRANCH   3   4
ATOM      4  N   UNL A   1      32.150  33.273  27.350  1.00  0.00    -0.352 N 
ATOM      5  O   UNL A   1      32.663  35.193  28.420  1.00  0.00    -0.269 OA
ATOM      6  C   UNL A   1      32.986  34.051  28.114  1.00  0.00     0.251 C 
ATOM      7  H   UNL A   1      31.373  33.739  26.964  1.00  0.00     0.163 HD
BRANCH   6   8
ATOM      8  C   UNL A   1      34.270  33.495  28.587  1.00  0.00     0.039 A 
ATOM      9  C   UNL A   1      34.322  32.702  29.736  1.00  0.00     0.014 A 
ATOM     10  C   UNL A   1      35.438  33.764  27.868  1.00  0.00     0.014 A 
ATOM     11  C   UNL A   1      35.551  32.297  30.242  1.00  0.00     0.010 A 
ATOM     12  C   UNL A   1      36.665  33.279  28.328  1.00  0.00     0.010 A 
ATOM     13  C   UNL A   1      36.734  32.562  29.533  1.00  0.00    -0.014 A 
BRANCH  13  14
ATOM     14  C   UNL A   1      38.019  32.013  30.034  1.00  0.00     0.031 A 
ATOM     15  C   UNL A   1      38.814  32.722  31.093  1.00  0.00     0.074 A 
ATOM     16  C   UNL A   1      38.453  30.839  29.533  1.00  0.00     0.049 A 
ATOM     17  N   UNL A   1      39.942  32.361  31.652  1.00  0.00    -0.248 NA
ATOM     18  C   UNL A   1      38.282  34.000  31.589  1.00  0.00     0.031 C 
ATOM     19  C   UNL A   1      37.768  30.059  28.499  1.00  0.00     0.029 A 
ATOM     20  N   UNL A   1      39.559  30.089  29.838  1.00  0.00    -0.354 N 
ATOM     21  C   UNL A   1      40.263  33.370  32.551  1.00  0.00     0.074 A 
ATOM     22  C   UNL A   1      39.225  34.373  32.444  1.00  0.00     0.031 C 
ATOM     23  C   UNL A   1      38.442  28.920  28.290  1.00  0.00     0.029 A 
ATOM     24  C   UNL A   1      39.638  28.919  29.122  1.00  0.00     0.049 A 
ATOM     25  H   UNL A   1      40.231  30.361  30.503  1.00  0.00     0.167 HD
ATOM     26  C   UNL A   1      41.324  33.451  33.391  1.00  0.00     0.031 A 
ATOM     27  C   UNL A   1      40.579  27.958  29.117  1.00  0.00     0.031 A 
ATOM     28  C   UNL A   1      42.362  32.455  33.485  1.00  0.00     0.049 A 
ATOM     29  C   UNL A   1      41.768  28.100  30.021  1.00  0.00     0.074 A 
ATOM     30  C   UNL A   1      43.465  32.436  34.321  1.00  0.00     0.029 A 
ATOM     31  N   UNL A   1      42.429  31.307  32.710  1.00  0.00    -0.354 N 
ATOM     32  N   UNL A   1      42.036  29.043  30.890  1.00  0.00    -0.248 NA
ATOM     33  C   UNL A   1      42.784  27.042  29.942  1.00  0.00     0.031 C 
ATOM     34  C   UNL A   1      44.229  31.306  34.014  1.00  0.00     0.029 A 
ATOM     35  C   UNL A   1      43.570  30.588  33.031  1.00  0.00     0.049 A 
ATOM     36  H   UNL A   1      41.766  31.042  32.034  1.00  0.00     0.167 HD
ATOM     37  C   UNL A   1      43.240  28.684  31.478  1.00  0.00     0.074 A 
ATOM     38  C   UNL A   1      43.638  27.424  30.881  1.00  0.00     0.031 C 
ATOM     39  C   UNL A   1      43.955  29.339  32.424  1.00  0.00     0.031 A 
BRANCH  26  40
ATOM     40  C   UNL A   1      41.434  34.674  34.260  1.00  0.00    -0.014 A 
ATOM     41  C   UNL A   1      40.813  34.735  35.518  1.00  0.00     0.009 A 
ATOM     42  C   UNL A   1      42.213  35.763  33.836  1.00  0.00     0.009 A 
ATOM     43  C   UNL A   1      40.944  35.873  36.318  1.00  0.00     0.001 A 
ATOM     44  C   UNL A   1      42.364  36.888  34.650  1.00  0.00     0.001 A 
ATOM     45  C   UNL A   1      41.723  36.946  35.886  1.00  0.00     0.000 A 
ENDBRANCH  26  40
BRANCH  27  46
ATOM     46  C   UNL A   1      40.440  26.789  28.211  1.00  0.00    -0.014 A 
ATOM     47  C   UNL A   1      39.708  25.660  28.607  1.00  0.00     0.009 A 
ATOM     48  C   UNL A   1      41.034  26.802  26.939  1.00  0.00     0.009 A 
ATOM     49  C   UNL A   1      39.596  24.558  27.757  1.00  0.00     0.001 A 
ATOM     50  C   UNL A   1      40.893  25.713  26.079  1.00  0.00     0.001 A 
ATOM     51  C   UNL A   1      40.183  24.587  26.492  1.00  0.00     0.000 A 
ENDBRANCH  27  46
BRANCH  39  52
ATOM     52  C   UNL A   1      45.223  28.683  32.894  1.00  0.00    -0.014 A 
ATOM     53  C   UNL A   1      46.459  28.970  32.294  1.00  0.00     0.009 A 
ATOM     54  C   UNL A   1      45.180  27.781  33.969  1.00  0.00     0.009 A 
ATOM     55  C   UNL A   1      47.621  28.335  32.737  1.00  0.00     0.001 A 
ATOM     56  C   UNL A   1      46.348  27.173  34.429  1.00  0.00     0.001 A 
ATOM     57  C   UNL A   1      47.566  27.442  33.806  1.00  0.00     0.000 A 
ENDBRANCH  39  52
ENDBRANCH  13  14
ENDBRANCH   6   8
ENDBRANCH   3   4
ENDBRANCH   2   3
ENDBRANCH   1   2
BRANCH   1  58
ATOM     58  C   UNL A   1      30.534  29.273  24.730  1.00  0.00     0.002 C 
BRANCH  58  59
ATOM     59  C   UNL A   1      30.317  29.090  23.225  1.00  0.00     0.021 C 
BRANCH  59  60
ATOM     60  C   UNL A   1      30.862  27.782  22.653  1.00  0.00     0.116 C 
BRANCH  60  61
ATOM     61  N   UNL A   1      32.118  27.988  21.956  1.00  0.00    -0.349 N 
ATOM     62  C   UNL A   1      33.390  27.666  22.373  1.00  0.00     0.287 C 
ATOM     63  H   UNL A   1      32.052  28.414  21.071  1.00  0.00     0.163 HD
ATOM     64  O   UNL A   1      34.337  28.150  21.753  1.00  0.00    -0.266 OA
BRANCH  62  65
ATOM     65  C   UNL A   1      33.534  26.772  23.498  1.00  0.00     0.192 A 
ATOM     66  C   UNL A   1      33.623  27.010  24.858  1.00  0.00     0.057 A 
ATOM     67  O   UNL A   1      33.595  25.424  23.266  1.00  0.00    -0.451 OA
ATOM     68  C   UNL A   1      33.790  25.755  25.481  1.00  0.00     0.052 A 
ATOM     69  C   UNL A   1      33.783  24.814  24.471  1.00  0.00     0.135 A 
BRANCH  69  70
ATOM     70  C   UNL A   1      33.875  23.358  24.473  1.00  0.00     0.025 A 
ATOM     71  C   UNL A   1      32.671  22.656  24.306  1.00  0.00     0.014 A 
ATOM     72  C   UNL A   1      35.093  22.648  24.698  1.00  0.00    -0.006 A 
ATOM     73  C   UNL A   1      32.641  21.271  24.368  1.00  0.00     0.022 A 
ATOM     74  C   UNL A   1      35.059  21.226  24.773  1.00  0.00     0.001 A 
ATOM     75  C   UNL A   1      36.346  23.290  24.875  1.00  0.00     0.009 A 
ATOM     76  C   UNL A   1      33.819  20.562  24.604  1.00  0.00     0.048 A 
ATOM     77  C   UNL A   1      36.269  20.531  25.021  1.00  0.00     0.010 A 
ATOM     78  C   UNL A   1      37.523  22.576  25.110  1.00  0.00     0.001 A 
ATOM     79  Cl  UNL A   1      33.669  18.836  24.693  1.00  0.00    -0.084 Cl
ATOM     80  C   UNL A   1      37.483  21.195  25.188  1.00  0.00     0.001 A 
ENDBRANCH  69  70
ENDBRANCH  62  65
ENDBRANCH  60  61
ENDBRANCH  59  60
ENDBRANCH  58  59
ENDBRANCH   1  58
TORSDOF 14
ENDMDL
