MODEL 1
REMARK VINA RESULT:     -11.5      0.000      0.000
REMARK SMILES C#Cc1ccc2c(c1)C=C(C(=O)NCCCCCCNC(=O)c1ccc(-c3c4nc(c(-c5ccccc5)c5ccc([nH]5)c(-c5ccccc5)c5nc(c(-c6ccccc6)c6ccc3[nH]6)C=C5)C=C4)cc1)[C@@H](C(F)(F)F)O2
REMARK SMILES IDX 17 1 16 2 15 3 14 4 13 5 11 6 12 7 10 9 3 10 4 11 8 12 5 13
REMARK SMILES IDX 7 14 6 15 9 16 76 17 71 18 2 19 1 20 72 21 73 22 74 23 75 24
REMARK SMILES IDX 18 25 19 26 20 27 21 28 22 30 23 31 24 32 70 33 25 34 69 35
REMARK SMILES IDX 26 36 27 37 28 38 63 39 29 40 68 41 62 42 64 43 30 44 67 45
REMARK SMILES IDX 61 46 60 47 31 49 53 50 38 51 52 52 39 53 42 54 51 55 65 56
REMARK SMILES IDX 40 57 41 58 50 60 66 61 43 62 32 63 33 64 37 65 34 66 36 67
REMARK SMILES IDX 35 68 54 69 55 70 59 71 56 72 58 73 57 74 44 75 45 76 49 77
REMARK SMILES IDX 46 78 48 79 47 80
REMARK H PARENT 13 8 20 29 64 48 42 59
REMARK Flexibility Score: inf
ROOT
ATOM      1  C   UNL A   1      31.919  30.210  26.193  1.00  0.00     0.002 C 
ENDROOT
BRANCH   1   2
ATOM      2  C   UNL A   1      33.124  29.599  26.923  1.00  0.00     0.002 C 
BRANCH   2   3
ATOM      3  C   UNL A   1      34.019  28.721  26.049  1.00  0.00     0.021 C 
BRANCH   3   4
ATOM      4  C   UNL A   1      33.753  27.233  26.233  1.00  0.00     0.116 C 
BRANCH   4   5
ATOM      5  N   UNL A   1      33.818  26.514  24.974  1.00  0.00    -0.352 N 
ATOM      6  C   UNL A   1      32.996  26.279  23.923  1.00  0.00     0.251 C 
ATOM      7  O   UNL A   1      33.482  25.611  23.007  1.00  0.00    -0.270 OA
ATOM      8  H   UNL A   1      34.693  26.081  24.850  1.00  0.00     0.163 HD
BRANCH   6   9
ATOM      9  C   UNL A   1      31.586  26.764  23.820  1.00  0.00     0.067 C 
ATOM     10  C   UNL A   1      28.495  30.248  22.523  1.00  0.00     0.025 A 
ATOM     11  C   UNL A   1      27.422  29.397  22.795  1.00  0.00     0.021 A 
ATOM     12  C   UNL A   1      29.812  29.802  22.690  1.00  0.00     0.029 A 
ATOM     13  C   UNL A   1      27.662  28.101  23.238  1.00  0.00     0.048 A 
ATOM     14  C   UNL A   1      30.056  28.499  23.136  1.00  0.00     0.018 A 
ATOM     15  C   UNL A   1      28.971  27.664  23.414  1.00  0.00     0.128 A 
ATOM     16  C   UNL A   1      31.412  27.978  23.269  1.00  0.00     0.025 C 
ATOM     17  O   UNL A   1      29.107  26.378  23.828  1.00  0.00    -0.475 OA
ATOM     18  C   UNL A   1      30.407  25.981  24.322  1.00  0.00     0.314 C 
BRANCH  10  19
ATOM     19  C   UNL A   1      28.233  31.574  22.061  1.00  0.00    -0.070 C 
ATOM     20  C   UNL A   1      28.033  32.702  21.696  1.00  0.00     0.010 C 
ENDBRANCH  10  19
BRANCH  18  21
ATOM     21  C   UNL A   1      30.355  25.909  25.859  1.00  0.00     0.429 C 
ATOM     22  F   UNL A   1      29.109  25.562  26.273  1.00  0.00    -0.167 F 
ATOM     23  F   UNL A   1      31.195  24.983  26.377  1.00  0.00    -0.167 F 
ATOM     24  F   UNL A   1      30.664  27.088  26.445  1.00  0.00    -0.167 F 
ENDBRANCH  18  21
ENDBRANCH   6   9
ENDBRANCH   4   5
ENDBRANCH   3   4
ENDBRANCH   2   3
ENDBRANCH   1   2
BRANCH   1  25
ATOM     25  C   UNL A   1      31.650  31.679  26.518  1.00  0.00     0.021 C 
BRANCH  25  26
ATOM     26  C   UNL A   1      32.796  32.368  27.246  1.00  0.00     0.116 C 
BRANCH  26  27
ATOM     27  N   UNL A   1      32.512  33.773  27.504  1.00  0.00    -0.352 N 
ATOM     28  C   UNL A   1      33.053  34.609  28.447  1.00  0.00     0.251 C 
ATOM     29  H   UNL A   1      31.835  34.181  26.917  1.00  0.00     0.163 HD
ATOM     30  O   UNL A   1      32.556  35.708  28.667  1.00  0.00    -0.269 OA
BRANCH  28  31
ATOM     31  C   UNL A   1      34.222  34.151  29.223  1.00  0.00     0.039 A 
ATOM     32  C   UNL A   1      35.514  34.409  28.763  1.00  0.00     0.014 A 
ATOM     33  C   UNL A   1      34.018  33.400  30.381  1.00  0.00     0.014 A 
ATOM     34  C   UNL A   1      36.589  33.747  29.341  1.00  0.00     0.010 A 
ATOM     35  C   UNL A   1      35.114  32.824  31.025  1.00  0.00     0.010 A 
ATOM     36  C   UNL A   1      36.401  32.941  30.473  1.00  0.00    -0.014 A 
BRANCH  36  37
ATOM     37  C   UNL A   1      37.551  32.202  31.054  1.00  0.00     0.031 A 
ATOM     38  C   UNL A   1      38.063  32.546  32.428  1.00  0.00     0.074 A 
ATOM     39  C   UNL A   1      38.112  31.195  30.357  1.00  0.00     0.049 A 
ATOM     40  N   UNL A   1      39.077  32.035  33.078  1.00  0.00    -0.248 NA
ATOM     41  C   UNL A   1      37.349  33.600  33.171  1.00  0.00     0.031 C 
ATOM     42  C   UNL A   1      37.677  30.743  29.034  1.00  0.00     0.029 A 
ATOM     43  N   UNL A   1      39.157  30.360  30.667  1.00  0.00    -0.354 N 
ATOM     44  C   UNL A   1      39.137  32.716  34.288  1.00  0.00     0.074 A 
ATOM     45  C   UNL A   1      38.082  33.703  34.273  1.00  0.00     0.031 C 
ATOM     46  C   UNL A   1      38.417  29.688  28.666  1.00  0.00     0.029 A 
ATOM     47  C   UNL A   1      39.437  29.443  29.682  1.00  0.00     0.049 A 
ATOM     48  H   UNL A   1      39.657  30.412  31.512  1.00  0.00     0.167 HD
ATOM     49  C   UNL A   1      39.986  32.521  35.323  1.00  0.00     0.031 A 
ATOM     50  C   UNL A   1      40.417  28.524  29.584  1.00  0.00     0.031 A 
ATOM     51  C   UNL A   1      41.021  31.520  35.335  1.00  0.00     0.049 A 
ATOM     52  C   UNL A   1      41.396  28.383  30.716  1.00  0.00     0.074 A 
ATOM     53  C   UNL A   1      41.914  31.231  36.352  1.00  0.00     0.029 A 
ATOM     54  N   UNL A   1      41.303  30.650  34.294  1.00  0.00    -0.354 N 
ATOM     55  N   UNL A   1      41.422  29.016  31.864  1.00  0.00    -0.248 NA
ATOM     56  C   UNL A   1      42.475  27.400  30.549  1.00  0.00     0.031 C 
ATOM     57  C   UNL A   1      42.793  30.253  35.893  1.00  0.00     0.029 A 
ATOM     58  C   UNL A   1      42.384  29.853  34.631  1.00  0.00     0.049 A 
ATOM     59  H   UNL A   1      40.809  30.605  33.443  1.00  0.00     0.167 HD
ATOM     60  C   UNL A   1      42.499  28.487  32.566  1.00  0.00     0.074 A 
ATOM     61  C   UNL A   1      43.088  27.468  31.725  1.00  0.00     0.031 C 
ATOM     62  C   UNL A   1      42.955  28.824  33.796  1.00  0.00     0.031 A 
BRANCH  49  63
ATOM     63  C   UNL A   1      39.857  33.396  36.543  1.00  0.00    -0.014 A 
ATOM     64  C   UNL A   1      38.954  33.037  37.560  1.00  0.00     0.009 A 
ATOM     65  C   UNL A   1      40.505  34.636  36.623  1.00  0.00     0.009 A 
ATOM     66  C   UNL A   1      38.675  33.916  38.607  1.00  0.00     0.001 A 
ATOM     67  C   UNL A   1      40.253  35.499  37.694  1.00  0.00     0.001 A 
ATOM     68  C   UNL A   1      39.325  35.146  38.674  1.00  0.00     0.000 A 
ENDBRANCH  49  63
BRANCH  50  69
ATOM     69  C   UNL A   1      40.505  27.676  28.363  1.00  0.00    -0.014 A 
ATOM     70  C   UNL A   1      39.866  26.425  28.313  1.00  0.00     0.009 A 
ATOM     71  C   UNL A   1      41.277  28.080  27.264  1.00  0.00     0.009 A 
ATOM     72  C   UNL A   1      40.029  25.582  27.212  1.00  0.00     0.001 A 
ATOM     73  C   UNL A   1      41.403  27.254  26.143  1.00  0.00     0.001 A 
ATOM     74  C   UNL A   1      40.792  26.000  26.125  1.00  0.00     0.000 A 
ENDBRANCH  50  69
BRANCH  62  75
ATOM     75  C   UNL A   1      44.139  28.080  34.355  1.00  0.00    -0.014 A 
ATOM     76  C   UNL A   1      43.927  26.949  35.164  1.00  0.00     0.009 A 
ATOM     77  C   UNL A   1      45.442  28.580  34.220  1.00  0.00     0.009 A 
ATOM     78  C   UNL A   1      44.985  26.364  35.860  1.00  0.00     0.001 A 
ATOM     79  C   UNL A   1      46.506  27.966  34.884  1.00  0.00     0.001 A 
ATOM     80  C   UNL A   1      46.275  26.872  35.717  1.00  0.00     0.000 A 
ENDBRANCH  62  75
ENDBRANCH  36  37
ENDBRANCH  28  31
ENDBRANCH  26  27
ENDBRANCH  25  26
ENDBRANCH   1  25
TORSDOF 15
ENDMDL
MODEL 2
REMARK VINA RESULT:     -11.4      5.029      9.815
REMARK SMILES C#Cc1ccc2c(c1)C=C(C(=O)NCCCCCCNC(=O)c1ccc(-c3c4nc(c(-c5ccccc5)c5ccc([nH]5)c(-c5ccccc5)c5nc(c(-c6ccccc6)c6ccc3[nH]6)C=C5)C=C4)cc1)[C@@H](C(F)(F)F)O2
REMARK SMILES IDX 17 1 16 2 15 3 14 4 13 5 11 6 12 7 10 9 3 10 4 11 8 12 5 13
REMARK SMILES IDX 7 14 6 15 9 16 76 17 71 18 2 19 1 20 72 21 73 22 74 23 75 24
REMARK SMILES IDX 18 25 19 26 20 27 21 28 22 30 23 31 24 32 70 33 25 34 69 35
REMARK SMILES IDX 26 36 27 37 28 38 63 39 29 40 68 41 62 42 64 43 30 44 67 45
REMARK SMILES IDX 61 46 60 47 31 49 53 50 38 51 52 52 39 53 42 54 51 55 65 56
REMARK SMILES IDX 40 57 41 58 50 60 66 61 43 62 32 63 33 64 37 65 34 66 36 67
REMARK SMILES IDX 35 68 54 69 55 70 59 71 56 72 58 73 57 74 44 75 45 76 49 77
REMARK SMILES IDX 46 78 48 79 47 80
REMARK H PARENT 13 8 20 29 64 48 42 59
REMARK Flexibility Score: inf
ROOT
ATOM      1  C   UNL A   1      36.704  21.893  24.288  1.00  0.00     0.002 C 
ENDROOT
BRANCH   1   2
ATOM      2  C   UNL A   1      36.968  23.212  25.029  1.00  0.00     0.002 C 
BRANCH   2   3
ATOM      3  C   UNL A   1      35.763  24.149  25.107  1.00  0.00     0.021 C 
BRANCH   3   4
ATOM      4  C   UNL A   1      34.818  23.808  26.251  1.00  0.00     0.116 C 
BRANCH   4   5
ATOM      5  N   UNL A   1      33.445  24.163  25.941  1.00  0.00    -0.352 N 
ATOM      6  C   UNL A   1      32.422  23.636  25.227  1.00  0.00     0.251 C 
ATOM      7  O   UNL A   1      31.369  24.278  25.254  1.00  0.00    -0.270 OA
ATOM      8  H   UNL A   1      33.189  25.015  26.363  1.00  0.00     0.163 HD
BRANCH   6   9
ATOM      9  C   UNL A   1      32.499  22.370  24.436  1.00  0.00     0.067 C 
ATOM     10  C   UNL A   1      33.802  17.721  24.192  1.00  0.00     0.025 A 
ATOM     11  C   UNL A   1      33.168  17.608  22.952  1.00  0.00     0.021 A 
ATOM     12  C   UNL A   1      33.780  18.934  24.890  1.00  0.00     0.029 A 
ATOM     13  C   UNL A   1      32.516  18.709  22.407  1.00  0.00     0.048 A 
ATOM     14  C   UNL A   1      33.125  20.041  24.344  1.00  0.00     0.018 A 
ATOM     15  C   UNL A   1      32.505  19.916  23.099  1.00  0.00     0.128 A 
ATOM     16  C   UNL A   1      33.031  21.306  25.065  1.00  0.00     0.025 C 
ATOM     17  O   UNL A   1      31.825  20.927  22.498  1.00  0.00    -0.475 OA
ATOM     18  C   UNL A   1      32.047  22.261  23.009  1.00  0.00     0.314 C 
BRANCH  10  19
ATOM     19  C   UNL A   1      34.462  16.580  24.743  1.00  0.00    -0.070 C 
ATOM     20  C   UNL A   1      35.046  15.635  25.201  1.00  0.00     0.010 C 
ENDBRANCH  10  19
BRANCH  18  21
ATOM     21  C   UNL A   1      32.970  23.019  22.037  1.00  0.00     0.429 C 
ATOM     22  F   UNL A   1      32.622  24.331  21.982  1.00  0.00    -0.167 F 
ATOM     23  F   UNL A   1      34.271  22.991  22.408  1.00  0.00    -0.167 F 
ATOM     24  F   UNL A   1      32.911  22.531  20.778  1.00  0.00    -0.167 F 
ENDBRANCH  18  21
ENDBRANCH   6   9
ENDBRANCH   4   5
ENDBRANCH   3   4
ENDBRANCH   2   3
ENDBRANCH   1   2
BRANCH   1  25
ATOM     25  C   UNL A   1      37.403  20.671  24.886  1.00  0.00     0.021 C 
BRANCH  25  26
ATOM     26  C   UNL A   1      38.675  21.004  25.653  1.00  0.00     0.116 C 
BRANCH  26  27
ATOM     27  N   UNL A   1      39.593  19.876  25.703  1.00  0.00    -0.352 N 
ATOM     28  C   UNL A   1      40.925  19.852  26.033  1.00  0.00     0.251 C 
ATOM     29  H   UNL A   1      39.203  19.004  25.464  1.00  0.00     0.163 HD
ATOM     30  O   UNL A   1      41.603  18.853  25.825  1.00  0.00    -0.269 OA
BRANCH  28  31
ATOM     31  C   UNL A   1      41.539  21.065  26.609  1.00  0.00     0.039 A 
ATOM     32  C   UNL A   1      41.526  21.270  27.989  1.00  0.00     0.014 A 
ATOM     33  C   UNL A   1      42.070  22.031  25.753  1.00  0.00     0.014 A 
ATOM     34  C   UNL A   1      41.852  22.520  28.497  1.00  0.00     0.010 A 
ATOM     35  C   UNL A   1      42.500  23.249  26.280  1.00  0.00     0.010 A 
ATOM     36  C   UNL A   1      42.335  23.527  27.648  1.00  0.00    -0.014 A 
BRANCH  36  37
ATOM     37  C   UNL A   1      42.636  24.875  28.195  1.00  0.00     0.031 A 
ATOM     38  C   UNL A   1      44.042  25.237  28.597  1.00  0.00     0.074 A 
ATOM     39  C   UNL A   1      41.648  25.784  28.297  1.00  0.00     0.049 A 
ATOM     40  N   UNL A   1      44.483  26.350  29.126  1.00  0.00    -0.248 NA
ATOM     41  C   UNL A   1      45.090  24.224  28.379  1.00  0.00     0.031 C 
ATOM     42  C   UNL A   1      40.256  25.563  27.902  1.00  0.00     0.029 A 
ATOM     43  N   UNL A   1      41.663  27.081  28.748  1.00  0.00    -0.354 N 
ATOM     44  C   UNL A   1      45.846  26.163  29.325  1.00  0.00     0.074 A 
ATOM     45  C   UNL A   1      46.158  24.819  28.895  1.00  0.00     0.031 C 
ATOM     46  C   UNL A   1      39.562  26.694  28.086  1.00  0.00     0.029 A 
ATOM     47  C   UNL A   1      40.435  27.695  28.694  1.00  0.00     0.049 A 
ATOM     48  H   UNL A   1      42.476  27.528  29.078  1.00  0.00     0.167 HD
ATOM     49  C   UNL A   1      46.754  27.041  29.808  1.00  0.00     0.031 A 
ATOM     50  C   UNL A   1      40.038  28.913  29.110  1.00  0.00     0.031 A 
ATOM     51  C   UNL A   1      46.434  28.385  30.215  1.00  0.00     0.049 A 
ATOM     52  C   UNL A   1      41.055  29.841  29.716  1.00  0.00     0.074 A 
ATOM     53  C   UNL A   1      47.296  29.357  30.693  1.00  0.00     0.029 A 
ATOM     54  N   UNL A   1      45.168  28.946  30.194  1.00  0.00    -0.354 N 
ATOM     55  N   UNL A   1      42.343  29.659  29.872  1.00  0.00    -0.248 NA
ATOM     56  C   UNL A   1      40.570  31.142  30.197  1.00  0.00     0.031 C 
ATOM     57  C   UNL A   1      46.539  30.471  31.048  1.00  0.00     0.029 A 
ATOM     58  C   UNL A   1      45.220  30.237  30.691  1.00  0.00     0.049 A 
ATOM     59  H   UNL A   1      44.353  28.495  29.874  1.00  0.00     0.167 HD
ATOM     60  C   UNL A   1      42.827  30.831  30.440  1.00  0.00     0.074 A 
ATOM     61  C   UNL A   1      41.699  31.726  30.582  1.00  0.00     0.031 C 
ATOM     62  C   UNL A   1      44.095  31.132  30.811  1.00  0.00     0.031 A 
BRANCH  49  63
ATOM     63  C   UNL A   1      48.190  26.604  29.936  1.00  0.00    -0.014 A 
ATOM     64  C   UNL A   1      49.067  26.780  28.851  1.00  0.00     0.009 A 
ATOM     65  C   UNL A   1      48.639  25.890  31.056  1.00  0.00     0.009 A 
ATOM     66  C   UNL A   1      50.346  26.219  28.870  1.00  0.00     0.001 A 
ATOM     67  C   UNL A   1      49.933  25.362  31.088  1.00  0.00     0.001 A 
ATOM     68  C   UNL A   1      50.778  25.512  29.988  1.00  0.00     0.000 A 
ENDBRANCH  49  63
BRANCH  50  69
ATOM     69  C   UNL A   1      38.610  29.308  28.960  1.00  0.00    -0.014 A 
ATOM     70  C   UNL A   1      37.723  29.215  30.047  1.00  0.00     0.009 A 
ATOM     71  C   UNL A   1      38.108  29.723  27.718  1.00  0.00     0.009 A 
ATOM     72  C   UNL A   1      36.364  29.486  29.886  1.00  0.00     0.001 A 
ATOM     73  C   UNL A   1      36.754  30.038  27.569  1.00  0.00     0.001 A 
ATOM     74  C   UNL A   1      35.881  29.904  28.648  1.00  0.00     0.000 A 
ENDBRANCH  50  69
BRANCH  62  75
ATOM     75  C   UNL A   1      44.374  32.494  31.388  1.00  0.00    -0.014 A 
ATOM     76  C   UNL A   1      44.197  32.713  32.767  1.00  0.00     0.009 A 
ATOM     77  C   UNL A   1      44.652  33.592  30.561  1.00  0.00     0.009 A 
ATOM     78  C   UNL A   1      44.247  34.003  33.295  1.00  0.00     0.001 A 
ATOM     79  C   UNL A   1      44.743  34.877  31.100  1.00  0.00     0.001 A 
ATOM     80  C   UNL A   1      44.523  35.084  32.461  1.00  0.00     0.000 A 
ENDBRANCH  62  75
ENDBRANCH  36  37
ENDBRANCH  28  31
ENDBRANCH  26  27
ENDBRANCH  25  26
ENDBRANCH   1  25
TORSDOF 15
ENDMDL
MODEL 3
REMARK VINA RESULT:     -11.3      0.930      5.904
REMARK SMILES C#Cc1ccc2c(c1)C=C(C(=O)NCCCCCCNC(=O)c1ccc(-c3c4nc(c(-c5ccccc5)c5ccc([nH]5)c(-c5ccccc5)c5nc(c(-c6ccccc6)c6ccc3[nH]6)C=C5)C=C4)cc1)[C@@H](C(F)(F)F)O2
REMARK SMILES IDX 17 1 16 2 15 3 14 4 13 5 11 6 12 7 10 9 3 10 4 11 8 12 5 13
REMARK SMILES IDX 7 14 6 15 9 16 76 17 71 18 2 19 1 20 72 21 73 22 74 23 75 24
REMARK SMILES IDX 18 25 19 26 20 27 21 28 22 30 23 31 24 32 70 33 25 34 69 35
REMARK SMILES IDX 26 36 27 37 28 38 63 39 29 40 68 41 62 42 64 43 30 44 67 45
REMARK SMILES IDX 61 46 60 47 31 49 53 50 38 51 52 52 39 53 42 54 51 55 65 56
REMARK SMILES IDX 40 57 41 58 50 60 66 61 43 62 32 63 33 64 37 65 34 66 36 67
REMARK SMILES IDX 35 68 54 69 55 70 59 71 56 72 58 73 57 74 44 75 45 76 49 77
REMARK SMILES IDX 46 78 48 79 47 80
REMARK H PARENT 13 8 20 29 64 48 42 59
REMARK Flexibility Score: inf
ROOT
ATOM      1  C   UNL A   1      32.161  30.042  26.119  1.00  0.00     0.002 C 
ENDROOT
BRANCH   1   2
ATOM      2  C   UNL A   1      33.135  29.249  27.002  1.00  0.00     0.002 C 
BRANCH   2   3
ATOM      3  C   UNL A   1      33.463  27.847  26.486  1.00  0.00     0.021 C 
BRANCH   3   4
ATOM      4  C   UNL A   1      34.061  27.855  25.087  1.00  0.00     0.116 C 
BRANCH   4   5
ATOM      5  N   UNL A   1      33.793  26.616  24.379  1.00  0.00    -0.352 N 
ATOM      6  C   UNL A   1      32.727  26.020  23.792  1.00  0.00     0.251 C 
ATOM      7  O   UNL A   1      32.955  24.933  23.256  1.00  0.00    -0.270 OA
ATOM      8  H   UNL A   1      34.602  26.060  24.305  1.00  0.00     0.163 HD
BRANCH   6   9
ATOM      9  C   UNL A   1      31.344  26.586  23.765  1.00  0.00     0.067 C 
ATOM     10  C   UNL A   1      28.387  30.222  22.579  1.00  0.00     0.025 A 
ATOM     11  C   UNL A   1      27.284  29.442  22.936  1.00  0.00     0.021 A 
ATOM     12  C   UNL A   1      29.682  29.702  22.675  1.00  0.00     0.029 A 
ATOM     13  C   UNL A   1      27.476  28.143  23.394  1.00  0.00     0.048 A 
ATOM     14  C   UNL A   1      29.877  28.396  23.135  1.00  0.00     0.018 A 
ATOM     15  C   UNL A   1      28.766  27.633  23.499  1.00  0.00     0.128 A 
ATOM     16  C   UNL A   1      31.207  27.797  23.197  1.00  0.00     0.025 C 
ATOM     17  O   UNL A   1      28.852  26.348  23.933  1.00  0.00    -0.475 OA
ATOM     18  C   UNL A   1      30.156  25.885  24.356  1.00  0.00     0.314 C 
BRANCH  10  19
ATOM     19  C   UNL A   1      28.174  31.552  22.104  1.00  0.00    -0.070 C 
ATOM     20  C   UNL A   1      28.028  32.676  21.702  1.00  0.00     0.010 C 
ENDBRANCH  10  19
BRANCH  18  21
ATOM     21  C   UNL A   1      30.196  25.846  25.895  1.00  0.00     0.429 C 
ATOM     22  F   UNL A   1      28.988  25.470  26.388  1.00  0.00    -0.167 F 
ATOM     23  F   UNL A   1      31.093  24.958  26.381  1.00  0.00    -0.167 F 
ATOM     24  F   UNL A   1      30.500  27.046  26.436  1.00  0.00    -0.167 F 
ENDBRANCH  18  21
ENDBRANCH   6   9
ENDBRANCH   4   5
ENDBRANCH   3   4
ENDBRANCH   2   3
ENDBRANCH   1   2
BRANCH   1  25
ATOM     25  C   UNL A   1      31.759  31.408  26.676  1.00  0.00     0.021 C 
BRANCH  25  26
ATOM     26  C   UNL A   1      32.917  32.196  27.269  1.00  0.00     0.116 C 
BRANCH  26  27
ATOM     27  N   UNL A   1      32.547  33.573  27.564  1.00  0.00    -0.352 N 
ATOM     28  C   UNL A   1      33.093  34.445  28.471  1.00  0.00     0.251 C 
ATOM     29  H   UNL A   1      31.796  33.930  27.036  1.00  0.00     0.163 HD
ATOM     30  O   UNL A   1      32.531  35.501  28.741  1.00  0.00    -0.269 OA
BRANCH  28  31
ATOM     31  C   UNL A   1      34.350  34.075  29.150  1.00  0.00     0.039 A 
ATOM     32  C   UNL A   1      35.580  34.379  28.563  1.00  0.00     0.014 A 
ATOM     33  C   UNL A   1      34.294  33.361  30.347  1.00  0.00     0.014 A 
ATOM     34  C   UNL A   1      36.736  33.795  29.060  1.00  0.00     0.010 A 
ATOM     35  C   UNL A   1      35.472  32.866  30.905  1.00  0.00     0.010 A 
ATOM     36  C   UNL A   1      36.696  33.024  30.232  1.00  0.00    -0.014 A 
BRANCH  36  37
ATOM     37  C   UNL A   1      37.932  32.366  30.728  1.00  0.00     0.031 A 
ATOM     38  C   UNL A   1      38.443  31.111  30.070  1.00  0.00     0.074 A 
ATOM     39  C   UNL A   1      38.614  32.921  31.748  1.00  0.00     0.049 A 
ATOM     40  N   UNL A   1      39.481  30.381  30.392  1.00  0.00    -0.248 NA
ATOM     41  C   UNL A   1      37.697  30.606  28.904  1.00  0.00     0.031 C 
ATOM     42  C   UNL A   1      38.239  34.157  32.437  1.00  0.00     0.029 A 
ATOM     43  N   UNL A   1      39.771  32.529  32.375  1.00  0.00    -0.354 N 
ATOM     44  C   UNL A   1      39.498  29.325  29.488  1.00  0.00     0.074 A 
ATOM     45  C   UNL A   1      38.349  29.484  28.627  1.00  0.00     0.031 C 
ATOM     46  C   UNL A   1      39.169  34.445  33.359  1.00  0.00     0.029 A 
ATOM     47  C   UNL A   1      40.157  33.371  33.389  1.00  0.00     0.049 A 
ATOM     48  H   UNL A   1      40.274  31.722  32.122  1.00  0.00     0.167 HD
ATOM     49  C   UNL A   1      40.402  28.324  29.380  1.00  0.00     0.031 A 
ATOM     50  C   UNL A   1      41.174  33.284  34.269  1.00  0.00     0.031 A 
ATOM     51  C   UNL A   1      41.554  28.188  30.232  1.00  0.00     0.049 A 
ATOM     52  C   UNL A   1      42.119  32.118  34.175  1.00  0.00     0.074 A 
ATOM     53  C   UNL A   1      42.542  27.219  30.179  1.00  0.00     0.029 A 
ATOM     54  N   UNL A   1      41.877  29.034  31.281  1.00  0.00    -0.354 N 
ATOM     55  N   UNL A   1      42.137  31.143  33.299  1.00  0.00    -0.248 NA
ATOM     56  C   UNL A   1      43.187  32.039  35.181  1.00  0.00     0.031 C 
ATOM     57  C   UNL A   1      43.408  27.424  31.251  1.00  0.00     0.029 A 
ATOM     58  C   UNL A   1      43.026  28.583  31.908  1.00  0.00     0.049 A 
ATOM     59  H   UNL A   1      41.367  29.835  31.541  1.00  0.00     0.167 HD
ATOM     60  C   UNL A   1      43.232  30.354  33.630  1.00  0.00     0.074 A 
ATOM     61  C   UNL A   1      43.866  30.974  34.773  1.00  0.00     0.031 C 
ATOM     62  C   UNL A   1      43.666  29.216  33.036  1.00  0.00     0.031 A 
BRANCH  49  63
ATOM     63  C   UNL A   1      40.206  27.281  28.311  1.00  0.00    -0.014 A 
ATOM     64  C   UNL A   1      39.481  26.113  28.606  1.00  0.00     0.009 A 
ATOM     65  C   UNL A   1      40.853  27.377  27.071  1.00  0.00     0.009 A 
ATOM     66  C   UNL A   1      39.441  25.051  27.701  1.00  0.00     0.001 A 
ATOM     67  C   UNL A   1      40.780  26.328  26.151  1.00  0.00     0.001 A 
ATOM     68  C   UNL A   1      40.090  25.159  26.474  1.00  0.00     0.000 A 
ENDBRANCH  49  63
BRANCH  50  69
ATOM     69  C   UNL A   1      41.336  34.340  35.306  1.00  0.00    -0.014 A 
ATOM     70  C   UNL A   1      42.152  35.460  35.067  1.00  0.00     0.009 A 
ATOM     71  C   UNL A   1      40.727  34.209  36.563  1.00  0.00     0.009 A 
ATOM     72  C   UNL A   1      42.388  36.400  36.071  1.00  0.00     0.001 A 
ATOM     73  C   UNL A   1      40.929  35.175  37.553  1.00  0.00     0.001 A 
ATOM     74  C   UNL A   1      41.771  36.261  37.312  1.00  0.00     0.000 A 
ENDBRANCH  50  69
BRANCH  62  75
ATOM     75  C   UNL A   1      44.906  28.551  33.571  1.00  0.00    -0.014 A 
ATOM     76  C   UNL A   1      46.155  28.851  32.999  1.00  0.00     0.009 A 
ATOM     77  C   UNL A   1      44.827  27.521  34.520  1.00  0.00     0.009 A 
ATOM     78  C   UNL A   1      47.287  28.106  33.331  1.00  0.00     0.001 A 
ATOM     79  C   UNL A   1      45.970  26.805  34.881  1.00  0.00     0.001 A 
ATOM     80  C   UNL A   1      47.194  27.084  34.274  1.00  0.00     0.000 A 
ENDBRANCH  62  75
ENDBRANCH  36  37
ENDBRANCH  28  31
ENDBRANCH  26  27
ENDBRANCH  25  26
ENDBRANCH   1  25
TORSDOF 15
ENDMDL
