MODEL 1
REMARK VINA RESULT:     -13.0      0.000      0.000
REMARK SMILES O=C(NCCCCCCNC(=O)c1nccnc1C(=O)Nc1n[nH]c2ncccc12)c1ccc(-c2c3nc(c(-c4ccccc4)c4ccc([nH]4)c(-c4ccccc4)c4nc(c(-c5ccccc5)c5ccc2[nH]5)C=C4)C=C3)cc1
REMARK SMILES IDX 6 1 5 2 4 3 3 4 1 5 2 6 31 8 32 9 78 10 33 11 77 12 34 13
REMARK SMILES IDX 35 14 36 15 71 16 37 17 76 18 70 19 72 20 38 21 75 22 69 23
REMARK SMILES IDX 68 24 39 26 61 27 46 28 60 29 47 30 50 31 59 32 73 33 48 34
REMARK SMILES IDX 49 35 58 37 74 38 51 39 40 40 41 41 45 42 42 43 44 44 43 45
REMARK SMILES IDX 62 46 63 47 67 48 64 49 66 50 65 51 52 52 53 53 57 54 54 55
REMARK SMILES IDX 56 56 55 57 7 58 8 59 9 60 10 61 11 62 12 64 13 65 14 66
REMARK SMILES IDX 18 67 15 68 17 69 16 70 19 71 20 72 21 73 22 75 23 76 30 77
REMARK SMILES IDX 24 78 25 79 29 80 26 82 28 83 27 84
REMARK H PARENT 3 7 72 25 50 36 10 63 21 74 24 81
REMARK Flexibility Score: inf
ROOT
ATOM      1  C   UNL A   1      31.448  30.650  26.047  1.00  0.00     0.002 C 
ENDROOT
BRANCH   1   2
ATOM      2  C   UNL A   1      31.389  32.098  26.524  1.00  0.00     0.021 C 
BRANCH   2   3
ATOM      3  C   UNL A   1      32.650  32.561  27.226  1.00  0.00     0.116 C 
BRANCH   3   4
ATOM      4  N   UNL A   1      32.527  33.945  27.647  1.00  0.00    -0.352 N 
ATOM      5  O   UNL A   1      32.724  35.632  29.133  1.00  0.00    -0.269 OA
ATOM      6  C   UNL A   1      33.179  34.592  28.667  1.00  0.00     0.251 C 
ATOM      7  H   UNL A   1      31.891  34.493  27.132  1.00  0.00     0.163 HD
BRANCH   6   8
ATOM      8  C   UNL A   1      34.435  34.026  29.207  1.00  0.00     0.039 A 
ATOM      9  C   UNL A   1      34.401  33.183  30.320  1.00  0.00     0.014 A 
ATOM     10  C   UNL A   1      35.649  34.300  28.574  1.00  0.00     0.014 A 
ATOM     11  C   UNL A   1      35.584  32.745  30.894  1.00  0.00     0.010 A 
ATOM     12  C   UNL A   1      36.829  33.745  29.075  1.00  0.00     0.010 A 
ATOM     13  C   UNL A   1      36.807  32.975  30.249  1.00  0.00    -0.014 A 
BRANCH  13  14
ATOM     14  C   UNL A   1      38.026  32.305  30.762  1.00  0.00     0.031 A 
ATOM     15  C   UNL A   1      38.802  32.871  31.914  1.00  0.00     0.074 A 
ATOM     16  C   UNL A   1      38.425  31.162  30.167  1.00  0.00     0.049 A 
ATOM     17  N   UNL A   1      39.901  32.420  32.463  1.00  0.00    -0.248 NA
ATOM     18  C   UNL A   1      38.287  34.105  32.525  1.00  0.00     0.031 C 
ATOM     19  C   UNL A   1      37.746  30.515  29.038  1.00  0.00     0.029 A 
ATOM     20  N   UNL A   1      39.486  30.336  30.429  1.00  0.00    -0.354 N 
ATOM     21  C   UNL A   1      40.224  33.325  33.465  1.00  0.00     0.074 A 
ATOM     22  C   UNL A   1      39.220  34.366  33.429  1.00  0.00     0.031 C 
ATOM     23  C   UNL A   1      38.376  29.372  28.741  1.00  0.00     0.029 A 
ATOM     24  C   UNL A   1      39.552  29.250  29.590  1.00  0.00     0.049 A 
ATOM     25  H   UNL A   1      40.136  30.504  31.149  1.00  0.00     0.167 HD
ATOM     26  C   UNL A   1      41.264  33.287  34.333  1.00  0.00     0.031 A 
ATOM     27  C   UNL A   1      40.477  28.279  29.486  1.00  0.00     0.031 A 
ATOM     28  C   UNL A   1      42.270  32.256  34.342  1.00  0.00     0.049 A 
ATOM     29  C   UNL A   1      41.653  28.303  30.415  1.00  0.00     0.074 A 
ATOM     30  C   UNL A   1      43.351  32.113  35.195  1.00  0.00     0.029 A 
ATOM     31  N   UNL A   1      42.328  31.198  33.445  1.00  0.00    -0.354 N 
ATOM     32  N   UNL A   1      41.926  29.145  31.380  1.00  0.00    -0.248 NA
ATOM     33  C   UNL A   1      42.649  27.239  30.238  1.00  0.00     0.031 C 
ATOM     34  C   UNL A   1      44.103  31.015  34.768  1.00  0.00     0.029 A 
ATOM     35  C   UNL A   1      43.445  30.419  33.703  1.00  0.00     0.049 A 
ATOM     36  H   UNL A   1      41.673  31.026  32.731  1.00  0.00     0.167 HD
ATOM     37  C   UNL A   1      43.109  28.697  31.949  1.00  0.00     0.074 A 
ATOM     38  C   UNL A   1      43.490  27.498  31.230  1.00  0.00     0.031 C 
ATOM     39  C   UNL A   1      43.814  29.230  32.977  1.00  0.00     0.031 A 
BRANCH  26  40
ATOM     40  C   UNL A   1      41.391  34.422  35.314  1.00  0.00    -0.014 A 
ATOM     41  C   UNL A   1      42.131  35.578  35.014  1.00  0.00     0.009 A 
ATOM     42  C   UNL A   1      40.731  34.346  36.551  1.00  0.00     0.009 A 
ATOM     43  C   UNL A   1      42.245  36.609  35.950  1.00  0.00     0.001 A 
ATOM     44  C   UNL A   1      40.817  35.394  37.470  1.00  0.00     0.001 A 
ATOM     45  C   UNL A   1      41.584  36.519  37.175  1.00  0.00     0.000 A 
ENDBRANCH  26  40
BRANCH  27  46
ATOM     46  C   UNL A   1      40.331  27.226  28.447  1.00  0.00    -0.014 A 
ATOM     47  C   UNL A   1      40.917  27.381  27.182  1.00  0.00     0.009 A 
ATOM     48  C   UNL A   1      39.612  26.050  28.722  1.00  0.00     0.009 A 
ATOM     49  C   UNL A   1      40.760  26.394  26.206  1.00  0.00     0.001 A 
ATOM     50  C   UNL A   1      39.490  25.050  27.757  1.00  0.00     0.001 A 
ATOM     51  C   UNL A   1      40.054  25.228  26.496  1.00  0.00     0.000 A 
ENDBRANCH  27  46
BRANCH  39  52
ATOM     52  C   UNL A   1      45.045  28.487  33.420  1.00  0.00    -0.014 A 
ATOM     53  C   UNL A   1      46.314  28.783  32.900  1.00  0.00     0.009 A 
ATOM     54  C   UNL A   1      44.931  27.494  34.408  1.00  0.00     0.009 A 
ATOM     55  C   UNL A   1      47.437  28.072  33.330  1.00  0.00     0.001 A 
ATOM     56  C   UNL A   1      46.060  26.813  34.863  1.00  0.00     0.001 A 
ATOM     57  C   UNL A   1      47.309  27.094  34.316  1.00  0.00     0.000 A 
ENDBRANCH  39  52
ENDBRANCH  13  14
ENDBRANCH   6   8
ENDBRANCH   3   4
ENDBRANCH   2   3
ENDBRANCH   1   2
BRANCH   1  58
ATOM     58  C   UNL A   1      32.189  29.641  26.955  1.00  0.00     0.002 C 
BRANCH  58  59
ATOM     59  C   UNL A   1      31.510  28.073  27.365  1.00  0.00     0.021 C 
BRANCH  59  60
ATOM     60  C   UNL A   1      31.718  26.083  26.452  1.00  0.00     0.116 C 
BRANCH  60  61
ATOM     61  N   UNL A   1      30.861  24.737  26.600  1.00  0.00    -0.351 N 
ATOM     62  C   UNL A   1      31.177  23.459  26.191  1.00  0.00     0.272 C 
ATOM     63  H   UNL A   1      29.989  24.837  27.044  1.00  0.00     0.163 HD
ATOM     64  O   UNL A   1      30.367  22.542  26.230  1.00  0.00    -0.267 OA
BRANCH  62  65
ATOM     65  C   UNL A   1      32.561  23.240  25.739  1.00  0.00     0.159 A 
ATOM     66  N   UNL A   1      33.472  23.309  26.769  1.00  0.00    -0.247 NA
ATOM     67  C   UNL A   1      32.931  23.164  24.405  1.00  0.00     0.159 A 
ATOM     68  C   UNL A   1      34.768  23.261  26.415  1.00  0.00     0.132 A 
ATOM     69  N   UNL A   1      34.262  23.132  24.070  1.00  0.00    -0.247 NA
ATOM     70  C   UNL A   1      35.153  23.171  25.092  1.00  0.00     0.132 A 
BRANCH  67  71
ATOM     71  C   UNL A   1      32.004  23.007  23.243  1.00  0.00     0.277 C 
ATOM     72  O   UNL A   1      31.799  21.857  22.840  1.00  0.00    -0.267 OA
ATOM     73  N   UNL A   1      31.330  24.033  22.619  1.00  0.00    -0.303 N 
ATOM     74  H   UNL A   1      30.659  23.742  21.961  1.00  0.00     0.172 HD
BRANCH  73  75
ATOM     75  C   UNL A   1      31.435  25.392  22.761  1.00  0.00     0.164 A 
ATOM     76  N   UNL A   1      32.595  25.970  22.401  1.00  0.00    -0.155 NA
ATOM     77  C   UNL A   1      30.435  26.320  23.117  1.00  0.00     0.063 A 
ATOM     78  N   UNL A   1      32.356  27.269  22.051  1.00  0.00    -0.259 N 
ATOM     79  C   UNL A   1      31.098  27.717  22.338  1.00  0.00     0.157 A 
ATOM     80  C   UNL A   1      28.790  26.433  23.799  1.00  0.00     0.017 A 
ATOM     81  H   UNL A   1      33.037  27.838  21.624  1.00  0.00     0.192 HD
ATOM     82  N   UNL A   1      30.185  29.162  22.001  1.00  0.00    -0.237 NA
ATOM     83  C   UNL A   1      27.799  27.888  23.555  1.00  0.00     0.021 A 
ATOM     84  C   UNL A   1      28.533  29.231  22.696  1.00  0.00     0.113 A 
ENDBRANCH  73  75
ENDBRANCH  67  71
ENDBRANCH  62  65
ENDBRANCH  60  61
ENDBRANCH  59  60
ENDBRANCH  58  59
ENDBRANCH   1  58
TORSDOF 15
ENDMDL
MODEL 2
REMARK VINA RESULT:     -12.9      1.368      3.346
REMARK SMILES O=C(NCCCCCCNC(=O)c1nccnc1C(=O)Nc1n[nH]c2ncccc12)c1ccc(-c2c3nc(c(-c4ccccc4)c4ccc([nH]4)c(-c4ccccc4)c4nc(c(-c5ccccc5)c5ccc2[nH]5)C=C4)C=C3)cc1
REMARK SMILES IDX 6 1 5 2 4 3 3 4 1 5 2 6 31 8 32 9 78 10 33 11 77 12 34 13
REMARK SMILES IDX 35 14 36 15 71 16 37 17 76 18 70 19 72 20 38 21 75 22 69 23
REMARK SMILES IDX 68 24 39 26 61 27 46 28 60 29 47 30 50 31 59 32 73 33 48 34
REMARK SMILES IDX 49 35 58 37 74 38 51 39 40 40 41 41 45 42 42 43 44 44 43 45
REMARK SMILES IDX 62 46 63 47 67 48 64 49 66 50 65 51 52 52 53 53 57 54 54 55
REMARK SMILES IDX 56 56 55 57 7 58 8 59 9 60 10 61 11 62 12 64 13 65 14 66
REMARK SMILES IDX 18 67 15 68 17 69 16 70 19 71 20 72 21 73 22 75 23 76 30 77
REMARK SMILES IDX 24 78 25 79 29 80 26 82 28 83 27 84
REMARK H PARENT 3 7 72 25 50 36 10 63 21 74 24 81
REMARK Flexibility Score: inf
ROOT
ATOM      1  C   UNL A   1      31.433  29.894  25.618  1.00  0.00     0.002 C 
ENDROOT
BRANCH   1   2
ATOM      2  C   UNL A   1      31.253  31.314  26.148  1.00  0.00     0.021 C 
BRANCH   2   3
ATOM      3  C   UNL A   1      32.369  31.769  27.065  1.00  0.00     0.116 C 
BRANCH   3   4
ATOM      4  N   UNL A   1      32.281  33.197  27.314  1.00  0.00    -0.352 N 
ATOM      5  O   UNL A   1      32.615  35.060  28.544  1.00  0.00    -0.269 OA
ATOM      6  C   UNL A   1      33.027  33.965  28.175  1.00  0.00     0.251 C 
ATOM      7  H   UNL A   1      31.597  33.679  26.797  1.00  0.00     0.163 HD
BRANCH   6   8
ATOM      8  C   UNL A   1      34.331  33.462  28.659  1.00  0.00     0.039 A 
ATOM      9  C   UNL A   1      34.398  32.699  29.827  1.00  0.00     0.014 A 
ATOM     10  C   UNL A   1      35.490  33.714  27.922  1.00  0.00     0.014 A 
ATOM     11  C   UNL A   1      35.629  32.325  30.343  1.00  0.00     0.010 A 
ATOM     12  C   UNL A   1      36.717  33.219  28.373  1.00  0.00     0.010 A 
ATOM     13  C   UNL A   1      36.796  32.533  29.596  1.00  0.00    -0.014 A 
BRANCH  13  14
ATOM     14  C   UNL A   1      38.065  31.924  30.063  1.00  0.00     0.031 A 
ATOM     15  C   UNL A   1      38.940  32.617  31.064  1.00  0.00     0.074 A 
ATOM     16  C   UNL A   1      38.417  30.721  29.566  1.00  0.00     0.049 A 
ATOM     17  N   UNL A   1      40.091  32.230  31.554  1.00  0.00    -0.248 NA
ATOM     18  C   UNL A   1      38.474  33.914  31.578  1.00  0.00     0.031 C 
ATOM     19  C   UNL A   1      37.641  29.950  28.589  1.00  0.00     0.029 A 
ATOM     20  N   UNL A   1      39.506  29.929  29.819  1.00  0.00    -0.354 N 
ATOM     21  C   UNL A   1      40.498  33.243  32.412  1.00  0.00     0.074 A 
ATOM     22  C   UNL A   1      39.486  34.275  32.354  1.00  0.00     0.031 C 
ATOM     23  C   UNL A   1      38.251  28.780  28.365  1.00  0.00     0.029 A 
ATOM     24  C   UNL A   1      39.503  28.754  29.107  1.00  0.00     0.049 A 
ATOM     25  H   UNL A   1      40.220  30.176  30.450  1.00  0.00     0.167 HD
ATOM     26  C   UNL A   1      41.617  33.304  33.176  1.00  0.00     0.031 A 
ATOM     27  C   UNL A   1      40.423  27.776  29.027  1.00  0.00     0.031 A 
ATOM     28  C   UNL A   1      42.628  32.279  33.206  1.00  0.00     0.049 A 
ATOM     29  C   UNL A   1      41.682  27.904  29.830  1.00  0.00     0.074 A 
ATOM     30  C   UNL A   1      43.786  32.233  33.964  1.00  0.00     0.029 A 
ATOM     31  N   UNL A   1      42.612  31.125  32.434  1.00  0.00    -0.354 N 
ATOM     32  N   UNL A   1      42.036  28.851  30.663  1.00  0.00    -0.248 NA
ATOM     33  C   UNL A   1      42.666  26.826  29.683  1.00  0.00     0.031 C 
ATOM     34  C   UNL A   1      44.505  31.092  33.595  1.00  0.00     0.029 A 
ATOM     35  C   UNL A   1      43.756  30.380  32.672  1.00  0.00     0.049 A 
ATOM     36  H   UNL A   1      41.894  30.873  31.810  1.00  0.00     0.167 HD
ATOM     37  C   UNL A   1      43.272  28.469  31.165  1.00  0.00     0.074 A 
ATOM     38  C   UNL A   1      43.595  27.195  30.554  1.00  0.00     0.031 C 
ATOM     39  C   UNL A   1      44.066  29.115  32.054  1.00  0.00     0.031 A 
BRANCH  26  40
ATOM     40  C   UNL A   1      41.824  34.543  34.005  1.00  0.00    -0.014 A 
ATOM     41  C   UNL A   1      42.489  35.670  33.494  1.00  0.00     0.009 A 
ATOM     42  C   UNL A   1      41.319  34.595  35.314  1.00  0.00     0.009 A 
ATOM     43  C   UNL A   1      42.682  36.802  34.291  1.00  0.00     0.001 A 
ATOM     44  C   UNL A   1      41.481  35.740  36.096  1.00  0.00     0.001 A 
ATOM     45  C   UNL A   1      42.174  36.837  35.589  1.00  0.00     0.000 A 
ENDBRANCH  26  40
BRANCH  27  46
ATOM     46  C   UNL A   1      40.189  26.611  28.133  1.00  0.00    -0.014 A 
ATOM     47  C   UNL A   1      39.470  25.495  28.584  1.00  0.00     0.009 A 
ATOM     48  C   UNL A   1      40.678  26.616  26.815  1.00  0.00     0.009 A 
ATOM     49  C   UNL A   1      39.270  24.397  27.744  1.00  0.00     0.001 A 
ATOM     50  C   UNL A   1      40.444  25.534  25.967  1.00  0.00     0.001 A 
ATOM     51  C   UNL A   1      39.750  24.420  26.435  1.00  0.00     0.000 A 
ENDBRANCH  27  46
BRANCH  39  52
ATOM     52  C   UNL A   1      45.340  28.426  32.460  1.00  0.00    -0.014 A 
ATOM     53  C   UNL A   1      46.553  28.663  31.794  1.00  0.00     0.009 A 
ATOM     54  C   UNL A   1      45.329  27.548  33.557  1.00  0.00     0.009 A 
ATOM     55  C   UNL A   1      47.718  28.004  32.194  1.00  0.00     0.001 A 
ATOM     56  C   UNL A   1      46.502  26.922  33.977  1.00  0.00     0.001 A 
ATOM     57  C   UNL A   1      47.692  27.141  33.289  1.00  0.00     0.000 A 
ENDBRANCH  39  52
ENDBRANCH  13  14
ENDBRANCH   6   8
ENDBRANCH   3   4
ENDBRANCH   2   3
ENDBRANCH   1   2
BRANCH   1  58
ATOM     58  C   UNL A   1      31.381  29.706  24.083  1.00  0.00     0.002 C 
BRANCH  58  59
ATOM     59  C   UNL A   1      30.043  28.895  23.283  1.00  0.00     0.021 C 
BRANCH  59  60
ATOM     60  C   UNL A   1      28.859  27.118  23.809  1.00  0.00     0.116 C 
BRANCH  60  61
ATOM     61  N   UNL A   1      29.174  25.550  23.720  1.00  0.00    -0.351 N 
ATOM     62  C   UNL A   1      30.394  24.915  23.610  1.00  0.00     0.272 C 
ATOM     63  H   UNL A   1      28.388  24.958  23.749  1.00  0.00     0.163 HD
ATOM     64  O   UNL A   1      30.487  23.713  23.399  1.00  0.00    -0.267 OA
BRANCH  62  65
ATOM     65  C   UNL A   1      31.587  25.756  23.800  1.00  0.00     0.159 A 
ATOM     66  N   UNL A   1      32.226  26.046  22.615  1.00  0.00    -0.247 NA
ATOM     67  C   UNL A   1      32.121  26.062  25.043  1.00  0.00     0.159 A 
ATOM     68  C   UNL A   1      33.401  26.690  22.721  1.00  0.00     0.132 A 
ATOM     69  N   UNL A   1      33.330  26.706  25.122  1.00  0.00    -0.247 NA
ATOM     70  C   UNL A   1      33.940  27.015  23.950  1.00  0.00     0.132 A 
BRANCH  67  71
ATOM     71  C   UNL A   1      31.453  25.851  26.363  1.00  0.00     0.277 C 
ATOM     72  O   UNL A   1      30.978  26.847  26.918  1.00  0.00    -0.267 OA
ATOM     73  N   UNL A   1      31.287  24.633  26.984  1.00  0.00    -0.303 N 
ATOM     74  H   UNL A   1      30.709  24.654  27.780  1.00  0.00     0.172 HD
BRANCH  73  75
ATOM     75  C   UNL A   1      31.789  23.394  26.679  1.00  0.00     0.164 A 
ATOM     76  N   UNL A   1      30.910  22.417  26.393  1.00  0.00    -0.155 NA
ATOM     77  C   UNL A   1      33.133  23.012  26.487  1.00  0.00     0.063 A 
ATOM     78  N   UNL A   1      31.514  21.496  25.585  1.00  0.00    -0.259 N 
ATOM     79  C   UNL A   1      32.862  21.660  25.439  1.00  0.00     0.157 A 
ATOM     80  C   UNL A   1      34.809  23.568  26.735  1.00  0.00     0.017 A 
ATOM     81  H   UNL A   1      31.017  20.770  25.143  1.00  0.00     0.192 HD
ATOM     82  N   UNL A   1      34.104  20.937  24.454  1.00  0.00    -0.237 NA
ATOM     83  C   UNL A   1      36.153  22.853  25.817  1.00  0.00     0.021 A 
ATOM     84  C   UNL A   1      35.774  21.531  24.727  1.00  0.00     0.113 A 
ENDBRANCH  73  75
ENDBRANCH  67  71
ENDBRANCH  62  65
ENDBRANCH  60  61
ENDBRANCH  59  60
ENDBRANCH  58  59
ENDBRANCH   1  58
TORSDOF 15
ENDMDL
MODEL 3
REMARK VINA RESULT:     -12.5      3.686      8.280
REMARK SMILES O=C(NCCCCCCNC(=O)c1nccnc1C(=O)Nc1n[nH]c2ncccc12)c1ccc(-c2c3nc(c(-c4ccccc4)c4ccc([nH]4)c(-c4ccccc4)c4nc(c(-c5ccccc5)c5ccc2[nH]5)C=C4)C=C3)cc1
REMARK SMILES IDX 6 1 5 2 4 3 3 4 1 5 2 6 31 8 32 9 78 10 33 11 77 12 34 13
REMARK SMILES IDX 35 14 36 15 71 16 37 17 76 18 70 19 72 20 38 21 75 22 69 23
REMARK SMILES IDX 68 24 39 26 61 27 46 28 60 29 47 30 50 31 59 32 73 33 48 34
REMARK SMILES IDX 49 35 58 37 74 38 51 39 40 40 41 41 45 42 42 43 44 44 43 45
REMARK SMILES IDX 62 46 63 47 67 48 64 49 66 50 65 51 52 52 53 53 57 54 54 55
REMARK SMILES IDX 56 56 55 57 7 58 8 59 9 60 10 61 11 62 12 64 13 65 14 66
REMARK SMILES IDX 18 67 15 68 17 69 16 70 19 71 20 72 21 73 22 75 23 76 30 77
REMARK SMILES IDX 24 78 25 79 29 80 26 82 28 83 27 84
REMARK H PARENT 3 7 72 25 50 36 10 63 21 74 24 81
REMARK Flexibility Score: inf
ROOT
ATOM      1  C   UNL A   1      37.661  23.000  25.782  1.00  0.00     0.002 C 
ENDROOT
BRANCH   1   2
ATOM      2  C   UNL A   1      37.885  21.520  26.077  1.00  0.00     0.021 C 
BRANCH   2   3
ATOM      3  C   UNL A   1      38.496  20.754  24.922  1.00  0.00     0.116 C 
BRANCH   3   4
ATOM      4  N   UNL A   1      39.329  19.667  25.408  1.00  0.00    -0.352 N 
ATOM      5  O   UNL A   1      41.297  18.737  26.002  1.00  0.00    -0.269 OA
ATOM      6  C   UNL A   1      40.578  19.731  25.973  1.00  0.00     0.251 C 
ATOM      7  H   UNL A   1      38.946  18.764  25.320  1.00  0.00     0.163 HD
BRANCH   6   8
ATOM      8  C   UNL A   1      41.056  21.008  26.547  1.00  0.00     0.039 A 
ATOM      9  C   UNL A   1      41.528  22.019  25.707  1.00  0.00     0.014 A 
ATOM     10  C   UNL A   1      40.992  21.218  27.926  1.00  0.00     0.014 A 
ATOM     11  C   UNL A   1      42.081  23.169  26.249  1.00  0.00     0.010 A 
ATOM     12  C   UNL A   1      41.426  22.434  28.460  1.00  0.00     0.010 A 
ATOM     13  C   UNL A   1      41.988  23.413  27.626  1.00  0.00    -0.014 A 
BRANCH  13  14
ATOM     14  C   UNL A   1      42.381  24.745  28.146  1.00  0.00     0.031 A 
ATOM     15  C   UNL A   1      41.367  25.829  28.361  1.00  0.00     0.074 A 
ATOM     16  C   UNL A   1      43.682  24.963  28.428  1.00  0.00     0.049 A 
ATOM     17  N   UNL A   1      41.552  27.054  28.785  1.00  0.00    -0.248 NA
ATOM     18  C   UNL A   1      39.965  25.504  28.055  1.00  0.00     0.031 C 
ATOM     19  C   UNL A   1      44.759  23.981  28.261  1.00  0.00     0.029 A 
ATOM     20  N   UNL A   1      44.320  26.070  28.922  1.00  0.00    -0.354 N 
ATOM     21  C   UNL A   1      40.300  27.653  28.773  1.00  0.00     0.074 A 
ATOM     22  C   UNL A   1      39.367  26.666  28.272  1.00  0.00     0.031 C 
ATOM     23  C   UNL A   1      45.910  24.511  28.692  1.00  0.00     0.029 A 
ATOM     24  C   UNL A   1      45.674  25.894  29.077  1.00  0.00     0.049 A 
ATOM     25  H   UNL A   1      43.855  26.908  29.144  1.00  0.00     0.167 HD
ATOM     26  C   UNL A   1      39.963  28.912  29.145  1.00  0.00     0.031 A 
ATOM     27  C   UNL A   1      46.631  26.761  29.452  1.00  0.00     0.031 A 
ATOM     28  C   UNL A   1      40.907  29.892  29.619  1.00  0.00     0.049 A 
ATOM     29  C   UNL A   1      46.238  28.167  29.791  1.00  0.00     0.074 A 
ATOM     30  C   UNL A   1      40.664  31.187  30.044  1.00  0.00     0.029 A 
ATOM     31  N   UNL A   1      42.277  29.691  29.718  1.00  0.00    -0.354 N 
ATOM     32  N   UNL A   1      45.046  28.709  29.809  1.00  0.00    -0.248 NA
ATOM     33  C   UNL A   1      47.326  29.080  30.163  1.00  0.00     0.031 C 
ATOM     34  C   UNL A   1      41.893  31.792  30.326  1.00  0.00     0.029 A 
ATOM     35  C   UNL A   1      42.895  30.848  30.163  1.00  0.00     0.049 A 
ATOM     36  H   UNL A   1      42.741  28.849  29.503  1.00  0.00     0.167 HD
ATOM     37  C   UNL A   1      45.233  30.019  30.224  1.00  0.00     0.074 A 
ATOM     38  C   UNL A   1      46.652  30.182  30.464  1.00  0.00     0.031 C 
ATOM     39  C   UNL A   1      44.310  30.998  30.394  1.00  0.00     0.031 A 
BRANCH  26  40
ATOM     40  C   UNL A   1      38.519  29.314  29.007  1.00  0.00    -0.014 A 
ATOM     41  C   UNL A   1      37.634  29.270  30.096  1.00  0.00     0.009 A 
ATOM     42  C   UNL A   1      38.042  29.775  27.769  1.00  0.00     0.009 A 
ATOM     43  C   UNL A   1      36.294  29.634  29.937  1.00  0.00     0.001 A 
ATOM     44  C   UNL A   1      36.712  30.172  27.621  1.00  0.00     0.001 A 
ATOM     45  C   UNL A   1      35.835  30.089  28.701  1.00  0.00     0.000 A 
ENDBRANCH  26  40
BRANCH  27  46
ATOM     46  C   UNL A   1      48.051  26.321  29.499  1.00  0.00    -0.014 A 
ATOM     47  C   UNL A   1      48.598  25.789  30.676  1.00  0.00     0.009 A 
ATOM     48  C   UNL A   1      48.865  26.421  28.358  1.00  0.00     0.009 A 
ATOM     49  C   UNL A   1      49.937  25.394  30.717  1.00  0.00     0.001 A 
ATOM     50  C   UNL A   1      50.192  25.991  28.391  1.00  0.00     0.001 A 
ATOM     51  C   UNL A   1      50.730  25.488  29.574  1.00  0.00     0.000 A 
ENDBRANCH  27  46
BRANCH  39  52
ATOM     52  C   UNL A   1      44.803  32.320  30.914  1.00  0.00    -0.014 A 
ATOM     53  C   UNL A   1      45.182  33.359  30.050  1.00  0.00     0.009 A 
ATOM     54  C   UNL A   1      44.854  32.539  32.301  1.00  0.00     0.009 A 
ATOM     55  C   UNL A   1      45.639  34.575  30.565  1.00  0.00     0.001 A 
ATOM     56  C   UNL A   1      45.274  33.767  32.811  1.00  0.00     0.001 A 
ATOM     57  C   UNL A   1      45.677  34.779  31.944  1.00  0.00     0.000 A 
ENDBRANCH  39  52
ENDBRANCH  13  14
ENDBRANCH   6   8
ENDBRANCH   3   4
ENDBRANCH   2   3
ENDBRANCH   1   2
BRANCH   1  58
ATOM     58  C   UNL A   1      37.021  23.356  24.420  1.00  0.00     0.002 C 
BRANCH  58  59
ATOM     59  C   UNL A   1      35.304  23.685  24.247  1.00  0.00     0.021 C 
BRANCH  59  60
ATOM     60  C   UNL A   1      33.723  22.720  23.060  1.00  0.00     0.116 C 
BRANCH  60  61
ATOM     61  N   UNL A   1      32.808  21.434  23.332  1.00  0.00    -0.351 N 
ATOM     62  C   UNL A   1      32.487  20.835  24.531  1.00  0.00     0.272 C 
ATOM     63  H   UNL A   1      32.422  21.012  22.530  1.00  0.00     0.163 HD
ATOM     64  O   UNL A   1      31.897  19.763  24.589  1.00  0.00    -0.267 OA
BRANCH  62  65
ATOM     65  C   UNL A   1      32.854  21.574  25.750  1.00  0.00     0.159 A 
ATOM     66  N   UNL A   1      34.133  21.293  26.176  1.00  0.00    -0.247 NA
ATOM     67  C   UNL A   1      31.955  22.322  26.496  1.00  0.00     0.159 A 
ATOM     68  C   UNL A   1      34.490  21.821  27.359  1.00  0.00     0.132 A 
ATOM     69  N   UNL A   1      32.341  22.836  27.708  1.00  0.00    -0.247 NA
ATOM     70  C   UNL A   1      33.612  22.579  28.108  1.00  0.00     0.132 A 
BRANCH  67  71
ATOM     71  C   UNL A   1      30.585  22.733  26.065  1.00  0.00     0.277 C 
ATOM     72  O   UNL A   1      29.632  22.130  26.571  1.00  0.00    -0.267 OA
ATOM     73  N   UNL A   1      30.300  23.757  25.188  1.00  0.00    -0.303 N 
ATOM     74  H   UNL A   1      29.345  23.982  25.118  1.00  0.00     0.172 HD
BRANCH  73  75
ATOM     75  C   UNL A   1      31.124  24.516  24.398  1.00  0.00     0.164 A 
ATOM     76  N   UNL A   1      30.927  24.471  23.067  1.00  0.00    -0.155 NA
ATOM     77  C   UNL A   1      32.091  25.464  24.789  1.00  0.00     0.063 A 
ATOM     78  N   UNL A   1      31.372  25.638  22.513  1.00  0.00    -0.259 N 
ATOM     79  C   UNL A   1      32.073  26.445  23.363  1.00  0.00     0.157 A 
ATOM     80  C   UNL A   1      33.008  26.046  26.204  1.00  0.00     0.017 A 
ATOM     81  H   UNL A   1      31.201  25.878  21.573  1.00  0.00     0.192 HD
ATOM     82  N   UNL A   1      32.727  28.059  23.290  1.00  0.00    -0.237 NA
ATOM     83  C   UNL A   1      33.759  27.658  26.206  1.00  0.00     0.021 A 
ATOM     84  C   UNL A   1      33.632  28.608  24.737  1.00  0.00     0.113 A 
ENDBRANCH  73  75
ENDBRANCH  67  71
ENDBRANCH  62  65
ENDBRANCH  60  61
ENDBRANCH  59  60
ENDBRANCH  58  59
ENDBRANCH   1  58
TORSDOF 15
ENDMDL
