MODEL 1
REMARK VINA RESULT:     -11.2      0.000      0.000
REMARK SMILES O=C(NCCCCCCNC(=O)[C@H](c1cnn(Cc2ccccc2)c1)[NH+]1CCOCC1)c1ccc(-c2c3nc(c(-c4ccccc4)c4ccc([nH]4)c(-c4ccccc4)c4nc(c(-c5ccccc5)c5ccc2[nH]5)C=C4)C=C3)cc1
REMARK SMILES IDX 7 1 6 2 5 3 4 4 3 5 1 6 2 7 32 9 33 10 79 11 34 12 78 13
REMARK SMILES IDX 35 14 36 15 37 16 72 17 38 18 77 19 71 20 73 21 39 22 76 23
REMARK SMILES IDX 70 24 69 25 40 27 62 28 47 29 61 30 48 31 51 32 60 33 74 34
REMARK SMILES IDX 49 35 50 36 59 38 75 39 52 40 41 41 42 42 46 43 43 44 45 45
REMARK SMILES IDX 44 46 63 47 64 48 68 49 65 50 67 51 66 52 53 53 54 54 58 55
REMARK SMILES IDX 55 56 57 57 56 58 8 59 9 60 10 61 11 62 12 64 13 65 26 66
REMARK SMILES IDX 27 67 31 68 28 70 30 71 29 72 14 73 15 74 25 75 16 76 17 77
REMARK SMILES IDX 18 78 19 79 20 80 24 81 21 82 23 83 22 84
REMARK H PARENT 3 8 73 26 51 37 10 63 26 69
REMARK Flexibility Score: inf
ROOT
ATOM      1  C   UNL A   1      34.582  21.864  24.473  1.00  0.00     0.002 C 
ENDROOT
BRANCH   1   2
ATOM      2  C   UNL A   1      35.721  21.210  25.265  1.00  0.00     0.002 C 
BRANCH   2   3
ATOM      3  C   UNL A   1      37.135  21.501  24.744  1.00  0.00     0.021 C 
BRANCH   3   4
ATOM      4  C   UNL A   1      37.927  22.490  25.597  1.00  0.00     0.116 C 
BRANCH   4   5
ATOM      5  N   UNL A   1      39.203  21.977  26.052  1.00  0.00    -0.352 N 
ATOM      6  O   UNL A   1      41.126  21.661  27.094  1.00  0.00    -0.269 OA
ATOM      7  C   UNL A   1      40.186  22.436  26.881  1.00  0.00     0.251 C 
ATOM      8  H   UNL A   1      39.408  21.091  25.676  1.00  0.00     0.163 HD
BRANCH   7   9
ATOM      9  C   UNL A   1      40.237  23.793  27.490  1.00  0.00     0.039 A 
ATOM     10  C   UNL A   1      39.182  24.703  27.549  1.00  0.00     0.014 A 
ATOM     11  C   UNL A   1      41.472  24.164  28.056  1.00  0.00     0.014 A 
ATOM     12  C   UNL A   1      39.373  25.972  28.094  1.00  0.00     0.010 A 
ATOM     13  C   UNL A   1      41.664  25.421  28.617  1.00  0.00     0.010 A 
ATOM     14  C   UNL A   1      40.619  26.339  28.608  1.00  0.00    -0.014 A 
BRANCH  14  15
ATOM     15  C   UNL A   1      40.740  27.641  29.259  1.00  0.00     0.031 A 
ATOM     16  C   UNL A   1      41.681  28.599  28.604  1.00  0.00     0.074 A 
ATOM     17  C   UNL A   1      39.965  28.044  30.285  1.00  0.00     0.049 A 
ATOM     18  N   UNL A   1      42.711  29.193  29.117  1.00  0.00    -0.248 NA
ATOM     19  C   UNL A   1      41.481  28.880  27.173  1.00  0.00     0.031 C 
ATOM     20  C   UNL A   1      38.795  27.375  30.858  1.00  0.00     0.029 A 
ATOM     21  N   UNL A   1      40.013  29.223  30.970  1.00  0.00    -0.354 N 
ATOM     22  C   UNL A   1      43.217  30.027  28.121  1.00  0.00     0.074 A 
ATOM     23  C   UNL A   1      42.478  29.727  26.920  1.00  0.00     0.031 C 
ATOM     24  C   UNL A   1      38.118  28.251  31.637  1.00  0.00     0.029 A 
ATOM     25  C   UNL A   1      38.881  29.485  31.730  1.00  0.00     0.049 A 
ATOM     26  H   UNL A   1      40.783  29.835  30.929  1.00  0.00     0.167 HD
ATOM     27  C   UNL A   1      44.107  31.026  28.376  1.00  0.00     0.031 A 
ATOM     28  C   UNL A   1      38.571  30.651  32.345  1.00  0.00     0.031 A 
ATOM     29  C   UNL A   1      44.761  30.865  29.644  1.00  0.00     0.049 A 
ATOM     30  C   UNL A   1      39.813  31.443  32.477  1.00  0.00     0.074 A 
ATOM     31  C   UNL A   1      45.609  29.921  30.187  1.00  0.00     0.029 A 
ATOM     32  N   UNL A   1      44.294  31.599  30.705  1.00  0.00    -0.354 N 
ATOM     33  N   UNL A   1      40.798  31.112  33.260  1.00  0.00    -0.248 NA
ATOM     34  C   UNL A   1      40.139  32.395  31.430  1.00  0.00     0.031 C 
ATOM     35  C   UNL A   1      45.210  29.814  31.551  1.00  0.00     0.029 A 
ATOM     36  C   UNL A   1      44.183  30.736  31.766  1.00  0.00     0.049 A 
ATOM     37  H   UNL A   1      44.080  32.561  30.706  1.00  0.00     0.167 HD
ATOM     38  C   UNL A   1      41.940  31.458  32.555  1.00  0.00     0.074 A 
ATOM     39  C   UNL A   1      41.472  32.340  31.488  1.00  0.00     0.031 C 
ATOM     40  C   UNL A   1      43.111  30.779  32.733  1.00  0.00     0.031 A 
BRANCH  27  41
ATOM     41  C   UNL A   1      44.151  32.323  27.611  1.00  0.00    -0.014 A 
ATOM     42  C   UNL A   1      43.792  33.520  28.258  1.00  0.00     0.009 A 
ATOM     43  C   UNL A   1      44.275  32.373  26.209  1.00  0.00     0.009 A 
ATOM     44  C   UNL A   1      43.522  34.688  27.531  1.00  0.00     0.001 A 
ATOM     45  C   UNL A   1      44.044  33.546  25.486  1.00  0.00     0.001 A 
ATOM     46  C   UNL A   1      43.644  34.699  26.145  1.00  0.00     0.000 A 
ENDBRANCH  27  41
BRANCH  28  47
ATOM     47  C   UNL A   1      37.240  31.249  32.578  1.00  0.00    -0.014 A 
ATOM     48  C   UNL A   1      37.024  32.142  33.640  1.00  0.00     0.009 A 
ATOM     49  C   UNL A   1      36.250  31.160  31.583  1.00  0.00     0.009 A 
ATOM     50  C   UNL A   1      35.874  32.943  33.682  1.00  0.00     0.001 A 
ATOM     51  C   UNL A   1      35.103  31.958  31.626  1.00  0.00     0.001 A 
ATOM     52  C   UNL A   1      34.922  32.861  32.669  1.00  0.00     0.000 A 
ENDBRANCH  28  47
BRANCH  40  53
ATOM     53  C   UNL A   1      43.181  29.782  33.867  1.00  0.00    -0.014 A 
ATOM     54  C   UNL A   1      43.673  30.112  35.144  1.00  0.00     0.009 A 
ATOM     55  C   UNL A   1      42.599  28.519  33.689  1.00  0.00     0.009 A 
ATOM     56  C   UNL A   1      43.619  29.191  36.195  1.00  0.00     0.001 A 
ATOM     57  C   UNL A   1      42.524  27.608  34.745  1.00  0.00     0.001 A 
ATOM     58  C   UNL A   1      43.040  27.940  35.996  1.00  0.00     0.000 A 
ENDBRANCH  40  53
ENDBRANCH  14  15
ENDBRANCH   7   9
ENDBRANCH   4   5
ENDBRANCH   3   4
ENDBRANCH   2   3
ENDBRANCH   1   2
BRANCH   1  59
ATOM     59  C   UNL A   1      34.886  23.259  23.908  1.00  0.00     0.021 C 
BRANCH  59  60
ATOM     60  C   UNL A   1      34.803  24.394  24.928  1.00  0.00     0.116 C 
BRANCH  60  61
ATOM     61  N   UNL A   1      33.666  24.218  25.810  1.00  0.00    -0.351 N 
ATOM     62  C   UNL A   1      32.589  25.032  26.028  1.00  0.00     0.283 C 
ATOM     63  H   UNL A   1      33.669  23.383  26.331  1.00  0.00     0.163 HD
ATOM     64  O   UNL A   1      31.762  24.632  26.854  1.00  0.00    -0.268 OA
BRANCH  62  65
ATOM     65  C   UNL A   1      32.445  26.363  25.223  1.00  0.00     0.308 C 
BRANCH  65  66
ATOM     66  N   UNL A   1      31.217  26.304  24.397  1.00  0.00    -0.317 N 
ATOM     67  C   UNL A   1      31.239  25.360  23.272  1.00  0.00     0.292 C 
ATOM     68  C   UNL A   1      30.611  27.588  24.008  1.00  0.00     0.292 C 
ATOM     69  H   UNL A   1      30.582  25.909  25.091  1.00  0.00     0.349 HD
ATOM     70  C   UNL A   1      31.620  25.965  21.909  1.00  0.00     0.221 C 
ATOM     71  C   UNL A   1      31.012  28.114  22.619  1.00  0.00     0.221 C 
ATOM     72  O   UNL A   1      30.818  27.114  21.613  1.00  0.00    -0.370 OA
ENDBRANCH  65  66
BRANCH  65  73
ATOM     73  C   UNL A   1      32.540  27.602  26.071  1.00  0.00     0.057 A 
ATOM     74  C   UNL A   1      31.762  27.976  27.195  1.00  0.00     0.145 A 
ATOM     75  C   UNL A   1      33.445  28.645  25.950  1.00  0.00     0.119 A 
ATOM     76  N   UNL A   1      32.115  29.157  27.706  1.00  0.00    -0.181 NA
ATOM     77  N   UNL A   1      33.109  29.573  26.897  1.00  0.00    -0.268 N 
BRANCH  77  78
ATOM     78  C   UNL A   1      33.765  30.851  27.147  1.00  0.00     0.179 C 
BRANCH  78  79
ATOM     79  C   UNL A   1      35.185  30.705  27.648  1.00  0.00    -0.027 A 
ATOM     80  C   UNL A   1      35.950  31.839  27.957  1.00  0.00     0.005 A 
ATOM     81  C   UNL A   1      35.793  29.442  27.738  1.00  0.00     0.005 A 
ATOM     82  C   UNL A   1      37.288  31.713  28.344  1.00  0.00     0.000 A 
ATOM     83  C   UNL A   1      37.127  29.318  28.129  1.00  0.00     0.000 A 
ATOM     84  C   UNL A   1      37.876  30.453  28.428  1.00  0.00     0.000 A 
ENDBRANCH  78  79
ENDBRANCH  77  78
ENDBRANCH  65  73
ENDBRANCH  62  65
ENDBRANCH  60  61
ENDBRANCH  59  60
ENDBRANCH   1  59
TORSDOF 17
ENDMDL
MODEL 2
REMARK VINA RESULT:     -11.0      2.754      5.695
REMARK SMILES O=C(NCCCCCCNC(=O)[C@H](c1cnn(Cc2ccccc2)c1)[NH+]1CCOCC1)c1ccc(-c2c3nc(c(-c4ccccc4)c4ccc([nH]4)c(-c4ccccc4)c4nc(c(-c5ccccc5)c5ccc2[nH]5)C=C4)C=C3)cc1
REMARK SMILES IDX 7 1 6 2 5 3 4 4 3 5 1 6 2 7 32 9 33 10 79 11 34 12 78 13
REMARK SMILES IDX 35 14 36 15 37 16 72 17 38 18 77 19 71 20 73 21 39 22 76 23
REMARK SMILES IDX 70 24 69 25 40 27 62 28 47 29 61 30 48 31 51 32 60 33 74 34
REMARK SMILES IDX 49 35 50 36 59 38 75 39 52 40 41 41 42 42 46 43 43 44 45 45
REMARK SMILES IDX 44 46 63 47 64 48 68 49 65 50 67 51 66 52 53 53 54 54 58 55
REMARK SMILES IDX 55 56 57 57 56 58 8 59 9 60 10 61 11 62 12 64 13 65 26 66
REMARK SMILES IDX 27 67 31 68 28 70 30 71 29 72 14 73 15 74 25 75 16 76 17 77
REMARK SMILES IDX 18 78 19 79 20 80 24 81 21 82 23 83 22 84
REMARK H PARENT 3 8 73 26 51 37 10 63 26 69
REMARK Flexibility Score: inf
ROOT
ATOM      1  C   UNL A   1      40.081  21.883  26.781  1.00  0.00     0.002 C 
ENDROOT
BRANCH   1   2
ATOM      2  C   UNL A   1      41.018  20.741  27.193  1.00  0.00     0.002 C 
BRANCH   2   3
ATOM      3  C   UNL A   1      41.280  19.682  26.113  1.00  0.00     0.021 C 
BRANCH   3   4
ATOM      4  C   UNL A   1      42.668  19.045  26.184  1.00  0.00     0.116 C 
BRANCH   4   5
ATOM      5  N   UNL A   1      43.556  19.465  25.119  1.00  0.00    -0.352 N 
ATOM      6  O   UNL A   1      44.917  20.603  23.801  1.00  0.00    -0.269 OA
ATOM      7  C   UNL A   1      44.133  20.648  24.757  1.00  0.00     0.251 C 
ATOM      8  H   UNL A   1      43.800  18.726  24.518  1.00  0.00     0.163 HD
BRANCH   7   9
ATOM      9  C   UNL A   1      43.851  21.971  25.376  1.00  0.00     0.039 A 
ATOM     10  C   UNL A   1      43.030  22.966  24.844  1.00  0.00     0.014 A 
ATOM     11  C   UNL A   1      44.477  22.214  26.614  1.00  0.00     0.014 A 
ATOM     12  C   UNL A   1      42.893  24.192  25.493  1.00  0.00     0.010 A 
ATOM     13  C   UNL A   1      44.331  23.429  27.275  1.00  0.00     0.010 A 
ATOM     14  C   UNL A   1      43.560  24.431  26.697  1.00  0.00    -0.014 A 
BRANCH  14  15
ATOM     15  C   UNL A   1      43.304  25.693  27.388  1.00  0.00     0.031 A 
ATOM     16  C   UNL A   1      44.286  26.785  27.112  1.00  0.00     0.074 A 
ATOM     17  C   UNL A   1      42.193  25.945  28.109  1.00  0.00     0.049 A 
ATOM     18  N   UNL A   1      45.012  27.447  27.955  1.00  0.00    -0.248 NA
ATOM     19  C   UNL A   1      44.533  27.138  25.704  1.00  0.00     0.031 C 
ATOM     20  C   UNL A   1      40.989  25.121  28.239  1.00  0.00     0.029 A 
ATOM     21  N   UNL A   1      41.872  27.073  28.804  1.00  0.00    -0.354 N 
ATOM     22  C   UNL A   1      45.713  28.394  27.209  1.00  0.00     0.074 A 
ATOM     23  C   UNL A   1      45.449  28.099  25.822  1.00  0.00     0.031 C 
ATOM     24  C   UNL A   1      39.995  25.868  28.773  1.00  0.00     0.029 A 
ATOM     25  C   UNL A   1      40.532  27.165  29.150  1.00  0.00     0.049 A 
ATOM     26  H   UNL A   1      42.534  27.763  29.039  1.00  0.00     0.167 HD
ATOM     27  C   UNL A   1      46.343  29.459  27.774  1.00  0.00     0.031 A 
ATOM     28  C   UNL A   1      39.900  28.249  29.660  1.00  0.00     0.031 A 
ATOM     29  C   UNL A   1      46.560  29.282  29.183  1.00  0.00     0.049 A 
ATOM     30  C   UNL A   1      40.925  29.155  30.221  1.00  0.00     0.074 A 
ATOM     31  C   UNL A   1      47.290  28.398  29.949  1.00  0.00     0.029 A 
ATOM     32  N   UNL A   1      45.687  29.893  30.048  1.00  0.00    -0.354 N 
ATOM     33  N   UNL A   1      41.632  28.876  31.277  1.00  0.00    -0.248 NA
ATOM     34  C   UNL A   1      41.460  30.204  29.370  1.00  0.00     0.031 C 
ATOM     35  C   UNL A   1      46.482  28.159  31.099  1.00  0.00     0.029 A 
ATOM     36  C   UNL A   1      45.339  28.954  30.986  1.00  0.00     0.049 A 
ATOM     37  H   UNL A   1      45.371  30.824  30.005  1.00  0.00     0.167 HD
ATOM     38  C   UNL A   1      42.892  29.385  31.003  1.00  0.00     0.074 A 
ATOM     39  C   UNL A   1      42.697  30.283  29.867  1.00  0.00     0.031 C 
ATOM     40  C   UNL A   1      44.013  28.820  31.542  1.00  0.00     0.031 A 
BRANCH  27  41
ATOM     41  C   UNL A   1      46.480  30.803  27.105  1.00  0.00    -0.014 A 
ATOM     42  C   UNL A   1      47.733  31.443  27.091  1.00  0.00     0.009 A 
ATOM     43  C   UNL A   1      45.367  31.579  26.728  1.00  0.00     0.009 A 
ATOM     44  C   UNL A   1      47.853  32.800  26.764  1.00  0.00     0.001 A 
ATOM     45  C   UNL A   1      45.490  32.922  26.363  1.00  0.00     0.001 A 
ATOM     46  C   UNL A   1      46.731  33.541  26.405  1.00  0.00     0.000 A 
ENDBRANCH  27  41
BRANCH  28  47
ATOM     47  C   UNL A   1      38.504  28.690  29.453  1.00  0.00    -0.014 A 
ATOM     48  C   UNL A   1      37.671  28.989  30.543  1.00  0.00     0.009 A 
ATOM     49  C   UNL A   1      38.079  29.087  28.173  1.00  0.00     0.009 A 
ATOM     50  C   UNL A   1      36.474  29.695  30.359  1.00  0.00     0.001 A 
ATOM     51  C   UNL A   1      36.885  29.790  27.990  1.00  0.00     0.001 A 
ATOM     52  C   UNL A   1      36.089  30.107  29.086  1.00  0.00     0.000 A 
ENDBRANCH  28  47
BRANCH  40  53
ATOM     53  C   UNL A   1      43.826  27.763  32.605  1.00  0.00    -0.014 A 
ATOM     54  C   UNL A   1      43.967  26.387  32.347  1.00  0.00     0.009 A 
ATOM     55  C   UNL A   1      43.647  28.171  33.935  1.00  0.00     0.009 A 
ATOM     56  C   UNL A   1      43.892  25.449  33.382  1.00  0.00     0.001 A 
ATOM     57  C   UNL A   1      43.596  27.236  34.972  1.00  0.00     0.001 A 
ATOM     58  C   UNL A   1      43.711  25.875  34.695  1.00  0.00     0.000 A 
ENDBRANCH  40  53
ENDBRANCH  14  15
ENDBRANCH   7   9
ENDBRANCH   4   5
ENDBRANCH   3   4
ENDBRANCH   2   3
ENDBRANCH   1   2
BRANCH   1  59
ATOM     59  C   UNL A   1      38.876  21.471  25.923  1.00  0.00     0.021 C 
BRANCH  59  60
ATOM     60  C   UNL A   1      37.857  22.583  25.676  1.00  0.00     0.116 C 
BRANCH  60  61
ATOM     61  N   UNL A   1      37.488  22.648  24.275  1.00  0.00    -0.351 N 
ATOM     62  C   UNL A   1      36.348  23.124  23.689  1.00  0.00     0.283 C 
ATOM     63  H   UNL A   1      38.162  22.295  23.651  1.00  0.00     0.163 HD
ATOM     64  O   UNL A   1      36.296  23.046  22.457  1.00  0.00    -0.268 OA
BRANCH  62  65
ATOM     65  C   UNL A   1      35.225  23.755  24.572  1.00  0.00     0.308 C 
BRANCH  65  66
ATOM     66  N   UNL A   1      34.422  24.688  23.747  1.00  0.00    -0.317 N 
ATOM     67  C   UNL A   1      34.045  25.955  24.387  1.00  0.00     0.292 C 
ATOM     68  C   UNL A   1      33.296  24.113  22.992  1.00  0.00     0.292 C 
ATOM     69  H   UNL A   1      35.124  24.918  23.045  1.00  0.00     0.349 HD
ATOM     70  C   UNL A   1      32.645  25.983  25.026  1.00  0.00     0.221 C 
ATOM     71  C   UNL A   1      31.923  24.206  23.678  1.00  0.00     0.221 C 
ATOM     72  O   UNL A   1      31.646  25.547  24.098  1.00  0.00    -0.370 OA
ENDBRANCH  65  66
BRANCH  65  73
ATOM     73  C   UNL A   1      34.394  22.745  25.316  1.00  0.00     0.057 A 
ATOM     74  C   UNL A   1      33.729  22.881  26.560  1.00  0.00     0.145 A 
ATOM     75  C   UNL A   1      34.069  21.457  24.921  1.00  0.00     0.119 A 
ATOM     76  N   UNL A   1      33.085  21.773  26.932  1.00  0.00    -0.181 NA
ATOM     77  N   UNL A   1      33.351  20.899  25.943  1.00  0.00    -0.268 N 
BRANCH  77  78
ATOM     78  C   UNL A   1      32.801  19.549  25.996  1.00  0.00     0.179 C 
BRANCH  78  79
ATOM     79  C   UNL A   1      33.154  18.714  24.785  1.00  0.00    -0.027 A 
ATOM     80  C   UNL A   1      32.344  18.743  23.640  1.00  0.00     0.005 A 
ATOM     81  C   UNL A   1      34.249  17.834  24.808  1.00  0.00     0.005 A 
ATOM     82  C   UNL A   1      32.621  17.914  22.549  1.00  0.00     0.000 A 
ATOM     83  C   UNL A   1      34.526  17.009  23.716  1.00  0.00     0.000 A 
ATOM     84  C   UNL A   1      33.710  17.046  22.588  1.00  0.00     0.000 A 
ENDBRANCH  78  79
ENDBRANCH  77  78
ENDBRANCH  65  73
ENDBRANCH  62  65
ENDBRANCH  60  61
ENDBRANCH  59  60
ENDBRANCH   1  59
TORSDOF 17
ENDMDL
MODEL 3
REMARK VINA RESULT:     -11.0      2.628      8.037
REMARK SMILES O=C(NCCCCCCNC(=O)[C@H](c1cnn(Cc2ccccc2)c1)[NH+]1CCOCC1)c1ccc(-c2c3nc(c(-c4ccccc4)c4ccc([nH]4)c(-c4ccccc4)c4nc(c(-c5ccccc5)c5ccc2[nH]5)C=C4)C=C3)cc1
REMARK SMILES IDX 7 1 6 2 5 3 4 4 3 5 1 6 2 7 32 9 33 10 79 11 34 12 78 13
REMARK SMILES IDX 35 14 36 15 37 16 72 17 38 18 77 19 71 20 73 21 39 22 76 23
REMARK SMILES IDX 70 24 69 25 40 27 62 28 47 29 61 30 48 31 51 32 60 33 74 34
REMARK SMILES IDX 49 35 50 36 59 38 75 39 52 40 41 41 42 42 46 43 43 44 45 45
REMARK SMILES IDX 44 46 63 47 64 48 68 49 65 50 67 51 66 52 53 53 54 54 58 55
REMARK SMILES IDX 55 56 57 57 56 58 8 59 9 60 10 61 11 62 12 64 13 65 26 66
REMARK SMILES IDX 27 67 31 68 28 70 30 71 29 72 14 73 15 74 25 75 16 76 17 77
REMARK SMILES IDX 18 78 19 79 20 80 24 81 21 82 23 83 22 84
REMARK H PARENT 3 8 73 26 51 37 10 63 26 69
REMARK Flexibility Score: inf
ROOT
ATOM      1  C   UNL A   1      32.622  30.252  26.308  1.00  0.00     0.002 C 
ENDROOT
BRANCH   1   2
ATOM      2  C   UNL A   1      33.133  31.148  27.444  1.00  0.00     0.002 C 
BRANCH   2   3
ATOM      3  C   UNL A   1      34.660  31.247  27.567  1.00  0.00     0.021 C 
BRANCH   3   4
ATOM      4  C   UNL A   1      35.155  32.555  28.182  1.00  0.00     0.116 C 
BRANCH   4   5
ATOM      5  N   UNL A   1      34.983  32.625  29.619  1.00  0.00    -0.352 N 
ATOM      6  O   UNL A   1      35.232  32.450  31.808  1.00  0.00    -0.269 OA
ATOM      7  C   UNL A   1      35.638  32.097  30.694  1.00  0.00     0.251 C 
ATOM      8  H   UNL A   1      34.216  33.183  29.880  1.00  0.00     0.163 HD
BRANCH   7   9
ATOM      9  C   UNL A   1      36.746  31.105  30.629  1.00  0.00     0.039 A 
ATOM     10  C   UNL A   1      36.606  29.718  30.688  1.00  0.00     0.014 A 
ATOM     11  C   UNL A   1      38.040  31.641  30.487  1.00  0.00     0.014 A 
ATOM     12  C   UNL A   1      37.730  28.894  30.678  1.00  0.00     0.010 A 
ATOM     13  C   UNL A   1      39.164  30.823  30.458  1.00  0.00     0.010 A 
ATOM     14  C   UNL A   1      39.010  29.446  30.584  1.00  0.00    -0.014 A 
BRANCH  14  15
ATOM     15  C   UNL A   1      40.148  28.537  30.475  1.00  0.00     0.031 A 
ATOM     16  C   UNL A   1      40.907  28.305  31.741  1.00  0.00     0.074 A 
ATOM     17  C   UNL A   1      40.434  27.819  29.370  1.00  0.00     0.049 A 
ATOM     18  N   UNL A   1      42.166  28.499  31.970  1.00  0.00    -0.248 NA
ATOM     19  C   UNL A   1      40.145  27.860  32.919  1.00  0.00     0.031 C 
ATOM     20  C   UNL A   1      39.639  27.677  28.148  1.00  0.00     0.029 A 
ATOM     21  N   UNL A   1      41.476  26.965  29.162  1.00  0.00    -0.354 N 
ATOM     22  C   UNL A   1      42.394  28.077  33.280  1.00  0.00     0.074 A 
ATOM     23  C   UNL A   1      41.100  27.779  33.845  1.00  0.00     0.031 C 
ATOM     24  C   UNL A   1      40.109  26.628  27.432  1.00  0.00     0.029 A 
ATOM     25  C   UNL A   1      41.312  26.124  28.071  1.00  0.00     0.049 A 
ATOM     26  H   UNL A   1      42.276  26.947  29.736  1.00  0.00     0.167 HD
ATOM     27  C   UNL A   1      43.640  27.846  33.775  1.00  0.00     0.031 A 
ATOM     28  C   UNL A   1      42.082  25.057  27.748  1.00  0.00     0.031 A 
ATOM     29  C   UNL A   1      44.667  28.462  32.981  1.00  0.00     0.049 A 
ATOM     30  C   UNL A   1      43.375  25.195  28.452  1.00  0.00     0.074 A 
ATOM     31  C   UNL A   1      44.996  29.762  32.657  1.00  0.00     0.029 A 
ATOM     32  N   UNL A   1      45.347  27.672  32.089  1.00  0.00    -0.354 N 
ATOM     33  N   UNL A   1      44.254  26.112  28.169  1.00  0.00    -0.248 NA
ATOM     34  C   UNL A   1      43.523  24.566  29.753  1.00  0.00     0.031 C 
ATOM     35  C   UNL A   1      45.431  29.701  31.301  1.00  0.00     0.029 A 
ATOM     36  C   UNL A   1      45.392  28.362  30.904  1.00  0.00     0.049 A 
ATOM     37  H   UNL A   1      45.730  26.782  32.264  1.00  0.00     0.167 HD
ATOM     38  C   UNL A   1      44.783  26.483  29.396  1.00  0.00     0.074 A 
ATOM     39  C   UNL A   1      44.376  25.425  30.318  1.00  0.00     0.031 C 
ATOM     40  C   UNL A   1      45.262  27.745  29.604  1.00  0.00     0.031 A 
BRANCH  27  41
ATOM     41  C   UNL A   1      43.950  26.794  34.808  1.00  0.00    -0.014 A 
ATOM     42  C   UNL A   1      44.099  25.453  34.406  1.00  0.00     0.009 A 
ATOM     43  C   UNL A   1      43.834  27.031  36.191  1.00  0.00     0.009 A 
ATOM     44  C   UNL A   1      44.082  24.407  35.338  1.00  0.00     0.001 A 
ATOM     45  C   UNL A   1      43.855  25.993  37.126  1.00  0.00     0.001 A 
ATOM     46  C   UNL A   1      43.955  24.678  36.698  1.00  0.00     0.000 A 
ENDBRANCH  27  41
BRANCH  28  47
ATOM     47  C   UNL A   1      41.683  23.790  27.098  1.00  0.00    -0.014 A 
ATOM     48  C   UNL A   1      42.508  23.177  26.142  1.00  0.00     0.009 A 
ATOM     49  C   UNL A   1      40.620  23.038  27.628  1.00  0.00     0.009 A 
ATOM     50  C   UNL A   1      42.297  21.846  25.759  1.00  0.00     0.001 A 
ATOM     51  C   UNL A   1      40.408  21.710  27.245  1.00  0.00     0.001 A 
ATOM     52  C   UNL A   1      41.257  21.109  26.321  1.00  0.00     0.000 A 
ENDBRANCH  28  47
BRANCH  40  53
ATOM     53  C   UNL A   1      45.390  28.655  28.405  1.00  0.00    -0.014 A 
ATOM     54  C   UNL A   1      44.323  29.434  27.920  1.00  0.00     0.009 A 
ATOM     55  C   UNL A   1      46.658  28.846  27.838  1.00  0.00     0.009 A 
ATOM     56  C   UNL A   1      44.513  30.344  26.875  1.00  0.00     0.001 A 
ATOM     57  C   UNL A   1      46.853  29.772  26.811  1.00  0.00     0.001 A 
ATOM     58  C   UNL A   1      45.780  30.516  26.323  1.00  0.00     0.000 A 
ENDBRANCH  40  53
ENDBRANCH  14  15
ENDBRANCH   7   9
ENDBRANCH   4   5
ENDBRANCH   3   4
ENDBRANCH   2   3
ENDBRANCH   1   2
BRANCH   1  59
ATOM     59  C   UNL A   1      31.769  29.053  26.746  1.00  0.00     0.021 C 
BRANCH  59  60
ATOM     60  C   UNL A   1      32.561  27.780  27.045  1.00  0.00     0.116 C 
BRANCH  60  61
ATOM     61  N   UNL A   1      31.678  26.637  27.173  1.00  0.00    -0.351 N 
ATOM     62  C   UNL A   1      31.253  25.745  26.227  1.00  0.00     0.283 C 
ATOM     63  H   UNL A   1      31.332  26.478  28.081  1.00  0.00     0.163 HD
ATOM     64  O   UNL A   1      30.485  24.861  26.619  1.00  0.00    -0.268 OA
BRANCH  62  65
ATOM     65  C   UNL A   1      31.773  25.863  24.759  1.00  0.00     0.308 C 
BRANCH  65  66
ATOM     66  N   UNL A   1      31.964  24.505  24.198  1.00  0.00    -0.317 N 
ATOM     67  C   UNL A   1      33.164  23.785  24.642  1.00  0.00     0.292 C 
ATOM     68  C   UNL A   1      31.746  24.343  22.751  1.00  0.00     0.292 C 
ATOM     69  H   UNL A   1      31.170  24.042  24.640  1.00  0.00     0.349 HD
ATOM     70  C   UNL A   1      34.380  23.884  23.704  1.00  0.00     0.221 C 
ATOM     71  C   UNL A   1      33.011  24.422  21.879  1.00  0.00     0.221 C 
ATOM     72  O   UNL A   1      34.026  23.534  22.362  1.00  0.00    -0.370 OA
ENDBRANCH  65  66
BRANCH  65  73
ATOM     73  C   UNL A   1      30.939  26.761  23.886  1.00  0.00     0.057 A 
ATOM     74  C   UNL A   1      31.325  27.502  22.742  1.00  0.00     0.145 A 
ATOM     75  C   UNL A   1      29.584  27.032  23.998  1.00  0.00     0.119 A 
ATOM     76  N   UNL A   1      30.323  28.204  22.211  1.00  0.00    -0.181 NA
ATOM     77  N   UNL A   1      29.282  27.946  23.026  1.00  0.00    -0.268 N 
BRANCH  77  78
ATOM     78  C   UNL A   1      27.980  28.546  22.758  1.00  0.00     0.179 C 
BRANCH  78  79
ATOM     79  C   UNL A   1      28.056  30.028  22.462  1.00  0.00    -0.027 A 
ATOM     80  C   UNL A   1      28.028  30.491  21.138  1.00  0.00     0.005 A 
ATOM     81  C   UNL A   1      28.236  30.963  23.495  1.00  0.00     0.005 A 
ATOM     82  C   UNL A   1      28.178  31.852  20.856  1.00  0.00     0.000 A 
ATOM     83  C   UNL A   1      28.381  32.322  23.211  1.00  0.00     0.000 A 
ATOM     84  C   UNL A   1      28.356  32.766  21.892  1.00  0.00     0.000 A 
ENDBRANCH  78  79
ENDBRANCH  77  78
ENDBRANCH  65  73
ENDBRANCH  62  65
ENDBRANCH  60  61
ENDBRANCH  59  60
ENDBRANCH   1  59
TORSDOF 17
ENDMDL
