MODEL 1
REMARK VINA RESULT:     -10.1      0.000      0.000
REMARK SMILES CN(CC(=O)NCC(=O)NCCCCCCNC(=O)c1ccc(-c2c3nc(c(-c4ccccc4)c4ccc([nH]4)c(-c4ccccc4)c4nc(c(-c5ccccc5)c5ccc2[nH]5)C=C4)C=C3)cc1)c1ncccn1
REMARK SMILES IDX 12 1 11 2 10 3 8 4 9 5 7 7 6 8 4 9 5 10 3 12 2 13 1 14 68 15
REMARK SMILES IDX 69 16 73 17 70 18 72 19 71 20 13 21 14 22 15 23 16 24 17 25
REMARK SMILES IDX 18 26 19 28 20 29 21 30 67 31 22 32 66 33 23 34 24 35 25 36
REMARK SMILES IDX 60 37 26 38 65 39 59 40 61 41 27 42 64 43 58 44 57 45 28 47
REMARK SMILES IDX 50 48 35 49 49 50 36 51 39 52 48 53 62 54 37 55 38 56 47 58
REMARK SMILES IDX 63 59 40 60 29 61 30 62 34 63 31 64 33 65 32 66 51 67 52 68
REMARK SMILES IDX 56 69 53 70 55 71 54 72 41 73 42 74 46 75 43 76 45 77 44 78
REMARK H PARENT 10 6 6 11 17 27 61 46 39 57
REMARK Flexibility Score: inf
ROOT
ATOM      1  C   UNL A   1      35.179  22.149  25.567  1.00  0.00     0.021 C 
ENDROOT
BRANCH   1   2
ATOM      2  C   UNL A   1      34.430  21.431  26.684  1.00  0.00     0.116 C 
BRANCH   2   3
ATOM      3  N   UNL A   1      33.692  20.278  26.213  1.00  0.00    -0.355 N 
ATOM      4  C   UNL A   1      32.543  20.243  25.476  1.00  0.00     0.239 C 
ATOM      5  O   UNL A   1      32.200  19.159  24.995  1.00  0.00    -0.273 OA
ATOM      6  H   UNL A   1      34.069  19.402  26.456  1.00  0.00     0.163 HD
BRANCH   4   7
ATOM      7  C   UNL A   1      31.794  21.533  25.111  1.00  0.00     0.216 C 
BRANCH   7   8
ATOM      8  N   UNL A   1      30.772  21.939  26.060  1.00  0.00    -0.345 N 
ATOM      9  C   UNL A   1      30.705  23.070  26.828  1.00  0.00     0.240 C 
ATOM     10  O   UNL A   1      29.670  23.253  27.475  1.00  0.00    -0.273 OA
ATOM     11  H   UNL A   1      30.022  21.312  26.167  1.00  0.00     0.164 HD
BRANCH   9  12
ATOM     12  C   UNL A   1      31.848  24.101  26.802  1.00  0.00     0.219 C 
BRANCH  12  13
ATOM     13  N   UNL A   1      31.611  25.244  25.916  1.00  0.00    -0.335 N 
ATOM     14  C   UNL A   1      30.689  25.149  24.806  1.00  0.00     0.147 C 
BRANCH  13  15
ATOM     15  C   UNL A   1      32.000  26.505  26.321  1.00  0.00     0.225 A 
ATOM     16  N   UNL A   1      33.081  27.063  25.759  1.00  0.00    -0.221 NA
ATOM     17  N   UNL A   1      31.267  27.149  27.246  1.00  0.00    -0.221 NA
ATOM     18  C   UNL A   1      33.448  28.293  26.164  1.00  0.00     0.117 A 
ATOM     19  C   UNL A   1      31.681  28.367  27.646  1.00  0.00     0.117 A 
ATOM     20  C   UNL A   1      32.781  29.000  27.129  1.00  0.00     0.040 A 
ENDBRANCH  13  15
ENDBRANCH  12  13
ENDBRANCH   9  12
ENDBRANCH   7   8
ENDBRANCH   4   7
ENDBRANCH   2   3
ENDBRANCH   1   2
BRANCH   1  21
ATOM     21  C   UNL A   1      36.706  22.054  25.656  1.00  0.00     0.002 C 
BRANCH  21  22
ATOM     22  C   UNL A   1      37.410  21.368  24.476  1.00  0.00     0.002 C 
BRANCH  22  23
ATOM     23  C   UNL A   1      38.117  20.045  24.786  1.00  0.00     0.021 C 
BRANCH  23  24
ATOM     24  C   UNL A   1      38.959  20.027  26.061  1.00  0.00     0.116 C 
BRANCH  24  25
ATOM     25  N   UNL A   1      40.169  19.238  25.909  1.00  0.00    -0.352 N 
ATOM     26  C   UNL A   1      41.488  19.598  26.000  1.00  0.00     0.251 C 
ATOM     27  H   UNL A   1      40.016  18.287  25.708  1.00  0.00     0.163 HD
ATOM     28  O   UNL A   1      42.351  18.788  25.660  1.00  0.00    -0.269 OA
BRANCH  26  29
ATOM     29  C   UNL A   1      41.912  20.939  26.481  1.00  0.00     0.039 A 
ATOM     30  C   UNL A   1      41.856  21.190  27.859  1.00  0.00     0.014 A 
ATOM     31  C   UNL A   1      42.269  21.974  25.612  1.00  0.00     0.014 A 
ATOM     32  C   UNL A   1      42.185  22.453  28.362  1.00  0.00     0.010 A 
ATOM     33  C   UNL A   1      42.649  23.221  26.120  1.00  0.00     0.010 A 
ATOM     34  C   UNL A   1      42.601  23.479  27.500  1.00  0.00    -0.014 A 
BRANCH  34  35
ATOM     35  C   UNL A   1      42.966  24.819  28.033  1.00  0.00     0.031 A 
ATOM     36  C   UNL A   1      41.911  25.868  28.275  1.00  0.00     0.074 A 
ATOM     37  C   UNL A   1      44.257  25.114  28.286  1.00  0.00     0.049 A 
ATOM     38  N   UNL A   1      42.051  27.094  28.713  1.00  0.00    -0.248 NA
ATOM     39  C   UNL A   1      40.522  25.492  27.971  1.00  0.00     0.031 C 
ATOM     40  C   UNL A   1      45.388  24.207  28.092  1.00  0.00     0.029 A 
ATOM     41  N   UNL A   1      44.833  26.268  28.761  1.00  0.00    -0.354 N 
ATOM     42  C   UNL A   1      40.774  27.641  28.726  1.00  0.00     0.074 A 
ATOM     43  C   UNL A   1      39.878  26.624  28.215  1.00  0.00     0.031 C 
ATOM     44  C   UNL A   1      46.518  24.828  28.465  1.00  0.00     0.029 A 
ATOM     45  C   UNL A   1      46.199  26.187  28.892  1.00  0.00     0.049 A 
ATOM     46  H   UNL A   1      44.317  27.074  28.987  1.00  0.00     0.167 HD
ATOM     47  C   UNL A   1      40.375  28.870  29.136  1.00  0.00     0.031 A 
ATOM     48  C   UNL A   1      47.096  27.103  29.305  1.00  0.00     0.031 A 
ATOM     49  C   UNL A   1      41.251  29.886  29.656  1.00  0.00     0.049 A 
ATOM     50  C   UNL A   1      46.633  28.468  29.731  1.00  0.00     0.074 A 
ATOM     51  C   UNL A   1      40.923  31.142  30.141  1.00  0.00     0.029 A 
ATOM     52  N   UNL A   1      42.627  29.766  29.759  1.00  0.00    -0.354 N 
ATOM     53  N   UNL A   1      45.415  28.947  29.782  1.00  0.00    -0.248 NA
ATOM     54  C   UNL A   1      47.672  29.413  30.165  1.00  0.00     0.031 C 
ATOM     55  C   UNL A   1      42.107  31.798  30.496  1.00  0.00     0.029 A 
ATOM     56  C   UNL A   1      43.166  30.933  30.277  1.00  0.00     0.049 A 
ATOM     57  H   UNL A   1      43.147  28.970  29.502  1.00  0.00     0.167 HD
ATOM     58  C   UNL A   1      45.539  30.239  30.280  1.00  0.00     0.074 A 
ATOM     59  C   UNL A   1      46.948  30.463  30.524  1.00  0.00     0.031 C 
ATOM     60  C   UNL A   1      44.568  31.153  30.516  1.00  0.00     0.031 A 
BRANCH  47  61
ATOM     61  C   UNL A   1      38.911  29.192  29.027  1.00  0.00    -0.014 A 
ATOM     62  C   UNL A   1      38.354  29.634  27.817  1.00  0.00     0.009 A 
ATOM     63  C   UNL A   1      38.071  29.011  30.137  1.00  0.00     0.009 A 
ATOM     64  C   UNL A   1      36.990  29.923  27.732  1.00  0.00     0.001 A 
ATOM     65  C   UNL A   1      36.704  29.275  30.042  1.00  0.00     0.001 A 
ATOM     66  C   UNL A   1      36.166  29.740  28.842  1.00  0.00     0.000 A 
ENDBRANCH  47  61
BRANCH  48  67
ATOM     67  C   UNL A   1      48.539  26.754  29.351  1.00  0.00    -0.014 A 
ATOM     68  C   UNL A   1      49.091  26.165  30.498  1.00  0.00     0.009 A 
ATOM     69  C   UNL A   1      49.370  27.016  28.251  1.00  0.00     0.009 A 
ATOM     70  C   UNL A   1      50.455  25.865  30.551  1.00  0.00     0.001 A 
ATOM     71  C   UNL A   1      50.728  26.692  28.298  1.00  0.00     0.001 A 
ATOM     72  C   UNL A   1      51.270  26.124  29.451  1.00  0.00     0.000 A 
ENDBRANCH  48  67
BRANCH  60  73
ATOM     73  C   UNL A   1      44.990  32.472  31.098  1.00  0.00    -0.014 A 
ATOM     74  C   UNL A   1      45.306  33.564  30.277  1.00  0.00     0.009 A 
ATOM     75  C   UNL A   1      45.038  32.632  32.493  1.00  0.00     0.009 A 
ATOM     76  C   UNL A   1      45.692  34.783  30.839  1.00  0.00     0.001 A 
ATOM     77  C   UNL A   1      45.399  33.859  33.052  1.00  0.00     0.001 A 
ATOM     78  C   UNL A   1      45.734  34.931  32.225  1.00  0.00     0.000 A 
ENDBRANCH  60  73
ENDBRANCH  34  35
ENDBRANCH  26  29
ENDBRANCH  24  25
ENDBRANCH  23  24
ENDBRANCH  22  23
ENDBRANCH  21  22
ENDBRANCH   1  21
TORSDOF 17
ENDMDL
MODEL 2
REMARK VINA RESULT:      -9.9      2.073      7.454
REMARK SMILES CN(CC(=O)NCC(=O)NCCCCCCNC(=O)c1ccc(-c2c3nc(c(-c4ccccc4)c4ccc([nH]4)c(-c4ccccc4)c4nc(c(-c5ccccc5)c5ccc2[nH]5)C=C4)C=C3)cc1)c1ncccn1
REMARK SMILES IDX 12 1 11 2 10 3 8 4 9 5 7 7 6 8 4 9 5 10 3 12 2 13 1 14 68 15
REMARK SMILES IDX 69 16 73 17 70 18 72 19 71 20 13 21 14 22 15 23 16 24 17 25
REMARK SMILES IDX 18 26 19 28 20 29 21 30 67 31 22 32 66 33 23 34 24 35 25 36
REMARK SMILES IDX 60 37 26 38 65 39 59 40 61 41 27 42 64 43 58 44 57 45 28 47
REMARK SMILES IDX 50 48 35 49 49 50 36 51 39 52 48 53 62 54 37 55 38 56 47 58
REMARK SMILES IDX 63 59 40 60 29 61 30 62 34 63 31 64 33 65 32 66 51 67 52 68
REMARK SMILES IDX 56 69 53 70 55 71 54 72 41 73 42 74 46 75 43 76 45 77 44 78
REMARK H PARENT 10 6 6 11 17 27 61 46 39 57
REMARK Flexibility Score: inf
ROOT
ATOM      1  C   UNL A   1      30.657  27.041  25.277  1.00  0.00     0.021 C 
ENDROOT
BRANCH   1   2
ATOM      2  C   UNL A   1      29.912  25.713  25.185  1.00  0.00     0.116 C 
BRANCH   2   3
ATOM      3  N   UNL A   1      30.117  24.875  26.348  1.00  0.00    -0.355 N 
ATOM      4  C   UNL A   1      30.878  23.747  26.462  1.00  0.00     0.239 C 
ATOM      5  O   UNL A   1      31.090  23.308  27.596  1.00  0.00    -0.273 OA
ATOM      6  H   UNL A   1      29.645  25.156  27.164  1.00  0.00     0.163 HD
BRANCH   4   7
ATOM      7  C   UNL A   1      31.589  23.140  25.243  1.00  0.00     0.216 C 
BRANCH   7   8
ATOM      8  N   UNL A   1      31.475  21.697  25.122  1.00  0.00    -0.345 N 
ATOM      9  C   UNL A   1      32.459  20.764  24.931  1.00  0.00     0.240 C 
ATOM     10  O   UNL A   1      32.129  19.577  24.981  1.00  0.00    -0.273 OA
ATOM     11  H   UNL A   1      30.561  21.338  25.185  1.00  0.00     0.164 HD
BRANCH   9  12
ATOM     12  C   UNL A   1      33.924  21.201  24.750  1.00  0.00     0.219 C 
BRANCH  12  13
ATOM     13  N   UNL A   1      34.578  21.651  25.982  1.00  0.00    -0.335 N 
ATOM     14  C   UNL A   1      34.038  21.308  27.280  1.00  0.00     0.147 C 
BRANCH  13  15
ATOM     15  C   UNL A   1      35.877  22.113  25.929  1.00  0.00     0.225 A 
ATOM     16  N   UNL A   1      36.863  21.248  25.654  1.00  0.00    -0.221 NA
ATOM     17  N   UNL A   1      36.112  23.422  26.124  1.00  0.00    -0.221 NA
ATOM     18  C   UNL A   1      38.125  21.714  25.605  1.00  0.00     0.117 A 
ATOM     19  C   UNL A   1      37.392  23.846  26.095  1.00  0.00     0.117 A 
ATOM     20  C   UNL A   1      38.456  23.023  25.832  1.00  0.00     0.040 A 
ENDBRANCH  13  15
ENDBRANCH  12  13
ENDBRANCH   9  12
ENDBRANCH   7   8
ENDBRANCH   4   7
ENDBRANCH   2   3
ENDBRANCH   1   2
BRANCH   1  21
ATOM     21  C   UNL A   1      31.720  27.256  24.195  1.00  0.00     0.002 C 
BRANCH  21  22
ATOM     22  C   UNL A   1      32.882  28.189  24.565  1.00  0.00     0.002 C 
BRANCH  22  23
ATOM     23  C   UNL A   1      33.781  27.726  25.716  1.00  0.00     0.021 C 
BRANCH  23  24
ATOM     24  C   UNL A   1      33.431  28.282  27.095  1.00  0.00     0.116 C 
BRANCH  24  25
ATOM     25  N   UNL A   1      33.433  29.734  27.120  1.00  0.00    -0.352 N 
ATOM     26  C   UNL A   1      34.348  30.619  27.629  1.00  0.00     0.251 C 
ATOM     27  H   UNL A   1      32.646  30.152  26.701  1.00  0.00     0.163 HD
ATOM     28  O   UNL A   1      34.052  31.813  27.689  1.00  0.00    -0.269 OA
BRANCH  26  29
ATOM     29  C   UNL A   1      35.680  30.183  28.123  1.00  0.00     0.039 A 
ATOM     30  C   UNL A   1      36.741  30.148  27.209  1.00  0.00     0.014 A 
ATOM     31  C   UNL A   1      35.887  29.724  29.427  1.00  0.00     0.014 A 
ATOM     32  C   UNL A   1      38.002  29.688  27.605  1.00  0.00     0.010 A 
ATOM     33  C   UNL A   1      37.161  29.314  29.837  1.00  0.00     0.010 A 
ATOM     34  C   UNL A   1      38.230  29.282  28.928  1.00  0.00    -0.014 A 
BRANCH  34  35
ATOM     35  C   UNL A   1      39.574  28.807  29.357  1.00  0.00     0.031 A 
ATOM     36  C   UNL A   1      40.437  29.646  30.262  1.00  0.00     0.074 A 
ATOM     37  C   UNL A   1      40.041  27.621  28.917  1.00  0.00     0.049 A 
ATOM     38  N   UNL A   1      41.640  29.401  30.717  1.00  0.00    -0.248 NA
ATOM     39  C   UNL A   1      39.879  30.935  30.701  1.00  0.00     0.031 C 
ATOM     40  C   UNL A   1      39.325  26.705  28.029  1.00  0.00     0.029 A 
ATOM     41  N   UNL A   1      41.235  26.986  29.160  1.00  0.00    -0.354 N 
ATOM     42  C   UNL A   1      41.989  30.506  31.484  1.00  0.00     0.074 A 
ATOM     43  C   UNL A   1      40.886  31.439  31.401  1.00  0.00     0.031 C 
ATOM     44  C   UNL A   1      40.083  25.616  27.819  1.00  0.00     0.029 A 
ATOM     45  C   UNL A   1      41.350  25.771  28.528  1.00  0.00     0.049 A 
ATOM     46  H   UNL A   1      41.940  27.364  29.732  1.00  0.00     0.167 HD
ATOM     47  C   UNL A   1      43.117  30.724  32.204  1.00  0.00     0.031 A 
ATOM     48  C   UNL A   1      42.360  24.880  28.515  1.00  0.00     0.031 A 
ATOM     49  C   UNL A   1      44.217  29.801  32.306  1.00  0.00     0.049 A 
ATOM     50  C   UNL A   1      43.612  25.156  29.301  1.00  0.00     0.074 A 
ATOM     51  C   UNL A   1      45.377  29.922  33.053  1.00  0.00     0.029 A 
ATOM     52  N   UNL A   1      44.297  28.590  31.639  1.00  0.00    -0.354 N 
ATOM     53  N   UNL A   1      43.901  26.183  30.059  1.00  0.00    -0.248 NA
ATOM     54  C   UNL A   1      44.672  24.138  29.234  1.00  0.00     0.031 C 
ATOM     55  C   UNL A   1      46.179  28.802  32.805  1.00  0.00     0.029 A 
ATOM     56  C   UNL A   1      45.496  27.963  31.940  1.00  0.00     0.049 A 
ATOM     57  H   UNL A   1      43.605  28.227  31.041  1.00  0.00     0.167 HD
ATOM     58  C   UNL A   1      45.163  25.925  30.581  1.00  0.00     0.074 A 
ATOM     59  C   UNL A   1      45.578  24.639  30.061  1.00  0.00     0.031 C 
ATOM     60  C   UNL A   1      45.906  26.686  31.419  1.00  0.00     0.031 A 
BRANCH  47  61
ATOM     61  C   UNL A   1      43.225  32.030  32.939  1.00  0.00    -0.014 A 
ATOM     62  C   UNL A   1      42.768  32.160  34.260  1.00  0.00     0.009 A 
ATOM     63  C   UNL A   1      43.828  33.134  32.316  1.00  0.00     0.009 A 
ATOM     64  C   UNL A   1      42.881  33.380  34.930  1.00  0.00     0.001 A 
ATOM     65  C   UNL A   1      43.964  34.345  32.997  1.00  0.00     0.001 A 
ATOM     66  C   UNL A   1      43.482  34.469  34.300  1.00  0.00     0.000 A 
ENDBRANCH  47  61
BRANCH  48  67
ATOM     67  C   UNL A   1      42.227  23.623  27.735  1.00  0.00    -0.014 A 
ATOM     68  C   UNL A   1      42.682  23.558  26.410  1.00  0.00     0.009 A 
ATOM     69  C   UNL A   1      41.639  22.487  28.312  1.00  0.00     0.009 A 
ATOM     70  C   UNL A   1      42.529  22.384  25.669  1.00  0.00     0.001 A 
ATOM     71  C   UNL A   1      41.511  21.307  27.576  1.00  0.00     0.001 A 
ATOM     72  C   UNL A   1      41.949  21.260  26.253  1.00  0.00     0.000 A 
ENDBRANCH  48  67
BRANCH  60  73
ATOM     73  C   UNL A   1      47.233  26.135  31.856  1.00  0.00    -0.014 A 
ATOM     74  C   UNL A   1      48.392  26.328  31.088  1.00  0.00     0.009 A 
ATOM     75  C   UNL A   1      47.331  25.440  33.073  1.00  0.00     0.009 A 
ATOM     76  C   UNL A   1      49.617  25.811  31.515  1.00  0.00     0.001 A 
ATOM     77  C   UNL A   1      48.562  24.947  33.510  1.00  0.00     0.001 A 
ATOM     78  C   UNL A   1      49.702  25.125  32.726  1.00  0.00     0.000 A 
ENDBRANCH  60  73
ENDBRANCH  34  35
ENDBRANCH  26  29
ENDBRANCH  24  25
ENDBRANCH  23  24
ENDBRANCH  22  23
ENDBRANCH  21  22
ENDBRANCH   1  21
TORSDOF 17
ENDMDL
MODEL 3
REMARK VINA RESULT:      -9.8      3.469      8.855
REMARK SMILES CN(CC(=O)NCC(=O)NCCCCCCNC(=O)c1ccc(-c2c3nc(c(-c4ccccc4)c4ccc([nH]4)c(-c4ccccc4)c4nc(c(-c5ccccc5)c5ccc2[nH]5)C=C4)C=C3)cc1)c1ncccn1
REMARK SMILES IDX 12 1 11 2 10 3 8 4 9 5 7 7 6 8 4 9 5 10 3 12 2 13 1 14 68 15
REMARK SMILES IDX 69 16 73 17 70 18 72 19 71 20 13 21 14 22 15 23 16 24 17 25
REMARK SMILES IDX 18 26 19 28 20 29 21 30 67 31 22 32 66 33 23 34 24 35 25 36
REMARK SMILES IDX 60 37 26 38 65 39 59 40 61 41 27 42 64 43 58 44 57 45 28 47
REMARK SMILES IDX 50 48 35 49 49 50 36 51 39 52 48 53 62 54 37 55 38 56 47 58
REMARK SMILES IDX 63 59 40 60 29 61 30 62 34 63 31 64 33 65 32 66 51 67 52 68
REMARK SMILES IDX 56 69 53 70 55 71 54 72 41 73 42 74 46 75 43 76 45 77 44 78
REMARK H PARENT 10 6 6 11 17 27 61 46 39 57
REMARK Flexibility Score: inf
ROOT
ATOM      1  C   UNL A   1      32.117  28.322  26.946  1.00  0.00     0.021 C 
ENDROOT
BRANCH   1   2
ATOM      2  C   UNL A   1      31.523  27.335  25.947  1.00  0.00     0.116 C 
BRANCH   2   3
ATOM      3  N   UNL A   1      30.702  26.324  26.581  1.00  0.00    -0.355 N 
ATOM      4  C   UNL A   1      30.331  25.102  26.098  1.00  0.00     0.239 C 
ATOM      5  O   UNL A   1      29.811  24.306  26.885  1.00  0.00    -0.273 OA
ATOM      6  H   UNL A   1      30.367  26.548  27.478  1.00  0.00     0.163 HD
BRANCH   4   7
ATOM      7  C   UNL A   1      30.700  24.664  24.673  1.00  0.00     0.216 C 
BRANCH   7   8
ATOM      8  N   UNL A   1      31.230  23.315  24.563  1.00  0.00    -0.345 N 
ATOM      9  C   UNL A   1      32.108  22.803  23.647  1.00  0.00     0.240 C 
ATOM     10  O   UNL A   1      32.507  21.650  23.831  1.00  0.00    -0.273 OA
ATOM     11  H   UNL A   1      30.912  22.680  25.244  1.00  0.00     0.164 HD
BRANCH   9  12
ATOM     12  C   UNL A   1      32.630  23.676  22.491  1.00  0.00     0.219 C 
BRANCH  12  13
ATOM     13  N   UNL A   1      33.722  24.580  22.861  1.00  0.00    -0.335 N 
ATOM     14  C   UNL A   1      33.533  26.014  22.868  1.00  0.00     0.147 C 
BRANCH  13  15
ATOM     15  C   UNL A   1      34.823  24.074  23.522  1.00  0.00     0.225 A 
ATOM     16  N   UNL A   1      35.039  24.434  24.795  1.00  0.00    -0.221 NA
ATOM     17  N   UNL A   1      35.631  23.213  22.879  1.00  0.00    -0.221 NA
ATOM     18  C   UNL A   1      36.117  23.932  25.426  1.00  0.00     0.117 A 
ATOM     19  C   UNL A   1      36.716  22.754  23.534  1.00  0.00     0.117 A 
ATOM     20  C   UNL A   1      37.011  23.082  24.831  1.00  0.00     0.040 A 
ENDBRANCH  13  15
ENDBRANCH  12  13
ENDBRANCH   9  12
ENDBRANCH   7   8
ENDBRANCH   4   7
ENDBRANCH   2   3
ENDBRANCH   1   2
BRANCH   1  21
ATOM     21  C   UNL A   1      32.531  29.670  26.345  1.00  0.00     0.002 C 
BRANCH  21  22
ATOM     22  C   UNL A   1      31.388  30.574  25.862  1.00  0.00     0.002 C 
BRANCH  22  23
ATOM     23  C   UNL A   1      31.314  31.967  26.494  1.00  0.00     0.021 C 
BRANCH  23  24
ATOM     24  C   UNL A   1      32.636  32.530  27.014  1.00  0.00     0.116 C 
BRANCH  24  25
ATOM     25  N   UNL A   1      32.472  33.829  27.640  1.00  0.00    -0.352 N 
ATOM     26  C   UNL A   1      33.184  34.435  28.644  1.00  0.00     0.251 C 
ATOM     27  H   UNL A   1      31.726  34.365  27.286  1.00  0.00     0.163 HD
ATOM     28  O   UNL A   1      32.751  35.479  29.134  1.00  0.00    -0.269 OA
BRANCH  26  29
ATOM     29  C   UNL A   1      34.453  33.867  29.168  1.00  0.00     0.039 A 
ATOM     30  C   UNL A   1      35.641  34.180  28.494  1.00  0.00     0.014 A 
ATOM     31  C   UNL A   1      34.491  32.968  30.238  1.00  0.00     0.014 A 
ATOM     32  C   UNL A   1      36.857  33.624  28.907  1.00  0.00     0.010 A 
ATOM     33  C   UNL A   1      35.714  32.455  30.684  1.00  0.00     0.010 A 
ATOM     34  C   UNL A   1      36.910  32.768  30.017  1.00  0.00    -0.014 A 
BRANCH  34  35
ATOM     35  C   UNL A   1      38.203  32.188  30.468  1.00  0.00     0.031 A 
ATOM     36  C   UNL A   1      38.708  30.888  29.897  1.00  0.00     0.074 A 
ATOM     37  C   UNL A   1      38.929  32.815  31.415  1.00  0.00     0.049 A 
ATOM     38  N   UNL A   1      39.799  30.225  30.189  1.00  0.00    -0.248 NA
ATOM     39  C   UNL A   1      37.868  30.244  28.875  1.00  0.00     0.031 C 
ATOM     40  C   UNL A   1      38.565  34.073  32.068  1.00  0.00     0.029 A 
ATOM     41  N   UNL A   1      40.128  32.474  31.994  1.00  0.00    -0.354 N 
ATOM     42  C   UNL A   1      39.773  29.083  29.400  1.00  0.00     0.074 A 
ATOM     43  C   UNL A   1      38.538  29.124  28.644  1.00  0.00     0.031 C 
ATOM     44  C   UNL A   1      39.528  34.410  32.940  1.00  0.00     0.029 A 
ATOM     45  C   UNL A   1      40.561  33.378  32.935  1.00  0.00     0.049 A 
ATOM     46  H   UNL A   1      40.628  31.661  31.758  1.00  0.00     0.167 HD
ATOM     47  C   UNL A   1      40.695  28.094  29.297  1.00  0.00     0.031 A 
ATOM     48  C   UNL A   1      41.663  33.378  33.710  1.00  0.00     0.031 A 
ATOM     49  C   UNL A   1      41.931  28.045  30.033  1.00  0.00     0.049 A 
ATOM     50  C   UNL A   1      42.658  32.257  33.597  1.00  0.00     0.074 A 
ATOM     51  C   UNL A   1      42.944  27.104  29.954  1.00  0.00     0.029 A 
ATOM     52  N   UNL A   1      42.323  28.973  30.983  1.00  0.00    -0.354 N 
ATOM     53  N   UNL A   1      42.638  31.212  32.809  1.00  0.00    -0.248 NA
ATOM     54  C   UNL A   1      43.833  32.325  34.480  1.00  0.00     0.031 C 
ATOM     55  C   UNL A   1      43.930  27.440  30.888  1.00  0.00     0.029 A 
ATOM     56  C   UNL A   1      43.552  28.615  31.514  1.00  0.00     0.049 A 
ATOM     57  H   UNL A   1      41.805  29.770  31.243  1.00  0.00     0.167 HD
ATOM     58  C   UNL A   1      43.809  30.513  33.079  1.00  0.00     0.074 A 
ATOM     59  C   UNL A   1      44.519  31.259  34.096  1.00  0.00     0.031 C 
ATOM     60  C   UNL A   1      44.253  29.359  32.527  1.00  0.00     0.031 A 
BRANCH  47  61
ATOM     61  C   UNL A   1      40.392  26.964  28.355  1.00  0.00    -0.014 A 
ATOM     62  C   UNL A   1      39.568  25.895  28.743  1.00  0.00     0.009 A 
ATOM     63  C   UNL A   1      40.903  26.988  27.048  1.00  0.00     0.009 A 
ATOM     64  C   UNL A   1      39.292  24.856  27.852  1.00  0.00     0.001 A 
ATOM     65  C   UNL A   1      40.605  25.961  26.151  1.00  0.00     0.001 A 
ATOM     66  C   UNL A   1      39.807  24.892  26.556  1.00  0.00     0.000 A 
ENDBRANCH  47  61
BRANCH  48  67
ATOM     67  C   UNL A   1      41.896  34.493  34.662  1.00  0.00    -0.014 A 
ATOM     68  C   UNL A   1      41.464  34.393  35.993  1.00  0.00     0.009 A 
ATOM     69  C   UNL A   1      42.545  35.664  34.242  1.00  0.00     0.009 A 
ATOM     70  C   UNL A   1      41.657  35.455  36.880  1.00  0.00     0.001 A 
ATOM     71  C   UNL A   1      42.759  36.714  35.138  1.00  0.00     0.001 A 
ATOM     72  C   UNL A   1      42.308  36.611  36.453  1.00  0.00     0.000 A 
ENDBRANCH  48  67
BRANCH  60  73
ATOM     73  C   UNL A   1      45.587  28.844  32.988  1.00  0.00    -0.014 A 
ATOM     74  C   UNL A   1      45.692  27.942  34.058  1.00  0.00     0.009 A 
ATOM     75  C   UNL A   1      46.755  29.243  32.318  1.00  0.00     0.009 A 
ATOM     76  C   UNL A   1      46.942  27.472  34.466  1.00  0.00     0.001 A 
ATOM     77  C   UNL A   1      48.001  28.752  32.712  1.00  0.00     0.001 A 
ATOM     78  C   UNL A   1      48.094  27.874  33.791  1.00  0.00     0.000 A 
ENDBRANCH  60  73
ENDBRANCH  34  35
ENDBRANCH  26  29
ENDBRANCH  24  25
ENDBRANCH  23  24
ENDBRANCH  22  23
ENDBRANCH  21  22
ENDBRANCH   1  21
TORSDOF 17
ENDMDL
