MODEL 1
REMARK VINA RESULT:     -12.6      0.000      0.000
REMARK SMILES O=C(NCCCCCCNC(=O)[C@@H]1CCC[N@@H+]1CC(=O)N1CCSc2ccccc21)c1ccc(-c2c3nc(c(-c4ccccc4)c4ccc([nH]4)c(-c4ccccc4)c4nc(c(-c5ccccc5)c5ccc2[nH]5)C=C4)C=C3)cc1
REMARK SMILES IDX 7 1 6 2 5 3 4 4 3 5 1 6 2 7 31 9 32 10 78 11 33 12 77 13
REMARK SMILES IDX 34 14 35 15 36 16 71 17 37 18 76 19 70 20 72 21 38 22 75 23
REMARK SMILES IDX 69 24 68 25 39 27 61 28 46 29 60 30 47 31 50 32 59 33 73 34
REMARK SMILES IDX 48 35 49 36 58 38 74 39 51 40 40 41 41 42 45 43 42 44 44 45
REMARK SMILES IDX 43 46 62 47 63 48 67 49 64 50 66 51 65 52 52 53 53 54 57 55
REMARK SMILES IDX 54 56 56 57 55 58 8 59 9 60 10 61 11 62 12 64 13 65 14 66
REMARK SMILES IDX 17 67 15 68 16 69 18 71 19 72 20 73 21 74 22 75 30 76 23 77
REMARK SMILES IDX 25 78 29 79 24 80 26 81 28 82 27 83
REMARK H PARENT 3 8 72 26 50 37 10 63 17 70
REMARK Flexibility Score: inf
ROOT
ATOM      1  C   UNL A   1      36.159  23.592  25.403  1.00  0.00     0.002 C 
ENDROOT
BRANCH   1   2
ATOM      2  C   UNL A   1      37.056  22.410  24.466  1.00  0.00     0.002 C 
BRANCH   2   3
ATOM      3  C   UNL A   1      38.024  20.493  24.929  1.00  0.00     0.021 C 
BRANCH   3   4
ATOM      4  C   UNL A   1      39.194  19.984  26.171  1.00  0.00     0.116 C 
BRANCH   4   5
ATOM      5  N   UNL A   1      40.448  19.236  25.861  1.00  0.00    -0.352 N 
ATOM      6  O   UNL A   1      42.646  18.817  25.553  1.00  0.00    -0.269 OA
ATOM      7  C   UNL A   1      41.758  19.584  25.896  1.00  0.00     0.251 C 
ATOM      8  H   UNL A   1      40.293  18.307  25.576  1.00  0.00     0.163 HD
BRANCH   7   9
ATOM      9  C   UNL A   1      42.042  20.888  26.436  1.00  0.00     0.039 A 
ATOM     10  C   UNL A   1      42.233  21.028  27.800  1.00  0.00     0.014 A 
ATOM     11  C   UNL A   1      42.278  21.902  25.507  1.00  0.00     0.014 A 
ATOM     12  C   UNL A   1      42.700  22.244  28.244  1.00  0.00     0.010 A 
ATOM     13  C   UNL A   1      42.917  23.031  25.932  1.00  0.00     0.010 A 
ATOM     14  C   UNL A   1      43.057  23.233  27.305  1.00  0.00    -0.014 A 
BRANCH  14  15
ATOM     15  C   UNL A   1      43.468  24.557  27.769  1.00  0.00     0.031 A 
ATOM     16  C   UNL A   1      44.914  24.925  27.670  1.00  0.00     0.074 A 
ATOM     17  C   UNL A   1      42.522  25.395  28.213  1.00  0.00     0.049 A 
ATOM     18  N   UNL A   1      45.477  26.074  27.919  1.00  0.00    -0.248 NA
ATOM     19  C   UNL A   1      45.865  23.869  27.266  1.00  0.00     0.031 C 
ATOM     20  C   UNL A   1      41.103  25.063  28.371  1.00  0.00     0.029 A 
ATOM     21  N   UNL A   1      42.603  26.713  28.557  1.00  0.00    -0.354 N 
ATOM     22  C   UNL A   1      46.830  25.871  27.694  1.00  0.00     0.074 A 
ATOM     23  C   UNL A   1      47.030  24.474  27.415  1.00  0.00     0.031 C 
ATOM     24  C   UNL A   1      40.431  26.177  28.690  1.00  0.00     0.029 A 
ATOM     25  C   UNL A   1      41.381  27.278  28.814  1.00  0.00     0.049 A 
ATOM     26  H   UNL A   1      43.453  27.207  28.615  1.00  0.00     0.167 HD
ATOM     27  C   UNL A   1      47.811  26.795  27.655  1.00  0.00     0.031 A 
ATOM     28  C   UNL A   1      41.070  28.554  29.098  1.00  0.00     0.031 A 
ATOM     29  C   UNL A   1      47.569  28.184  27.916  1.00  0.00     0.049 A 
ATOM     30  C   UNL A   1      42.185  29.561  29.084  1.00  0.00     0.074 A 
ATOM     31  C   UNL A   1      48.472  29.226  27.905  1.00  0.00     0.029 A 
ATOM     32  N   UNL A   1      46.326  28.719  28.228  1.00  0.00    -0.354 N 
ATOM     33  N   UNL A   1      43.457  29.378  28.817  1.00  0.00    -0.248 NA
ATOM     34  C   UNL A   1      41.823  30.947  29.390  1.00  0.00     0.031 C 
ATOM     35  C   UNL A   1      47.791  30.380  28.294  1.00  0.00     0.029 A 
ATOM     36  C   UNL A   1      46.443  30.078  28.448  1.00  0.00     0.049 A 
ATOM     37  H   UNL A   1      45.486  28.207  28.283  1.00  0.00     0.167 HD
ATOM     38  C   UNL A   1      44.053  30.628  28.912  1.00  0.00     0.074 A 
ATOM     39  C   UNL A   1      42.987  31.563  29.223  1.00  0.00     0.031 C 
ATOM     40  C   UNL A   1      45.358  30.973  28.770  1.00  0.00     0.031 A 
BRANCH  27  41
ATOM     41  C   UNL A   1      49.196  26.331  27.307  1.00  0.00    -0.014 A 
ATOM     42  C   UNL A   1      50.070  25.918  28.321  1.00  0.00     0.009 A 
ATOM     43  C   UNL A   1      49.656  26.340  25.978  1.00  0.00     0.009 A 
ATOM     44  C   UNL A   1      51.382  25.549  28.019  1.00  0.00     0.001 A 
ATOM     45  C   UNL A   1      50.954  25.928  25.672  1.00  0.00     0.001 A 
ATOM     46  C   UNL A   1      51.820  25.548  26.696  1.00  0.00     0.000 A 
ENDBRANCH  27  41
BRANCH  28  47
ATOM     47  C   UNL A   1      39.650  28.908  29.349  1.00  0.00    -0.014 A 
ATOM     48  C   UNL A   1      39.104  28.758  30.636  1.00  0.00     0.009 A 
ATOM     49  C   UNL A   1      38.801  29.278  28.297  1.00  0.00     0.009 A 
ATOM     50  C   UNL A   1      37.735  28.925  30.855  1.00  0.00     0.001 A 
ATOM     51  C   UNL A   1      37.437  29.485  28.527  1.00  0.00     0.001 A 
ATOM     52  C   UNL A   1      36.904  29.290  29.800  1.00  0.00     0.000 A 
ENDBRANCH  28  47
BRANCH  40  53
ATOM     53  C   UNL A   1      45.715  32.422  28.965  1.00  0.00    -0.014 A 
ATOM     54  C   UNL A   1      46.037  32.895  30.248  1.00  0.00     0.009 A 
ATOM     55  C   UNL A   1      45.623  33.337  27.906  1.00  0.00     0.009 A 
ATOM     56  C   UNL A   1      46.238  34.256  30.470  1.00  0.00     0.001 A 
ATOM     57  C   UNL A   1      45.875  34.693  28.122  1.00  0.00     0.001 A 
ATOM     58  C   UNL A   1      46.168  35.152  29.405  1.00  0.00     0.000 A 
ENDBRANCH  40  53
ENDBRANCH  14  15
ENDBRANCH   7   9
ENDBRANCH   4   5
ENDBRANCH   3   4
ENDBRANCH   2   3
ENDBRANCH   1   2
BRANCH   1  59
ATOM     59  C   UNL A   1      35.137  23.069  26.425  1.00  0.00     0.021 C 
BRANCH  59  60
ATOM     60  C   UNL A   1      34.090  22.111  25.847  1.00  0.00     0.116 C 
BRANCH  60  61
ATOM     61  N   UNL A   1      32.948  22.718  25.165  1.00  0.00    -0.351 N 
ATOM     62  C   UNL A   1      32.875  22.627  23.778  1.00  0.00     0.278 C 
ATOM     63  H   UNL A   1      32.247  23.181  25.677  1.00  0.00     0.163 HD
ATOM     64  O   UNL A   1      32.596  21.539  23.268  1.00  0.00    -0.268 OA
BRANCH  62  65
ATOM     65  C   UNL A   1      32.982  23.918  22.908  1.00  0.00     0.274 C 
ATOM     66  C   UNL A   1      33.767  25.155  23.373  1.00  0.00     0.081 C 
ATOM     67  N   UNL A   1      31.747  24.508  22.379  1.00  0.00    -0.317 N 
ATOM     68  C   UNL A   1      33.282  26.294  22.473  1.00  0.00     0.068 C 
ATOM     69  C   UNL A   1      32.174  25.686  21.634  1.00  0.00     0.263 C 
ATOM     70  H   UNL A   1      31.304  23.791  21.803  1.00  0.00     0.349 HD
BRANCH  67  71
ATOM     71  C   UNL A   1      30.564  24.691  23.227  1.00  0.00     0.364 C 
BRANCH  71  72
ATOM     72  C   UNL A   1      30.553  25.272  24.671  1.00  0.00     0.282 C 
ATOM     73  O   UNL A   1      30.565  24.487  25.627  1.00  0.00    -0.268 OA
BRANCH  72  74
ATOM     74  N   UNL A   1      30.780  26.647  24.881  1.00  0.00    -0.306 N 
ATOM     75  C   UNL A   1      31.835  27.078  25.808  1.00  0.00     0.137 C 
ATOM     76  C   UNL A   1      30.164  27.656  24.049  1.00  0.00     0.057 A 
ATOM     77  C   UNL A   1      31.967  28.513  26.339  1.00  0.00     0.097 C 
ATOM     78  C   UNL A   1      30.732  29.357  24.246  1.00  0.00     0.031 A 
ATOM     79  C   UNL A   1      28.522  27.346  23.389  1.00  0.00     0.027 A 
ATOM     80  S   UNL A   1      32.289  29.680  25.023  1.00  0.00    -0.122 SA
ATOM     81  C   UNL A   1      29.660  30.751  23.923  1.00  0.00     0.017 A 
ATOM     82  C   UNL A   1      27.411  28.742  23.051  1.00  0.00     0.002 A 
ATOM     83  C   UNL A   1      27.984  30.455  23.359  1.00  0.00     0.001 A 
ENDBRANCH  72  74
ENDBRANCH  71  72
ENDBRANCH  67  71
ENDBRANCH  62  65
ENDBRANCH  60  61
ENDBRANCH  59  60
ENDBRANCH   1  59
TORSDOF 16
ENDMDL
MODEL 2
REMARK VINA RESULT:     -12.4      5.932     10.524
REMARK SMILES O=C(NCCCCCCNC(=O)[C@@H]1CCC[N@@H+]1CC(=O)N1CCSc2ccccc21)c1ccc(-c2c3nc(c(-c4ccccc4)c4ccc([nH]4)c(-c4ccccc4)c4nc(c(-c5ccccc5)c5ccc2[nH]5)C=C4)C=C3)cc1
REMARK SMILES IDX 7 1 6 2 5 3 4 4 3 5 1 6 2 7 31 9 32 10 78 11 33 12 77 13
REMARK SMILES IDX 34 14 35 15 36 16 71 17 37 18 76 19 70 20 72 21 38 22 75 23
REMARK SMILES IDX 69 24 68 25 39 27 61 28 46 29 60 30 47 31 50 32 59 33 73 34
REMARK SMILES IDX 48 35 49 36 58 38 74 39 51 40 40 41 41 42 45 43 42 44 44 45
REMARK SMILES IDX 43 46 62 47 63 48 67 49 64 50 66 51 65 52 52 53 53 54 57 55
REMARK SMILES IDX 54 56 56 57 55 58 8 59 9 60 10 61 11 62 12 64 13 65 14 66
REMARK SMILES IDX 17 67 15 68 16 69 18 71 19 72 20 73 21 74 22 75 30 76 23 77
REMARK SMILES IDX 25 78 29 79 24 80 26 81 28 82 27 83
REMARK H PARENT 3 8 72 26 50 37 10 63 17 70
REMARK Flexibility Score: inf
ROOT
ATOM      1  C   UNL A   1      35.599  30.603  27.885  1.00  0.00     0.002 C 
ENDROOT
BRANCH   1   2
ATOM      2  C   UNL A   1      35.341  32.333  28.034  1.00  0.00     0.002 C 
BRANCH   2   3
ATOM      3  C   UNL A   1      33.945  33.587  29.175  1.00  0.00     0.021 C 
BRANCH   3   4
ATOM      4  C   UNL A   1      33.778  35.346  29.389  1.00  0.00     0.116 C 
BRANCH   4   5
ATOM      5  N   UNL A   1      32.883  35.969  30.409  1.00  0.00    -0.352 N 
ATOM      6  O   UNL A   1      31.954  36.434  32.415  1.00  0.00    -0.269 OA
ATOM      7  C   UNL A   1      32.810  35.859  31.758  1.00  0.00     0.251 C 
ATOM      8  H   UNL A   1      32.215  36.582  30.025  1.00  0.00     0.163 HD
BRANCH   7   9
ATOM      9  C   UNL A   1      33.852  35.081  32.377  1.00  0.00     0.039 A 
ATOM     10  C   UNL A   1      33.558  33.816  32.856  1.00  0.00     0.014 A 
ATOM     11  C   UNL A   1      35.143  35.602  32.291  1.00  0.00     0.014 A 
ATOM     12  C   UNL A   1      34.619  33.035  33.252  1.00  0.00     0.010 A 
ATOM     13  C   UNL A   1      36.196  34.758  32.504  1.00  0.00     0.010 A 
ATOM     14  C   UNL A   1      35.934  33.504  33.057  1.00  0.00    -0.014 A 
BRANCH  14  15
ATOM     15  C   UNL A   1      37.063  32.721  33.555  1.00  0.00     0.031 A 
ATOM     16  C   UNL A   1      37.685  31.712  32.642  1.00  0.00     0.074 A 
ATOM     17  C   UNL A   1      37.520  32.981  34.788  1.00  0.00     0.049 A 
ATOM     18  N   UNL A   1      38.753  30.992  32.838  1.00  0.00    -0.248 NA
ATOM     19  C   UNL A   1      37.014  31.449  31.352  1.00  0.00     0.031 C 
ATOM     20  C   UNL A   1      36.916  33.925  35.733  1.00  0.00     0.029 A 
ATOM     21  N   UNL A   1      38.628  32.517  35.433  1.00  0.00    -0.354 N 
ATOM     22  C   UNL A   1      38.876  30.210  31.699  1.00  0.00     0.074 A 
ATOM     23  C   UNL A   1      37.720  30.440  30.875  1.00  0.00     0.031 C 
ATOM     24  C   UNL A   1      37.717  34.041  36.800  1.00  0.00     0.029 A 
ATOM     25  C   UNL A   1      38.851  33.137  36.635  1.00  0.00     0.049 A 
ATOM     26  H   UNL A   1      39.209  31.808  35.072  1.00  0.00     0.167 HD
ATOM     27  C   UNL A   1      39.909  29.420  31.345  1.00  0.00     0.031 A 
ATOM     28  C   UNL A   1      39.875  32.999  37.493  1.00  0.00     0.031 A 
ATOM     29  C   UNL A   1      41.058  29.234  32.183  1.00  0.00     0.049 A 
ATOM     30  C   UNL A   1      40.999  32.086  37.094  1.00  0.00     0.074 A 
ATOM     31  C   UNL A   1      42.176  28.465  31.943  1.00  0.00     0.029 A 
ATOM     32  N   UNL A   1      41.229  29.836  33.423  1.00  0.00    -0.354 N 
ATOM     33  N   UNL A   1      41.141  31.387  35.991  1.00  0.00    -0.248 NA
ATOM     34  C   UNL A   1      42.108  31.954  38.041  1.00  0.00     0.031 C 
ATOM     35  C   UNL A   1      42.988  28.533  33.076  1.00  0.00     0.029 A 
ATOM     36  C   UNL A   1      42.425  29.426  33.980  1.00  0.00     0.049 A 
ATOM     37  H   UNL A   1      40.594  30.461  33.843  1.00  0.00     0.167 HD
ATOM     38  C   UNL A   1      42.362  30.737  36.103  1.00  0.00     0.074 A 
ATOM     39  C   UNL A   1      42.934  31.162  37.369  1.00  0.00     0.031 C 
ATOM     40  C   UNL A   1      42.953  29.861  35.251  1.00  0.00     0.031 A 
BRANCH  27  41
ATOM     41  C   UNL A   1      39.840  28.734  30.011  1.00  0.00    -0.014 A 
ATOM     42  C   UNL A   1      39.286  27.450  29.914  1.00  0.00     0.009 A 
ATOM     43  C   UNL A   1      40.359  29.337  28.852  1.00  0.00     0.009 A 
ATOM     44  C   UNL A   1      39.277  26.773  28.694  1.00  0.00     0.001 A 
ATOM     45  C   UNL A   1      40.308  28.676  27.623  1.00  0.00     0.001 A 
ATOM     46  C   UNL A   1      39.781  27.388  27.550  1.00  0.00     0.000 A 
ENDBRANCH  27  41
BRANCH  28  47
ATOM     47  C   UNL A   1      39.871  33.791  38.749  1.00  0.00    -0.014 A 
ATOM     48  C   UNL A   1      39.247  33.283  39.901  1.00  0.00     0.009 A 
ATOM     49  C   UNL A   1      40.377  35.099  38.780  1.00  0.00     0.009 A 
ATOM     50  C   UNL A   1      39.086  34.078  41.038  1.00  0.00     0.001 A 
ATOM     51  C   UNL A   1      40.251  35.879  39.933  1.00  0.00     0.001 A 
ATOM     52  C   UNL A   1      39.591  35.375  41.052  1.00  0.00     0.000 A 
ENDBRANCH  28  47
BRANCH  40  53
ATOM     53  C   UNL A   1      44.282  29.287  35.661  1.00  0.00    -0.014 A 
ATOM     54  C   UNL A   1      45.469  29.925  35.265  1.00  0.00     0.009 A 
ATOM     55  C   UNL A   1      44.362  28.062  36.339  1.00  0.00     0.009 A 
ATOM     56  C   UNL A   1      46.707  29.336  35.519  1.00  0.00     0.001 A 
ATOM     57  C   UNL A   1      45.604  27.501  36.637  1.00  0.00     0.001 A 
ATOM     58  C   UNL A   1      46.774  28.131  36.215  1.00  0.00     0.000 A 
ENDBRANCH  40  53
ENDBRANCH  14  15
ENDBRANCH   7   9
ENDBRANCH   4   5
ENDBRANCH   3   4
ENDBRANCH   2   3
ENDBRANCH   1   2
BRANCH   1  59
ATOM     59  C   UNL A   1      34.684  29.823  26.928  1.00  0.00     0.021 C 
BRANCH  59  60
ATOM     60  C   UNL A   1      33.630  28.953  27.620  1.00  0.00     0.116 C 
BRANCH  60  61
ATOM     61  N   UNL A   1      32.263  29.043  27.107  1.00  0.00    -0.351 N 
ATOM     62  C   UNL A   1      31.737  27.952  26.420  1.00  0.00     0.278 C 
ATOM     63  H   UNL A   1      31.727  29.856  27.245  1.00  0.00     0.163 HD
ATOM     64  O   UNL A   1      31.428  26.942  27.057  1.00  0.00    -0.268 OA
BRANCH  62  65
ATOM     65  C   UNL A   1      31.396  28.081  24.902  1.00  0.00     0.274 C 
ATOM     66  C   UNL A   1      30.278  27.258  24.242  1.00  0.00     0.081 C 
ATOM     67  N   UNL A   1      32.489  27.968  23.930  1.00  0.00    -0.317 N 
ATOM     68  C   UNL A   1      30.549  27.357  22.738  1.00  0.00     0.068 C 
ATOM     69  C   UNL A   1      31.856  28.118  22.625  1.00  0.00     0.263 C 
ATOM     70  H   UNL A   1      33.157  28.706  24.154  1.00  0.00     0.349 HD
BRANCH  67  71
ATOM     71  C   UNL A   1      33.491  26.901  24.028  1.00  0.00     0.364 C 
BRANCH  71  72
ATOM     72  C   UNL A   1      33.457  25.540  23.274  1.00  0.00     0.282 C 
ATOM     73  O   UNL A   1      33.862  25.498  22.106  1.00  0.00    -0.268 OA
BRANCH  72  74
ATOM     74  N   UNL A   1      33.212  24.346  23.982  1.00  0.00    -0.306 N 
ATOM     75  C   UNL A   1      31.940  24.170  24.696  1.00  0.00     0.137 C 
ATOM     76  C   UNL A   1      34.071  23.192  23.847  1.00  0.00     0.057 A 
ATOM     77  C   UNL A   1      31.693  23.064  25.732  1.00  0.00     0.097 C 
ATOM     78  C   UNL A   1      33.513  21.647  24.592  1.00  0.00     0.031 A 
ATOM     79  C   UNL A   1      35.827  23.451  23.567  1.00  0.00     0.027 A 
ATOM     80  S   UNL A   1      31.803  21.435  25.002  1.00  0.00    -0.122 SA
ATOM     81  C   UNL A   1      34.666  20.414  25.181  1.00  0.00     0.017 A 
ATOM     82  C   UNL A   1      37.022  22.216  24.153  1.00  0.00     0.002 A 
ATOM     83  C   UNL A   1      36.426  20.704  25.000  1.00  0.00     0.001 A 
ENDBRANCH  72  74
ENDBRANCH  71  72
ENDBRANCH  67  71
ENDBRANCH  62  65
ENDBRANCH  60  61
ENDBRANCH  59  60
ENDBRANCH   1  59
TORSDOF 16
ENDMDL
MODEL 3
REMARK VINA RESULT:     -12.3      0.578      5.920
REMARK SMILES O=C(NCCCCCCNC(=O)[C@@H]1CCC[N@@H+]1CC(=O)N1CCSc2ccccc21)c1ccc(-c2c3nc(c(-c4ccccc4)c4ccc([nH]4)c(-c4ccccc4)c4nc(c(-c5ccccc5)c5ccc2[nH]5)C=C4)C=C3)cc1
REMARK SMILES IDX 7 1 6 2 5 3 4 4 3 5 1 6 2 7 31 9 32 10 78 11 33 12 77 13
REMARK SMILES IDX 34 14 35 15 36 16 71 17 37 18 76 19 70 20 72 21 38 22 75 23
REMARK SMILES IDX 69 24 68 25 39 27 61 28 46 29 60 30 47 31 50 32 59 33 73 34
REMARK SMILES IDX 48 35 49 36 58 38 74 39 51 40 40 41 41 42 45 43 42 44 44 45
REMARK SMILES IDX 43 46 62 47 63 48 67 49 64 50 66 51 65 52 52 53 53 54 57 55
REMARK SMILES IDX 54 56 56 57 55 58 8 59 9 60 10 61 11 62 12 64 13 65 14 66
REMARK SMILES IDX 17 67 15 68 16 69 18 71 19 72 20 73 21 74 22 75 30 76 23 77
REMARK SMILES IDX 25 78 29 79 24 80 26 81 28 82 27 83
REMARK H PARENT 3 8 72 26 50 37 10 63 17 70
REMARK Flexibility Score: inf
ROOT
ATOM      1  C   UNL A   1      35.666  23.128  25.888  1.00  0.00     0.002 C 
ENDROOT
BRANCH   1   2
ATOM      2  C   UNL A   1      36.518  22.058  24.788  1.00  0.00     0.002 C 
BRANCH   2   3
ATOM      3  C   UNL A   1      38.185  20.643  25.000  1.00  0.00     0.021 C 
BRANCH   3   4
ATOM      4  C   UNL A   1      39.448  20.421  26.234  1.00  0.00     0.116 C 
BRANCH   4   5
ATOM      5  N   UNL A   1      40.528  19.396  26.129  1.00  0.00    -0.352 N 
ATOM      6  O   UNL A   1      42.595  18.504  25.941  1.00  0.00    -0.269 OA
ATOM      7  C   UNL A   1      41.880  19.486  26.074  1.00  0.00     0.251 C 
ATOM      8  H   UNL A   1      40.192  18.470  26.094  1.00  0.00     0.163 HD
BRANCH   7   9
ATOM      9  C   UNL A   1      42.423  20.806  26.259  1.00  0.00     0.039 A 
ATOM     10  C   UNL A   1      42.685  21.592  25.149  1.00  0.00     0.014 A 
ATOM     11  C   UNL A   1      42.487  21.268  27.574  1.00  0.00     0.014 A 
ATOM     12  C   UNL A   1      43.009  22.910  25.378  1.00  0.00     0.010 A 
ATOM     13  C   UNL A   1      42.621  22.612  27.781  1.00  0.00     0.010 A 
ATOM     14  C   UNL A   1      42.957  23.417  26.692  1.00  0.00    -0.014 A 
BRANCH  14  15
ATOM     15  C   UNL A   1      43.386  24.789  26.956  1.00  0.00     0.031 A 
ATOM     16  C   UNL A   1      42.355  25.784  27.386  1.00  0.00     0.074 A 
ATOM     17  C   UNL A   1      44.691  25.077  26.850  1.00  0.00     0.049 A 
ATOM     18  N   UNL A   1      42.529  27.016  27.773  1.00  0.00    -0.248 NA
ATOM     19  C   UNL A   1      40.940  25.362  27.355  1.00  0.00     0.031 C 
ATOM     20  C   UNL A   1      45.728  24.149  26.389  1.00  0.00     0.029 A 
ATOM     21  N   UNL A   1      45.371  26.213  27.177  1.00  0.00    -0.354 N 
ATOM     22  C   UNL A   1      41.256  27.497  28.033  1.00  0.00     0.074 A 
ATOM     23  C   UNL A   1      40.310  26.485  27.646  1.00  0.00     0.031 C 
ATOM     24  C   UNL A   1      46.926  24.724  26.554  1.00  0.00     0.029 A 
ATOM     25  C   UNL A   1      46.731  26.074  27.073  1.00  0.00     0.049 A 
ATOM     26  H   UNL A   1      44.931  27.048  27.458  1.00  0.00     0.167 HD
ATOM     27  C   UNL A   1      40.915  28.664  28.616  1.00  0.00     0.031 A 
ATOM     28  C   UNL A   1      47.707  26.942  27.388  1.00  0.00     0.031 A 
ATOM     29  C   UNL A   1      41.888  29.639  29.013  1.00  0.00     0.049 A 
ATOM     30  C   UNL A   1      47.302  28.251  28.004  1.00  0.00     0.074 A 
ATOM     31  C   UNL A   1      41.679  30.860  29.616  1.00  0.00     0.029 A 
ATOM     32  N   UNL A   1      43.259  29.492  28.844  1.00  0.00    -0.354 N 
ATOM     33  N   UNL A   1      46.099  28.684  28.301  1.00  0.00    -0.248 NA
ATOM     34  C   UNL A   1      48.381  29.180  28.344  1.00  0.00     0.031 C 
ATOM     35  C   UNL A   1      42.918  31.491  29.738  1.00  0.00     0.029 A 
ATOM     36  C   UNL A   1      43.910  30.620  29.304  1.00  0.00     0.049 A 
ATOM     37  H   UNL A   1      43.701  28.702  28.457  1.00  0.00     0.167 HD
ATOM     38  C   UNL A   1      46.272  29.936  28.874  1.00  0.00     0.074 A 
ATOM     39  C   UNL A   1      47.705  30.168  28.916  1.00  0.00     0.031 C 
ATOM     40  C   UNL A   1      45.340  30.819  29.314  1.00  0.00     0.031 A 
BRANCH  27  41
ATOM     41  C   UNL A   1      39.456  28.921  28.867  1.00  0.00    -0.014 A 
ATOM     42  C   UNL A   1      38.673  29.523  27.873  1.00  0.00     0.009 A 
ATOM     43  C   UNL A   1      38.861  28.608  30.102  1.00  0.00     0.009 A 
ATOM     44  C   UNL A   1      37.333  29.830  28.115  1.00  0.00     0.001 A 
ATOM     45  C   UNL A   1      37.509  28.875  30.327  1.00  0.00     0.001 A 
ATOM     46  C   UNL A   1      36.752  29.500  29.338  1.00  0.00     0.000 A 
ENDBRANCH  27  41
BRANCH  28  47
ATOM     47  C   UNL A   1      49.120  26.544  27.167  1.00  0.00    -0.014 A 
ATOM     48  C   UNL A   1      49.696  26.666  25.890  1.00  0.00     0.009 A 
ATOM     49  C   UNL A   1      49.866  25.932  28.185  1.00  0.00     0.009 A 
ATOM     50  C   UNL A   1      50.963  26.144  25.625  1.00  0.00     0.001 A 
ATOM     51  C   UNL A   1      51.151  25.446  27.927  1.00  0.00     0.001 A 
ATOM     52  C   UNL A   1      51.690  25.536  26.644  1.00  0.00     0.000 A 
ENDBRANCH  28  47
BRANCH  40  53
ATOM     53  C   UNL A   1      45.834  32.129  29.866  1.00  0.00    -0.014 A 
ATOM     54  C   UNL A   1      46.188  32.225  31.223  1.00  0.00     0.009 A 
ATOM     55  C   UNL A   1      45.843  33.289  29.078  1.00  0.00     0.009 A 
ATOM     56  C   UNL A   1      46.518  33.459  31.782  1.00  0.00     0.001 A 
ATOM     57  C   UNL A   1      46.222  34.513  29.628  1.00  0.00     0.001 A 
ATOM     58  C   UNL A   1      46.546  34.600  30.982  1.00  0.00     0.000 A 
ENDBRANCH  40  53
ENDBRANCH  14  15
ENDBRANCH   7   9
ENDBRANCH   4   5
ENDBRANCH   3   4
ENDBRANCH   2   3
ENDBRANCH   1   2
BRANCH   1  59
ATOM     59  C   UNL A   1      34.560  22.520  26.765  1.00  0.00     0.021 C 
BRANCH  59  60
ATOM     60  C   UNL A   1      33.537  21.672  26.004  1.00  0.00     0.116 C 
BRANCH  60  61
ATOM     61  N   UNL A   1      32.501  22.395  25.268  1.00  0.00    -0.351 N 
ATOM     62  C   UNL A   1      32.516  22.347  23.876  1.00  0.00     0.278 C 
ATOM     63  H   UNL A   1      31.808  22.905  25.746  1.00  0.00     0.163 HD
ATOM     64  O   UNL A   1      32.179  21.301  23.315  1.00  0.00    -0.268 OA
BRANCH  62  65
ATOM     65  C   UNL A   1      32.793  23.646  23.057  1.00  0.00     0.274 C 
ATOM     66  C   UNL A   1      33.689  24.775  23.593  1.00  0.00     0.081 C 
ATOM     67  N   UNL A   1      31.650  24.383  22.508  1.00  0.00    -0.317 N 
ATOM     68  C   UNL A   1      33.363  25.988  22.718  1.00  0.00     0.068 C 
ATOM     69  C   UNL A   1      32.229  25.531  21.821  1.00  0.00     0.263 C 
ATOM     70  H   UNL A   1      31.154  23.737  21.892  1.00  0.00     0.349 HD
BRANCH  67  71
ATOM     71  C   UNL A   1      30.462  24.666  23.321  1.00  0.00     0.364 C 
BRANCH  71  72
ATOM     72  C   UNL A   1      30.456  25.281  24.751  1.00  0.00     0.282 C 
ATOM     73  O   UNL A   1      30.449  24.519  25.725  1.00  0.00    -0.268 OA
BRANCH  72  74
ATOM     74  N   UNL A   1      30.708  26.656  24.930  1.00  0.00    -0.306 N 
ATOM     75  C   UNL A   1      31.772  27.089  25.848  1.00  0.00     0.137 C 
ATOM     76  C   UNL A   1      30.112  27.657  24.075  1.00  0.00     0.057 A 
ATOM     77  C   UNL A   1      31.929  28.532  26.346  1.00  0.00     0.097 C 
ATOM     78  C   UNL A   1      30.712  29.351  24.232  1.00  0.00     0.031 A 
ATOM     79  C   UNL A   1      28.465  27.363  23.420  1.00  0.00     0.027 A 
ATOM     80  S   UNL A   1      32.275  29.663  25.004  1.00  0.00    -0.122 SA
ATOM     81  C   UNL A   1      29.667  30.757  23.877  1.00  0.00     0.017 A 
ATOM     82  C   UNL A   1      27.381  28.771  23.048  1.00  0.00     0.002 A 
ATOM     83  C   UNL A   1      27.986  30.480  23.318  1.00  0.00     0.001 A 
ENDBRANCH  72  74
ENDBRANCH  71  72
ENDBRANCH  67  71
ENDBRANCH  62  65
ENDBRANCH  60  61
ENDBRANCH  59  60
ENDBRANCH   1  59
TORSDOF 16
ENDMDL
