MODEL 1
REMARK VINA RESULT:     -12.4      0.000      0.000
REMARK SMILES O=C(Cn1c(-c2nc(-c3ccc(C(F)(F)F)cc3)no2)cc2ccccc21)NCCCCCCNC(=O)c1ccc(-c2c3nc(c(-c4ccccc4)c4ccc([nH]4)c(-c4ccccc4)c4nc(c(-c5ccccc5)c5ccc2[nH]5)C=C4)C=C3)cc1
REMARK SMILES IDX 30 1 29 2 28 3 1 4 2 5 3 7 4 8 5 9 27 10 21 11 22 12 26 13
REMARK SMILES IDX 23 14 25 15 24 16 6 17 7 18 20 19 8 20 19 21 9 22 10 23
REMARK SMILES IDX 18 24 11 25 17 26 12 27 13 28 14 29 15 30 16 31 31 32 32 33
REMARK SMILES IDX 33 34 34 35 35 36 36 37 37 39 38 40 39 41 85 42 40 43 84 44
REMARK SMILES IDX 41 45 42 46 43 47 78 48 44 49 83 50 77 51 79 52 45 53 82 54
REMARK SMILES IDX 76 55 75 56 46 58 68 59 53 60 67 61 54 62 57 63 66 64 80 65
REMARK SMILES IDX 55 66 56 67 65 69 81 70 58 71 47 72 48 73 52 74 49 75 51 76
REMARK SMILES IDX 50 77 69 78 70 79 74 80 71 81 73 82 72 83 59 84 60 85 64 86
REMARK SMILES IDX 61 87 63 88 62 89
REMARK H PARENT 28 6 35 38 79 57 57 68
REMARK Flexibility Score: inf
ROOT
ATOM      1  C   UNL A   1      39.087  22.190  26.011  1.00  0.00     0.021 C 
ENDROOT
BRANCH   1   2
ATOM      2  C   UNL A   1      37.921  23.169  25.968  1.00  0.00     0.116 C 
BRANCH   2   3
ATOM      3  N   UNL A   1      36.653  22.535  26.265  1.00  0.00    -0.355 N 
ATOM      4  O   UNL A   1      36.283  21.776  24.131  1.00  0.00    -0.273 OA
ATOM      5  C   UNL A   1      35.966  21.809  25.308  1.00  0.00     0.239 C 
ATOM      6  H   UNL A   1      36.273  22.620  27.169  1.00  0.00     0.163 HD
BRANCH   5   7
ATOM      7  C   UNL A   1      34.719  21.128  25.815  1.00  0.00     0.222 C 
BRANCH   7   8
ATOM      8  N   UNL A   1      33.759  20.618  24.831  1.00  0.00    -0.327 N 
ATOM      9  C   UNL A   1      32.763  21.270  24.131  1.00  0.00     0.109 A 
ATOM     10  C   UNL A   1      33.805  19.279  24.420  1.00  0.00     0.049 A 
ATOM     11  C   UNL A   1      32.139  20.334  23.326  1.00  0.00     0.042 A 
ATOM     12  C   UNL A   1      32.801  19.097  23.470  1.00  0.00     0.000 A 
ATOM     13  C   UNL A   1      34.658  18.220  24.789  1.00  0.00     0.027 A 
ATOM     14  C   UNL A   1      32.648  17.842  22.850  1.00  0.00     0.010 A 
ATOM     15  C   UNL A   1      34.492  16.983  24.155  1.00  0.00     0.002 A 
ATOM     16  C   UNL A   1      33.504  16.795  23.194  1.00  0.00     0.001 A 
BRANCH   9  17
ATOM     17  C   UNL A   1      32.503  22.674  24.042  1.00  0.00     0.274 A 
ATOM     18  N   UNL A   1      32.832  23.620  24.900  1.00  0.00    -0.185 NA
ATOM     19  O   UNL A   1      31.767  23.155  22.993  1.00  0.00    -0.332 OA
ATOM     20  C   UNL A   1      32.253  24.750  24.342  1.00  0.00     0.202 A 
ATOM     21  N   UNL A   1      31.613  24.509  23.186  1.00  0.00    -0.057 NA
BRANCH  20  22
ATOM     22  C   UNL A   1      32.313  26.104  24.900  1.00  0.00     0.023 A 
ATOM     23  C   UNL A   1      33.299  26.405  25.858  1.00  0.00     0.013 A 
ATOM     24  C   UNL A   1      31.423  27.116  24.526  1.00  0.00     0.013 A 
ATOM     25  C   UNL A   1      33.391  27.672  26.436  1.00  0.00     0.014 A 
ATOM     26  C   UNL A   1      31.516  28.395  25.106  1.00  0.00     0.014 A 
ATOM     27  C   UNL A   1      32.498  28.683  26.069  1.00  0.00     0.056 A 
BRANCH  27  28
ATOM     28  C   UNL A   1      32.610  30.035  26.731  1.00  0.00     0.416 C 
ATOM     29  F   UNL A   1      32.896  29.936  28.060  1.00  0.00    -0.166 F 
ATOM     30  F   UNL A   1      33.607  30.796  26.196  1.00  0.00    -0.166 F 
ATOM     31  F   UNL A   1      31.479  30.787  26.647  1.00  0.00    -0.166 F 
ENDBRANCH  27  28
ENDBRANCH  20  22
ENDBRANCH   9  17
ENDBRANCH   7   8
ENDBRANCH   5   7
ENDBRANCH   2   3
ENDBRANCH   1   2
BRANCH   1  32
ATOM     32  C   UNL A   1      40.066  22.405  27.171  1.00  0.00     0.002 C 
BRANCH  32  33
ATOM     33  C   UNL A   1      40.942  21.204  27.539  1.00  0.00     0.002 C 
BRANCH  33  34
ATOM     34  C   UNL A   1      41.098  20.128  26.456  1.00  0.00     0.021 C 
BRANCH  34  35
ATOM     35  C   UNL A   1      42.458  19.427  26.436  1.00  0.00     0.116 C 
BRANCH  35  36
ATOM     36  N   UNL A   1      43.267  19.752  25.281  1.00  0.00    -0.352 N 
ATOM     37  C   UNL A   1      43.989  20.834  24.873  1.00  0.00     0.251 C 
ATOM     38  H   UNL A   1      43.305  19.012  24.632  1.00  0.00     0.163 HD
ATOM     39  O   UNL A   1      44.661  20.682  23.849  1.00  0.00    -0.269 OA
BRANCH  37  40
ATOM     40  C   UNL A   1      43.972  22.172  25.519  1.00  0.00     0.039 A 
ATOM     41  C   UNL A   1      44.724  22.556  26.631  1.00  0.00     0.014 A 
ATOM     42  C   UNL A   1      43.060  23.096  24.974  1.00  0.00     0.014 A 
ATOM     43  C   UNL A   1      44.496  23.782  27.246  1.00  0.00     0.010 A 
ATOM     44  C   UNL A   1      42.839  24.327  25.574  1.00  0.00     0.010 A 
ATOM     45  C   UNL A   1      43.519  24.642  26.746  1.00  0.00    -0.014 A 
BRANCH  45  46
ATOM     46  C   UNL A   1      43.281  25.899  27.448  1.00  0.00     0.031 A 
ATOM     47  C   UNL A   1      44.256  26.994  27.165  1.00  0.00     0.074 A 
ATOM     48  C   UNL A   1      42.182  26.106  28.201  1.00  0.00     0.049 A 
ATOM     49  N   UNL A   1      44.943  27.702  28.002  1.00  0.00    -0.248 NA
ATOM     50  C   UNL A   1      44.547  27.287  25.752  1.00  0.00     0.031 C 
ATOM     51  C   UNL A   1      41.006  25.239  28.330  1.00  0.00     0.029 A 
ATOM     52  N   UNL A   1      41.828  27.211  28.915  1.00  0.00    -0.354 N 
ATOM     53  C   UNL A   1      45.648  28.631  27.236  1.00  0.00     0.074 A 
ATOM     54  C   UNL A   1      45.450  28.259  25.858  1.00  0.00     0.031 C 
ATOM     55  C   UNL A   1      39.984  25.952  28.857  1.00  0.00     0.029 A 
ATOM     56  C   UNL A   1      40.479  27.262  29.238  1.00  0.00     0.049 A 
ATOM     57  H   UNL A   1      42.471  27.910  29.177  1.00  0.00     0.167 HD
ATOM     58  C   UNL A   1      46.208  29.751  27.772  1.00  0.00     0.031 A 
ATOM     59  C   UNL A   1      39.801  28.336  29.709  1.00  0.00     0.031 A 
ATOM     60  C   UNL A   1      46.410  29.631  29.188  1.00  0.00     0.049 A 
ATOM     61  C   UNL A   1      40.786  29.290  30.260  1.00  0.00     0.074 A 
ATOM     62  C   UNL A   1      47.179  28.813  29.990  1.00  0.00     0.029 A 
ATOM     63  N   UNL A   1      45.494  30.221  30.022  1.00  0.00    -0.354 N 
ATOM     64  N   UNL A   1      41.506  29.061  31.320  1.00  0.00    -0.248 NA
ATOM     65  C   UNL A   1      41.268  30.353  29.394  1.00  0.00     0.031 C 
ATOM     66  C   UNL A   1      46.382  28.582  31.147  1.00  0.00     0.029 A 
ATOM     67  C   UNL A   1      45.202  29.316  31.008  1.00  0.00     0.049 A 
ATOM     68  H   UNL A   1      45.117  31.126  29.929  1.00  0.00     0.167 HD
ATOM     69  C   UNL A   1      42.736  29.634  31.041  1.00  0.00     0.074 A 
ATOM     70  C   UNL A   1      42.494  30.509  29.897  1.00  0.00     0.031 C 
ATOM     71  C   UNL A   1      43.887  29.137  31.584  1.00  0.00     0.031 A 
BRANCH  58  72
ATOM     72  C   UNL A   1      46.261  31.079  27.054  1.00  0.00    -0.014 A 
ATOM     73  C   UNL A   1      45.110  31.789  26.659  1.00  0.00     0.009 A 
ATOM     74  C   UNL A   1      47.479  31.781  26.997  1.00  0.00     0.009 A 
ATOM     75  C   UNL A   1      45.161  33.124  26.248  1.00  0.00     0.001 A 
ATOM     76  C   UNL A   1      47.529  33.132  26.626  1.00  0.00     0.001 A 
ATOM     77  C   UNL A   1      46.369  33.804  26.256  1.00  0.00     0.000 A 
ENDBRANCH  58  72
BRANCH  59  78
ATOM     78  C   UNL A   1      38.425  28.755  29.363  1.00  0.00    -0.014 A 
ATOM     79  C   UNL A   1      38.119  29.140  28.043  1.00  0.00     0.009 A 
ATOM     80  C   UNL A   1      37.497  29.064  30.368  1.00  0.00     0.009 A 
ATOM     81  C   UNL A   1      36.952  29.848  27.746  1.00  0.00     0.001 A 
ATOM     82  C   UNL A   1      36.327  29.775  30.070  1.00  0.00     0.001 A 
ATOM     83  C   UNL A   1      36.064  30.182  28.763  1.00  0.00     0.000 A 
ENDBRANCH  59  78
BRANCH  71  84
ATOM     84  C   UNL A   1      43.775  28.094  32.676  1.00  0.00    -0.014 A 
ATOM     85  C   UNL A   1      43.832  28.517  34.012  1.00  0.00     0.009 A 
ATOM     86  C   UNL A   1      43.809  26.711  32.417  1.00  0.00     0.009 A 
ATOM     87  C   UNL A   1      43.935  27.594  35.056  1.00  0.00     0.001 A 
ATOM     88  C   UNL A   1      43.885  25.786  33.465  1.00  0.00     0.001 A 
ATOM     89  C   UNL A   1      43.960  26.229  34.782  1.00  0.00     0.000 A 
ENDBRANCH  71  84
ENDBRANCH  45  46
ENDBRANCH  37  40
ENDBRANCH  35  36
ENDBRANCH  34  35
ENDBRANCH  33  34
ENDBRANCH  32  33
ENDBRANCH   1  32
TORSDOF 17
ENDMDL
MODEL 2
REMARK VINA RESULT:     -12.3      3.445      5.891
REMARK SMILES O=C(Cn1c(-c2nc(-c3ccc(C(F)(F)F)cc3)no2)cc2ccccc21)NCCCCCCNC(=O)c1ccc(-c2c3nc(c(-c4ccccc4)c4ccc([nH]4)c(-c4ccccc4)c4nc(c(-c5ccccc5)c5ccc2[nH]5)C=C4)C=C3)cc1
REMARK SMILES IDX 30 1 29 2 28 3 1 4 2 5 3 7 4 8 5 9 27 10 21 11 22 12 26 13
REMARK SMILES IDX 23 14 25 15 24 16 6 17 7 18 20 19 8 20 19 21 9 22 10 23
REMARK SMILES IDX 18 24 11 25 17 26 12 27 13 28 14 29 15 30 16 31 31 32 32 33
REMARK SMILES IDX 33 34 34 35 35 36 36 37 37 39 38 40 39 41 85 42 40 43 84 44
REMARK SMILES IDX 41 45 42 46 43 47 78 48 44 49 83 50 77 51 79 52 45 53 82 54
REMARK SMILES IDX 76 55 75 56 46 58 68 59 53 60 67 61 54 62 57 63 66 64 80 65
REMARK SMILES IDX 55 66 56 67 65 69 81 70 58 71 47 72 48 73 52 74 49 75 51 76
REMARK SMILES IDX 50 77 69 78 70 79 74 80 71 81 73 82 72 83 59 84 60 85 64 86
REMARK SMILES IDX 61 87 63 88 62 89
REMARK H PARENT 28 6 35 38 79 57 57 68
REMARK Flexibility Score: inf
ROOT
ATOM      1  C   UNL A   1      35.220  23.184  23.365  1.00  0.00     0.021 C 
ENDROOT
BRANCH   1   2
ATOM      2  C   UNL A   1      34.874  24.553  23.934  1.00  0.00     0.116 C 
BRANCH   2   3
ATOM      3  N   UNL A   1      33.809  25.205  23.200  1.00  0.00    -0.355 N 
ATOM      4  O   UNL A   1      33.737  27.073  24.533  1.00  0.00    -0.273 OA
ATOM      5  C   UNL A   1      33.376  26.478  23.531  1.00  0.00     0.239 C 
ATOM      6  H   UNL A   1      33.384  24.733  22.448  1.00  0.00     0.163 HD
BRANCH   5   7
ATOM      7  C   UNL A   1      32.336  27.047  22.599  1.00  0.00     0.222 C 
BRANCH   7   8
ATOM      8  N   UNL A   1      30.926  26.945  22.989  1.00  0.00    -0.327 N 
ATOM      9  C   UNL A   1      30.237  25.912  23.595  1.00  0.00     0.109 A 
ATOM     10  C   UNL A   1      30.060  28.032  22.815  1.00  0.00     0.049 A 
ATOM     11  C   UNL A   1      28.924  26.322  23.747  1.00  0.00     0.042 A 
ATOM     12  C   UNL A   1      28.807  27.653  23.297  1.00  0.00     0.000 A 
ATOM     13  C   UNL A   1      30.277  29.323  22.294  1.00  0.00     0.027 A 
ATOM     14  C   UNL A   1      27.746  28.579  23.285  1.00  0.00     0.010 A 
ATOM     15  C   UNL A   1      29.210  30.229  22.298  1.00  0.00     0.002 A 
ATOM     16  C   UNL A   1      27.961  29.866  22.791  1.00  0.00     0.001 A 
BRANCH   9  17
ATOM     17  C   UNL A   1      30.753  24.710  24.174  1.00  0.00     0.274 A 
ATOM     18  N   UNL A   1      31.347  23.702  23.566  1.00  0.00    -0.185 NA
ATOM     19  O   UNL A   1      30.582  24.484  25.513  1.00  0.00    -0.332 OA
ATOM     20  C   UNL A   1      31.545  22.799  24.600  1.00  0.00     0.202 A 
ATOM     21  N   UNL A   1      31.107  23.242  25.789  1.00  0.00    -0.057 NA
BRANCH  20  22
ATOM     22  C   UNL A   1      32.178  21.484  24.474  1.00  0.00     0.023 A 
ATOM     23  C   UNL A   1      32.853  20.941  25.583  1.00  0.00     0.013 A 
ATOM     24  C   UNL A   1      32.149  20.741  23.288  1.00  0.00     0.013 A 
ATOM     25  C   UNL A   1      33.490  19.700  25.514  1.00  0.00     0.014 A 
ATOM     26  C   UNL A   1      32.788  19.490  23.217  1.00  0.00     0.014 A 
ATOM     27  C   UNL A   1      33.468  18.960  24.328  1.00  0.00     0.056 A 
BRANCH  27  28
ATOM     28  C   UNL A   1      34.186  17.633  24.279  1.00  0.00     0.416 C 
ATOM     29  F   UNL A   1      35.518  17.758  24.546  1.00  0.00    -0.166 F 
ATOM     30  F   UNL A   1      33.709  16.748  25.198  1.00  0.00    -0.166 F 
ATOM     31  F   UNL A   1      34.104  17.004  23.076  1.00  0.00    -0.166 F 
ENDBRANCH  27  28
ENDBRANCH  20  22
ENDBRANCH   9  17
ENDBRANCH   7   8
ENDBRANCH   5   7
ENDBRANCH   2   3
ENDBRANCH   1   2
BRANCH   1  32
ATOM     32  C   UNL A   1      36.137  22.332  24.250  1.00  0.00     0.002 C 
BRANCH  32  33
ATOM     33  C   UNL A   1      36.542  22.955  25.590  1.00  0.00     0.002 C 
BRANCH  33  34
ATOM     34  C   UNL A   1      38.014  23.362  25.724  1.00  0.00     0.021 C 
BRANCH  34  35
ATOM     35  C   UNL A   1      38.887  22.375  26.501  1.00  0.00     0.116 C 
BRANCH  35  36
ATOM     36  N   UNL A   1      40.237  22.261  25.992  1.00  0.00    -0.352 N 
ATOM     37  C   UNL A   1      41.388  22.981  26.118  1.00  0.00     0.251 C 
ATOM     38  H   UNL A   1      40.352  21.472  25.414  1.00  0.00     0.163 HD
ATOM     39  O   UNL A   1      42.396  22.484  25.611  1.00  0.00    -0.269 OA
BRANCH  37  40
ATOM     40  C   UNL A   1      41.498  24.323  26.748  1.00  0.00     0.039 A 
ATOM     41  C   UNL A   1      42.000  24.591  28.023  1.00  0.00     0.014 A 
ATOM     42  C   UNL A   1      40.985  25.392  25.990  1.00  0.00     0.014 A 
ATOM     43  C   UNL A   1      41.895  25.867  28.567  1.00  0.00     0.010 A 
ATOM     44  C   UNL A   1      40.891  26.670  26.521  1.00  0.00     0.010 A 
ATOM     45  C   UNL A   1      41.295  26.891  27.833  1.00  0.00    -0.014 A 
BRANCH  45  46
ATOM     46  C   UNL A   1      41.165  28.202  28.459  1.00  0.00     0.031 A 
ATOM     47  C   UNL A   1      42.269  29.168  28.176  1.00  0.00     0.074 A 
ATOM     48  C   UNL A   1      40.061  28.569  29.139  1.00  0.00     0.049 A 
ATOM     49  N   UNL A   1      42.989  29.841  29.014  1.00  0.00    -0.248 NA
ATOM     50  C   UNL A   1      42.660  29.349  26.769  1.00  0.00     0.031 C 
ATOM     51  C   UNL A   1      38.791  27.844  29.246  1.00  0.00     0.029 A 
ATOM     52  N   UNL A   1      39.798  29.743  29.778  1.00  0.00    -0.354 N 
ATOM     53  C   UNL A   1      43.829  30.644  28.243  1.00  0.00     0.074 A 
ATOM     54  C   UNL A   1      43.659  30.221  26.876  1.00  0.00     0.031 C 
ATOM     55  C   UNL A   1      37.830  28.691  29.681  1.00  0.00     0.029 A 
ATOM     56  C   UNL A   1      38.448  29.958  30.024  1.00  0.00     0.049 A 
ATOM     57  H   UNL A   1      40.501  30.381  30.040  1.00  0.00     0.167 HD
ATOM     58  C   UNL A   1      44.484  31.725  28.752  1.00  0.00     0.031 A 
ATOM     59  C   UNL A   1      37.872  31.124  30.404  1.00  0.00     0.031 A 
ATOM     60  C   UNL A   1      44.602  31.661  30.181  1.00  0.00     0.049 A 
ATOM     61  C   UNL A   1      38.930  31.994  30.960  1.00  0.00     0.074 A 
ATOM     62  C   UNL A   1      45.235  30.810  31.064  1.00  0.00     0.029 A 
ATOM     63  N   UNL A   1      43.718  32.393  30.934  1.00  0.00    -0.354 N 
ATOM     64  N   UNL A   1      39.566  31.746  32.068  1.00  0.00    -0.248 NA
ATOM     65  C   UNL A   1      39.569  32.949  30.071  1.00  0.00     0.031 C 
ATOM     66  C   UNL A   1      44.362  30.731  32.186  1.00  0.00     0.029 A 
ATOM     67  C   UNL A   1      43.279  31.580  31.946  1.00  0.00     0.049 A 
ATOM     68  H   UNL A   1      43.450  33.327  30.776  1.00  0.00     0.167 HD
ATOM     69  C   UNL A   1      40.866  32.166  31.829  1.00  0.00     0.074 A 
ATOM     70  C   UNL A   1      40.779  32.998  30.632  1.00  0.00     0.031 C 
ATOM     71  C   UNL A   1      41.926  31.577  32.458  1.00  0.00     0.031 A 
BRANCH  58  72
ATOM     72  C   UNL A   1      44.721  32.998  27.974  1.00  0.00    -0.014 A 
ATOM     73  C   UNL A   1      45.888  33.235  27.222  1.00  0.00     0.009 A 
ATOM     74  C   UNL A   1      43.647  33.881  27.760  1.00  0.00     0.009 A 
ATOM     75  C   UNL A   1      45.980  34.280  26.298  1.00  0.00     0.001 A 
ATOM     76  C   UNL A   1      43.720  34.904  26.803  1.00  0.00     0.001 A 
ATOM     77  C   UNL A   1      44.886  35.099  26.070  1.00  0.00     0.000 A 
ENDBRANCH  58  72
BRANCH  59  78
ATOM     78  C   UNL A   1      36.570  31.670  29.962  1.00  0.00    -0.014 A 
ATOM     79  C   UNL A   1      36.281  31.773  28.588  1.00  0.00     0.009 A 
ATOM     80  C   UNL A   1      35.743  32.363  30.860  1.00  0.00     0.009 A 
ATOM     81  C   UNL A   1      35.233  32.573  28.125  1.00  0.00     0.001 A 
ATOM     82  C   UNL A   1      34.694  33.165  30.395  1.00  0.00     0.001 A 
ATOM     83  C   UNL A   1      34.450  33.284  29.028  1.00  0.00     0.000 A 
ENDBRANCH  59  78
BRANCH  71  84
ATOM     84  C   UNL A   1      41.645  30.614  33.591  1.00  0.00    -0.014 A 
ATOM     85  C   UNL A   1      41.834  31.059  34.908  1.00  0.00     0.009 A 
ATOM     86  C   UNL A   1      41.390  29.245  33.386  1.00  0.00     0.009 A 
ATOM     87  C   UNL A   1      41.786  30.169  35.984  1.00  0.00     0.001 A 
ATOM     88  C   UNL A   1      41.315  28.358  34.466  1.00  0.00     0.001 A 
ATOM     89  C   UNL A   1      41.525  28.819  35.762  1.00  0.00     0.000 A 
ENDBRANCH  71  84
ENDBRANCH  45  46
ENDBRANCH  37  40
ENDBRANCH  35  36
ENDBRANCH  34  35
ENDBRANCH  33  34
ENDBRANCH  32  33
ENDBRANCH   1  32
TORSDOF 17
ENDMDL
MODEL 3
REMARK VINA RESULT:     -12.3      3.772      8.849
REMARK SMILES O=C(Cn1c(-c2nc(-c3ccc(C(F)(F)F)cc3)no2)cc2ccccc21)NCCCCCCNC(=O)c1ccc(-c2c3nc(c(-c4ccccc4)c4ccc([nH]4)c(-c4ccccc4)c4nc(c(-c5ccccc5)c5ccc2[nH]5)C=C4)C=C3)cc1
REMARK SMILES IDX 30 1 29 2 28 3 1 4 2 5 3 7 4 8 5 9 27 10 21 11 22 12 26 13
REMARK SMILES IDX 23 14 25 15 24 16 6 17 7 18 20 19 8 20 19 21 9 22 10 23
REMARK SMILES IDX 18 24 11 25 17 26 12 27 13 28 14 29 15 30 16 31 31 32 32 33
REMARK SMILES IDX 33 34 34 35 35 36 36 37 37 39 38 40 39 41 85 42 40 43 84 44
REMARK SMILES IDX 41 45 42 46 43 47 78 48 44 49 83 50 77 51 79 52 45 53 82 54
REMARK SMILES IDX 76 55 75 56 46 58 68 59 53 60 67 61 54 62 57 63 66 64 80 65
REMARK SMILES IDX 55 66 56 67 65 69 81 70 58 71 47 72 48 73 52 74 49 75 51 76
REMARK SMILES IDX 50 77 69 78 70 79 74 80 71 81 73 82 72 83 59 84 60 85 64 86
REMARK SMILES IDX 61 87 63 88 62 89
REMARK H PARENT 28 6 35 38 79 57 57 68
REMARK Flexibility Score: inf
ROOT
ATOM      1  C   UNL A   1      36.130  29.391  27.480  1.00  0.00     0.021 C 
ENDROOT
BRANCH   1   2
ATOM      2  C   UNL A   1      34.612  29.283  27.407  1.00  0.00     0.116 C 
BRANCH   2   3
ATOM      3  N   UNL A   1      34.140  29.016  26.064  1.00  0.00    -0.355 N 
ATOM      4  O   UNL A   1      32.043  29.892  26.392  1.00  0.00    -0.273 OA
ATOM      5  C   UNL A   1      32.886  29.425  25.644  1.00  0.00     0.239 C 
ATOM      6  H   UNL A   1      34.724  28.534  25.436  1.00  0.00     0.163 HD
BRANCH   5   7
ATOM      7  C   UNL A   1      32.598  29.161  24.186  1.00  0.00     0.222 C 
BRANCH   7   8
ATOM      8  N   UNL A   1      31.364  28.447  23.843  1.00  0.00    -0.327 N 
ATOM      9  C   UNL A   1      31.110  27.093  23.748  1.00  0.00     0.109 A 
ATOM     10  C   UNL A   1      30.177  29.153  23.608  1.00  0.00     0.049 A 
ATOM     11  C   UNL A   1      29.781  26.943  23.393  1.00  0.00     0.042 A 
ATOM     12  C   UNL A   1      29.179  28.217  23.336  1.00  0.00     0.000 A 
ATOM     13  C   UNL A   1      29.892  30.532  23.632  1.00  0.00     0.027 A 
ATOM     14  C   UNL A   1      27.860  28.652  23.103  1.00  0.00     0.010 A 
ATOM     15  C   UNL A   1      28.573  30.942  23.404  1.00  0.00     0.002 A 
ATOM     16  C   UNL A   1      27.567  30.016  23.148  1.00  0.00     0.001 A 
BRANCH   9  17
ATOM     17  C   UNL A   1      31.944  25.996  24.133  1.00  0.00     0.274 A 
ATOM     18  N   UNL A   1      31.846  24.731  23.772  1.00  0.00    -0.185 NA
ATOM     19  O   UNL A   1      32.947  26.202  25.041  1.00  0.00    -0.332 OA
ATOM     20  C   UNL A   1      32.850  24.126  24.513  1.00  0.00     0.202 A 
ATOM     21  N   UNL A   1      33.541  24.984  25.280  1.00  0.00    -0.057 NA
BRANCH  20  22
ATOM     22  C   UNL A   1      33.183  22.699  24.491  1.00  0.00     0.023 A 
ATOM     23  C   UNL A   1      32.202  21.773  24.093  1.00  0.00     0.013 A 
ATOM     24  C   UNL A   1      34.442  22.212  24.859  1.00  0.00     0.013 A 
ATOM     25  C   UNL A   1      32.459  20.402  24.070  1.00  0.00     0.014 A 
ATOM     26  C   UNL A   1      34.704  20.830  24.835  1.00  0.00     0.014 A 
ATOM     27  C   UNL A   1      33.714  19.912  24.444  1.00  0.00     0.056 A 
BRANCH  27  28
ATOM     28  C   UNL A   1      33.952  18.421  24.431  1.00  0.00     0.416 C 
ATOM     29  F   UNL A   1      33.555  17.846  23.260  1.00  0.00    -0.166 F 
ATOM     30  F   UNL A   1      35.270  18.102  24.569  1.00  0.00    -0.166 F 
ATOM     31  F   UNL A   1      33.299  17.748  25.417  1.00  0.00    -0.166 F 
ENDBRANCH  27  28
ENDBRANCH  20  22
ENDBRANCH   9  17
ENDBRANCH   7   8
ENDBRANCH   5   7
ENDBRANCH   2   3
ENDBRANCH   1   2
BRANCH   1  32
ATOM     32  C   UNL A   1      36.670  30.012  28.773  1.00  0.00     0.002 C 
BRANCH  32  33
ATOM     33  C   UNL A   1      37.535  31.265  28.604  1.00  0.00     0.002 C 
BRANCH  33  34
ATOM     34  C   UNL A   1      36.923  32.578  29.108  1.00  0.00     0.021 C 
BRANCH  34  35
ATOM     35  C   UNL A   1      37.885  33.766  29.143  1.00  0.00     0.116 C 
BRANCH  35  36
ATOM     36  N   UNL A   1      38.355  34.100  30.470  1.00  0.00    -0.352 N 
ATOM     37  C   UNL A   1      39.311  33.616  31.313  1.00  0.00     0.251 C 
ATOM     38  H   UNL A   1      37.867  34.862  30.858  1.00  0.00     0.163 HD
ATOM     39  O   UNL A   1      39.499  34.263  32.347  1.00  0.00    -0.269 OA
BRANCH  37  40
ATOM     40  C   UNL A   1      40.077  32.358  31.113  1.00  0.00     0.039 A 
ATOM     41  C   UNL A   1      41.239  32.218  30.353  1.00  0.00     0.014 A 
ATOM     42  C   UNL A   1      39.521  31.210  31.709  1.00  0.00     0.014 A 
ATOM     43  C   UNL A   1      41.770  30.956  30.103  1.00  0.00     0.010 A 
ATOM     44  C   UNL A   1      40.054  29.951  31.476  1.00  0.00     0.010 A 
ATOM     45  C   UNL A   1      41.146  29.822  30.624  1.00  0.00    -0.014 A 
BRANCH  45  46
ATOM     46  C   UNL A   1      41.710  28.516  30.300  1.00  0.00     0.031 A 
ATOM     47  C   UNL A   1      42.561  27.897  31.359  1.00  0.00     0.074 A 
ATOM     48  C   UNL A   1      41.379  27.848  29.177  1.00  0.00     0.049 A 
ATOM     49  N   UNL A   1      43.766  27.436  31.261  1.00  0.00    -0.248 NA
ATOM     50  C   UNL A   1      42.013  27.854  32.724  1.00  0.00     0.031 C 
ATOM     51  C   UNL A   1      40.341  28.192  28.201  1.00  0.00     0.029 A 
ATOM     52  N   UNL A   1      41.822  26.636  28.739  1.00  0.00    -0.354 N 
ATOM     53  C   UNL A   1      44.082  26.908  32.513  1.00  0.00     0.074 A 
ATOM     54  C   UNL A   1      43.012  27.290  33.399  1.00  0.00     0.031 C 
ATOM     55  C   UNL A   1      40.064  27.106  27.444  1.00  0.00     0.029 A 
ATOM     56  C   UNL A   1      41.005  26.053  27.781  1.00  0.00     0.049 A 
ATOM     57  H   UNL A   1      42.647  26.213  29.073  1.00  0.00     0.167 HD
ATOM     58  C   UNL A   1      45.115  26.042  32.707  1.00  0.00     0.031 A 
ATOM     59  C   UNL A   1      41.048  24.767  27.355  1.00  0.00     0.031 A 
ATOM     60  C   UNL A   1      46.085  26.113  31.651  1.00  0.00     0.049 A 
ATOM     61  C   UNL A   1      42.372  24.214  27.714  1.00  0.00     0.074 A 
ATOM     62  C   UNL A   1      46.938  27.092  31.183  1.00  0.00     0.029 A 
ATOM     63  N   UNL A   1      46.041  25.154  30.671  1.00  0.00    -0.354 N 
ATOM     64  N   UNL A   1      43.493  24.610  27.184  1.00  0.00    -0.248 NA
ATOM     65  C   UNL A   1      42.493  23.488  28.967  1.00  0.00     0.031 C 
ATOM     66  C   UNL A   1      46.966  26.909  29.771  1.00  0.00     0.029 A 
ATOM     67  C   UNL A   1      46.176  25.798  29.468  1.00  0.00     0.049 A 
ATOM     68  H   UNL A   1      45.932  24.185  30.806  1.00  0.00     0.167 HD
ATOM     69  C   UNL A   1      44.407  24.570  28.225  1.00  0.00     0.074 A 
ATOM     70  C   UNL A   1      43.764  23.765  29.261  1.00  0.00     0.031 C 
ATOM     71  C   UNL A   1      45.477  25.418  28.260  1.00  0.00     0.031 A 
BRANCH  58  72
ATOM     72  C   UNL A   1      45.068  24.897  33.691  1.00  0.00    -0.014 A 
ATOM     73  C   UNL A   1      45.751  24.912  34.923  1.00  0.00     0.009 A 
ATOM     74  C   UNL A   1      44.110  23.882  33.518  1.00  0.00     0.009 A 
ATOM     75  C   UNL A   1      45.488  23.982  35.933  1.00  0.00     0.001 A 
ATOM     76  C   UNL A   1      43.812  22.974  34.544  1.00  0.00     0.001 A 
ATOM     77  C   UNL A   1      44.498  23.028  35.752  1.00  0.00     0.000 A 
ENDBRANCH  58  72
BRANCH  59  78
ATOM     78  C   UNL A   1      39.905  23.890  27.022  1.00  0.00    -0.014 A 
ATOM     79  C   UNL A   1      40.126  22.534  26.712  1.00  0.00     0.009 A 
ATOM     80  C   UNL A   1      38.650  24.437  26.714  1.00  0.00     0.009 A 
ATOM     81  C   UNL A   1      39.146  21.766  26.078  1.00  0.00     0.001 A 
ATOM     82  C   UNL A   1      37.669  23.667  26.077  1.00  0.00     0.001 A 
ATOM     83  C   UNL A   1      37.923  22.337  25.744  1.00  0.00     0.000 A 
ENDBRANCH  59  78
BRANCH  71  84
ATOM     84  C   UNL A   1      45.777  26.248  27.030  1.00  0.00    -0.014 A 
ATOM     85  C   UNL A   1      46.792  25.816  26.164  1.00  0.00     0.009 A 
ATOM     86  C   UNL A   1      45.222  27.523  26.814  1.00  0.00     0.009 A 
ATOM     87  C   UNL A   1      47.251  26.632  25.127  1.00  0.00     0.001 A 
ATOM     88  C   UNL A   1      45.662  28.330  25.759  1.00  0.00     0.001 A 
ATOM     89  C   UNL A   1      46.685  27.889  24.924  1.00  0.00     0.000 A 
ENDBRANCH  71  84
ENDBRANCH  45  46
ENDBRANCH  37  40
ENDBRANCH  35  36
ENDBRANCH  34  35
ENDBRANCH  33  34
ENDBRANCH  32  33
ENDBRANCH   1  32
TORSDOF 17
ENDMDL
