MODEL 1
REMARK VINA RESULT:     -11.1      0.000      0.000
REMARK SMILES CC(C)CSc1cc2c(cc1Cl)C=C(C(=O)NCCCCCCNC(=O)c1ccc(-c3c4nc(c(-c5ccccc5)c5ccc([nH]5)c(-c5ccccc5)c5nc(c(-c6ccccc6)c6ccc3[nH]6)C=C5)C=C4)cc1)[C@@H](C(F)(F)F)O2
REMARK SMILES IDX 20 1 19 2 18 3 17 4 15 5 16 6 14 8 6 9 7 10 11 11 8 12 10 13
REMARK SMILES IDX 12 14 9 15 80 16 13 17 75 18 5 19 4 20 2 21 1 22 3 23 76 24
REMARK SMILES IDX 77 25 78 26 79 27 21 28 22 29 23 30 24 31 25 32 26 34 27 35
REMARK SMILES IDX 28 36 74 37 29 38 73 39 30 40 31 41 32 42 67 43 33 44 72 45
REMARK SMILES IDX 66 46 68 47 34 48 71 49 65 50 64 51 35 53 57 54 42 55 56 56
REMARK SMILES IDX 43 57 46 58 55 59 69 60 44 61 45 62 54 64 70 65 47 66 36 67
REMARK SMILES IDX 37 68 41 69 38 70 40 71 39 72 58 73 59 74 63 75 60 76 62 77
REMARK SMILES IDX 61 78 48 79 49 80 53 81 50 82 52 83 51 84
REMARK H PARENT 17 7 24 33 68 52 46 63
REMARK Flexibility Score: inf
ROOT
ATOM      1  C   UNL A   1      35.902  22.152  24.068  1.00  0.00     0.002 C 
ENDROOT
BRANCH   1   2
ATOM      2  C   UNL A   1      34.984  22.310  25.286  1.00  0.00     0.021 C 
BRANCH   2   3
ATOM      3  C   UNL A   1      33.894  21.246  25.386  1.00  0.00     0.116 C 
BRANCH   3   4
ATOM      4  N   UNL A   1      33.265  20.992  24.102  1.00  0.00    -0.352 N 
ATOM      5  C   UNL A   1      32.476  21.657  23.228  1.00  0.00     0.251 C 
ATOM      6  O   UNL A   1      32.195  21.036  22.198  1.00  0.00    -0.270 OA
ATOM      7  H   UNL A   1      33.468  20.083  23.780  1.00  0.00     0.163 HD
BRANCH   5   8
ATOM      8  C   UNL A   1      31.942  23.039  23.419  1.00  0.00     0.067 C 
ATOM      9  C   UNL A   1      31.285  28.033  23.476  1.00  0.00     0.030 A 
ATOM     10  C   UNL A   1      30.440  26.934  23.651  1.00  0.00     0.063 A 
ATOM     11  C   UNL A   1      32.602  27.812  23.039  1.00  0.00     0.055 A 
ATOM     12  C   UNL A   1      30.931  25.641  23.505  1.00  0.00     0.129 A 
ATOM     13  C   UNL A   1      33.074  26.505  22.840  1.00  0.00     0.033 A 
ATOM     14  Cl  UNL A   1      33.699  29.108  22.712  1.00  0.00    -0.083 Cl
ATOM     15  C   UNL A   1      32.243  25.412  23.095  1.00  0.00     0.019 A 
ATOM     16  O   UNL A   1      30.060  24.629  23.777  1.00  0.00    -0.475 OA
ATOM     17  C   UNL A   1      32.697  24.037  22.920  1.00  0.00     0.025 C 
ATOM     18  C   UNL A   1      30.667  23.360  24.146  1.00  0.00     0.314 C 
BRANCH   9  19
ATOM     19  S   UNL A   1      30.580  29.632  23.849  1.00  0.00    -0.124 SA
BRANCH  19  20
ATOM     20  C   UNL A   1      29.596  29.939  22.332  1.00  0.00     0.078 C 
BRANCH  20  21
ATOM     21  C   UNL A   1      28.084  30.142  22.561  1.00  0.00    -0.007 C 
ATOM     22  C   UNL A   1      27.370  28.875  23.041  1.00  0.00     0.008 C 
ATOM     23  C   UNL A   1      27.874  31.243  23.607  1.00  0.00     0.008 C 
ENDBRANCH  20  21
ENDBRANCH  19  20
ENDBRANCH   9  19
BRANCH  18  24
ATOM     24  C   UNL A   1      30.828  23.284  25.677  1.00  0.00     0.429 C 
ATOM     25  F   UNL A   1      32.033  23.780  26.055  1.00  0.00    -0.167 F 
ATOM     26  F   UNL A   1      29.894  24.013  26.333  1.00  0.00    -0.167 F 
ATOM     27  F   UNL A   1      30.744  22.020  26.149  1.00  0.00    -0.167 F 
ENDBRANCH  18  24
ENDBRANCH   5   8
ENDBRANCH   3   4
ENDBRANCH   2   3
ENDBRANCH   1   2
BRANCH   1  28
ATOM     28  C   UNL A   1      37.394  21.978  24.381  1.00  0.00     0.002 C 
BRANCH  28  29
ATOM     29  C   UNL A   1      37.821  20.574  24.816  1.00  0.00     0.021 C 
BRANCH  29  30
ATOM     30  C   UNL A   1      38.761  20.533  26.015  1.00  0.00     0.116 C 
BRANCH  30  31
ATOM     31  N   UNL A   1      39.812  19.540  25.870  1.00  0.00    -0.352 N 
ATOM     32  C   UNL A   1      41.168  19.682  26.038  1.00  0.00     0.251 C 
ATOM     33  H   UNL A   1      39.509  18.638  25.616  1.00  0.00     0.163 HD
ATOM     34  O   UNL A   1      41.932  18.770  25.736  1.00  0.00    -0.269 OA
BRANCH  32  35
ATOM     35  C   UNL A   1      41.707  20.958  26.555  1.00  0.00     0.039 A 
ATOM     36  C   UNL A   1      41.754  21.205  27.929  1.00  0.00     0.014 A 
ATOM     37  C   UNL A   1      42.142  21.929  25.650  1.00  0.00     0.014 A 
ATOM     38  C   UNL A   1      42.082  22.476  28.388  1.00  0.00     0.010 A 
ATOM     39  C   UNL A   1      42.549  23.181  26.118  1.00  0.00     0.010 A 
ATOM     40  C   UNL A   1      42.478  23.480  27.489  1.00  0.00    -0.014 A 
BRANCH  40  41
ATOM     41  C   UNL A   1      42.809  24.831  28.005  1.00  0.00     0.031 A 
ATOM     42  C   UNL A   1      41.730  25.855  28.235  1.00  0.00     0.074 A 
ATOM     43  C   UNL A   1      44.086  25.116  28.327  1.00  0.00     0.049 A 
ATOM     44  N   UNL A   1      41.839  27.068  28.719  1.00  0.00    -0.248 NA
ATOM     45  C   UNL A   1      40.354  25.475  27.879  1.00  0.00     0.031 C 
ATOM     46  C   UNL A   1      45.216  24.197  28.170  1.00  0.00     0.029 A 
ATOM     47  N   UNL A   1      44.644  26.239  28.883  1.00  0.00    -0.354 N 
ATOM     48  C   UNL A   1      40.555  27.598  28.710  1.00  0.00     0.074 A 
ATOM     49  C   UNL A   1      39.684  26.588  28.150  1.00  0.00     0.031 C 
ATOM     50  C   UNL A   1      46.318  24.770  28.675  1.00  0.00     0.029 A 
ATOM     51  C   UNL A   1      45.990  26.117  29.129  1.00  0.00     0.049 A 
ATOM     52  H   UNL A   1      44.130  27.054  29.085  1.00  0.00     0.167 HD
ATOM     53  C   UNL A   1      40.139  28.812  29.142  1.00  0.00     0.031 A 
ATOM     54  C   UNL A   1      46.869  26.992  29.654  1.00  0.00     0.031 A 
ATOM     55  C   UNL A   1      41.005  29.811  29.709  1.00  0.00     0.049 A 
ATOM     56  C   UNL A   1      46.390  28.349  30.077  1.00  0.00     0.074 A 
ATOM     57  C   UNL A   1      40.667  31.064  30.191  1.00  0.00     0.029 A 
ATOM     58  N   UNL A   1      42.373  29.673  29.873  1.00  0.00    -0.354 N 
ATOM     59  N   UNL A   1      45.171  28.830  30.066  1.00  0.00    -0.248 NA
ATOM     60  C   UNL A   1      47.405  29.287  30.576  1.00  0.00     0.031 C 
ATOM     61  C   UNL A   1      41.839  31.707  30.594  1.00  0.00     0.029 A 
ATOM     62  C   UNL A   1      42.899  30.831  30.423  1.00  0.00     0.049 A 
ATOM     63  H   UNL A   1      42.895  28.874  29.634  1.00  0.00     0.167 HD
ATOM     64  C   UNL A   1      45.269  30.121  30.565  1.00  0.00     0.074 A 
ATOM     65  C   UNL A   1      46.663  30.342  30.889  1.00  0.00     0.031 C 
ATOM     66  C   UNL A   1      44.290  31.042  30.733  1.00  0.00     0.031 A 
BRANCH  53  67
ATOM     67  C   UNL A   1      38.679  29.147  29.011  1.00  0.00    -0.014 A 
ATOM     68  C   UNL A   1      38.188  29.665  27.801  1.00  0.00     0.009 A 
ATOM     69  C   UNL A   1      37.809  29.047  30.108  1.00  0.00     0.009 A 
ATOM     70  C   UNL A   1      36.862  30.087  27.695  1.00  0.00     0.001 A 
ATOM     71  C   UNL A   1      36.475  29.446  29.991  1.00  0.00     0.001 A 
ATOM     72  C   UNL A   1      36.006  29.974  28.789  1.00  0.00     0.000 A 
ENDBRANCH  53  67
BRANCH  54  73
ATOM     73  C   UNL A   1      48.292  26.589  29.806  1.00  0.00    -0.014 A 
ATOM     74  C   UNL A   1      49.214  26.829  28.774  1.00  0.00     0.009 A 
ATOM     75  C   UNL A   1      48.722  25.914  30.956  1.00  0.00     0.009 A 
ATOM     76  C   UNL A   1      50.530  26.374  28.877  1.00  0.00     0.001 A 
ATOM     77  C   UNL A   1      50.047  25.487  31.069  1.00  0.00     0.001 A 
ATOM     78  C   UNL A   1      50.947  25.707  30.026  1.00  0.00     0.000 A 
ENDBRANCH  54  73
BRANCH  66  79
ATOM     79  C   UNL A   1      44.675  32.380  31.296  1.00  0.00    -0.014 A 
ATOM     80  C   UNL A   1      45.091  33.406  30.433  1.00  0.00     0.009 A 
ATOM     81  C   UNL A   1      44.722  32.593  32.682  1.00  0.00     0.009 A 
ATOM     82  C   UNL A   1      45.563  34.615  30.947  1.00  0.00     0.001 A 
ATOM     83  C   UNL A   1      45.168  33.814  33.192  1.00  0.00     0.001 A 
ATOM     84  C   UNL A   1      45.597  34.820  32.325  1.00  0.00     0.000 A 
ENDBRANCH  66  79
ENDBRANCH  40  41
ENDBRANCH  32  35
ENDBRANCH  30  31
ENDBRANCH  29  30
ENDBRANCH  28  29
ENDBRANCH   1  28
TORSDOF 17
ENDMDL
MODEL 2
REMARK VINA RESULT:     -11.1      0.226      5.743
REMARK SMILES CC(C)CSc1cc2c(cc1Cl)C=C(C(=O)NCCCCCCNC(=O)c1ccc(-c3c4nc(c(-c5ccccc5)c5ccc([nH]5)c(-c5ccccc5)c5nc(c(-c6ccccc6)c6ccc3[nH]6)C=C5)C=C4)cc1)[C@@H](C(F)(F)F)O2
REMARK SMILES IDX 20 1 19 2 18 3 17 4 15 5 16 6 14 8 6 9 7 10 11 11 8 12 10 13
REMARK SMILES IDX 12 14 9 15 80 16 13 17 75 18 5 19 4 20 2 21 1 22 3 23 76 24
REMARK SMILES IDX 77 25 78 26 79 27 21 28 22 29 23 30 24 31 25 32 26 34 27 35
REMARK SMILES IDX 28 36 74 37 29 38 73 39 30 40 31 41 32 42 67 43 33 44 72 45
REMARK SMILES IDX 66 46 68 47 34 48 71 49 65 50 64 51 35 53 57 54 42 55 56 56
REMARK SMILES IDX 43 57 46 58 55 59 69 60 44 61 45 62 54 64 70 65 47 66 36 67
REMARK SMILES IDX 37 68 41 69 38 70 40 71 39 72 58 73 59 74 63 75 60 76 62 77
REMARK SMILES IDX 61 78 48 79 49 80 53 81 50 82 52 83 51 84
REMARK H PARENT 17 7 24 33 68 52 46 63
REMARK Flexibility Score: inf
ROOT
ATOM      1  C   UNL A   1      35.880  22.099  24.065  1.00  0.00     0.002 C 
ENDROOT
BRANCH   1   2
ATOM      2  C   UNL A   1      35.043  22.221  25.343  1.00  0.00     0.021 C 
BRANCH   2   3
ATOM      3  C   UNL A   1      33.956  21.159  25.479  1.00  0.00     0.116 C 
BRANCH   3   4
ATOM      4  N   UNL A   1      33.310  20.877  24.209  1.00  0.00    -0.352 N 
ATOM      5  C   UNL A   1      32.512  21.525  23.330  1.00  0.00     0.251 C 
ATOM      6  O   UNL A   1      32.217  20.883  22.318  1.00  0.00    -0.270 OA
ATOM      7  H   UNL A   1      33.507  19.961  23.905  1.00  0.00     0.163 HD
BRANCH   5   8
ATOM      8  C   UNL A   1      31.983  22.912  23.497  1.00  0.00     0.067 C 
ATOM      9  C   UNL A   1      31.348  27.910  23.475  1.00  0.00     0.030 A 
ATOM     10  C   UNL A   1      30.498  26.817  23.662  1.00  0.00     0.063 A 
ATOM     11  C   UNL A   1      32.667  27.676  23.048  1.00  0.00     0.055 A 
ATOM     12  C   UNL A   1      30.984  25.520  23.538  1.00  0.00     0.129 A 
ATOM     13  C   UNL A   1      33.134  26.364  22.872  1.00  0.00     0.033 A 
ATOM     14  Cl  UNL A   1      33.771  28.962  22.707  1.00  0.00    -0.083 Cl
ATOM     15  C   UNL A   1      32.297  25.279  23.139  1.00  0.00     0.019 A 
ATOM     16  O   UNL A   1      30.106  24.515  23.821  1.00  0.00    -0.475 OA
ATOM     17  C   UNL A   1      32.745  23.900  22.987  1.00  0.00     0.025 C 
ATOM     18  C   UNL A   1      30.706  23.250  24.212  1.00  0.00     0.314 C 
BRANCH   9  19
ATOM     19  S   UNL A   1      30.648  29.517  23.820  1.00  0.00    -0.124 SA
BRANCH  19  20
ATOM     20  C   UNL A   1      29.697  29.818  22.282  1.00  0.00     0.078 C 
BRANCH  20  21
ATOM     21  C   UNL A   1      28.209  30.174  22.489  1.00  0.00    -0.007 C 
ATOM     22  C   UNL A   1      27.385  29.018  23.064  1.00  0.00     0.008 C 
ATOM     23  C   UNL A   1      28.104  31.367  23.446  1.00  0.00     0.008 C 
ENDBRANCH  20  21
ENDBRANCH  19  20
ENDBRANCH   9  19
BRANCH  18  24
ATOM     24  C   UNL A   1      30.859  23.196  25.745  1.00  0.00     0.429 C 
ATOM     25  F   UNL A   1      32.061  23.699  26.122  1.00  0.00    -0.167 F 
ATOM     26  F   UNL A   1      29.920  23.935  26.385  1.00  0.00    -0.167 F 
ATOM     27  F   UNL A   1      30.773  21.940  26.235  1.00  0.00    -0.167 F 
ENDBRANCH  18  24
ENDBRANCH   5   8
ENDBRANCH   3   4
ENDBRANCH   2   3
ENDBRANCH   1   2
BRANCH   1  28
ATOM     28  C   UNL A   1      37.385  21.891  24.277  1.00  0.00     0.002 C 
BRANCH  28  29
ATOM     29  C   UNL A   1      37.803  20.498  24.754  1.00  0.00     0.021 C 
BRANCH  29  30
ATOM     30  C   UNL A   1      38.762  20.487  25.938  1.00  0.00     0.116 C 
BRANCH  30  31
ATOM     31  N   UNL A   1      39.821  19.502  25.792  1.00  0.00    -0.352 N 
ATOM     32  C   UNL A   1      41.170  19.641  26.016  1.00  0.00     0.251 C 
ATOM     33  H   UNL A   1      39.531  18.610  25.492  1.00  0.00     0.163 HD
ATOM     34  O   UNL A   1      41.948  18.743  25.706  1.00  0.00    -0.269 OA
BRANCH  32  35
ATOM     35  C   UNL A   1      41.685  20.896  26.602  1.00  0.00     0.039 A 
ATOM     36  C   UNL A   1      41.658  21.099  27.983  1.00  0.00     0.014 A 
ATOM     37  C   UNL A   1      42.172  21.893  25.753  1.00  0.00     0.014 A 
ATOM     38  C   UNL A   1      41.965  22.353  28.499  1.00  0.00     0.010 A 
ATOM     39  C   UNL A   1      42.559  23.127  26.282  1.00  0.00     0.010 A 
ATOM     40  C   UNL A   1      42.414  23.383  27.656  1.00  0.00    -0.014 A 
BRANCH  40  41
ATOM     41  C   UNL A   1      42.722  24.715  28.232  1.00  0.00     0.031 A 
ATOM     42  C   UNL A   1      44.139  25.107  28.554  1.00  0.00     0.074 A 
ATOM     43  C   UNL A   1      41.723  25.601  28.408  1.00  0.00     0.049 A 
ATOM     44  N   UNL A   1      44.589  26.245  29.024  1.00  0.00    -0.248 NA
ATOM     45  C   UNL A   1      45.187  24.100  28.322  1.00  0.00     0.031 C 
ATOM     46  C   UNL A   1      40.311  25.344  28.112  1.00  0.00     0.029 A 
ATOM     47  N   UNL A   1      41.740  26.902  28.845  1.00  0.00    -0.354 N 
ATOM     48  C   UNL A   1      45.963  26.085  29.156  1.00  0.00     0.074 A 
ATOM     49  C   UNL A   1      46.273  24.733  28.745  1.00  0.00     0.031 C 
ATOM     50  C   UNL A   1      39.610  26.468  28.315  1.00  0.00     0.029 A 
ATOM     51  C   UNL A   1      40.506  27.504  28.819  1.00  0.00     0.049 A 
ATOM     52  H   UNL A   1      42.558  27.358  29.147  1.00  0.00     0.167 HD
ATOM     53  C   UNL A   1      46.882  26.987  29.573  1.00  0.00     0.031 A 
ATOM     54  C   UNL A   1      40.129  28.749  29.169  1.00  0.00     0.031 A 
ATOM     55  C   UNL A   1      46.573  28.334  29.972  1.00  0.00     0.049 A 
ATOM     56  C   UNL A   1      41.162  29.712  29.676  1.00  0.00     0.074 A 
ATOM     57  C   UNL A   1      47.445  29.325  30.392  1.00  0.00     0.029 A 
ATOM     58  N   UNL A   1      45.301  28.880  30.000  1.00  0.00    -0.354 N 
ATOM     59  N   UNL A   1      42.457  29.545  29.789  1.00  0.00    -0.248 NA
ATOM     60  C   UNL A   1      40.684  31.032  30.110  1.00  0.00     0.031 C 
ATOM     61  C   UNL A   1      46.693  30.453  30.728  1.00  0.00     0.029 A 
ATOM     62  C   UNL A   1      45.361  30.186  30.458  1.00  0.00     0.049 A 
ATOM     63  H   UNL A   1      44.477  28.411  29.736  1.00  0.00     0.167 HD
ATOM     64  C   UNL A   1      42.950  30.738  30.298  1.00  0.00     0.074 A 
ATOM     65  C   UNL A   1      41.819  31.629  30.451  1.00  0.00     0.031 C 
ATOM     66  C   UNL A   1      44.227  31.061  30.614  1.00  0.00     0.031 A 
BRANCH  53  67
ATOM     67  C   UNL A   1      48.321  26.553  29.636  1.00  0.00    -0.014 A 
ATOM     68  C   UNL A   1      48.837  26.019  30.828  1.00  0.00     0.009 A 
ATOM     69  C   UNL A   1      49.191  26.764  28.555  1.00  0.00     0.009 A 
ATOM     70  C   UNL A   1      50.195  25.715  30.942  1.00  0.00     0.001 A 
ATOM     71  C   UNL A   1      50.545  26.435  28.663  1.00  0.00     0.001 A 
ATOM     72  C   UNL A   1      51.046  25.921  29.858  1.00  0.00     0.000 A 
ENDBRANCH  53  67
BRANCH  54  73
ATOM     73  C   UNL A   1      38.701  29.139  29.040  1.00  0.00    -0.014 A 
ATOM     74  C   UNL A   1      38.222  29.706  27.847  1.00  0.00     0.009 A 
ATOM     75  C   UNL A   1      37.824  29.001  30.125  1.00  0.00     0.009 A 
ATOM     76  C   UNL A   1      36.904  30.155  27.753  1.00  0.00     0.001 A 
ATOM     77  C   UNL A   1      36.497  29.423  30.017  1.00  0.00     0.001 A 
ATOM     78  C   UNL A   1      36.041  30.009  28.837  1.00  0.00     0.000 A 
ENDBRANCH  54  73
BRANCH  66  79
ATOM     79  C   UNL A   1      44.487  32.436  31.157  1.00  0.00    -0.014 A 
ATOM     80  C   UNL A   1      44.370  32.676  32.536  1.00  0.00     0.009 A 
ATOM     81  C   UNL A   1      44.750  33.514  30.297  1.00  0.00     0.009 A 
ATOM     82  C   UNL A   1      44.494  33.971  33.041  1.00  0.00     0.001 A 
ATOM     83  C   UNL A   1      44.901  34.804  30.810  1.00  0.00     0.001 A 
ATOM     84  C   UNL A   1      44.763  35.033  32.179  1.00  0.00     0.000 A 
ENDBRANCH  66  79
ENDBRANCH  40  41
ENDBRANCH  32  35
ENDBRANCH  30  31
ENDBRANCH  29  30
ENDBRANCH  28  29
ENDBRANCH   1  28
TORSDOF 17
ENDMDL
MODEL 3
REMARK VINA RESULT:     -10.8      3.975      8.945
REMARK SMILES CC(C)CSc1cc2c(cc1Cl)C=C(C(=O)NCCCCCCNC(=O)c1ccc(-c3c4nc(c(-c5ccccc5)c5ccc([nH]5)c(-c5ccccc5)c5nc(c(-c6ccccc6)c6ccc3[nH]6)C=C5)C=C4)cc1)[C@@H](C(F)(F)F)O2
REMARK SMILES IDX 20 1 19 2 18 3 17 4 15 5 16 6 14 8 6 9 7 10 11 11 8 12 10 13
REMARK SMILES IDX 12 14 9 15 80 16 13 17 75 18 5 19 4 20 2 21 1 22 3 23 76 24
REMARK SMILES IDX 77 25 78 26 79 27 21 28 22 29 23 30 24 31 25 32 26 34 27 35
REMARK SMILES IDX 28 36 74 37 29 38 73 39 30 40 31 41 32 42 67 43 33 44 72 45
REMARK SMILES IDX 66 46 68 47 34 48 71 49 65 50 64 51 35 53 57 54 42 55 56 56
REMARK SMILES IDX 43 57 46 58 55 59 69 60 44 61 45 62 54 64 70 65 47 66 36 67
REMARK SMILES IDX 37 68 41 69 38 70 40 71 39 72 58 73 59 74 63 75 60 76 62 77
REMARK SMILES IDX 61 78 48 79 49 80 53 81 50 82 52 83 51 84
REMARK H PARENT 17 7 24 33 68 52 46 63
REMARK Flexibility Score: inf
ROOT
ATOM      1  C   UNL A   1      32.135  28.875  25.950  1.00  0.00     0.002 C 
ENDROOT
BRANCH   1   2
ATOM      2  C   UNL A   1      32.889  29.429  24.736  1.00  0.00     0.021 C 
BRANCH   2   3
ATOM      3  C   UNL A   1      32.454  28.825  23.404  1.00  0.00     0.116 C 
BRANCH   3   4
ATOM      4  N   UNL A   1      31.042  28.484  23.397  1.00  0.00    -0.352 N 
ATOM      5  C   UNL A   1      30.283  27.373  23.530  1.00  0.00     0.251 C 
ATOM      6  O   UNL A   1      29.064  27.563  23.490  1.00  0.00    -0.270 OA
ATOM      7  H   UNL A   1      30.484  29.284  23.255  1.00  0.00     0.163 HD
BRANCH   5   8
ATOM      8  C   UNL A   1      30.802  25.985  23.714  1.00  0.00     0.067 C 
ATOM      9  C   UNL A   1      32.584  21.671  25.610  1.00  0.00     0.030 A 
ATOM     10  C   UNL A   1      32.005  22.038  24.392  1.00  0.00     0.063 A 
ATOM     11  C   UNL A   1      32.586  22.598  26.665  1.00  0.00     0.055 A 
ATOM     12  C   UNL A   1      31.544  23.336  24.197  1.00  0.00     0.129 A 
ATOM     13  C   UNL A   1      32.068  23.889  26.477  1.00  0.00     0.033 A 
ATOM     14  Cl  UNL A   1      33.201  22.212  28.235  1.00  0.00    -0.083 Cl
ATOM     15  C   UNL A   1      31.565  24.269  25.232  1.00  0.00     0.019 A 
ATOM     16  O   UNL A   1      31.073  23.630  22.952  1.00  0.00    -0.475 OA
ATOM     17  C   UNL A   1      31.035  25.605  24.986  1.00  0.00     0.025 C 
ATOM     18  C   UNL A   1      31.100  25.036  22.587  1.00  0.00     0.314 C 
BRANCH   9  19
ATOM     19  S   UNL A   1      33.282  20.028  25.682  1.00  0.00    -0.124 SA
BRANCH  19  20
ATOM     20  C   UNL A   1      32.765  19.359  24.055  1.00  0.00     0.078 C 
BRANCH  20  21
ATOM     21  C   UNL A   1      32.654  17.822  23.982  1.00  0.00    -0.007 C 
ATOM     22  C   UNL A   1      33.846  17.162  23.283  1.00  0.00     0.008 C 
ATOM     23  C   UNL A   1      32.551  17.255  25.403  1.00  0.00     0.008 C 
ENDBRANCH  20  21
ENDBRANCH  19  20
ENDBRANCH   9  19
BRANCH  18  24
ATOM     24  C   UNL A   1      32.428  25.366  21.878  1.00  0.00     0.429 C 
ATOM     25  F   UNL A   1      33.361  25.770  22.776  1.00  0.00    -0.167 F 
ATOM     26  F   UNL A   1      32.954  24.294  21.240  1.00  0.00    -0.167 F 
ATOM     27  F   UNL A   1      32.300  26.348  20.958  1.00  0.00    -0.167 F 
ENDBRANCH  18  24
ENDBRANCH   5   8
ENDBRANCH   3   4
ENDBRANCH   2   3
ENDBRANCH   1   2
BRANCH   1  28
ATOM     28  C   UNL A   1      32.063  29.806  27.167  1.00  0.00     0.002 C 
BRANCH  28  29
ATOM     29  C   UNL A   1      31.822  31.285  26.858  1.00  0.00     0.021 C 
BRANCH  29  30
ATOM     30  C   UNL A   1      33.021  32.194  27.103  1.00  0.00     0.116 C 
BRANCH  30  31
ATOM     31  N   UNL A   1      32.637  33.512  27.581  1.00  0.00    -0.352 N 
ATOM     32  C   UNL A   1      33.225  34.287  28.552  1.00  0.00     0.251 C 
ATOM     33  H   UNL A   1      31.845  33.905  27.147  1.00  0.00     0.163 HD
ATOM     34  O   UNL A   1      32.686  35.321  28.934  1.00  0.00    -0.269 OA
BRANCH  32  35
ATOM     35  C   UNL A   1      34.498  33.847  29.162  1.00  0.00     0.039 A 
ATOM     36  C   UNL A   1      35.720  34.201  28.587  1.00  0.00     0.014 A 
ATOM     37  C   UNL A   1      34.463  33.046  30.306  1.00  0.00     0.014 A 
ATOM     38  C   UNL A   1      36.894  33.625  29.059  1.00  0.00     0.010 A 
ATOM     39  C   UNL A   1      35.653  32.531  30.828  1.00  0.00     0.010 A 
ATOM     40  C   UNL A   1      36.874  32.779  30.181  1.00  0.00    -0.014 A 
BRANCH  40  41
ATOM     41  C   UNL A   1      38.140  32.166  30.654  1.00  0.00     0.031 A 
ATOM     42  C   UNL A   1      38.645  30.880  30.056  1.00  0.00     0.074 A 
ATOM     43  C   UNL A   1      38.870  32.806  31.587  1.00  0.00     0.049 A 
ATOM     44  N   UNL A   1      39.751  30.230  30.324  1.00  0.00    -0.248 NA
ATOM     45  C   UNL A   1      37.809  30.240  29.028  1.00  0.00     0.031 C 
ATOM     46  C   UNL A   1      38.495  34.070  32.225  1.00  0.00     0.029 A 
ATOM     47  N   UNL A   1      40.091  32.505  32.137  1.00  0.00    -0.354 N 
ATOM     48  C   UNL A   1      39.734  29.102  29.512  1.00  0.00     0.074 A 
ATOM     49  C   UNL A   1      38.499  29.139  28.761  1.00  0.00     0.031 C 
ATOM     50  C   UNL A   1      39.491  34.466  33.030  1.00  0.00     0.029 A 
ATOM     51  C   UNL A   1      40.544  33.456  33.019  1.00  0.00     0.049 A 
ATOM     52  H   UNL A   1      40.593  31.686  31.921  1.00  0.00     0.167 HD
ATOM     53  C   UNL A   1      40.670  28.131  29.396  1.00  0.00     0.031 A 
ATOM     54  C   UNL A   1      41.675  33.510  33.747  1.00  0.00     0.031 A 
ATOM     55  C   UNL A   1      41.904  28.101  30.136  1.00  0.00     0.049 A 
ATOM     56  C   UNL A   1      42.672  32.394  33.637  1.00  0.00     0.074 A 
ATOM     57  C   UNL A   1      42.921  27.164  30.069  1.00  0.00     0.029 A 
ATOM     58  N   UNL A   1      42.289  29.046  31.073  1.00  0.00    -0.354 N 
ATOM     59  N   UNL A   1      42.642  31.339  32.861  1.00  0.00    -0.248 NA
ATOM     60  C   UNL A   1      43.854  32.469  34.507  1.00  0.00     0.031 C 
ATOM     61  C   UNL A   1      43.896  27.512  31.007  1.00  0.00     0.029 A 
ATOM     62  C   UNL A   1      43.517  28.699  31.612  1.00  0.00     0.049 A 
ATOM     63  H   UNL A   1      41.769  29.845  31.319  1.00  0.00     0.167 HD
ATOM     64  C   UNL A   1      43.801  30.630  33.140  1.00  0.00     0.074 A 
ATOM     65  C   UNL A   1      44.526  31.385  34.141  1.00  0.00     0.031 C 
ATOM     66  C   UNL A   1      44.224  29.455  32.614  1.00  0.00     0.031 A 
BRANCH  53  67
ATOM     67  C   UNL A   1      40.403  27.000  28.441  1.00  0.00    -0.014 A 
ATOM     68  C   UNL A   1      40.899  27.065  27.129  1.00  0.00     0.009 A 
ATOM     69  C   UNL A   1      39.579  25.923  28.803  1.00  0.00     0.009 A 
ATOM     70  C   UNL A   1      40.568  26.082  26.195  1.00  0.00     0.001 A 
ATOM     71  C   UNL A   1      39.271  24.926  27.873  1.00  0.00     0.001 A 
ATOM     72  C   UNL A   1      39.757  25.012  26.569  1.00  0.00     0.000 A 
ENDBRANCH  53  67
BRANCH  54  73
ATOM     73  C   UNL A   1      41.911  34.675  34.638  1.00  0.00    -0.014 A 
ATOM     74  C   UNL A   1      42.581  35.814  34.160  1.00  0.00     0.009 A 
ATOM     75  C   UNL A   1      41.520  34.634  35.984  1.00  0.00     0.009 A 
ATOM     76  C   UNL A   1      42.882  36.874  35.017  1.00  0.00     0.001 A 
ATOM     77  C   UNL A   1      41.796  35.710  36.832  1.00  0.00     0.001 A 
ATOM     78  C   UNL A   1      42.486  36.822  36.351  1.00  0.00     0.000 A 
ENDBRANCH  54  73
BRANCH  66  79
ATOM     79  C   UNL A   1      45.531  28.899  33.102  1.00  0.00    -0.014 A 
ATOM     80  C   UNL A   1      45.557  28.063  34.229  1.00  0.00     0.009 A 
ATOM     81  C   UNL A   1      46.743  29.282  32.508  1.00  0.00     0.009 A 
ATOM     82  C   UNL A   1      46.773  27.634  34.763  1.00  0.00     0.001 A 
ATOM     83  C   UNL A   1      47.957  28.828  33.028  1.00  0.00     0.001 A 
ATOM     84  C   UNL A   1      47.971  28.013  34.161  1.00  0.00     0.000 A 
ENDBRANCH  66  79
ENDBRANCH  40  41
ENDBRANCH  32  35
ENDBRANCH  30  31
ENDBRANCH  29  30
ENDBRANCH  28  29
ENDBRANCH   1  28
TORSDOF 17
ENDMDL
