MODEL 1
REMARK VINA RESULT:     -10.6      0.000      0.000
REMARK SMILES C[C@@H](Sc1nc2ccccc2c(=O)n1N)C(=O)NCCCCCCNC(=O)c1ccc(-c2c3nc(c(-c4ccccc4)c4ccc([nH]4)c(-c4ccccc4)c4nc(c(-c5ccccc5)c5ccc2[nH]5)C=C4)C=C3)cc1
REMARK SMILES IDX 21 1 20 2 19 3 18 4 16 5 17 6 2 8 1 9 3 10 4 11 5 12 14 13
REMARK SMILES IDX 6 14 12 15 7 16 11 17 13 18 8 19 10 20 9 21 15 22 22 25
REMARK SMILES IDX 23 26 24 27 25 28 26 29 27 31 28 32 29 33 75 34 30 35 74 36
REMARK SMILES IDX 31 37 32 38 33 39 68 40 34 41 73 42 67 43 69 44 35 45 72 46
REMARK SMILES IDX 66 47 65 48 36 50 58 51 43 52 57 53 44 54 47 55 56 56 70 57
REMARK SMILES IDX 45 58 46 59 55 61 71 62 48 63 37 64 38 65 42 66 39 67 41 68
REMARK SMILES IDX 40 69 59 70 60 71 64 72 61 73 63 74 62 75 49 76 50 77 54 78
REMARK SMILES IDX 51 79 53 80 52 81
REMARK H PARENT 18 7 15 23 15 24 25 30 69 49 47 60
REMARK Flexibility Score: inf
ROOT
ATOM      1  C   UNL A   1      33.783  28.531  23.453  1.00  0.00     0.002 C 
ENDROOT
BRANCH   1   2
ATOM      2  C   UNL A   1      33.025  27.415  22.722  1.00  0.00     0.021 C 
BRANCH   2   3
ATOM      3  C   UNL A   1      33.571  26.019  23.006  1.00  0.00     0.116 C 
BRANCH   3   4
ATOM      4  N   UNL A   1      32.494  25.048  23.037  1.00  0.00    -0.355 N 
ATOM      5  C   UNL A   1      31.678  24.659  24.056  1.00  0.00     0.233 C 
ATOM      6  O   UNL A   1      30.844  23.782  23.809  1.00  0.00    -0.274 OA
ATOM      7  H   UNL A   1      32.325  24.594  22.179  1.00  0.00     0.163 HD
BRANCH   5   8
ATOM      8  C   UNL A   1      31.767  25.280  25.453  1.00  0.00     0.141 C 
ATOM      9  C   UNL A   1      30.669  26.306  25.715  1.00  0.00     0.030 C 
BRANCH   8  10
ATOM     10  S   UNL A   1      31.925  23.915  26.663  1.00  0.00    -0.073 SA
BRANCH  10  11
ATOM     11  C   UNL A   1      33.344  23.078  26.092  1.00  0.00     0.191 A 
ATOM     12  N   UNL A   1      34.477  23.685  26.240  1.00  0.00    -0.222 NA
ATOM     13  N   UNL A   1      33.210  21.787  25.597  1.00  0.00    -0.202 N 
ATOM     14  C   UNL A   1      35.645  22.989  25.905  1.00  0.00     0.079 A 
ATOM     15  C   UNL A   1      34.323  21.022  25.249  1.00  0.00     0.280 A 
ATOM     16  C   UNL A   1      36.879  23.615  26.103  1.00  0.00     0.029 A 
ATOM     17  C   UNL A   1      35.632  21.678  25.423  1.00  0.00     0.068 A 
ATOM     18  O   UNL A   1      34.251  19.860  24.848  1.00  0.00    -0.267 OA
ATOM     19  C   UNL A   1      38.073  22.941  25.828  1.00  0.00     0.002 A 
ATOM     20  C   UNL A   1      36.820  20.997  25.140  1.00  0.00     0.016 A 
ATOM     21  C   UNL A   1      38.043  21.633  25.347  1.00  0.00     0.001 A 
BRANCH  13  22
ATOM     22  N   UNL A   1      31.929  21.166  25.435  1.00  0.00    -0.334 N 
ATOM     23  H   UNL A   1      31.849  20.185  25.479  1.00  0.00     0.178 HD
ATOM     24  H   UNL A   1      31.130  21.718  25.279  1.00  0.00     0.178 HD
ENDBRANCH  13  22
ENDBRANCH  10  11
ENDBRANCH   8  10
ENDBRANCH   5   8
ENDBRANCH   3   4
ENDBRANCH   2   3
ENDBRANCH   1   2
BRANCH   1  25
ATOM     25  C   UNL A   1      33.225  28.888  24.835  1.00  0.00     0.002 C 
BRANCH  25  26
ATOM     26  C   UNL A   1      33.964  28.247  26.012  1.00  0.00     0.021 C 
BRANCH  26  27
ATOM     27  C   UNL A   1      33.421  28.636  27.382  1.00  0.00     0.116 C 
BRANCH  27  28
ATOM     28  N   UNL A   1      33.474  30.074  27.602  1.00  0.00    -0.352 N 
ATOM     29  C   UNL A   1      34.487  30.829  28.133  1.00  0.00     0.251 C 
ATOM     30  H   UNL A   1      32.671  30.573  27.331  1.00  0.00     0.163 HD
ATOM     31  O   UNL A   1      34.292  32.006  28.435  1.00  0.00    -0.269 OA
BRANCH  29  32
ATOM     32  C   UNL A   1      35.812  30.220  28.362  1.00  0.00     0.039 A 
ATOM     33  C   UNL A   1      36.746  30.222  27.326  1.00  0.00     0.014 A 
ATOM     34  C   UNL A   1      36.131  29.655  29.601  1.00  0.00     0.014 A 
ATOM     35  C   UNL A   1      38.026  29.712  27.551  1.00  0.00     0.010 A 
ATOM     36  C   UNL A   1      37.428  29.216  29.846  1.00  0.00     0.010 A 
ATOM     37  C   UNL A   1      38.389  29.238  28.823  1.00  0.00    -0.014 A 
BRANCH  37  38
ATOM     38  C   UNL A   1      39.768  28.772  29.106  1.00  0.00     0.031 A 
ATOM     39  C   UNL A   1      40.764  29.697  29.749  1.00  0.00     0.074 A 
ATOM     40  C   UNL A   1      40.144  27.536  28.723  1.00  0.00     0.049 A 
ATOM     41  N   UNL A   1      42.028  29.490  30.019  1.00  0.00    -0.248 NA
ATOM     42  C   UNL A   1      40.283  31.038  30.118  1.00  0.00     0.031 C 
ATOM     43  C   UNL A   1      39.283  26.554  28.058  1.00  0.00     0.029 A 
ATOM     44  N   UNL A   1      41.353  26.895  28.834  1.00  0.00    -0.354 N 
ATOM     45  C   UNL A   1      42.495  30.675  30.572  1.00  0.00     0.074 A 
ATOM     46  C   UNL A   1      41.394  31.612  30.554  1.00  0.00     0.031 C 
ATOM     47  C   UNL A   1      39.983  25.429  27.846  1.00  0.00     0.029 A 
ATOM     48  C   UNL A   1      41.351  25.622  28.317  1.00  0.00     0.049 A 
ATOM     49  H   UNL A   1      42.146  27.308  29.246  1.00  0.00     0.167 HD
ATOM     50  C   UNL A   1      43.723  30.952  31.069  1.00  0.00     0.031 A 
ATOM     51  C   UNL A   1      42.341  24.716  28.221  1.00  0.00     0.031 A 
ATOM     52  C   UNL A   1      44.817  30.018  31.091  1.00  0.00     0.049 A 
ATOM     53  C   UNL A   1      43.705  25.060  28.752  1.00  0.00     0.074 A 
ATOM     54  C   UNL A   1      46.085  30.187  31.621  1.00  0.00     0.029 A 
ATOM     55  N   UNL A   1      44.775  28.741  30.553  1.00  0.00    -0.354 N 
ATOM     56  N   UNL A   1      44.111  26.162  29.335  1.00  0.00    -0.248 NA
ATOM     57  C   UNL A   1      44.745  24.029  28.620  1.00  0.00     0.031 C 
ATOM     58  C   UNL A   1      46.828  29.034  31.350  1.00  0.00     0.029 A 
ATOM     59  C   UNL A   1      46.003  28.122  30.711  1.00  0.00     0.049 A 
ATOM     60  H   UNL A   1      43.989  28.334  30.123  1.00  0.00     0.167 HD
ATOM     61  C   UNL A   1      45.443  25.947  29.665  1.00  0.00     0.074 A 
ATOM     62  C   UNL A   1      45.771  24.604  29.231  1.00  0.00     0.031 C 
ATOM     63  C   UNL A   1      46.316  26.786  30.273  1.00  0.00     0.031 A 
BRANCH  50  64
ATOM     64  C   UNL A   1      43.953  32.333  31.623  1.00  0.00    -0.014 A 
ATOM     65  C   UNL A   1      43.722  32.623  32.977  1.00  0.00     0.009 A 
ATOM     66  C   UNL A   1      44.442  33.348  30.787  1.00  0.00     0.009 A 
ATOM     67  C   UNL A   1      43.939  33.910  33.473  1.00  0.00     0.001 A 
ATOM     68  C   UNL A   1      44.690  34.625  31.291  1.00  0.00     0.001 A 
ATOM     69  C   UNL A   1      44.429  34.908  32.631  1.00  0.00     0.000 A 
ENDBRANCH  50  64
BRANCH  51  70
ATOM     70  C   UNL A   1      42.081  23.389  27.602  1.00  0.00    -0.014 A 
ATOM     71  C   UNL A   1      42.450  23.139  26.271  1.00  0.00     0.009 A 
ATOM     72  C   UNL A   1      41.456  22.367  28.334  1.00  0.00     0.009 A 
ATOM     73  C   UNL A   1      42.172  21.906  25.678  1.00  0.00     0.001 A 
ATOM     74  C   UNL A   1      41.207  21.125  27.748  1.00  0.00     0.001 A 
ATOM     75  C   UNL A   1      41.555  20.898  26.418  1.00  0.00     0.000 A 
ENDBRANCH  51  70
BRANCH  63  76
ATOM     76  C   UNL A   1      47.701  26.265  30.539  1.00  0.00    -0.014 A 
ATOM     77  C   UNL A   1      48.053  25.730  31.788  1.00  0.00     0.009 A 
ATOM     78  C   UNL A   1      48.653  26.270  29.509  1.00  0.00     0.009 A 
ATOM     79  C   UNL A   1      49.344  25.240  32.007  1.00  0.00     0.001 A 
ATOM     80  C   UNL A   1      49.931  25.751  29.721  1.00  0.00     0.001 A 
ATOM     81  C   UNL A   1      50.278  25.247  30.973  1.00  0.00     0.000 A 
ENDBRANCH  63  76
ENDBRANCH  37  38
ENDBRANCH  29  32
ENDBRANCH  27  28
ENDBRANCH  26  27
ENDBRANCH  25  26
ENDBRANCH   1  25
TORSDOF 16
ENDMDL
MODEL 2
REMARK VINA RESULT:     -10.3      1.745      7.592
REMARK SMILES C[C@@H](Sc1nc2ccccc2c(=O)n1N)C(=O)NCCCCCCNC(=O)c1ccc(-c2c3nc(c(-c4ccccc4)c4ccc([nH]4)c(-c4ccccc4)c4nc(c(-c5ccccc5)c5ccc2[nH]5)C=C4)C=C3)cc1
REMARK SMILES IDX 21 1 20 2 19 3 18 4 16 5 17 6 2 8 1 9 3 10 4 11 5 12 14 13
REMARK SMILES IDX 6 14 12 15 7 16 11 17 13 18 8 19 10 20 9 21 15 22 22 25
REMARK SMILES IDX 23 26 24 27 25 28 26 29 27 31 28 32 29 33 75 34 30 35 74 36
REMARK SMILES IDX 31 37 32 38 33 39 68 40 34 41 73 42 67 43 69 44 35 45 72 46
REMARK SMILES IDX 66 47 65 48 36 50 58 51 43 52 57 53 44 54 47 55 56 56 70 57
REMARK SMILES IDX 45 58 46 59 55 61 71 62 48 63 37 64 38 65 42 66 39 67 41 68
REMARK SMILES IDX 40 69 59 70 60 71 64 72 61 73 63 74 62 75 49 76 50 77 54 78
REMARK SMILES IDX 51 79 53 80 52 81
REMARK H PARENT 18 7 15 23 15 24 25 30 69 49 47 60
REMARK Flexibility Score: inf
ROOT
ATOM      1  C   UNL A   1      36.970  22.226  24.332  1.00  0.00     0.002 C 
ENDROOT
BRANCH   1   2
ATOM      2  C   UNL A   1      36.898  23.307  25.417  1.00  0.00     0.021 C 
BRANCH   2   3
ATOM      3  C   UNL A   1      35.511  23.921  25.577  1.00  0.00     0.116 C 
BRANCH   3   4
ATOM      4  N   UNL A   1      34.834  23.355  26.729  1.00  0.00    -0.355 N 
ATOM      5  C   UNL A   1      33.606  22.777  26.841  1.00  0.00     0.233 C 
ATOM      6  O   UNL A   1      33.263  22.392  27.963  1.00  0.00    -0.274 OA
ATOM      7  H   UNL A   1      35.348  23.394  27.568  1.00  0.00     0.163 HD
BRANCH   5   8
ATOM      8  C   UNL A   1      32.679  22.593  25.636  1.00  0.00     0.141 C 
ATOM      9  C   UNL A   1      32.836  21.229  24.972  1.00  0.00     0.030 C 
BRANCH   8  10
ATOM     10  S   UNL A   1      30.988  23.067  26.152  1.00  0.00    -0.073 SA
BRANCH  10  11
ATOM     11  C   UNL A   1      30.949  24.768  25.769  1.00  0.00     0.191 A 
ATOM     12  N   UNL A   1      31.298  25.585  26.709  1.00  0.00    -0.222 NA
ATOM     13  N   UNL A   1      30.640  25.159  24.472  1.00  0.00    -0.202 N 
ATOM     14  C   UNL A   1      31.396  26.947  26.395  1.00  0.00     0.079 A 
ATOM     15  C   UNL A   1      30.721  26.494  24.075  1.00  0.00     0.280 A 
ATOM     16  C   UNL A   1      31.816  27.836  27.389  1.00  0.00     0.029 A 
ATOM     17  C   UNL A   1      31.134  27.449  25.119  1.00  0.00     0.068 A 
ATOM     18  O   UNL A   1      30.499  26.876  22.926  1.00  0.00    -0.267 OA
ATOM     19  C   UNL A   1      31.975  29.196  27.109  1.00  0.00     0.002 A 
ATOM     20  C   UNL A   1      31.285  28.809  24.829  1.00  0.00     0.016 A 
ATOM     21  C   UNL A   1      31.709  29.682  25.829  1.00  0.00     0.001 A 
BRANCH  13  22
ATOM     22  N   UNL A   1      30.241  24.215  23.470  1.00  0.00    -0.334 N 
ATOM     23  H   UNL A   1      30.662  23.326  23.437  1.00  0.00     0.178 HD
ATOM     24  H   UNL A   1      29.548  24.456  22.814  1.00  0.00     0.178 HD
ENDBRANCH  13  22
ENDBRANCH  10  11
ENDBRANCH   8  10
ENDBRANCH   5   8
ENDBRANCH   3   4
ENDBRANCH   2   3
ENDBRANCH   1   2
BRANCH   1  25
ATOM     25  C   UNL A   1      36.630  20.810  24.811  1.00  0.00     0.002 C 
BRANCH  25  26
ATOM     26  C   UNL A   1      37.819  19.849  24.873  1.00  0.00     0.021 C 
BRANCH  26  27
ATOM     27  C   UNL A   1      38.910  20.261  25.854  1.00  0.00     0.116 C 
BRANCH  27  28
ATOM     28  N   UNL A   1      40.019  19.319  25.862  1.00  0.00    -0.352 N 
ATOM     29  C   UNL A   1      41.349  19.552  26.100  1.00  0.00     0.251 C 
ATOM     30  H   UNL A   1      39.782  18.384  25.669  1.00  0.00     0.163 HD
ATOM     31  O   UNL A   1      42.184  18.680  25.870  1.00  0.00    -0.269 OA
BRANCH  29  32
ATOM     32  C   UNL A   1      41.780  20.866  26.617  1.00  0.00     0.039 A 
ATOM     33  C   UNL A   1      42.261  21.822  25.721  1.00  0.00     0.014 A 
ATOM     34  C   UNL A   1      41.704  21.153  27.984  1.00  0.00     0.014 A 
ATOM     35  C   UNL A   1      42.606  23.091  26.187  1.00  0.00     0.010 A 
ATOM     36  C   UNL A   1      41.977  22.440  28.435  1.00  0.00     0.010 A 
ATOM     37  C   UNL A   1      42.433  23.423  27.542  1.00  0.00    -0.014 A 
BRANCH  37  38
ATOM     38  C   UNL A   1      42.713  24.791  28.041  1.00  0.00     0.031 A 
ATOM     39  C   UNL A   1      44.104  25.174  28.464  1.00  0.00     0.074 A 
ATOM     40  C   UNL A   1      41.701  25.670  28.174  1.00  0.00     0.049 A 
ATOM     41  N   UNL A   1      44.529  26.299  28.981  1.00  0.00    -0.248 NA
ATOM     42  C   UNL A   1      45.151  24.151  28.308  1.00  0.00     0.031 C 
ATOM     43  C   UNL A   1      40.300  25.411  27.832  1.00  0.00     0.029 A 
ATOM     44  N   UNL A   1      41.693  26.961  28.640  1.00  0.00    -0.354 N 
ATOM     45  C   UNL A   1      45.883  26.114  29.225  1.00  0.00     0.074 A 
ATOM     46  C   UNL A   1      46.199  24.754  28.847  1.00  0.00     0.031 C 
ATOM     47  C   UNL A   1      39.577  26.515  28.074  1.00  0.00     0.029 A 
ATOM     48  C   UNL A   1      40.450  27.544  28.629  1.00  0.00     0.049 A 
ATOM     49  H   UNL A   1      42.504  27.425  28.953  1.00  0.00     0.167 HD
ATOM     50  C   UNL A   1      46.788  27.002  29.701  1.00  0.00     0.031 A 
ATOM     51  C   UNL A   1      40.053  28.766  29.031  1.00  0.00     0.031 A 
ATOM     52  C   UNL A   1      46.474  28.356  30.073  1.00  0.00     0.049 A 
ATOM     53  C   UNL A   1      41.072  29.723  29.586  1.00  0.00     0.074 A 
ATOM     54  C   UNL A   1      47.331  29.349  30.517  1.00  0.00     0.029 A 
ATOM     55  N   UNL A   1      45.201  28.906  30.050  1.00  0.00    -0.354 N 
ATOM     56  N   UNL A   1      42.362  29.555  29.745  1.00  0.00    -0.248 NA
ATOM     57  C   UNL A   1      40.578  31.042  30.007  1.00  0.00     0.031 C 
ATOM     58  C   UNL A   1      46.567  30.480  30.820  1.00  0.00     0.029 A 
ATOM     59  C   UNL A   1      45.245  30.214  30.501  1.00  0.00     0.049 A 
ATOM     60  H   UNL A   1      44.387  28.436  29.757  1.00  0.00     0.167 HD
ATOM     61  C   UNL A   1      42.839  30.755  30.258  1.00  0.00     0.074 A 
ATOM     62  C   UNL A   1      41.702  31.646  30.366  1.00  0.00     0.031 C 
ATOM     63  C   UNL A   1      44.105  31.089  30.606  1.00  0.00     0.031 A 
BRANCH  50  64
ATOM     64  C   UNL A   1      48.208  26.529  29.859  1.00  0.00    -0.014 A 
ATOM     65  C   UNL A   1      48.636  25.888  31.032  1.00  0.00     0.009 A 
ATOM     66  C   UNL A   1      49.120  26.694  28.805  1.00  0.00     0.009 A 
ATOM     67  C   UNL A   1      49.958  25.457  31.162  1.00  0.00     0.001 A 
ATOM     68  C   UNL A   1      50.432  26.233  28.924  1.00  0.00     0.001 A 
ATOM     69  C   UNL A   1      50.853  25.624  30.105  1.00  0.00     0.000 A 
ENDBRANCH  50  64
BRANCH  51  70
ATOM     70  C   UNL A   1      38.624  29.161  28.919  1.00  0.00    -0.014 A 
ATOM     71  C   UNL A   1      38.121  29.682  27.716  1.00  0.00     0.009 A 
ATOM     72  C   UNL A   1      37.756  29.027  30.014  1.00  0.00     0.009 A 
ATOM     73  C   UNL A   1      36.788  30.089  27.623  1.00  0.00     0.001 A 
ATOM     74  C   UNL A   1      36.416  29.404  29.907  1.00  0.00     0.001 A 
ATOM     75  C   UNL A   1      35.936  29.945  28.717  1.00  0.00     0.000 A 
ENDBRANCH  51  70
BRANCH  63  76
ATOM     76  C   UNL A   1      44.337  32.489  31.103  1.00  0.00    -0.014 A 
ATOM     77  C   UNL A   1      44.615  33.542  30.219  1.00  0.00     0.009 A 
ATOM     78  C   UNL A   1      44.230  32.763  32.476  1.00  0.00     0.009 A 
ATOM     79  C   UNL A   1      44.814  34.837  30.705  1.00  0.00     0.001 A 
ATOM     80  C   UNL A   1      44.398  34.062  32.955  1.00  0.00     0.001 A 
ATOM     81  C   UNL A   1      44.700  35.096  32.070  1.00  0.00     0.000 A 
ENDBRANCH  63  76
ENDBRANCH  37  38
ENDBRANCH  29  32
ENDBRANCH  27  28
ENDBRANCH  26  27
ENDBRANCH  25  26
ENDBRANCH   1  25
TORSDOF 16
ENDMDL
MODEL 3
REMARK VINA RESULT:     -10.3      0.500      5.968
REMARK SMILES C[C@@H](Sc1nc2ccccc2c(=O)n1N)C(=O)NCCCCCCNC(=O)c1ccc(-c2c3nc(c(-c4ccccc4)c4ccc([nH]4)c(-c4ccccc4)c4nc(c(-c5ccccc5)c5ccc2[nH]5)C=C4)C=C3)cc1
REMARK SMILES IDX 21 1 20 2 19 3 18 4 16 5 17 6 2 8 1 9 3 10 4 11 5 12 14 13
REMARK SMILES IDX 6 14 12 15 7 16 11 17 13 18 8 19 10 20 9 21 15 22 22 25
REMARK SMILES IDX 23 26 24 27 25 28 26 29 27 31 28 32 29 33 75 34 30 35 74 36
REMARK SMILES IDX 31 37 32 38 33 39 68 40 34 41 73 42 67 43 69 44 35 45 72 46
REMARK SMILES IDX 66 47 65 48 36 50 58 51 43 52 57 53 44 54 47 55 56 56 70 57
REMARK SMILES IDX 45 58 46 59 55 61 71 62 48 63 37 64 38 65 42 66 39 67 41 68
REMARK SMILES IDX 40 69 59 70 60 71 64 72 61 73 63 74 62 75 49 76 50 77 54 78
REMARK SMILES IDX 51 79 53 80 52 81
REMARK H PARENT 18 7 15 23 15 24 25 30 69 49 47 60
REMARK Flexibility Score: inf
ROOT
ATOM      1  C   UNL A   1      33.918  28.209  23.360  1.00  0.00     0.002 C 
ENDROOT
BRANCH   1   2
ATOM      2  C   UNL A   1      33.094  27.153  22.614  1.00  0.00     0.021 C 
BRANCH   2   3
ATOM      3  C   UNL A   1      33.564  25.723  22.862  1.00  0.00     0.116 C 
BRANCH   3   4
ATOM      4  N   UNL A   1      32.437  24.811  22.872  1.00  0.00    -0.355 N 
ATOM      5  C   UNL A   1      31.531  24.529  23.849  1.00  0.00     0.233 C 
ATOM      6  O   UNL A   1      30.671  23.680  23.593  1.00  0.00    -0.274 OA
ATOM      7  H   UNL A   1      32.305  24.313  22.032  1.00  0.00     0.163 HD
BRANCH   5   8
ATOM      8  C   UNL A   1      31.554  25.232  25.209  1.00  0.00     0.141 C 
ATOM      9  C   UNL A   1      30.400  26.212  25.387  1.00  0.00     0.030 C 
BRANCH   8  10
ATOM     10  S   UNL A   1      31.753  23.949  26.499  1.00  0.00    -0.073 SA
BRANCH  10  11
ATOM     11  C   UNL A   1      33.185  23.108  25.967  1.00  0.00     0.191 A 
ATOM     12  N   UNL A   1      34.311  23.728  26.112  1.00  0.00    -0.222 NA
ATOM     13  N   UNL A   1      33.067  21.803  25.504  1.00  0.00    -0.202 N 
ATOM     14  C   UNL A   1      35.489  23.032  25.809  1.00  0.00     0.079 A 
ATOM     15  C   UNL A   1      34.190  21.039  25.189  1.00  0.00     0.280 A 
ATOM     16  C   UNL A   1      36.715  23.673  26.005  1.00  0.00     0.029 A 
ATOM     17  C   UNL A   1      35.491  21.709  25.362  1.00  0.00     0.068 A 
ATOM     18  O   UNL A   1      34.131  19.866  24.819  1.00  0.00    -0.267 OA
ATOM     19  C   UNL A   1      37.918  23.002  25.762  1.00  0.00     0.002 A 
ATOM     20  C   UNL A   1      36.688  21.030  25.111  1.00  0.00     0.016 A 
ATOM     21  C   UNL A   1      37.904  21.681  25.315  1.00  0.00     0.001 A 
BRANCH  13  22
ATOM     22  N   UNL A   1      31.793  21.168  25.344  1.00  0.00    -0.334 N 
ATOM     23  H   UNL A   1      30.974  21.623  25.649  1.00  0.00     0.178 HD
ATOM     24  H   UNL A   1      31.735  20.276  24.932  1.00  0.00     0.178 HD
ENDBRANCH  13  22
ENDBRANCH  10  11
ENDBRANCH   8  10
ENDBRANCH   5   8
ENDBRANCH   3   4
ENDBRANCH   2   3
ENDBRANCH   1   2
BRANCH   1  25
ATOM     25  C   UNL A   1      33.322  28.663  24.698  1.00  0.00     0.002 C 
BRANCH  25  26
ATOM     26  C   UNL A   1      34.062  28.153  25.937  1.00  0.00     0.021 C 
BRANCH  26  27
ATOM     27  C   UNL A   1      33.440  28.582  27.261  1.00  0.00     0.116 C 
BRANCH  27  28
ATOM     28  N   UNL A   1      33.472  30.026  27.436  1.00  0.00    -0.352 N 
ATOM     29  C   UNL A   1      34.461  30.809  27.972  1.00  0.00     0.251 C 
ATOM     30  H   UNL A   1      32.673  30.508  27.126  1.00  0.00     0.163 HD
ATOM     31  O   UNL A   1      34.246  31.992  28.231  1.00  0.00    -0.269 OA
BRANCH  29  32
ATOM     32  C   UNL A   1      35.785  30.222  28.260  1.00  0.00     0.039 A 
ATOM     33  C   UNL A   1      36.753  30.211  27.255  1.00  0.00     0.014 A 
ATOM     34  C   UNL A   1      36.069  29.690  29.521  1.00  0.00     0.014 A 
ATOM     35  C   UNL A   1      38.031  29.723  27.534  1.00  0.00     0.010 A 
ATOM     36  C   UNL A   1      37.362  29.273  29.819  1.00  0.00     0.010 A 
ATOM     37  C   UNL A   1      38.356  29.283  28.828  1.00  0.00    -0.014 A 
BRANCH  37  38
ATOM     38  C   UNL A   1      39.731  28.841  29.167  1.00  0.00     0.031 A 
ATOM     39  C   UNL A   1      40.213  27.477  28.755  1.00  0.00     0.074 A 
ATOM     40  C   UNL A   1      40.524  29.643  29.904  1.00  0.00     0.049 A 
ATOM     41  N   UNL A   1      41.355  26.894  29.011  1.00  0.00    -0.248 NA
ATOM     42  C   UNL A   1      39.279  26.653  27.971  1.00  0.00     0.031 C 
ATOM     43  C   UNL A   1      40.164  30.975  30.397  1.00  0.00     0.029 A 
ATOM     44  N   UNL A   1      41.800  29.451  30.373  1.00  0.00    -0.354 N 
ATOM     45  C   UNL A   1      41.272  25.633  28.435  1.00  0.00     0.074 A 
ATOM     46  C   UNL A   1      39.950  25.517  27.860  1.00  0.00     0.031 C 
ATOM     47  C   UNL A   1      41.202  31.489  31.073  1.00  0.00     0.029 A 
ATOM     48  C   UNL A   1      42.284  30.509  31.103  1.00  0.00     0.049 A 
ATOM     49  H   UNL A   1      42.319  28.632  30.202  1.00  0.00     0.167 HD
ATOM     50  C   UNL A   1      42.217  24.666  28.373  1.00  0.00     0.031 A 
ATOM     51  C   UNL A   1      43.462  30.671  31.734  1.00  0.00     0.031 A 
ATOM     52  C   UNL A   1      43.533  24.782  28.941  1.00  0.00     0.049 A 
ATOM     53  C   UNL A   1      44.482  29.568  31.677  1.00  0.00     0.074 A 
ATOM     54  C   UNL A   1      44.580  23.878  28.885  1.00  0.00     0.029 A 
ATOM     55  N   UNL A   1      43.982  25.869  29.676  1.00  0.00    -0.354 N 
ATOM     56  N   UNL A   1      44.413  28.409  31.069  1.00  0.00    -0.248 NA
ATOM     57  C   UNL A   1      45.749  29.803  32.385  1.00  0.00     0.031 C 
ATOM     58  C   UNL A   1      45.641  24.392  29.637  1.00  0.00     0.029 A 
ATOM     59  C   UNL A   1      45.279  25.646  30.105  1.00  0.00     0.049 A 
ATOM     60  H   UNL A   1      43.457  26.680  29.864  1.00  0.00     0.167 HD
ATOM     61  C   UNL A   1      45.635  27.788  31.297  1.00  0.00     0.074 A 
ATOM     62  C   UNL A   1      46.432  28.707  32.084  1.00  0.00     0.031 C 
ATOM     63  C   UNL A   1      46.059  26.568  30.889  1.00  0.00     0.031 A 
BRANCH  50  64
ATOM     64  C   UNL A   1      41.854  23.384  27.671  1.00  0.00    -0.014 A 
ATOM     65  C   UNL A   1      42.188  23.171  26.324  1.00  0.00     0.009 A 
ATOM     66  C   UNL A   1      41.202  22.362  28.377  1.00  0.00     0.009 A 
ATOM     67  C   UNL A   1      41.843  21.977  25.688  1.00  0.00     0.001 A 
ATOM     68  C   UNL A   1      40.887  21.156  27.749  1.00  0.00     0.001 A 
ATOM     69  C   UNL A   1      41.198  20.968  26.403  1.00  0.00     0.000 A 
ENDBRANCH  50  64
BRANCH  51  70
ATOM     70  C   UNL A   1      43.746  31.929  32.474  1.00  0.00    -0.014 A 
ATOM     71  C   UNL A   1      43.395  32.055  33.827  1.00  0.00     0.009 A 
ATOM     72  C   UNL A   1      44.362  33.014  31.831  1.00  0.00     0.009 A 
ATOM     73  C   UNL A   1      43.627  33.250  34.511  1.00  0.00     0.001 A 
ATOM     74  C   UNL A   1      44.621  34.197  32.526  1.00  0.00     0.001 A 
ATOM     75  C   UNL A   1      44.244  34.318  33.861  1.00  0.00     0.000 A 
ENDBRANCH  51  70
BRANCH  63  76
ATOM     76  C   UNL A   1      47.461  26.168  31.256  1.00  0.00    -0.014 A 
ATOM     77  C   UNL A   1      48.541  26.411  30.393  1.00  0.00     0.009 A 
ATOM     78  C   UNL A   1      47.709  25.579  32.506  1.00  0.00     0.009 A 
ATOM     79  C   UNL A   1      49.837  26.041  30.763  1.00  0.00     0.001 A 
ATOM     80  C   UNL A   1      49.008  25.240  32.886  1.00  0.00     0.001 A 
ATOM     81  C   UNL A   1      50.069  25.462  32.009  1.00  0.00     0.000 A 
ENDBRANCH  63  76
ENDBRANCH  37  38
ENDBRANCH  29  32
ENDBRANCH  27  28
ENDBRANCH  26  27
ENDBRANCH  25  26
ENDBRANCH   1  25
TORSDOF 16
ENDMDL
