MODEL 1
REMARK VINA RESULT:     -10.9      0.000      0.000
REMARK SMILES Cc1cnc(N2CCO[C@H](CC(=O)NCCCCCCNC(=O)c3ccc(-c4c5nc(c(-c6ccccc6)c6ccc([nH]6)c(-c6ccccc6)c6nc(c(-c7ccccc7)c7ccc4[nH]7)C=C6)C=C5)cc3)C2)c([N+](=O)[O-])c1
REMARK SMILES IDX 17 1 16 2 15 3 14 4 12 5 13 6 11 8 10 9 6 10 7 11 72 12 8 13
REMARK SMILES IDX 9 14 5 15 1 16 2 17 3 18 77 19 4 20 73 21 74 22 75 23 76 24
REMARK SMILES IDX 18 25 19 26 20 27 21 28 22 29 23 31 24 32 25 33 71 34 26 35
REMARK SMILES IDX 70 36 27 37 28 38 29 39 64 40 30 41 69 42 63 43 65 44 31 45
REMARK SMILES IDX 68 46 62 47 61 48 32 50 54 51 39 52 53 53 40 54 43 55 52 56
REMARK SMILES IDX 66 57 41 58 42 59 51 61 67 62 44 63 33 64 34 65 38 66 35 67
REMARK SMILES IDX 37 68 36 69 55 70 56 71 60 72 57 73 59 74 58 75 45 76 46 77
REMARK SMILES IDX 50 78 47 79 49 80 48 81
REMARK H PARENT 14 7 21 30 65 49 43 60
REMARK Flexibility Score: inf
ROOT
ATOM      1  C   UNL A   1      32.186  28.944  24.107  1.00  0.00     0.002 C 
ENDROOT
BRANCH   1   2
ATOM      2  C   UNL A   1      31.005  28.744  23.148  1.00  0.00     0.021 C 
BRANCH   2   3
ATOM      3  C   UNL A   1      30.797  27.284  22.754  1.00  0.00     0.116 C 
BRANCH   3   4
ATOM      4  N   UNL A   1      31.995  26.767  22.125  1.00  0.00    -0.356 N 
ATOM      5  C   UNL A   1      32.776  25.734  22.534  1.00  0.00     0.222 C 
ATOM      6  O   UNL A   1      33.887  25.582  22.030  1.00  0.00    -0.275 OA
ATOM      7  H   UNL A   1      32.279  27.222  21.299  1.00  0.00     0.163 HD
BRANCH   5   8
ATOM      8  C   UNL A   1      32.241  24.773  23.560  1.00  0.00     0.133 C 
BRANCH   8   9
ATOM      9  C   UNL A   1      32.254  25.350  24.986  1.00  0.00     0.147 C 
ATOM     10  N   UNL A   1      33.108  23.289  25.877  1.00  0.00    -0.346 N 
ATOM     11  C   UNL A   1      31.912  23.014  26.669  1.00  0.00     0.147 C 
ATOM     12  C   UNL A   1      33.416  24.717  25.780  1.00  0.00     0.151 C 
ATOM     13  C   UNL A   1      30.727  23.760  26.027  1.00  0.00     0.182 C 
ATOM     14  O   UNL A   1      31.008  25.143  25.705  1.00  0.00    -0.374 OA
BRANCH  10  15
ATOM     15  C   UNL A   1      34.119  22.382  25.713  1.00  0.00     0.208 A 
ATOM     16  C   UNL A   1      37.591  20.020  24.846  1.00  0.00     0.046 C 
ATOM     17  C   UNL A   1      36.354  20.799  25.155  1.00  0.00    -0.026 A 
ATOM     18  C   UNL A   1      36.422  22.008  25.830  1.00  0.00     0.117 A 
ATOM     19  C   UNL A   1      35.093  20.365  24.759  1.00  0.00     0.094 A 
ATOM     20  N   UNL A   1      35.350  22.790  26.104  1.00  0.00    -0.233 NA
ATOM     21  C   UNL A   1      33.975  21.163  25.043  1.00  0.00     0.311 A 
BRANCH  21  22
ATOM     22  N   UNL A   1      32.707  20.757  24.468  1.00  0.00     0.066 N 
ATOM     23  O   UNL A   1      32.034  19.901  25.057  1.00  0.00    -0.258 OA
ATOM     24  O   UNL A   1      32.406  21.249  23.369  1.00  0.00    -0.258 OA
ENDBRANCH  21  22
ENDBRANCH  10  15
ENDBRANCH   8   9
ENDBRANCH   5   8
ENDBRANCH   3   4
ENDBRANCH   2   3
ENDBRANCH   1   2
BRANCH   1  25
ATOM     25  C   UNL A   1      31.785  29.316  25.539  1.00  0.00     0.002 C 
BRANCH  25  26
ATOM     26  C   UNL A   1      32.291  28.350  26.613  1.00  0.00     0.021 C 
BRANCH  26  27
ATOM     27  C   UNL A   1      33.622  28.754  27.233  1.00  0.00     0.116 C 
BRANCH  27  28
ATOM     28  N   UNL A   1      33.613  30.139  27.680  1.00  0.00    -0.352 N 
ATOM     29  C   UNL A   1      34.572  30.832  28.373  1.00  0.00     0.251 C 
ATOM     30  H   UNL A   1      32.803  30.650  27.452  1.00  0.00     0.163 HD
ATOM     31  O   UNL A   1      34.321  31.932  28.852  1.00  0.00    -0.269 OA
BRANCH  29  32
ATOM     32  C   UNL A   1      35.910  30.234  28.555  1.00  0.00     0.039 A 
ATOM     33  C   UNL A   1      36.808  30.247  27.484  1.00  0.00     0.014 A 
ATOM     34  C   UNL A   1      36.274  29.660  29.776  1.00  0.00     0.014 A 
ATOM     35  C   UNL A   1      38.094  29.734  27.657  1.00  0.00     0.010 A 
ATOM     36  C   UNL A   1      37.577  29.212  29.967  1.00  0.00     0.010 A 
ATOM     37  C   UNL A   1      38.497  29.241  28.909  1.00  0.00    -0.014 A 
BRANCH  37  38
ATOM     38  C   UNL A   1      39.879  28.749  29.134  1.00  0.00     0.031 A 
ATOM     39  C   UNL A   1      40.918  29.662  29.721  1.00  0.00     0.074 A 
ATOM     40  C   UNL A   1      40.213  27.502  28.746  1.00  0.00     0.049 A 
ATOM     41  N   UNL A   1      42.192  29.439  29.924  1.00  0.00    -0.248 NA
ATOM     42  C   UNL A   1      40.474  31.011  30.107  1.00  0.00     0.031 C 
ATOM     43  C   UNL A   1      39.305  26.531  28.133  1.00  0.00     0.029 A 
ATOM     44  N   UNL A   1      41.415  26.844  28.803  1.00  0.00    -0.354 N 
ATOM     45  C   UNL A   1      42.703  30.622  30.443  1.00  0.00     0.074 A 
ATOM     46  C   UNL A   1      41.615  31.574  30.479  1.00  0.00     0.031 C 
ATOM     47  C   UNL A   1      39.976  25.394  27.893  1.00  0.00     0.029 A 
ATOM     48  C   UNL A   1      41.368  25.569  28.294  1.00  0.00     0.049 A 
ATOM     49  H   UNL A   1      42.233  27.246  29.175  1.00  0.00     0.167 HD
ATOM     50  C   UNL A   1      43.961  30.888  30.867  1.00  0.00     0.031 A 
ATOM     51  C   UNL A   1      42.339  24.647  28.156  1.00  0.00     0.031 A 
ATOM     52  C   UNL A   1      45.041  29.938  30.840  1.00  0.00     0.049 A 
ATOM     53  C   UNL A   1      43.732  24.973  28.617  1.00  0.00     0.074 A 
ATOM     54  C   UNL A   1      46.337  30.094  31.298  1.00  0.00     0.029 A 
ATOM     55  N   UNL A   1      44.950  28.655  30.323  1.00  0.00    -0.354 N 
ATOM     56  N   UNL A   1      44.184  26.075  29.165  1.00  0.00    -0.248 NA
ATOM     57  C   UNL A   1      44.747  23.923  28.449  1.00  0.00     0.031 C 
ATOM     58  C   UNL A   1      47.045  28.922  31.011  1.00  0.00     0.029 A 
ATOM     59  C   UNL A   1      46.174  28.017  30.427  1.00  0.00     0.049 A 
ATOM     60  H   UNL A   1      44.135  28.258  29.937  1.00  0.00     0.167 HD
ATOM     61  C   UNL A   1      45.527  25.840  29.435  1.00  0.00     0.074 A 
ATOM     62  C   UNL A   1      45.811  24.487  29.002  1.00  0.00     0.031 C 
ATOM     63  C   UNL A   1      46.441  26.669  29.995  1.00  0.00     0.031 A 
BRANCH  50  64
ATOM     64  C   UNL A   1      44.238  32.270  31.391  1.00  0.00    -0.014 A 
ATOM     65  C   UNL A   1      44.092  32.576  32.754  1.00  0.00     0.009 A 
ATOM     66  C   UNL A   1      44.684  33.272  30.514  1.00  0.00     0.009 A 
ATOM     67  C   UNL A   1      44.351  33.866  33.221  1.00  0.00     0.001 A 
ATOM     68  C   UNL A   1      44.971  34.553  30.990  1.00  0.00     0.001 A 
ATOM     69  C   UNL A   1      44.795  34.852  32.340  1.00  0.00     0.000 A 
ENDBRANCH  50  64
BRANCH  51  70
ATOM     70  C   UNL A   1      42.027  23.320  27.564  1.00  0.00    -0.014 A 
ATOM     71  C   UNL A   1      42.314  23.057  26.215  1.00  0.00     0.009 A 
ATOM     72  C   UNL A   1      41.437  22.311  28.341  1.00  0.00     0.009 A 
ATOM     73  C   UNL A   1      41.992  21.821  25.651  1.00  0.00     0.001 A 
ATOM     74  C   UNL A   1      41.141  21.067  27.782  1.00  0.00     0.001 A 
ATOM     75  C   UNL A   1      41.410  20.826  26.435  1.00  0.00     0.000 A 
ENDBRANCH  51  70
BRANCH  63  76
ATOM     76  C   UNL A   1      47.824  26.126  30.208  1.00  0.00    -0.014 A 
ATOM     77  C   UNL A   1      48.734  26.004  29.146  1.00  0.00     0.009 A 
ATOM     78  C   UNL A   1      48.238  25.774  31.503  1.00  0.00     0.009 A 
ATOM     79  C   UNL A   1      50.021  25.511  29.374  1.00  0.00     0.001 A 
ATOM     80  C   UNL A   1      49.533  25.310  31.731  1.00  0.00     0.001 A 
ATOM     81  C   UNL A   1      50.421  25.170  30.665  1.00  0.00     0.000 A 
ENDBRANCH  63  76
ENDBRANCH  37  38
ENDBRANCH  29  32
ENDBRANCH  27  28
ENDBRANCH  26  27
ENDBRANCH  25  26
ENDBRANCH   1  25
TORSDOF 16
ENDMDL
MODEL 2
REMARK VINA RESULT:     -10.9      1.665      7.699
REMARK SMILES Cc1cnc(N2CCO[C@H](CC(=O)NCCCCCCNC(=O)c3ccc(-c4c5nc(c(-c6ccccc6)c6ccc([nH]6)c(-c6ccccc6)c6nc(c(-c7ccccc7)c7ccc4[nH]7)C=C6)C=C5)cc3)C2)c([N+](=O)[O-])c1
REMARK SMILES IDX 17 1 16 2 15 3 14 4 12 5 13 6 11 8 10 9 6 10 7 11 72 12 8 13
REMARK SMILES IDX 9 14 5 15 1 16 2 17 3 18 77 19 4 20 73 21 74 22 75 23 76 24
REMARK SMILES IDX 18 25 19 26 20 27 21 28 22 29 23 31 24 32 25 33 71 34 26 35
REMARK SMILES IDX 70 36 27 37 28 38 29 39 64 40 30 41 69 42 63 43 65 44 31 45
REMARK SMILES IDX 68 46 62 47 61 48 32 50 54 51 39 52 53 53 40 54 43 55 52 56
REMARK SMILES IDX 66 57 41 58 42 59 51 61 67 62 44 63 33 64 34 65 38 66 35 67
REMARK SMILES IDX 37 68 36 69 55 70 56 71 60 72 57 73 59 74 58 75 45 76 46 77
REMARK SMILES IDX 50 78 47 79 49 80 48 81
REMARK H PARENT 14 7 21 30 65 49 43 60
REMARK Flexibility Score: inf
ROOT
ATOM      1  C   UNL A   1      34.940  20.915  24.948  1.00  0.00     0.002 C 
ENDROOT
BRANCH   1   2
ATOM      2  C   UNL A   1      33.672  20.461  25.684  1.00  0.00     0.021 C 
BRANCH   2   3
ATOM      3  C   UNL A   1      32.409  21.152  25.177  1.00  0.00     0.116 C 
BRANCH   3   4
ATOM      4  N   UNL A   1      31.856  21.994  26.217  1.00  0.00    -0.356 N 
ATOM      5  C   UNL A   1      31.762  23.349  26.236  1.00  0.00     0.222 C 
ATOM      6  O   UNL A   1      31.498  23.920  27.293  1.00  0.00    -0.275 OA
ATOM      7  H   UNL A   1      31.505  21.526  27.010  1.00  0.00     0.163 HD
BRANCH   5   8
ATOM      8  C   UNL A   1      31.940  24.114  24.954  1.00  0.00     0.133 C 
BRANCH   8   9
ATOM      9  C   UNL A   1      33.403  24.159  24.480  1.00  0.00     0.147 C 
ATOM     10  N   UNL A   1      33.191  26.468  23.850  1.00  0.00    -0.346 N 
ATOM     11  C   UNL A   1      33.391  26.206  22.427  1.00  0.00     0.147 C 
ATOM     12  C   UNL A   1      33.969  25.575  24.712  1.00  0.00     0.151 C 
ATOM     13  C   UNL A   1      33.003  24.741  22.147  1.00  0.00     0.182 C 
ATOM     14  O   UNL A   1      33.569  23.794  23.083  1.00  0.00    -0.374 OA
BRANCH  10  15
ATOM     15  C   UNL A   1      32.802  27.685  24.337  1.00  0.00     0.208 A 
ATOM     16  C   UNL A   1      31.659  31.225  26.469  1.00  0.00     0.046 C 
ATOM     17  C   UNL A   1      32.031  30.009  25.685  1.00  0.00    -0.026 A 
ATOM     18  C   UNL A   1      33.264  29.398  25.857  1.00  0.00     0.117 A 
ATOM     19  C   UNL A   1      31.156  29.424  24.776  1.00  0.00     0.094 A 
ATOM     20  N   UNL A   1      33.652  28.269  25.216  1.00  0.00    -0.233 NA
ATOM     21  C   UNL A   1      31.549  28.258  24.102  1.00  0.00     0.311 A 
BRANCH  21  22
ATOM     22  N   UNL A   1      30.547  27.590  23.294  1.00  0.00     0.066 N 
ATOM     23  O   UNL A   1      30.389  27.955  22.121  1.00  0.00    -0.258 OA
ATOM     24  O   UNL A   1      29.854  26.729  23.858  1.00  0.00    -0.258 OA
ENDBRANCH  21  22
ENDBRANCH  10  15
ENDBRANCH   8   9
ENDBRANCH   5   8
ENDBRANCH   3   4
ENDBRANCH   2   3
ENDBRANCH   1   2
BRANCH   1  25
ATOM     25  C   UNL A   1      36.092  19.905  24.987  1.00  0.00     0.002 C 
BRANCH  25  26
ATOM     26  C   UNL A   1      37.450  20.471  24.564  1.00  0.00     0.021 C 
BRANCH  26  27
ATOM     27  C   UNL A   1      38.431  20.655  25.715  1.00  0.00     0.116 C 
BRANCH  27  28
ATOM     28  N   UNL A   1      39.473  19.641  25.705  1.00  0.00    -0.352 N 
ATOM     29  C   UNL A   1      40.811  19.770  25.979  1.00  0.00     0.251 C 
ATOM     30  H   UNL A   1      39.176  18.733  25.466  1.00  0.00     0.163 HD
ATOM     31  O   UNL A   1      41.590  18.859  25.723  1.00  0.00    -0.269 OA
BRANCH  29  32
ATOM     32  C   UNL A   1      41.312  21.027  26.572  1.00  0.00     0.039 A 
ATOM     33  C   UNL A   1      41.867  21.996  25.732  1.00  0.00     0.014 A 
ATOM     34  C   UNL A   1      41.236  21.244  27.950  1.00  0.00     0.014 A 
ATOM     35  C   UNL A   1      42.295  23.210  26.271  1.00  0.00     0.010 A 
ATOM     36  C   UNL A   1      41.599  22.480  28.475  1.00  0.00     0.010 A 
ATOM     37  C   UNL A   1      42.135  23.472  27.641  1.00  0.00    -0.014 A 
BRANCH  37  38
ATOM     38  C   UNL A   1      42.525  24.779  28.226  1.00  0.00     0.031 A 
ATOM     39  C   UNL A   1      41.497  25.861  28.406  1.00  0.00     0.074 A 
ATOM     40  C   UNL A   1      43.816  25.015  28.529  1.00  0.00     0.049 A 
ATOM     41  N   UNL A   1      41.658  27.089  28.829  1.00  0.00    -0.248 NA
ATOM     42  C   UNL A   1      40.111  25.526  28.039  1.00  0.00     0.031 C 
ATOM     43  C   UNL A   1      44.914  24.060  28.368  1.00  0.00     0.029 A 
ATOM     44  N   UNL A   1      44.423  26.139  29.029  1.00  0.00    -0.354 N 
ATOM     45  C   UNL A   1      40.400  27.677  28.762  1.00  0.00     0.074 A 
ATOM     46  C   UNL A   1      39.498  26.689  28.214  1.00  0.00     0.031 C 
ATOM     47  C   UNL A   1      46.056  24.630  28.784  1.00  0.00     0.029 A 
ATOM     48  C   UNL A   1      45.780  26.002  29.199  1.00  0.00     0.049 A 
ATOM     49  H   UNL A   1      43.934  26.965  29.245  1.00  0.00     0.167 HD
ATOM     50  C   UNL A   1      40.027  28.923  29.138  1.00  0.00     0.031 A 
ATOM     51  C   UNL A   1      46.700  26.884  29.632  1.00  0.00     0.031 A 
ATOM     52  C   UNL A   1      40.922  29.903  29.693  1.00  0.00     0.049 A 
ATOM     53  C   UNL A   1      46.262  28.267  30.026  1.00  0.00     0.074 A 
ATOM     54  C   UNL A   1      40.629  31.173  30.156  1.00  0.00     0.029 A 
ATOM     55  N   UNL A   1      42.287  29.721  29.856  1.00  0.00    -0.354 N 
ATOM     56  N   UNL A   1      45.059  28.787  30.017  1.00  0.00    -0.248 NA
ATOM     57  C   UNL A   1      47.310  29.182  30.500  1.00  0.00     0.031 C 
ATOM     58  C   UNL A   1      41.826  31.780  30.552  1.00  0.00     0.029 A 
ATOM     59  C   UNL A   1      42.854  30.866  30.389  1.00  0.00     0.049 A 
ATOM     60  H   UNL A   1      42.779  28.900  29.625  1.00  0.00     0.167 HD
ATOM     61  C   UNL A   1      45.200  30.077  30.512  1.00  0.00     0.074 A 
ATOM     62  C   UNL A   1      46.604  30.256  30.823  1.00  0.00     0.031 C 
ATOM     63  C   UNL A   1      44.252  31.028  30.695  1.00  0.00     0.031 A 
BRANCH  50  64
ATOM     64  C   UNL A   1      38.582  29.298  28.953  1.00  0.00    -0.014 A 
ATOM     65  C   UNL A   1      38.102  29.760  27.717  1.00  0.00     0.009 A 
ATOM     66  C   UNL A   1      37.682  29.155  30.021  1.00  0.00     0.009 A 
ATOM     67  C   UNL A   1      36.757  30.107  27.565  1.00  0.00     0.001 A 
ATOM     68  C   UNL A   1      36.332  29.473  29.857  1.00  0.00     0.001 A 
ATOM     69  C   UNL A   1      35.873  29.958  28.633  1.00  0.00     0.000 A 
ENDBRANCH  50  64
BRANCH  51  70
ATOM     70  C   UNL A   1      48.128  26.484  29.727  1.00  0.00    -0.014 A 
ATOM     71  C   UNL A   1      48.619  25.872  30.890  1.00  0.00     0.009 A 
ATOM     72  C   UNL A   1      49.009  26.717  28.659  1.00  0.00     0.009 A 
ATOM     73  C   UNL A   1      49.968  25.525  30.992  1.00  0.00     0.001 A 
ATOM     74  C   UNL A   1      50.350  26.343  28.753  1.00  0.00     0.001 A 
ATOM     75  C   UNL A   1      50.831  25.756  29.923  1.00  0.00     0.000 A 
ENDBRANCH  51  70
BRANCH  63  76
ATOM     76  C   UNL A   1      44.692  32.332  31.295  1.00  0.00    -0.014 A 
ATOM     77  C   UNL A   1      44.758  32.513  32.685  1.00  0.00     0.009 A 
ATOM     78  C   UNL A   1      45.091  33.382  30.452  1.00  0.00     0.009 A 
ATOM     79  C   UNL A   1      45.188  33.731  33.217  1.00  0.00     0.001 A 
ATOM     80  C   UNL A   1      45.546  34.586  30.987  1.00  0.00     0.001 A 
ATOM     81  C   UNL A   1      45.586  34.764  32.369  1.00  0.00     0.000 A 
ENDBRANCH  63  76
ENDBRANCH  37  38
ENDBRANCH  29  32
ENDBRANCH  27  28
ENDBRANCH  26  27
ENDBRANCH  25  26
ENDBRANCH   1  25
TORSDOF 16
ENDMDL
MODEL 3
REMARK VINA RESULT:     -10.8      2.431      8.016
REMARK SMILES Cc1cnc(N2CCO[C@H](CC(=O)NCCCCCCNC(=O)c3ccc(-c4c5nc(c(-c6ccccc6)c6ccc([nH]6)c(-c6ccccc6)c6nc(c(-c7ccccc7)c7ccc4[nH]7)C=C6)C=C5)cc3)C2)c([N+](=O)[O-])c1
REMARK SMILES IDX 17 1 16 2 15 3 14 4 12 5 13 6 11 8 10 9 6 10 7 11 72 12 8 13
REMARK SMILES IDX 9 14 5 15 1 16 2 17 3 18 77 19 4 20 73 21 74 22 75 23 76 24
REMARK SMILES IDX 18 25 19 26 20 27 21 28 22 29 23 31 24 32 25 33 71 34 26 35
REMARK SMILES IDX 70 36 27 37 28 38 29 39 64 40 30 41 69 42 63 43 65 44 31 45
REMARK SMILES IDX 68 46 62 47 61 48 32 50 54 51 39 52 53 53 40 54 43 55 52 56
REMARK SMILES IDX 66 57 41 58 42 59 51 61 67 62 44 63 33 64 34 65 38 66 35 67
REMARK SMILES IDX 37 68 36 69 55 70 56 71 60 72 57 73 59 74 58 75 45 76 46 77
REMARK SMILES IDX 50 78 47 79 49 80 48 81
REMARK H PARENT 14 7 21 30 65 49 43 60
REMARK Flexibility Score: inf
ROOT
ATOM      1  C   UNL A   1      33.869  22.477  27.271  1.00  0.00     0.002 C 
ENDROOT
BRANCH   1   2
ATOM      2  C   UNL A   1      33.440  21.415  26.250  1.00  0.00     0.021 C 
BRANCH   2   3
ATOM      3  C   UNL A   1      32.138  21.769  25.535  1.00  0.00     0.116 C 
BRANCH   3   4
ATOM      4  N   UNL A   1      31.547  22.945  26.138  1.00  0.00    -0.356 N 
ATOM      5  C   UNL A   1      31.430  24.189  25.607  1.00  0.00     0.222 C 
ATOM      6  O   UNL A   1      31.130  25.131  26.339  1.00  0.00    -0.275 OA
ATOM      7  H   UNL A   1      31.184  22.828  27.047  1.00  0.00     0.163 HD
BRANCH   5   8
ATOM      8  C   UNL A   1      31.625  24.377  24.128  1.00  0.00     0.133 C 
BRANCH   8   9
ATOM      9  C   UNL A   1      33.108  24.406  23.717  1.00  0.00     0.147 C 
ATOM     10  N   UNL A   1      33.041  26.789  23.426  1.00  0.00    -0.346 N 
ATOM     11  C   UNL A   1      33.289  26.725  21.987  1.00  0.00     0.147 C 
ATOM     12  C   UNL A   1      33.735  25.739  24.174  1.00  0.00     0.151 C 
ATOM     13  C   UNL A   1      32.840  25.341  21.482  1.00  0.00     0.182 C 
ATOM     14  O   UNL A   1      33.315  24.238  22.289  1.00  0.00    -0.374 OA
BRANCH  10  15
ATOM     15  C   UNL A   1      32.695  27.944  24.072  1.00  0.00     0.208 A 
ATOM     16  C   UNL A   1      31.719  31.219  26.661  1.00  0.00     0.046 C 
ATOM     17  C   UNL A   1      32.030  30.100  25.721  1.00  0.00    -0.026 A 
ATOM     18  C   UNL A   1      33.266  29.471  25.746  1.00  0.00     0.117 A 
ATOM     19  C   UNL A   1      31.095  29.625  24.807  1.00  0.00     0.094 A 
ATOM     20  N   UNL A   1      33.603  28.422  24.957  1.00  0.00    -0.233 NA
ATOM     21  C   UNL A   1      31.435  28.544  23.981  1.00  0.00     0.311 A 
BRANCH  21  22
ATOM     22  N   UNL A   1      30.380  27.975  23.166  1.00  0.00     0.066 N 
ATOM     23  O   UNL A   1      30.250  28.371  22.000  1.00  0.00    -0.258 OA
ATOM     24  O   UNL A   1      29.618  27.165  23.718  1.00  0.00    -0.258 OA
ENDBRANCH  21  22
ENDBRANCH  10  15
ENDBRANCH   8   9
ENDBRANCH   5   8
ENDBRANCH   3   4
ENDBRANCH   2   3
ENDBRANCH   1   2
BRANCH   1  25
ATOM     25  C   UNL A   1      35.075  23.319  26.842  1.00  0.00     0.002 C 
BRANCH  25  26
ATOM     26  C   UNL A   1      35.755  22.847  25.554  1.00  0.00     0.021 C 
BRANCH  26  27
ATOM     27  C   UNL A   1      37.095  23.519  25.278  1.00  0.00     0.116 C 
BRANCH  27  28
ATOM     28  N   UNL A   1      38.213  22.625  25.540  1.00  0.00    -0.352 N 
ATOM     29  C   UNL A   1      39.422  22.898  26.125  1.00  0.00     0.251 C 
ATOM     30  H   UNL A   1      38.083  21.692  25.254  1.00  0.00     0.163 HD
ATOM     31  O   UNL A   1      40.334  22.081  26.083  1.00  0.00    -0.269 OA
BRANCH  29  32
ATOM     32  C   UNL A   1      39.625  24.199  26.797  1.00  0.00     0.039 A 
ATOM     33  C   UNL A   1      39.104  24.385  28.080  1.00  0.00     0.014 A 
ATOM     34  C   UNL A   1      40.324  25.228  26.161  1.00  0.00     0.014 A 
ATOM     35  C   UNL A   1      39.333  25.589  28.748  1.00  0.00     0.010 A 
ATOM     36  C   UNL A   1      40.610  26.399  26.854  1.00  0.00     0.010 A 
ATOM     37  C   UNL A   1      40.114  26.592  28.152  1.00  0.00    -0.014 A 
BRANCH  37  38
ATOM     38  C   UNL A   1      40.425  27.854  28.868  1.00  0.00     0.031 A 
ATOM     39  C   UNL A   1      41.730  28.005  29.598  1.00  0.00     0.074 A 
ATOM     40  C   UNL A   1      39.503  28.835  28.919  1.00  0.00     0.049 A 
ATOM     41  N   UNL A   1      42.150  28.999  30.339  1.00  0.00    -0.248 NA
ATOM     42  C   UNL A   1      42.677  26.882  29.503  1.00  0.00     0.031 C 
ATOM     43  C   UNL A   1      38.186  28.796  28.281  1.00  0.00     0.029 A 
ATOM     44  N   UNL A   1      39.534  30.055  29.545  1.00  0.00    -0.354 N 
ATOM     45  C   UNL A   1      43.399  28.614  30.812  1.00  0.00     0.074 A 
ATOM     46  C   UNL A   1      43.647  27.279  30.314  1.00  0.00     0.031 C 
ATOM     47  C   UNL A   1      37.544  29.949  28.529  1.00  0.00     0.029 A 
ATOM     48  C   UNL A   1      38.385  30.789  29.376  1.00  0.00     0.049 A 
ATOM     49  H   UNL A   1      40.306  30.375  30.065  1.00  0.00     0.167 HD
ATOM     50  C   UNL A   1      44.268  29.315  31.578  1.00  0.00     0.031 A 
ATOM     51  C   UNL A   1      38.041  31.998  29.858  1.00  0.00     0.031 A 
ATOM     52  C   UNL A   1      44.025  30.646  32.065  1.00  0.00     0.049 A 
ATOM     53  C   UNL A   1      39.017  32.748  30.722  1.00  0.00     0.074 A 
ATOM     54  C   UNL A   1      44.866  31.461  32.801  1.00  0.00     0.029 A 
ATOM     55  N   UNL A   1      42.851  31.356  31.866  1.00  0.00    -0.354 N 
ATOM     56  N   UNL A   1      40.219  32.397  31.106  1.00  0.00    -0.248 NA
ATOM     57  C   UNL A   1      38.589  34.067  31.209  1.00  0.00     0.031 C 
ATOM     58  C   UNL A   1      44.180  32.645  33.092  1.00  0.00     0.029 A 
ATOM     59  C   UNL A   1      42.936  32.591  32.487  1.00  0.00     0.049 A 
ATOM     60  H   UNL A   1      42.072  31.030  31.359  1.00  0.00     0.167 HD
ATOM     61  C   UNL A   1      40.704  33.462  31.854  1.00  0.00     0.074 A 
ATOM     62  C   UNL A   1      39.670  34.476  31.858  1.00  0.00     0.031 C 
ATOM     63  C   UNL A   1      41.899  33.590  32.479  1.00  0.00     0.031 A 
BRANCH  50  64
ATOM     64  C   UNL A   1      45.564  28.645  31.943  1.00  0.00    -0.014 A 
ATOM     65  C   UNL A   1      46.707  28.782  31.139  1.00  0.00     0.009 A 
ATOM     66  C   UNL A   1      45.653  27.897  33.127  1.00  0.00     0.009 A 
ATOM     67  C   UNL A   1      47.902  28.150  31.493  1.00  0.00     0.001 A 
ATOM     68  C   UNL A   1      46.857  27.292  33.494  1.00  0.00     0.001 A 
ATOM     69  C   UNL A   1      47.977  27.410  32.672  1.00  0.00     0.000 A 
ENDBRANCH  50  64
BRANCH  51  70
ATOM     70  C   UNL A   1      36.716  32.583  29.525  1.00  0.00    -0.014 A 
ATOM     71  C   UNL A   1      36.516  33.240  28.301  1.00  0.00     0.009 A 
ATOM     72  C   UNL A   1      35.647  32.494  30.430  1.00  0.00     0.009 A 
ATOM     73  C   UNL A   1      35.280  33.818  28.002  1.00  0.00     0.001 A 
ATOM     74  C   UNL A   1      34.405  33.048  30.116  1.00  0.00     0.001 A 
ATOM     75  C   UNL A   1      34.225  33.718  28.907  1.00  0.00     0.000 A 
ENDBRANCH  51  70
BRANCH  63  76
ATOM     76  C   UNL A   1      42.171  34.887  33.186  1.00  0.00    -0.014 A 
ATOM     77  C   UNL A   1      41.633  35.155  34.455  1.00  0.00     0.009 A 
ATOM     78  C   UNL A   1      43.018  35.836  32.592  1.00  0.00     0.009 A 
ATOM     79  C   UNL A   1      41.915  36.362  35.099  1.00  0.00     0.001 A 
ATOM     80  C   UNL A   1      43.321  37.027  33.251  1.00  0.00     0.001 A 
ATOM     81  C   UNL A   1      42.762  37.294  34.499  1.00  0.00     0.000 A 
ENDBRANCH  63  76
ENDBRANCH  37  38
ENDBRANCH  29  32
ENDBRANCH  27  28
ENDBRANCH  26  27
ENDBRANCH  25  26
ENDBRANCH   1  25
TORSDOF 16
ENDMDL
