MODEL 1
REMARK VINA RESULT:     -11.1      0.000      0.000
REMARK SMILES O=C(NCCCCCCNC(=O)c1ccc(-c2c3nc(c(-c4ccccc4)c4ccc([nH]4)c(-c4ccccc4)c4nc(c(-c5ccccc5)c5ccc2[nH]5)C=C4)C=C3)cc1)C1=Cc2c(Cl)ccc(Cl)c2O[C@@H]1C(F)(F)F
REMARK SMILES IDX 7 1 6 2 5 3 4 4 3 5 1 6 2 7 61 9 62 10 72 11 63 12 71 13
REMARK SMILES IDX 64 14 70 15 65 16 66 17 68 18 67 19 69 20 73 21 74 22 75 23
REMARK SMILES IDX 76 24 8 25 9 26 10 27 11 28 12 30 13 31 14 32 60 33 15 34
REMARK SMILES IDX 59 35 16 36 17 37 18 38 53 39 19 40 58 41 52 42 54 43 20 44
REMARK SMILES IDX 57 45 51 46 50 47 21 49 43 50 28 51 42 52 29 53 32 54 41 55
REMARK SMILES IDX 55 56 30 57 31 58 40 60 56 61 33 62 22 63 23 64 27 65 24 66
REMARK SMILES IDX 26 67 25 68 44 69 45 70 49 71 46 72 48 73 47 74 34 75 35 76
REMARK SMILES IDX 39 77 36 78 38 79 37 80
REMARK H PARENT 3 8 10 29 54 48 32 59
REMARK Flexibility Score: inf
ROOT
ATOM      1  C   UNL A   1      33.305  29.305  24.733  1.00  0.00     0.002 C 
ENDROOT
BRANCH   1   2
ATOM      2  C   UNL A   1      32.281  28.667  23.786  1.00  0.00     0.002 C 
BRANCH   2   3
ATOM      3  C   UNL A   1      30.875  28.455  24.342  1.00  0.00     0.021 C 
BRANCH   3   4
ATOM      4  C   UNL A   1      30.352  27.024  24.315  1.00  0.00     0.116 C 
BRANCH   4   5
ATOM      5  N   UNL A   1      30.671  26.222  25.483  1.00  0.00    -0.352 N 
ATOM      6  O   UNL A   1      31.907  24.913  26.826  1.00  0.00    -0.270 OA
ATOM      7  C   UNL A   1      31.722  25.372  25.700  1.00  0.00     0.251 C 
ATOM      8  H   UNL A   1      30.035  26.302  26.231  1.00  0.00     0.163 HD
BRANCH   7   9
ATOM      9  C   UNL A   1      32.718  25.052  24.637  1.00  0.00     0.067 C 
ATOM     10  C   UNL A   1      34.011  24.821  24.921  1.00  0.00     0.027 C 
ATOM     11  C   UNL A   1      32.104  24.376  23.439  1.00  0.00     0.314 C 
ATOM     12  C   UNL A   1      34.387  23.388  24.749  1.00  0.00     0.037 A 
ATOM     13  O   UNL A   1      32.346  22.946  23.472  1.00  0.00    -0.474 OA
ATOM     14  C   UNL A   1      35.496  22.861  25.441  1.00  0.00     0.052 A 
ATOM     15  C   UNL A   1      33.468  22.508  24.139  1.00  0.00     0.148 A 
ATOM     16  Cl  UNL A   1      36.641  23.879  26.244  1.00  0.00    -0.084 Cl
ATOM     17  C   UNL A   1      35.634  21.481  25.599  1.00  0.00     0.023 A 
ATOM     18  C   UNL A   1      33.621  21.125  24.308  1.00  0.00     0.083 A 
ATOM     19  C   UNL A   1      34.686  20.616  25.053  1.00  0.00     0.026 A 
ATOM     20  Cl  UNL A   1      32.442  20.014  23.709  1.00  0.00    -0.080 Cl
BRANCH  11  21
ATOM     21  C   UNL A   1      32.570  24.998  22.112  1.00  0.00     0.429 C 
ATOM     22  F   UNL A   1      31.567  25.673  21.503  1.00  0.00    -0.167 F 
ATOM     23  F   UNL A   1      33.583  25.879  22.299  1.00  0.00    -0.167 F 
ATOM     24  F   UNL A   1      33.013  24.063  21.237  1.00  0.00    -0.167 F 
ENDBRANCH  11  21
ENDBRANCH   7   9
ENDBRANCH   4   5
ENDBRANCH   3   4
ENDBRANCH   2   3
ENDBRANCH   1   2
BRANCH   1  25
ATOM     25  C   UNL A   1      33.968  28.384  25.763  1.00  0.00     0.021 C 
BRANCH  25  26
ATOM     26  C   UNL A   1      33.546  28.582  27.217  1.00  0.00     0.116 C 
BRANCH  26  27
ATOM     27  N   UNL A   1      33.517  29.977  27.616  1.00  0.00    -0.352 N 
ATOM     28  C   UNL A   1      34.471  30.746  28.234  1.00  0.00     0.251 C 
ATOM     29  H   UNL A   1      32.677  30.449  27.409  1.00  0.00     0.163 HD
ATOM     30  O   UNL A   1      34.190  31.882  28.603  1.00  0.00    -0.269 OA
BRANCH  28  31
ATOM     31  C   UNL A   1      35.831  30.215  28.483  1.00  0.00     0.039 A 
ATOM     32  C   UNL A   1      36.755  30.228  27.432  1.00  0.00     0.014 A 
ATOM     33  C   UNL A   1      36.192  29.667  29.716  1.00  0.00     0.014 A 
ATOM     34  C   UNL A   1      38.050  29.744  27.632  1.00  0.00     0.010 A 
ATOM     35  C   UNL A   1      37.505  29.248  29.936  1.00  0.00     0.010 A 
ATOM     36  C   UNL A   1      38.445  29.276  28.895  1.00  0.00    -0.014 A 
BRANCH  36  37
ATOM     37  C   UNL A   1      39.834  28.809  29.137  1.00  0.00     0.031 A 
ATOM     38  C   UNL A   1      40.848  29.726  29.768  1.00  0.00     0.074 A 
ATOM     39  C   UNL A   1      40.201  27.574  28.744  1.00  0.00     0.049 A 
ATOM     40  N   UNL A   1      42.115  29.509  30.018  1.00  0.00    -0.248 NA
ATOM     41  C   UNL A   1      40.382  31.069  30.145  1.00  0.00     0.031 C 
ATOM     42  C   UNL A   1      39.327  26.598  28.091  1.00  0.00     0.029 A 
ATOM     43  N   UNL A   1      41.410  26.929  28.833  1.00  0.00    -0.354 N 
ATOM     44  C   UNL A   1      42.598  30.689  30.569  1.00  0.00     0.074 A 
ATOM     45  C   UNL A   1      41.503  31.635  30.564  1.00  0.00     0.031 C 
ATOM     46  C   UNL A   1      40.021  25.472  27.860  1.00  0.00     0.029 A 
ATOM     47  C   UNL A   1      41.396  25.658  28.312  1.00  0.00     0.049 A 
ATOM     48  H   UNL A   1      42.212  27.339  29.232  1.00  0.00     0.167 HD
ATOM     49  C   UNL A   1      43.835  30.958  31.053  1.00  0.00     0.031 A 
ATOM     50  C   UNL A   1      42.379  24.745  28.202  1.00  0.00     0.031 A 
ATOM     51  C   UNL A   1      44.925  30.018  31.058  1.00  0.00     0.049 A 
ATOM     52  C   UNL A   1      43.749  25.072  28.726  1.00  0.00     0.074 A 
ATOM     53  C   UNL A   1      46.201  30.181  31.568  1.00  0.00     0.029 A 
ATOM     54  N   UNL A   1      44.868  28.741  30.520  1.00  0.00    -0.354 N 
ATOM     55  N   UNL A   1      44.173  26.172  29.301  1.00  0.00    -0.248 NA
ATOM     56  C   UNL A   1      44.774  24.027  28.597  1.00  0.00     0.031 C 
ATOM     57  C   UNL A   1      46.933  29.021  31.290  1.00  0.00     0.029 A 
ATOM     58  C   UNL A   1      46.094  28.114  30.663  1.00  0.00     0.049 A 
ATOM     59  H   UNL A   1      44.073  28.341  30.101  1.00  0.00     0.167 HD
ATOM     60  C   UNL A   1      45.503  25.942  29.625  1.00  0.00     0.074 A 
ATOM     61  C   UNL A   1      45.811  24.592  29.197  1.00  0.00     0.031 C 
ATOM     62  C   UNL A   1      46.390  26.774  30.225  1.00  0.00     0.031 A 
BRANCH  49  63
ATOM     63  C   UNL A   1      44.072  32.338  31.606  1.00  0.00    -0.014 A 
ATOM     64  C   UNL A   1      44.593  33.367  30.804  1.00  0.00     0.009 A 
ATOM     65  C   UNL A   1      43.753  32.620  32.944  1.00  0.00     0.009 A 
ATOM     66  C   UNL A   1      44.833  34.633  31.341  1.00  0.00     0.001 A 
ATOM     67  C   UNL A   1      43.963  33.896  33.470  1.00  0.00     0.001 A 
ATOM     68  C   UNL A   1      44.515  34.897  32.672  1.00  0.00     0.000 A 
ENDBRANCH  49  63
BRANCH  50  69
ATOM     69  C   UNL A   1      42.097  23.426  27.580  1.00  0.00    -0.014 A 
ATOM     70  C   UNL A   1      42.437  23.180  26.241  1.00  0.00     0.009 A 
ATOM     71  C   UNL A   1      41.494  22.400  28.326  1.00  0.00     0.009 A 
ATOM     72  C   UNL A   1      42.159  21.942  25.656  1.00  0.00     0.001 A 
ATOM     73  C   UNL A   1      41.245  21.154  27.747  1.00  0.00     0.001 A 
ATOM     74  C   UNL A   1      41.569  20.929  26.410  1.00  0.00     0.000 A 
ENDBRANCH  50  69
BRANCH  62  75
ATOM     75  C   UNL A   1      47.771  26.238  30.480  1.00  0.00    -0.014 A 
ATOM     76  C   UNL A   1      48.759  26.255  29.483  1.00  0.00     0.009 A 
ATOM     77  C   UNL A   1      48.099  25.744  31.753  1.00  0.00     0.009 A 
ATOM     78  C   UNL A   1      50.037  25.758  29.746  1.00  0.00     0.001 A 
ATOM     79  C   UNL A   1      49.386  25.274  32.021  1.00  0.00     0.001 A 
ATOM     80  C   UNL A   1      50.350  25.273  31.015  1.00  0.00     0.000 A 
ENDBRANCH  62  75
ENDBRANCH  36  37
ENDBRANCH  28  31
ENDBRANCH  26  27
ENDBRANCH  25  26
ENDBRANCH   1  25
TORSDOF 14
ENDMDL
MODEL 2
REMARK VINA RESULT:     -11.0      1.293      2.196
REMARK SMILES O=C(NCCCCCCNC(=O)c1ccc(-c2c3nc(c(-c4ccccc4)c4ccc([nH]4)c(-c4ccccc4)c4nc(c(-c5ccccc5)c5ccc2[nH]5)C=C4)C=C3)cc1)C1=Cc2c(Cl)ccc(Cl)c2O[C@@H]1C(F)(F)F
REMARK SMILES IDX 7 1 6 2 5 3 4 4 3 5 1 6 2 7 61 9 62 10 72 11 63 12 71 13
REMARK SMILES IDX 64 14 70 15 65 16 66 17 68 18 67 19 69 20 73 21 74 22 75 23
REMARK SMILES IDX 76 24 8 25 9 26 10 27 11 28 12 30 13 31 14 32 60 33 15 34
REMARK SMILES IDX 59 35 16 36 17 37 18 38 53 39 19 40 58 41 52 42 54 43 20 44
REMARK SMILES IDX 57 45 51 46 50 47 21 49 43 50 28 51 42 52 29 53 32 54 41 55
REMARK SMILES IDX 55 56 30 57 31 58 40 60 56 61 33 62 22 63 23 64 27 65 24 66
REMARK SMILES IDX 26 67 25 68 44 69 45 70 49 71 46 72 48 73 47 74 34 75 35 76
REMARK SMILES IDX 39 77 36 78 38 79 37 80
REMARK H PARENT 3 8 10 29 54 48 32 59
REMARK Flexibility Score: inf
ROOT
ATOM      1  C   UNL A   1      31.916  29.191  25.380  1.00  0.00     0.002 C 
ENDROOT
BRANCH   1   2
ATOM      2  C   UNL A   1      31.632  29.305  23.877  1.00  0.00     0.002 C 
BRANCH   2   3
ATOM      3  C   UNL A   1      30.422  28.539  23.349  1.00  0.00     0.021 C 
BRANCH   3   4
ATOM      4  C   UNL A   1      30.673  27.632  22.151  1.00  0.00     0.116 C 
BRANCH   4   5
ATOM      5  N   UNL A   1      32.018  27.095  22.047  1.00  0.00    -0.352 N 
ATOM      6  O   UNL A   1      33.662  25.573  22.216  1.00  0.00    -0.270 OA
ATOM      7  C   UNL A   1      32.538  25.936  22.559  1.00  0.00     0.251 C 
ATOM      8  H   UNL A   1      32.651  27.646  21.532  1.00  0.00     0.163 HD
BRANCH   7   9
ATOM      9  C   UNL A   1      31.750  25.037  23.451  1.00  0.00     0.067 C 
ATOM     10  C   UNL A   1      31.514  23.752  23.135  1.00  0.00     0.027 C 
ATOM     11  C   UNL A   1      31.838  25.425  24.904  1.00  0.00     0.314 C 
ATOM     12  C   UNL A   1      32.280  22.802  23.992  1.00  0.00     0.037 A 
ATOM     13  O   UNL A   1      32.773  24.570  25.611  1.00  0.00    -0.474 OA
ATOM     14  C   UNL A   1      32.558  21.500  23.529  1.00  0.00     0.052 A 
ATOM     15  C   UNL A   1      32.969  23.299  25.119  1.00  0.00     0.148 A 
ATOM     16  Cl  UNL A   1      31.779  20.840  22.133  1.00  0.00    -0.084 Cl
ATOM     17  C   UNL A   1      33.571  20.745  24.123  1.00  0.00     0.023 A 
ATOM     18  C   UNL A   1      33.983  22.529  25.703  1.00  0.00     0.083 A 
ATOM     19  C   UNL A   1      34.298  21.268  25.193  1.00  0.00     0.026 A 
ATOM     20  Cl  UNL A   1      34.956  23.153  26.986  1.00  0.00    -0.080 Cl
BRANCH  11  21
ATOM     21  C   UNL A   1      30.461  25.446  25.589  1.00  0.00     0.429 C 
ATOM     22  F   UNL A   1      29.465  25.611  24.688  1.00  0.00    -0.167 F 
ATOM     23  F   UNL A   1      30.211  24.290  26.249  1.00  0.00    -0.167 F 
ATOM     24  F   UNL A   1      30.356  26.450  26.493  1.00  0.00    -0.167 F 
ENDBRANCH  11  21
ENDBRANCH   7   9
ENDBRANCH   4   5
ENDBRANCH   3   4
ENDBRANCH   2   3
ENDBRANCH   1   2
BRANCH   1  25
ATOM     25  C   UNL A   1      33.229  28.515  25.790  1.00  0.00     0.021 C 
BRANCH  25  26
ATOM     26  C   UNL A   1      33.638  28.663  27.254  1.00  0.00     0.116 C 
BRANCH  26  27
ATOM     27  N   UNL A   1      33.603  30.038  27.717  1.00  0.00    -0.352 N 
ATOM     28  C   UNL A   1      34.557  30.783  28.364  1.00  0.00     0.251 C 
ATOM     29  H   UNL A   1      32.759  30.514  27.537  1.00  0.00     0.163 HD
ATOM     30  O   UNL A   1      34.272  31.899  28.787  1.00  0.00    -0.269 OA
BRANCH  28  31
ATOM     31  C   UNL A   1      35.922  30.250  28.579  1.00  0.00     0.039 A 
ATOM     32  C   UNL A   1      36.827  30.286  27.513  1.00  0.00     0.014 A 
ATOM     33  C   UNL A   1      36.304  29.678  29.795  1.00  0.00     0.014 A 
ATOM     34  C   UNL A   1      38.126  29.800  27.681  1.00  0.00     0.010 A 
ATOM     35  C   UNL A   1      37.621  29.257  29.984  1.00  0.00     0.010 A 
ATOM     36  C   UNL A   1      38.543  29.308  28.927  1.00  0.00    -0.014 A 
BRANCH  36  37
ATOM     37  C   UNL A   1      39.937  28.838  29.137  1.00  0.00     0.031 A 
ATOM     38  C   UNL A   1      40.971  29.759  29.726  1.00  0.00     0.074 A 
ATOM     39  C   UNL A   1      40.289  27.596  28.750  1.00  0.00     0.049 A 
ATOM     40  N   UNL A   1      42.244  29.540  29.944  1.00  0.00    -0.248 NA
ATOM     41  C   UNL A   1      40.521  31.109  30.098  1.00  0.00     0.031 C 
ATOM     42  C   UNL A   1      39.392  26.616  28.135  1.00  0.00     0.029 A 
ATOM     43  N   UNL A   1      41.497  26.948  28.813  1.00  0.00    -0.354 N 
ATOM     44  C   UNL A   1      42.747  30.726  30.465  1.00  0.00     0.074 A 
ATOM     45  C   UNL A   1      41.656  31.676  30.478  1.00  0.00     0.031 C 
ATOM     46  C   UNL A   1      40.075  25.484  27.899  1.00  0.00     0.029 A 
ATOM     47  C   UNL A   1      41.463  25.670  28.310  1.00  0.00     0.049 A 
ATOM     48  H   UNL A   1      42.311  27.360  29.184  1.00  0.00     0.167 HD
ATOM     49  C   UNL A   1      43.998  30.996  30.910  1.00  0.00     0.031 A 
ATOM     50  C   UNL A   1      42.440  24.752  28.185  1.00  0.00     0.031 A 
ATOM     51  C   UNL A   1      45.085  30.052  30.897  1.00  0.00     0.049 A 
ATOM     52  C   UNL A   1      43.825  25.080  28.665  1.00  0.00     0.074 A 
ATOM     53  C   UNL A   1      46.375  30.216  31.369  1.00  0.00     0.029 A 
ATOM     54  N   UNL A   1      45.007  28.769  30.378  1.00  0.00    -0.354 N 
ATOM     55  N   UNL A   1      44.269  26.186  29.213  1.00  0.00    -0.248 NA
ATOM     56  C   UNL A   1      44.842  24.029  28.521  1.00  0.00     0.031 C 
ATOM     57  C   UNL A   1      47.095  29.050  31.086  1.00  0.00     0.029 A 
ATOM     58  C   UNL A   1      46.235  28.138  30.495  1.00  0.00     0.049 A 
ATOM     59  H   UNL A   1      44.200  28.365  29.986  1.00  0.00     0.167 HD
ATOM     60  C   UNL A   1      45.607  25.955  29.503  1.00  0.00     0.074 A 
ATOM     61  C   UNL A   1      45.898  24.599  29.084  1.00  0.00     0.031 C 
ATOM     62  C   UNL A   1      46.514  26.791  30.066  1.00  0.00     0.031 A 
BRANCH  49  63
ATOM     63  C   UNL A   1      44.256  32.382  31.438  1.00  0.00    -0.014 A 
ATOM     64  C   UNL A   1      44.062  32.694  32.794  1.00  0.00     0.009 A 
ATOM     65  C   UNL A   1      44.719  33.386  30.574  1.00  0.00     0.009 A 
ATOM     66  C   UNL A   1      44.279  33.991  33.262  1.00  0.00     0.001 A 
ATOM     67  C   UNL A   1      44.967  34.675  31.051  1.00  0.00     0.001 A 
ATOM     68  C   UNL A   1      44.735  34.980  32.391  1.00  0.00     0.000 A 
ENDBRANCH  49  63
BRANCH  50  69
ATOM     69  C   UNL A   1      42.135  23.426  27.588  1.00  0.00    -0.014 A 
ATOM     70  C   UNL A   1      41.565  22.406  28.364  1.00  0.00     0.009 A 
ATOM     71  C   UNL A   1      42.402  23.176  26.232  1.00  0.00     0.009 A 
ATOM     72  C   UNL A   1      41.290  21.157  27.802  1.00  0.00     0.001 A 
ATOM     73  C   UNL A   1      42.099  21.937  25.665  1.00  0.00     0.001 A 
ATOM     74  C   UNL A   1      41.552  20.925  26.453  1.00  0.00     0.000 A 
ENDBRANCH  50  69
BRANCH  62  75
ATOM     75  C   UNL A   1      47.899  26.253  30.290  1.00  0.00    -0.014 A 
ATOM     76  C   UNL A   1      48.295  25.746  31.537  1.00  0.00     0.009 A 
ATOM     77  C   UNL A   1      48.810  26.217  29.222  1.00  0.00     0.009 A 
ATOM     78  C   UNL A   1      49.586  25.245  31.719  1.00  0.00     0.001 A 
ATOM     79  C   UNL A   1      50.090  25.689  29.399  1.00  0.00     0.001 A 
ATOM     80  C   UNL A   1      50.480  25.213  30.650  1.00  0.00     0.000 A 
ENDBRANCH  62  75
ENDBRANCH  36  37
ENDBRANCH  28  31
ENDBRANCH  26  27
ENDBRANCH  25  26
ENDBRANCH   1  25
TORSDOF 14
ENDMDL
MODEL 3
REMARK VINA RESULT:     -10.9      2.654      7.523
REMARK SMILES O=C(NCCCCCCNC(=O)c1ccc(-c2c3nc(c(-c4ccccc4)c4ccc([nH]4)c(-c4ccccc4)c4nc(c(-c5ccccc5)c5ccc2[nH]5)C=C4)C=C3)cc1)C1=Cc2c(Cl)ccc(Cl)c2O[C@@H]1C(F)(F)F
REMARK SMILES IDX 7 1 6 2 5 3 4 4 3 5 1 6 2 7 61 9 62 10 72 11 63 12 71 13
REMARK SMILES IDX 64 14 70 15 65 16 66 17 68 18 67 19 69 20 73 21 74 22 75 23
REMARK SMILES IDX 76 24 8 25 9 26 10 27 11 28 12 30 13 31 14 32 60 33 15 34
REMARK SMILES IDX 59 35 16 36 17 37 18 38 53 39 19 40 58 41 52 42 54 43 20 44
REMARK SMILES IDX 57 45 51 46 50 47 21 49 43 50 28 51 42 52 29 53 32 54 41 55
REMARK SMILES IDX 55 56 30 57 31 58 40 60 56 61 33 62 22 63 23 64 27 65 24 66
REMARK SMILES IDX 26 67 25 68 44 69 45 70 49 71 46 72 48 73 47 74 34 75 35 76
REMARK SMILES IDX 39 77 36 78 38 79 37 80
REMARK H PARENT 3 8 10 29 54 48 32 59
REMARK Flexibility Score: inf
ROOT
ATOM      1  C   UNL A   1      34.215  23.161  26.807  1.00  0.00     0.002 C 
ENDROOT
BRANCH   1   2
ATOM      2  C   UNL A   1      32.794  22.662  26.513  1.00  0.00     0.002 C 
BRANCH   2   3
ATOM      3  C   UNL A   1      32.388  22.578  25.044  1.00  0.00     0.021 C 
BRANCH   3   4
ATOM      4  C   UNL A   1      31.049  23.209  24.682  1.00  0.00     0.116 C 
BRANCH   4   5
ATOM      5  N   UNL A   1      30.485  24.094  25.685  1.00  0.00    -0.352 N 
ATOM      6  O   UNL A   1      29.894  26.042  26.635  1.00  0.00    -0.270 OA
ATOM      7  C   UNL A   1      30.589  25.454  25.808  1.00  0.00     0.251 C 
ATOM      8  H   UNL A   1      29.949  23.650  26.381  1.00  0.00     0.163 HD
BRANCH   7   9
ATOM      9  C   UNL A   1      31.449  26.271  24.903  1.00  0.00     0.067 C 
ATOM     10  C   UNL A   1      31.011  27.413  24.346  1.00  0.00     0.027 C 
ATOM     11  C   UNL A   1      32.920  26.120  25.196  1.00  0.00     0.314 C 
ATOM     12  C   UNL A   1      31.660  28.621  24.932  1.00  0.00     0.037 A 
ATOM     13  O   UNL A   1      33.414  27.254  25.956  1.00  0.00    -0.474 OA
ATOM     14  C   UNL A   1      31.019  29.873  24.857  1.00  0.00     0.052 A 
ATOM     15  C   UNL A   1      32.755  28.454  25.806  1.00  0.00     0.148 A 
ATOM     16  Cl  UNL A   1      29.648  30.139  23.836  1.00  0.00    -0.084 Cl
ATOM     17  C   UNL A   1      31.403  30.911  25.707  1.00  0.00     0.023 A 
ATOM     18  C   UNL A   1      33.129  29.506  26.653  1.00  0.00     0.083 A 
ATOM     19  C   UNL A   1      32.442  30.720  26.620  1.00  0.00     0.026 A 
ATOM     20  Cl  UNL A   1      34.362  29.302  27.844  1.00  0.00    -0.080 Cl
BRANCH  11  21
ATOM     21  C   UNL A   1      33.750  25.889  23.922  1.00  0.00     0.429 C 
ATOM     22  F   UNL A   1      34.169  27.059  23.387  1.00  0.00    -0.167 F 
ATOM     23  F   UNL A   1      34.857  25.149  24.172  1.00  0.00    -0.167 F 
ATOM     24  F   UNL A   1      33.045  25.239  22.964  1.00  0.00    -0.167 F 
ENDBRANCH  11  21
ENDBRANCH   7   9
ENDBRANCH   4   5
ENDBRANCH   3   4
ENDBRANCH   2   3
ENDBRANCH   1   2
BRANCH   1  25
ATOM     25  C   UNL A   1      35.360  22.495  26.036  1.00  0.00     0.021 C 
BRANCH  25  26
ATOM     26  C   UNL A   1      36.668  23.278  25.958  1.00  0.00     0.116 C 
BRANCH  26  27
ATOM     27  N   UNL A   1      37.843  22.427  25.987  1.00  0.00    -0.352 N 
ATOM     28  C   UNL A   1      39.142  22.715  26.321  1.00  0.00     0.251 C 
ATOM     29  H   UNL A   1      37.682  21.491  25.726  1.00  0.00     0.163 HD
ATOM     30  O   UNL A   1      40.015  21.870  26.151  1.00  0.00    -0.269 OA
BRANCH  28  31
ATOM     31  C   UNL A   1      39.511  24.043  26.865  1.00  0.00     0.039 A 
ATOM     32  C   UNL A   1      39.255  24.304  28.215  1.00  0.00     0.014 A 
ATOM     33  C   UNL A   1      40.061  25.041  26.058  1.00  0.00     0.014 A 
ATOM     34  C   UNL A   1      39.596  25.542  28.766  1.00  0.00     0.010 A 
ATOM     35  C   UNL A   1      40.467  26.251  26.623  1.00  0.00     0.010 A 
ATOM     36  C   UNL A   1      40.232  26.516  27.981  1.00  0.00    -0.014 A 
BRANCH  36  37
ATOM     37  C   UNL A   1      40.652  27.816  28.565  1.00  0.00     0.031 A 
ATOM     38  C   UNL A   1      39.653  28.927  28.750  1.00  0.00     0.074 A 
ATOM     39  C   UNL A   1      41.945  28.018  28.885  1.00  0.00     0.049 A 
ATOM     40  N   UNL A   1      39.842  30.141  29.202  1.00  0.00    -0.248 NA
ATOM     41  C   UNL A   1      38.266  28.642  28.351  1.00  0.00     0.031 C 
ATOM     42  C   UNL A   1      43.019  27.037  28.725  1.00  0.00     0.029 A 
ATOM     43  N   UNL A   1      42.576  29.119  29.408  1.00  0.00    -0.354 N 
ATOM     44  C   UNL A   1      38.604  30.767  29.132  1.00  0.00     0.074 A 
ATOM     45  C   UNL A   1      37.685  29.818  28.541  1.00  0.00     0.031 C 
ATOM     46  C   UNL A   1      44.171  27.572  29.162  1.00  0.00     0.029 A 
ATOM     47  C   UNL A   1      43.924  28.943  29.597  1.00  0.00     0.049 A 
ATOM     48  H   UNL A   1      42.105  29.957  29.626  1.00  0.00     0.167 HD
ATOM     49  C   UNL A   1      38.256  32.012  29.538  1.00  0.00     0.031 A 
ATOM     50  C   UNL A   1      44.862  29.791  30.062  1.00  0.00     0.031 A 
ATOM     51  C   UNL A   1      39.169  32.957  30.126  1.00  0.00     0.049 A 
ATOM     52  C   UNL A   1      44.458  31.174  30.487  1.00  0.00     0.074 A 
ATOM     53  C   UNL A   1      38.903  34.225  30.612  1.00  0.00     0.029 A 
ATOM     54  N   UNL A   1      40.527  32.738  30.299  1.00  0.00    -0.354 N 
ATOM     55  N   UNL A   1      43.270  31.729  30.471  1.00  0.00    -0.248 NA
ATOM     56  C   UNL A   1      45.523  32.044  31.005  1.00  0.00     0.031 C 
ATOM     57  C   UNL A   1      40.111  34.795  31.031  1.00  0.00     0.029 A 
ATOM     58  C   UNL A   1      41.117  33.857  30.862  1.00  0.00     0.049 A 
ATOM     59  H   UNL A   1      41.001  31.910  30.059  1.00  0.00     0.167 HD
ATOM     60  C   UNL A   1      43.439  33.001  31.001  1.00  0.00     0.074 A 
ATOM     61  C   UNL A   1      44.842  33.129  31.342  1.00  0.00     0.031 C 
ATOM     62  C   UNL A   1      42.516  33.976  31.189  1.00  0.00     0.031 A 
BRANCH  49  63
ATOM     63  C   UNL A   1      36.821  32.423  29.346  1.00  0.00    -0.014 A 
ATOM     64  C   UNL A   1      36.369  32.942  28.121  1.00  0.00     0.009 A 
ATOM     65  C   UNL A   1      35.902  32.272  30.396  1.00  0.00     0.009 A 
ATOM     66  C   UNL A   1      35.041  33.344  27.968  1.00  0.00     0.001 A 
ATOM     67  C   UNL A   1      34.567  32.644  30.230  1.00  0.00     0.001 A 
ATOM     68  C   UNL A   1      34.140  33.192  29.021  1.00  0.00     0.000 A 
ENDBRANCH  49  63
BRANCH  50  69
ATOM     69  C   UNL A   1      46.276  29.345  30.160  1.00  0.00    -0.014 A 
ATOM     70  C   UNL A   1      47.160  29.529  29.086  1.00  0.00     0.009 A 
ATOM     71  C   UNL A   1      46.754  28.743  31.336  1.00  0.00     0.009 A 
ATOM     72  C   UNL A   1      48.486  29.100  29.179  1.00  0.00     0.001 A 
ATOM     73  C   UNL A   1      48.087  28.342  31.436  1.00  0.00     0.001 A 
ATOM     74  C   UNL A   1      48.950  28.512  30.355  1.00  0.00     0.000 A 
ENDBRANCH  50  69
BRANCH  62  75
ATOM     75  C   UNL A   1      42.987  35.257  31.818  1.00  0.00    -0.014 A 
ATOM     76  C   UNL A   1      42.867  35.482  33.198  1.00  0.00     0.009 A 
ATOM     77  C   UNL A   1      43.595  36.239  31.020  1.00  0.00     0.009 A 
ATOM     78  C   UNL A   1      43.317  36.678  33.761  1.00  0.00     0.001 A 
ATOM     79  C   UNL A   1      44.072  37.421  31.590  1.00  0.00     0.001 A 
ATOM     80  C   UNL A   1      43.923  37.644  32.958  1.00  0.00     0.000 A 
ENDBRANCH  62  75
ENDBRANCH  36  37
ENDBRANCH  28  31
ENDBRANCH  26  27
ENDBRANCH  25  26
ENDBRANCH   1  25
TORSDOF 14
ENDMDL
