MODEL 1
REMARK VINA RESULT:      -9.1      0.000      0.000
REMARK SMILES CC[C@](C)([NH2+]CC(=O)NCC(F)(F)F)C(=O)NCCCCCCNC(=O)c1ccc(-c2c3nc(c(-c4ccccc4)c4ccc([nH]4)c(-c4ccccc4)c4nc(c(-c5ccccc5)c5ccc2[nH]5)C=C4)C=C3)cc1
REMARK SMILES IDX 19 1 18 2 17 3 15 4 16 5 3 7 4 8 2 9 1 10 5 11 6 14 7 15
REMARK SMILES IDX 8 16 9 17 10 19 11 20 12 21 13 22 14 23 20 24 21 25 22 26
REMARK SMILES IDX 23 27 24 28 25 29 26 31 27 32 28 33 74 34 29 35 73 36 30 37
REMARK SMILES IDX 31 38 32 39 67 40 33 41 72 42 66 43 68 44 34 45 71 46 65 47
REMARK SMILES IDX 64 48 35 50 57 51 42 52 56 53 43 54 46 55 55 56 69 57 44 58
REMARK SMILES IDX 45 59 54 61 70 62 47 63 36 64 37 65 41 66 38 67 40 68 39 69
REMARK SMILES IDX 58 70 59 71 63 72 60 73 62 74 61 75 48 76 49 77 53 78 50 79
REMARK SMILES IDX 52 80 51 81
REMARK H PARENT 17 6 5 12 5 13 9 18 24 30 68 49 46 60
REMARK Flexibility Score: inf
ROOT
ATOM      1  C   UNL A   1      33.227  28.241  26.571  1.00  0.00     0.021 C 
ENDROOT
BRANCH   1   2
ATOM      2  C   UNL A   1      32.883  28.065  25.092  1.00  0.00     0.116 C 
BRANCH   2   3
ATOM      3  N   UNL A   1      33.381  26.816  24.511  1.00  0.00    -0.351 N 
ATOM      4  C   UNL A   1      32.566  25.857  23.942  1.00  0.00     0.281 C 
ATOM      5  O   UNL A   1      32.417  25.908  22.716  1.00  0.00    -0.268 OA
ATOM      6  H   UNL A   1      34.351  26.651  24.526  1.00  0.00     0.163 HD
BRANCH   4   7
ATOM      7  C   UNL A   1      31.999  24.637  24.772  1.00  0.00     0.172 C 
ATOM      8  C   UNL A   1      31.137  23.911  23.699  1.00  0.00     0.090 C 
BRANCH   7   9
ATOM      9  C   UNL A   1      31.058  25.020  25.953  1.00  0.00     0.075 C 
ATOM     10  C   UNL A   1      29.836  25.891  25.670  1.00  0.00     0.011 C 
ENDBRANCH   7   9
BRANCH   7  11
ATOM     11  N   UNL A   1      33.021  23.695  25.246  1.00  0.00    -0.326 N 
ATOM     12  H   UNL A   1      32.583  23.160  25.996  1.00  0.00     0.347 HD
ATOM     13  H   UNL A   1      33.796  24.324  25.452  1.00  0.00     0.347 HD
BRANCH  11  14
ATOM     14  C   UNL A   1      33.672  22.707  24.371  1.00  0.00     0.362 C 
BRANCH  14  15
ATOM     15  C   UNL A   1      34.799  23.050  23.370  1.00  0.00     0.275 C 
ATOM     16  O   UNL A   1      34.473  23.299  22.198  1.00  0.00    -0.269 OA
ATOM     17  N   UNL A   1      36.129  23.236  23.607  1.00  0.00    -0.342 N 
ATOM     18  H   UNL A   1      36.596  23.535  22.794  1.00  0.00     0.164 HD
BRANCH  17  19
ATOM     19  C   UNL A   1      37.063  23.111  24.744  1.00  0.00     0.231 C 
BRANCH  19  20
ATOM     20  C   UNL A   1      37.356  21.697  25.276  1.00  0.00     0.405 C 
ATOM     21  F   UNL A   1      36.306  21.221  25.979  1.00  0.00    -0.169 F 
ATOM     22  F   UNL A   1      37.583  20.840  24.254  1.00  0.00    -0.169 F 
ATOM     23  F   UNL A   1      38.438  21.668  26.082  1.00  0.00    -0.169 F 
ENDBRANCH  19  20
ENDBRANCH  17  19
ENDBRANCH  14  15
ENDBRANCH  11  14
ENDBRANCH   7  11
ENDBRANCH   4   7
ENDBRANCH   2   3
ENDBRANCH   1   2
BRANCH   1  24
ATOM     24  C   UNL A   1      32.848  29.618  27.122  1.00  0.00     0.002 C 
BRANCH  24  25
ATOM     25  C   UNL A   1      31.627  30.284  26.472  1.00  0.00     0.002 C 
BRANCH  25  26
ATOM     26  C   UNL A   1      31.475  31.790  26.703  1.00  0.00     0.021 C 
BRANCH  26  27
ATOM     27  C   UNL A   1      32.768  32.541  27.009  1.00  0.00     0.116 C 
BRANCH  27  28
ATOM     28  N   UNL A   1      32.524  33.838  27.627  1.00  0.00    -0.352 N 
ATOM     29  C   UNL A   1      33.189  34.455  28.652  1.00  0.00     0.251 C 
ATOM     30  H   UNL A   1      31.770  34.346  27.251  1.00  0.00     0.163 HD
ATOM     31  O   UNL A   1      32.722  35.473  29.171  1.00  0.00    -0.269 OA
BRANCH  29  32
ATOM     32  C   UNL A   1      34.461  33.899  29.150  1.00  0.00     0.039 A 
ATOM     33  C   UNL A   1      34.453  33.080  30.282  1.00  0.00     0.014 A 
ATOM     34  C   UNL A   1      35.663  34.194  28.501  1.00  0.00     0.014 A 
ATOM     35  C   UNL A   1      35.645  32.505  30.727  1.00  0.00     0.010 A 
ATOM     36  C   UNL A   1      36.836  33.563  28.902  1.00  0.00     0.010 A 
ATOM     37  C   UNL A   1      36.840  32.716  30.021  1.00  0.00    -0.014 A 
BRANCH  37  38
ATOM     38  C   UNL A   1      38.111  32.069  30.432  1.00  0.00     0.031 A 
ATOM     39  C   UNL A   1      39.037  32.775  31.385  1.00  0.00     0.074 A 
ATOM     40  C   UNL A   1      38.467  30.887  29.888  1.00  0.00     0.049 A 
ATOM     41  N   UNL A   1      40.232  32.424  31.787  1.00  0.00    -0.248 NA
ATOM     42  C   UNL A   1      38.570  34.057  31.941  1.00  0.00     0.031 C 
ATOM     43  C   UNL A   1      37.670  30.119  28.929  1.00  0.00     0.029 A 
ATOM     44  N   UNL A   1      39.601  30.134  30.053  1.00  0.00    -0.354 N 
ATOM     45  C   UNL A   1      40.669  33.452  32.612  1.00  0.00     0.074 A 
ATOM     46  C   UNL A   1      39.630  34.456  32.630  1.00  0.00     0.031 C 
ATOM     47  C   UNL A   1      38.332  28.995  28.608  1.00  0.00     0.029 A 
ATOM     48  C   UNL A   1      39.616  28.985  29.298  1.00  0.00     0.049 A 
ATOM     49  H   UNL A   1      40.336  30.391  30.656  1.00  0.00     0.167 HD
ATOM     50  C   UNL A   1      41.829  33.544  33.305  1.00  0.00     0.031 A 
ATOM     51  C   UNL A   1      40.568  28.041  29.163  1.00  0.00     0.031 A 
ATOM     52  C   UNL A   1      42.848  32.531  33.309  1.00  0.00     0.049 A 
ATOM     53  C   UNL A   1      41.854  28.184  29.933  1.00  0.00     0.074 A 
ATOM     54  C   UNL A   1      44.023  32.496  34.040  1.00  0.00     0.029 A 
ATOM     55  N   UNL A   1      42.817  31.377  32.542  1.00  0.00    -0.354 N 
ATOM     56  N   UNL A   1      42.214  29.120  30.777  1.00  0.00    -0.248 NA
ATOM     57  C   UNL A   1      42.862  27.132  29.737  1.00  0.00     0.031 C 
ATOM     58  C   UNL A   1      44.733  31.352  33.668  1.00  0.00     0.029 A 
ATOM     59  C   UNL A   1      43.969  30.641  32.757  1.00  0.00     0.049 A 
ATOM     60  H   UNL A   1      42.086  31.119  31.935  1.00  0.00     0.167 HD
ATOM     61  C   UNL A   1      43.469  28.747  31.241  1.00  0.00     0.074 A 
ATOM     62  C   UNL A   1      43.802  27.495  30.597  1.00  0.00     0.031 C 
ATOM     63  C   UNL A   1      44.275  29.385  32.123  1.00  0.00     0.031 A 
BRANCH  50  64
ATOM     64  C   UNL A   1      42.071  34.787  34.114  1.00  0.00    -0.014 A 
ATOM     65  C   UNL A   1      41.746  34.848  35.477  1.00  0.00     0.009 A 
ATOM     66  C   UNL A   1      42.709  35.887  33.518  1.00  0.00     0.009 A 
ATOM     67  C   UNL A   1      42.034  35.994  36.222  1.00  0.00     0.001 A 
ATOM     68  C   UNL A   1      43.022  37.020  34.270  1.00  0.00     0.001 A 
ATOM     69  C   UNL A   1      42.679  37.075  35.621  1.00  0.00     0.000 A 
ENDBRANCH  50  64
BRANCH  51  70
ATOM     70  C   UNL A   1      40.358  26.875  28.263  1.00  0.00    -0.014 A 
ATOM     71  C   UNL A   1      40.852  26.892  26.949  1.00  0.00     0.009 A 
ATOM     72  C   UNL A   1      39.617  25.763  28.691  1.00  0.00     0.009 A 
ATOM     73  C   UNL A   1      40.570  25.843  26.070  1.00  0.00     0.001 A 
ATOM     74  C   UNL A   1      39.366  24.699  27.822  1.00  0.00     0.001 A 
ATOM     75  C   UNL A   1      39.829  24.747  26.507  1.00  0.00     0.000 A 
ENDBRANCH  51  70
BRANCH  63  76
ATOM     76  C   UNL A   1      45.568  28.714  32.494  1.00  0.00    -0.014 A 
ATOM     77  C   UNL A   1      45.620  27.715  33.476  1.00  0.00     0.009 A 
ATOM     78  C   UNL A   1      46.742  29.053  31.803  1.00  0.00     0.009 A 
ATOM     79  C   UNL A   1      46.831  27.090  33.782  1.00  0.00     0.001 A 
ATOM     80  C   UNL A   1      47.944  28.404  32.085  1.00  0.00     0.001 A 
ATOM     81  C   UNL A   1      47.989  27.430  33.081  1.00  0.00     0.000 A 
ENDBRANCH  63  76
ENDBRANCH  37  38
ENDBRANCH  29  32
ENDBRANCH  27  28
ENDBRANCH  26  27
ENDBRANCH  25  26
ENDBRANCH  24  25
ENDBRANCH   1  24
TORSDOF 19
ENDMDL
MODEL 2
REMARK VINA RESULT:      -9.0      2.923      4.054
REMARK SMILES CC[C@](C)([NH2+]CC(=O)NCC(F)(F)F)C(=O)NCCCCCCNC(=O)c1ccc(-c2c3nc(c(-c4ccccc4)c4ccc([nH]4)c(-c4ccccc4)c4nc(c(-c5ccccc5)c5ccc2[nH]5)C=C4)C=C3)cc1
REMARK SMILES IDX 19 1 18 2 17 3 15 4 16 5 3 7 4 8 2 9 1 10 5 11 6 14 7 15
REMARK SMILES IDX 8 16 9 17 10 19 11 20 12 21 13 22 14 23 20 24 21 25 22 26
REMARK SMILES IDX 23 27 24 28 25 29 26 31 27 32 28 33 74 34 29 35 73 36 30 37
REMARK SMILES IDX 31 38 32 39 67 40 33 41 72 42 66 43 68 44 34 45 71 46 65 47
REMARK SMILES IDX 64 48 35 50 57 51 42 52 56 53 43 54 46 55 55 56 69 57 44 58
REMARK SMILES IDX 45 59 54 61 70 62 47 63 36 64 37 65 41 66 38 67 40 68 39 69
REMARK SMILES IDX 58 70 59 71 63 72 60 73 62 74 61 75 48 76 49 77 53 78 50 79
REMARK SMILES IDX 52 80 51 81
REMARK H PARENT 17 6 5 12 5 13 9 18 24 30 68 49 46 60
REMARK Flexibility Score: inf
ROOT
ATOM      1  C   UNL A   1      34.678  31.201  28.666  1.00  0.00     0.021 C 
ENDROOT
BRANCH   1   2
ATOM      2  C   UNL A   1      34.602  30.092  27.617  1.00  0.00     0.116 C 
BRANCH   2   3
ATOM      3  N   UNL A   1      33.851  30.461  26.415  1.00  0.00    -0.351 N 
ATOM      4  C   UNL A   1      32.558  30.047  26.161  1.00  0.00     0.281 C 
ATOM      5  O   UNL A   1      31.651  30.819  26.488  1.00  0.00    -0.268 OA
ATOM      6  H   UNL A   1      34.292  31.038  25.751  1.00  0.00     0.163 HD
BRANCH   4   7
ATOM      7  C   UNL A   1      32.244  28.743  25.324  1.00  0.00     0.172 C 
ATOM      8  C   UNL A   1      33.548  28.596  24.488  1.00  0.00     0.090 C 
BRANCH   7   9
ATOM      9  C   UNL A   1      31.054  28.868  24.325  1.00  0.00     0.075 C 
ATOM     10  C   UNL A   1      30.547  27.611  23.621  1.00  0.00     0.011 C 
ENDBRANCH   7   9
BRANCH   7  11
ATOM     11  N   UNL A   1      32.082  27.526  26.129  1.00  0.00    -0.326 N 
ATOM     12  H   UNL A   1      31.079  27.343  26.162  1.00  0.00     0.347 HD
ATOM     13  H   UNL A   1      32.583  27.778  26.981  1.00  0.00     0.347 HD
BRANCH  11  14
ATOM     14  C   UNL A   1      32.716  26.243  25.786  1.00  0.00     0.362 C 
BRANCH  14  15
ATOM     15  C   UNL A   1      32.034  24.868  25.965  1.00  0.00     0.275 C 
ATOM     16  O   UNL A   1      31.093  24.792  26.772  1.00  0.00    -0.269 OA
ATOM     17  N   UNL A   1      32.238  23.713  25.270  1.00  0.00    -0.342 N 
ATOM     18  H   UNL A   1      31.596  23.018  25.540  1.00  0.00     0.164 HD
BRANCH  17  19
ATOM     19  C   UNL A   1      33.156  23.214  24.226  1.00  0.00     0.231 C 
BRANCH  19  20
ATOM     20  C   UNL A   1      33.196  23.974  22.889  1.00  0.00     0.405 C 
ATOM     21  F   UNL A   1      34.161  24.918  22.900  1.00  0.00    -0.169 F 
ATOM     22  F   UNL A   1      33.464  23.129  21.867  1.00  0.00    -0.169 F 
ATOM     23  F   UNL A   1      32.025  24.588  22.615  1.00  0.00    -0.169 F 
ENDBRANCH  19  20
ENDBRANCH  17  19
ENDBRANCH  14  15
ENDBRANCH  11  14
ENDBRANCH   7  11
ENDBRANCH   4   7
ENDBRANCH   2   3
ENDBRANCH   1   2
BRANCH   1  24
ATOM     24  C   UNL A   1      34.575  32.607  28.071  1.00  0.00     0.002 C 
BRANCH  24  25
ATOM     25  C   UNL A   1      34.502  33.758  29.085  1.00  0.00     0.002 C 
BRANCH  25  26
ATOM     26  C   UNL A   1      33.213  34.584  29.081  1.00  0.00     0.021 C 
BRANCH  26  27
ATOM     27  C   UNL A   1      33.362  36.034  29.533  1.00  0.00     0.116 C 
BRANCH  27  28
ATOM     28  N   UNL A   1      32.520  36.348  30.680  1.00  0.00    -0.352 N 
ATOM     29  C   UNL A   1      32.604  35.907  31.972  1.00  0.00     0.251 C 
ATOM     30  H   UNL A   1      31.780  36.972  30.497  1.00  0.00     0.163 HD
ATOM     31  O   UNL A   1      31.686  36.133  32.766  1.00  0.00    -0.269 OA
BRANCH  29  32
ATOM     32  C   UNL A   1      33.787  35.147  32.419  1.00  0.00     0.039 A 
ATOM     33  C   UNL A   1      33.623  33.845  32.897  1.00  0.00     0.014 A 
ATOM     34  C   UNL A   1      35.057  35.728  32.371  1.00  0.00     0.014 A 
ATOM     35  C   UNL A   1      34.743  33.100  33.271  1.00  0.00     0.010 A 
ATOM     36  C   UNL A   1      36.177  34.960  32.674  1.00  0.00     0.010 A 
ATOM     37  C   UNL A   1      36.031  33.640  33.131  1.00  0.00    -0.014 A 
BRANCH  37  38
ATOM     38  C   UNL A   1      37.245  32.852  33.459  1.00  0.00     0.031 A 
ATOM     39  C   UNL A   1      37.980  33.109  34.747  1.00  0.00     0.074 A 
ATOM     40  C   UNL A   1      37.729  31.965  32.566  1.00  0.00     0.049 A 
ATOM     41  N   UNL A   1      39.109  32.600  35.168  1.00  0.00    -0.248 NA
ATOM     42  C   UNL A   1      37.382  34.088  35.671  1.00  0.00     0.031 C 
ATOM     43  C   UNL A   1      37.124  31.648  31.269  1.00  0.00     0.029 A 
ATOM     44  N   UNL A   1      38.851  31.177  32.608  1.00  0.00    -0.354 N 
ATOM     45  C   UNL A   1      39.370  33.216  36.386  1.00  0.00     0.074 A 
ATOM     46  C   UNL A   1      38.303  34.162  36.621  1.00  0.00     0.031 C 
ATOM     47  C   UNL A   1      37.872  30.719  30.651  1.00  0.00     0.029 A 
ATOM     48  C   UNL A   1      39.031  30.410  31.481  1.00  0.00     0.049 A 
ATOM     49  H   UNL A   1      39.471  31.162  33.373  1.00  0.00     0.167 HD
ATOM     50  C   UNL A   1      40.401  33.003  37.237  1.00  0.00     0.031 A 
ATOM     51  C   UNL A   1      40.028  29.568  31.147  1.00  0.00     0.031 A 
ATOM     52  C   UNL A   1      41.445  32.041  37.013  1.00  0.00     0.049 A 
ATOM     53  C   UNL A   1      41.169  29.368  32.109  1.00  0.00     0.074 A 
ATOM     54  C   UNL A   1      42.490  31.696  37.853  1.00  0.00     0.029 A 
ATOM     55  N   UNL A   1      41.581  31.276  35.867  1.00  0.00    -0.354 N 
ATOM     56  N   UNL A   1      41.353  29.895  33.295  1.00  0.00    -0.248 NA
ATOM     57  C   UNL A   1      42.235  28.448  31.687  1.00  0.00     0.031 C 
ATOM     58  C   UNL A   1      43.294  30.767  37.189  1.00  0.00     0.029 A 
ATOM     59  C   UNL A   1      42.712  30.485  35.964  1.00  0.00     0.049 A 
ATOM     60  H   UNL A   1      40.966  31.292  35.098  1.00  0.00     0.167 HD
ATOM     61  C   UNL A   1      42.533  29.339  33.775  1.00  0.00     0.074 A 
ATOM     62  C   UNL A   1      43.012  28.426  32.760  1.00  0.00     0.031 C 
ATOM     63  C   UNL A   1      43.164  29.565  34.953  1.00  0.00     0.031 A 
BRANCH  50  64
ATOM     64  C   UNL A   1      40.463  33.829  38.492  1.00  0.00    -0.014 A 
ATOM     65  C   UNL A   1      41.173  35.037  38.538  1.00  0.00     0.009 A 
ATOM     66  C   UNL A   1      39.731  33.427  39.621  1.00  0.00     0.009 A 
ATOM     67  C   UNL A   1      41.168  35.816  39.697  1.00  0.00     0.001 A 
ATOM     68  C   UNL A   1      39.704  34.221  40.768  1.00  0.00     0.001 A 
ATOM     69  C   UNL A   1      40.427  35.412  40.808  1.00  0.00     0.000 A 
ENDBRANCH  50  64
BRANCH  51  70
ATOM     70  C   UNL A   1      40.009  28.847  29.846  1.00  0.00    -0.014 A 
ATOM     71  C   UNL A   1      40.522  29.454  28.688  1.00  0.00     0.009 A 
ATOM     72  C   UNL A   1      39.430  27.574  29.739  1.00  0.00     0.009 A 
ATOM     73  C   UNL A   1      40.414  28.822  27.447  1.00  0.00     0.001 A 
ATOM     74  C   UNL A   1      39.355  26.928  28.504  1.00  0.00     0.001 A 
ATOM     75  C   UNL A   1      39.832  27.559  27.356  1.00  0.00     0.000 A 
ENDBRANCH  51  70
BRANCH  63  76
ATOM     76  C   UNL A   1      44.406  28.769  35.238  1.00  0.00    -0.014 A 
ATOM     77  C   UNL A   1      45.667  29.193  34.793  1.00  0.00     0.009 A 
ATOM     78  C   UNL A   1      44.315  27.604  36.016  1.00  0.00     0.009 A 
ATOM     79  C   UNL A   1      46.808  28.447  35.095  1.00  0.00     0.001 A 
ATOM     80  C   UNL A   1      45.459  26.880  36.346  1.00  0.00     0.001 A 
ATOM     81  C   UNL A   1      46.704  27.297  35.877  1.00  0.00     0.000 A 
ENDBRANCH  63  76
ENDBRANCH  37  38
ENDBRANCH  29  32
ENDBRANCH  27  28
ENDBRANCH  26  27
ENDBRANCH  25  26
ENDBRANCH  24  25
ENDBRANCH   1  24
TORSDOF 19
ENDMDL
MODEL 3
REMARK VINA RESULT:      -8.9      5.160     10.123
REMARK SMILES CC[C@](C)([NH2+]CC(=O)NCC(F)(F)F)C(=O)NCCCCCCNC(=O)c1ccc(-c2c3nc(c(-c4ccccc4)c4ccc([nH]4)c(-c4ccccc4)c4nc(c(-c5ccccc5)c5ccc2[nH]5)C=C4)C=C3)cc1
REMARK SMILES IDX 19 1 18 2 17 3 15 4 16 5 3 7 4 8 2 9 1 10 5 11 6 14 7 15
REMARK SMILES IDX 8 16 9 17 10 19 11 20 12 21 13 22 14 23 20 24 21 25 22 26
REMARK SMILES IDX 23 27 24 28 25 29 26 31 27 32 28 33 74 34 29 35 73 36 30 37
REMARK SMILES IDX 31 38 32 39 67 40 33 41 72 42 66 43 68 44 34 45 71 46 65 47
REMARK SMILES IDX 64 48 35 50 57 51 42 52 56 53 43 54 46 55 55 56 69 57 44 58
REMARK SMILES IDX 45 59 54 61 70 62 47 63 36 64 37 65 41 66 38 67 40 68 39 69
REMARK SMILES IDX 58 70 59 71 63 72 60 73 62 74 61 75 48 76 49 77 53 78 50 79
REMARK SMILES IDX 52 80 51 81
REMARK H PARENT 17 6 5 12 5 13 9 18 24 30 68 49 46 60
REMARK Flexibility Score: inf
ROOT
ATOM      1  C   UNL A   1      46.293  25.631  31.915  1.00  0.00     0.021 C 
ENDROOT
BRANCH   1   2
ATOM      2  C   UNL A   1      46.196  25.863  30.407  1.00  0.00     0.116 C 
BRANCH   2   3
ATOM      3  N   UNL A   1      46.125  24.630  29.619  1.00  0.00    -0.351 N 
ATOM      4  C   UNL A   1      46.162  24.599  28.239  1.00  0.00     0.281 C 
ATOM      5  O   UNL A   1      47.264  24.404  27.716  1.00  0.00    -0.268 OA
ATOM      6  H   UNL A   1      46.046  23.775  30.101  1.00  0.00     0.163 HD
BRANCH   4   7
ATOM      7  C   UNL A   1      44.846  24.619  27.363  1.00  0.00     0.172 C 
ATOM      8  C   UNL A   1      44.340  26.070  27.606  1.00  0.00     0.090 C 
BRANCH   7   9
ATOM      9  C   UNL A   1      43.724  23.644  27.832  1.00  0.00     0.075 C 
ATOM     10  C   UNL A   1      42.657  24.156  28.796  1.00  0.00     0.011 C 
ENDBRANCH   7   9
BRANCH   7  11
ATOM     11  N   UNL A   1      45.070  24.451  25.922  1.00  0.00    -0.326 N 
ATOM     12  H   UNL A   1      46.081  24.479  25.790  1.00  0.00     0.347 HD
ATOM     13  H   UNL A   1      44.485  25.193  25.538  1.00  0.00     0.347 HD
BRANCH  11  14
ATOM     14  C   UNL A   1      44.595  23.283  25.163  1.00  0.00     0.362 C 
BRANCH  14  15
ATOM     15  C   UNL A   1      44.986  21.824  25.492  1.00  0.00     0.275 C 
ATOM     16  O   UNL A   1      46.195  21.562  25.599  1.00  0.00    -0.269 OA
ATOM     17  N   UNL A   1      44.180  20.769  25.801  1.00  0.00    -0.342 N 
ATOM     18  H   UNL A   1      44.709  19.979  26.054  1.00  0.00     0.164 HD
BRANCH  17  19
ATOM     19  C   UNL A   1      42.732  20.482  25.861  1.00  0.00     0.231 C 
BRANCH  19  20
ATOM     20  C   UNL A   1      42.297  19.132  26.456  1.00  0.00     0.405 C 
ATOM     21  F   UNL A   1      41.046  18.812  26.060  1.00  0.00    -0.169 F 
ATOM     22  F   UNL A   1      43.120  18.141  26.044  1.00  0.00    -0.169 F 
ATOM     23  F   UNL A   1      42.310  19.140  27.806  1.00  0.00    -0.169 F 
ENDBRANCH  19  20
ENDBRANCH  17  19
ENDBRANCH  14  15
ENDBRANCH  11  14
ENDBRANCH   7  11
ENDBRANCH   4   7
ENDBRANCH   2   3
ENDBRANCH   1   2
BRANCH   1  24
ATOM     24  C   UNL A   1      45.056  24.950  32.504  1.00  0.00     0.002 C 
BRANCH  24  25
ATOM     25  C   UNL A   1      45.293  23.581  33.157  1.00  0.00     0.002 C 
BRANCH  25  26
ATOM     26  C   UNL A   1      45.831  23.598  34.590  1.00  0.00     0.021 C 
BRANCH  26  27
ATOM     27  C   UNL A   1      47.081  24.445  34.811  1.00  0.00     0.116 C 
BRANCH  27  28
ATOM     28  N   UNL A   1      47.108  25.064  36.130  1.00  0.00    -0.352 N 
ATOM     29  C   UNL A   1      46.459  26.180  36.584  1.00  0.00     0.251 C 
ATOM     30  H   UNL A   1      47.677  24.611  36.793  1.00  0.00     0.163 HD
ATOM     31  O   UNL A   1      46.751  26.664  37.681  1.00  0.00    -0.269 OA
BRANCH  29  32
ATOM     32  C   UNL A   1      45.417  26.817  35.758  1.00  0.00     0.039 A 
ATOM     33  C   UNL A   1      44.103  26.346  35.830  1.00  0.00     0.014 A 
ATOM     34  C   UNL A   1      45.741  27.876  34.906  1.00  0.00     0.014 A 
ATOM     35  C   UNL A   1      43.101  26.979  35.093  1.00  0.00     0.010 A 
ATOM     36  C   UNL A   1      44.730  28.551  34.229  1.00  0.00     0.010 A 
ATOM     37  C   UNL A   1      43.401  28.107  34.313  1.00  0.00    -0.014 A 
BRANCH  37  38
ATOM     38  C   UNL A   1      42.347  28.840  33.568  1.00  0.00     0.031 A 
ATOM     39  C   UNL A   1      41.508  29.869  34.276  1.00  0.00     0.074 A 
ATOM     40  C   UNL A   1      42.093  28.523  32.282  1.00  0.00     0.049 A 
ATOM     41  N   UNL A   1      40.478  30.542  33.830  1.00  0.00    -0.248 NA
ATOM     42  C   UNL A   1      41.855  30.163  35.677  1.00  0.00     0.031 C 
ATOM     43  C   UNL A   1      42.815  27.520  31.495  1.00  0.00     0.029 A 
ATOM     44  N   UNL A   1      41.143  29.001  31.415  1.00  0.00    -0.354 N 
ATOM     45  C   UNL A   1      40.038  31.311  34.900  1.00  0.00     0.074 A 
ATOM     46  C   UNL A   1      40.888  30.999  36.026  1.00  0.00     0.031 C 
ATOM     47  C   UNL A   1      42.296  27.476  30.257  1.00  0.00     0.029 A 
ATOM     48  C   UNL A   1      41.176  28.406  30.176  1.00  0.00     0.049 A 
ATOM     49  H   UNL A   1      40.498  29.705  31.657  1.00  0.00     0.167 HD
ATOM     50  C   UNL A   1      39.024  32.208  34.936  1.00  0.00     0.031 A 
ATOM     51  C   UNL A   1      40.381  28.580  29.103  1.00  0.00     0.031 A 
ATOM     52  C   UNL A   1      38.199  32.537  33.806  1.00  0.00     0.049 A 
ATOM     53  C   UNL A   1      39.250  29.571  29.183  1.00  0.00     0.074 A 
ATOM     54  C   UNL A   1      37.198  33.489  33.721  1.00  0.00     0.029 A 
ATOM     55  N   UNL A   1      38.275  31.922  32.566  1.00  0.00    -0.354 N 
ATOM     56  N   UNL A   1      38.903  30.353  30.177  1.00  0.00    -0.248 NA
ATOM     57  C   UNL A   1      38.406  29.708  27.987  1.00  0.00     0.031 C 
ATOM     58  C   UNL A   1      36.625  33.407  32.450  1.00  0.00     0.029 A 
ATOM     59  C   UNL A   1      37.315  32.451  31.722  1.00  0.00     0.049 A 
ATOM     60  H   UNL A   1      38.916  31.215  32.323  1.00  0.00     0.167 HD
ATOM     61  C   UNL A   1      37.830  31.101  29.710  1.00  0.00     0.074 A 
ATOM     62  C   UNL A   1      37.591  30.691  28.343  1.00  0.00     0.031 C 
ATOM     63  C   UNL A   1      37.105  32.046  30.357  1.00  0.00     0.031 A 
BRANCH  50  64
ATOM     64  C   UNL A   1      38.736  32.896  36.241  1.00  0.00    -0.014 A 
ATOM     65  C   UNL A   1      37.883  32.325  37.197  1.00  0.00     0.009 A 
ATOM     66  C   UNL A   1      39.394  34.098  36.548  1.00  0.00     0.009 A 
ATOM     67  C   UNL A   1      37.677  32.956  38.426  1.00  0.00     0.001 A 
ATOM     68  C   UNL A   1      39.208  34.712  37.788  1.00  0.00     0.001 A 
ATOM     69  C   UNL A   1      38.346  34.143  38.724  1.00  0.00     0.000 A 
ENDBRANCH  50  64
BRANCH  51  70
ATOM     70  C   UNL A   1      40.608  27.801  27.856  1.00  0.00    -0.014 A 
ATOM     71  C   UNL A   1      40.029  26.532  27.693  1.00  0.00     0.009 A 
ATOM     72  C   UNL A   1      41.448  28.293  26.846  1.00  0.00     0.009 A 
ATOM     73  C   UNL A   1      40.322  25.756  26.569  1.00  0.00     0.001 A 
ATOM     74  C   UNL A   1      41.711  27.531  25.706  1.00  0.00     0.001 A 
ATOM     75  C   UNL A   1      41.162  26.256  25.576  1.00  0.00     0.000 A 
ENDBRANCH  51  70
BRANCH  63  76
ATOM     76  C   UNL A   1      36.027  32.746  29.580  1.00  0.00    -0.014 A 
ATOM     77  C   UNL A   1      36.237  34.010  29.009  1.00  0.00     0.009 A 
ATOM     78  C   UNL A   1      34.798  32.100  29.371  1.00  0.00     0.009 A 
ATOM     79  C   UNL A   1      35.224  34.626  28.270  1.00  0.00     0.001 A 
ATOM     80  C   UNL A   1      33.801  32.702  28.603  1.00  0.00     0.001 A 
ATOM     81  C   UNL A   1      34.012  33.968  28.062  1.00  0.00     0.000 A 
ENDBRANCH  63  76
ENDBRANCH  37  38
ENDBRANCH  29  32
ENDBRANCH  27  28
ENDBRANCH  26  27
ENDBRANCH  25  26
ENDBRANCH  24  25
ENDBRANCH   1  24
TORSDOF 19
ENDMDL
