MODEL 1
REMARK VINA RESULT:      -8.9      0.000      0.000
REMARK SMILES CC(C)N1C[C@@H](C(=O)N2CCC(C(=O)NCCCCCCNC(=O)c3ccc(-c4c5nc(c(-c6ccccc6)c6ccc([nH]6)c(-c6ccccc6)c6nc(c(-c7ccccc7)c7ccc4[nH]7)C=C6)C=C5)cc3)CC2)CC1=O
REMARK SMILES IDX 18 1 17 2 16 3 15 4 13 5 14 6 12 8 7 9 8 10 9 11 10 12 74 13
REMARK SMILES IDX 11 14 73 15 6 16 4 17 5 18 76 19 75 20 77 21 2 22 1 23 3 24
REMARK SMILES IDX 19 25 20 26 21 27 22 28 23 29 24 31 25 32 26 33 72 34 27 35
REMARK SMILES IDX 71 36 28 37 29 38 30 39 65 40 31 41 70 42 64 43 66 44 32 45
REMARK SMILES IDX 69 46 63 47 62 48 33 50 55 51 40 52 54 53 41 54 44 55 53 56
REMARK SMILES IDX 67 57 42 58 43 59 52 61 68 62 45 63 34 64 35 65 39 66 36 67
REMARK SMILES IDX 38 68 37 69 56 70 57 71 61 72 58 73 60 74 59 75 46 76 47 77
REMARK SMILES IDX 51 78 48 79 50 80 49 81
REMARK H PARENT 15 7 22 30 66 49 44 60
REMARK Flexibility Score: inf
ROOT
ATOM      1  C   UNL A   1      37.258  33.102  30.196  1.00  0.00     0.002 C 
ENDROOT
BRANCH   1   2
ATOM      2  C   UNL A   1      38.053  33.935  31.208  1.00  0.00     0.021 C 
BRANCH   2   3
ATOM      3  C   UNL A   1      38.721  33.102  32.300  1.00  0.00     0.116 C 
BRANCH   3   4
ATOM      4  N   UNL A   1      37.863  32.003  32.712  1.00  0.00    -0.356 N 
ATOM      5  C   UNL A   1      38.148  30.702  32.982  1.00  0.00     0.223 C 
ATOM      6  O   UNL A   1      37.210  29.946  33.249  1.00  0.00    -0.275 OA
ATOM      7  H   UNL A   1      36.912  32.242  32.812  1.00  0.00     0.163 HD
BRANCH   5   8
ATOM      8  C   UNL A   1      39.579  30.188  33.001  1.00  0.00     0.082 C 
ATOM      9  C   UNL A   1      41.631  27.831  35.532  1.00  0.00     0.227 C 
ATOM     10  O   UNL A   1      41.206  28.296  36.594  1.00  0.00    -0.274 OA
ATOM     11  N   UNL A   1      41.518  28.550  34.356  1.00  0.00    -0.342 N 
ATOM     12  C   UNL A   1      41.685  29.997  34.401  1.00  0.00     0.120 C 
ATOM     13  C   UNL A   1      40.959  28.039  33.116  1.00  0.00     0.120 C 
ATOM     14  C   UNL A   1      40.377  30.737  34.191  1.00  0.00     0.035 C 
ATOM     15  C   UNL A   1      39.594  28.661  32.841  1.00  0.00     0.035 C 
BRANCH   9  16
ATOM     16  C   UNL A   1      42.521  26.590  35.568  1.00  0.00     0.107 C 
ATOM     17  N   UNL A   1      43.725  25.207  34.070  1.00  0.00    -0.339 N 
ATOM     18  C   UNL A   1      43.453  26.594  34.365  1.00  0.00     0.133 C 
ATOM     19  C   UNL A   1      42.946  24.362  34.846  1.00  0.00     0.223 C 
ATOM     20  C   UNL A   1      41.939  25.190  35.604  1.00  0.00     0.115 C 
ATOM     21  O   UNL A   1      42.988  23.143  34.901  1.00  0.00    -0.275 OA
BRANCH  17  22
ATOM     22  C   UNL A   1      44.837  24.818  33.181  1.00  0.00     0.078 C 
ATOM     23  C   UNL A   1      46.036  24.202  33.908  1.00  0.00     0.031 C 
ATOM     24  C   UNL A   1      44.377  23.836  32.094  1.00  0.00     0.031 C 
ENDBRANCH  17  22
ENDBRANCH   9  16
ENDBRANCH   5   8
ENDBRANCH   3   4
ENDBRANCH   2   3
ENDBRANCH   1   2
BRANCH   1  25
ATOM     25  C   UNL A   1      36.765  33.879  28.971  1.00  0.00     0.002 C 
BRANCH  25  26
ATOM     26  C   UNL A   1      35.570  33.253  28.251  1.00  0.00     0.021 C 
BRANCH  26  27
ATOM     27  C   UNL A   1      34.640  32.455  29.159  1.00  0.00     0.116 C 
BRANCH  27  28
ATOM     28  N   UNL A   1      34.023  31.339  28.458  1.00  0.00    -0.352 N 
ATOM     29  C   UNL A   1      34.610  30.218  27.930  1.00  0.00     0.251 C 
ATOM     30  H   UNL A   1      33.047  31.397  28.348  1.00  0.00     0.163 HD
ATOM     31  O   UNL A   1      33.975  29.472  27.191  1.00  0.00    -0.269 OA
BRANCH  29  32
ATOM     32  C   UNL A   1      36.023  29.922  28.242  1.00  0.00     0.039 A 
ATOM     33  C   UNL A   1      36.349  29.428  29.507  1.00  0.00     0.014 A 
ATOM     34  C   UNL A   1      37.021  30.124  27.284  1.00  0.00     0.014 A 
ATOM     35  C   UNL A   1      37.670  29.078  29.791  1.00  0.00     0.010 A 
ATOM     36  C   UNL A   1      38.321  29.702  27.542  1.00  0.00     0.010 A 
ATOM     37  C   UNL A   1      38.659  29.178  28.799  1.00  0.00    -0.014 A 
BRANCH  37  38
ATOM     38  C   UNL A   1      40.053  28.736  29.052  1.00  0.00     0.031 A 
ATOM     39  C   UNL A   1      41.048  29.688  29.660  1.00  0.00     0.074 A 
ATOM     40  C   UNL A   1      40.442  27.503  28.670  1.00  0.00     0.049 A 
ATOM     41  N   UNL A   1      42.324  29.511  29.889  1.00  0.00    -0.248 NA
ATOM     42  C   UNL A   1      40.550  31.021  30.035  1.00  0.00     0.031 C 
ATOM     43  C   UNL A   1      39.583  26.498  28.040  1.00  0.00     0.029 A 
ATOM     44  N   UNL A   1      41.667  26.889  28.748  1.00  0.00    -0.354 N 
ATOM     45  C   UNL A   1      42.784  30.713  30.412  1.00  0.00     0.074 A 
ATOM     46  C   UNL A   1      41.662  31.626  30.426  1.00  0.00     0.031 C 
ATOM     47  C   UNL A   1      40.300  25.386  27.814  1.00  0.00     0.029 A 
ATOM     48  C   UNL A   1      41.679  25.614  28.235  1.00  0.00     0.049 A 
ATOM     49  H   UNL A   1      42.464  27.321  29.135  1.00  0.00     0.167 HD
ATOM     50  C   UNL A   1      44.025  31.026  30.854  1.00  0.00     0.031 A 
ATOM     51  C   UNL A   1      42.688  24.733  28.105  1.00  0.00     0.031 A 
ATOM     52  C   UNL A   1      45.136  30.112  30.852  1.00  0.00     0.049 A 
ATOM     53  C   UNL A   1      44.063  25.118  28.579  1.00  0.00     0.074 A 
ATOM     54  C   UNL A   1      46.414  30.313  31.343  1.00  0.00     0.029 A 
ATOM     55  N   UNL A   1      45.105  28.831  30.325  1.00  0.00    -0.354 N 
ATOM     56  N   UNL A   1      44.461  26.230  29.148  1.00  0.00    -0.248 NA
ATOM     57  C   UNL A   1      45.128  24.120  28.398  1.00  0.00     0.031 C 
ATOM     58  C   UNL A   1      47.176  29.176  31.054  1.00  0.00     0.029 A 
ATOM     59  C   UNL A   1      46.352  28.242  30.447  1.00  0.00     0.049 A 
ATOM     60  H   UNL A   1      44.314  28.403  29.925  1.00  0.00     0.167 HD
ATOM     61  C   UNL A   1      45.811  26.052  29.426  1.00  0.00     0.074 A 
ATOM     62  C   UNL A   1      46.159  24.720  28.977  1.00  0.00     0.031 C 
ATOM     63  C   UNL A   1      46.683  26.913  30.003  1.00  0.00     0.031 A 
BRANCH  50  64
ATOM     64  C   UNL A   1      44.256  32.423  31.362  1.00  0.00    -0.014 A 
ATOM     65  C   UNL A   1      44.660  33.457  30.503  1.00  0.00     0.009 A 
ATOM     66  C   UNL A   1      44.012  32.719  32.712  1.00  0.00     0.009 A 
ATOM     67  C   UNL A   1      44.846  34.751  30.993  1.00  0.00     0.001 A 
ATOM     68  C   UNL A   1      44.167  34.021  33.192  1.00  0.00     0.001 A 
ATOM     69  C   UNL A   1      44.593  35.033  32.335  1.00  0.00     0.000 A 
ENDBRANCH  50  64
BRANCH  51  70
ATOM     70  C   UNL A   1      42.447  23.396  27.498  1.00  0.00    -0.014 A 
ATOM     71  C   UNL A   1      41.981  22.330  28.284  1.00  0.00     0.009 A 
ATOM     72  C   UNL A   1      42.713  23.168  26.139  1.00  0.00     0.009 A 
ATOM     73  C   UNL A   1      41.823  21.057  27.731  1.00  0.00     0.001 A 
ATOM     74  C   UNL A   1      42.520  21.902  25.580  1.00  0.00     0.001 A 
ATOM     75  C   UNL A   1      42.090  20.845  26.379  1.00  0.00     0.000 A 
ENDBRANCH  51  70
BRANCH  63  76
ATOM     76  C   UNL A   1      48.088  26.428  30.228  1.00  0.00    -0.014 A 
ATOM     77  C   UNL A   1      48.444  25.718  31.385  1.00  0.00     0.009 A 
ATOM     78  C   UNL A   1      49.060  26.644  29.237  1.00  0.00     0.009 A 
ATOM     79  C   UNL A   1      49.753  25.265  31.559  1.00  0.00     0.001 A 
ATOM     80  C   UNL A   1      50.358  26.160  29.399  1.00  0.00     0.001 A 
ATOM     81  C   UNL A   1      50.706  25.480  30.564  1.00  0.00     0.000 A 
ENDBRANCH  63  76
ENDBRANCH  37  38
ENDBRANCH  29  32
ENDBRANCH  27  28
ENDBRANCH  26  27
ENDBRANCH  25  26
ENDBRANCH   1  25
TORSDOF 15
ENDMDL
MODEL 2
REMARK VINA RESULT:      -8.9      5.218      8.721
REMARK SMILES CC(C)N1C[C@@H](C(=O)N2CCC(C(=O)NCCCCCCNC(=O)c3ccc(-c4c5nc(c(-c6ccccc6)c6ccc([nH]6)c(-c6ccccc6)c6nc(c(-c7ccccc7)c7ccc4[nH]7)C=C6)C=C5)cc3)CC2)CC1=O
REMARK SMILES IDX 18 1 17 2 16 3 15 4 13 5 14 6 12 8 7 9 8 10 9 11 10 12 74 13
REMARK SMILES IDX 11 14 73 15 6 16 4 17 5 18 76 19 75 20 77 21 2 22 1 23 3 24
REMARK SMILES IDX 19 25 20 26 21 27 22 28 23 29 24 31 25 32 26 33 72 34 27 35
REMARK SMILES IDX 71 36 28 37 29 38 30 39 65 40 31 41 70 42 64 43 66 44 32 45
REMARK SMILES IDX 69 46 63 47 62 48 33 50 55 51 40 52 54 53 41 54 44 55 53 56
REMARK SMILES IDX 67 57 42 58 43 59 52 61 68 62 45 63 34 64 35 65 39 66 36 67
REMARK SMILES IDX 38 68 37 69 56 70 57 71 61 72 58 73 60 74 59 75 46 76 47 77
REMARK SMILES IDX 51 78 48 79 50 80 49 81
REMARK H PARENT 15 7 22 30 66 49 44 60
REMARK Flexibility Score: inf
ROOT
ATOM      1  C   UNL A   1      30.658  30.135  24.632  1.00  0.00     0.002 C 
ENDROOT
BRANCH   1   2
ATOM      2  C   UNL A   1      31.177  29.153  23.577  1.00  0.00     0.021 C 
BRANCH   2   3
ATOM      3  C   UNL A   1      30.702  27.717  23.788  1.00  0.00     0.116 C 
BRANCH   3   4
ATOM      4  N   UNL A   1      30.920  27.295  25.162  1.00  0.00    -0.356 N 
ATOM      5  C   UNL A   1      31.370  26.118  25.673  1.00  0.00     0.223 C 
ATOM      6  O   UNL A   1      31.397  25.992  26.900  1.00  0.00    -0.275 OA
ATOM      7  H   UNL A   1      30.704  27.977  25.838  1.00  0.00     0.163 HD
BRANCH   5   8
ATOM      8  C   UNL A   1      31.869  24.998  24.773  1.00  0.00     0.082 C 
ATOM      9  C   UNL A   1      32.738  21.125  25.413  1.00  0.00     0.227 C 
ATOM     10  O   UNL A   1      33.315  21.248  26.498  1.00  0.00    -0.274 OA
ATOM     11  N   UNL A   1      32.573  22.215  24.579  1.00  0.00    -0.342 N 
ATOM     12  C   UNL A   1      33.640  23.204  24.499  1.00  0.00     0.120 C 
ATOM     13  C   UNL A   1      31.313  22.630  23.988  1.00  0.00     0.120 C 
ATOM     14  C   UNL A   1      33.269  24.513  25.173  1.00  0.00     0.035 C 
ATOM     15  C   UNL A   1      30.799  23.905  24.648  1.00  0.00     0.035 C 
BRANCH   9  16
ATOM     16  C   UNL A   1      32.456  19.723  24.876  1.00  0.00     0.107 C 
ATOM     17  N   UNL A   1      33.366  17.540  25.006  1.00  0.00    -0.339 N 
ATOM     18  C   UNL A   1      33.042  18.685  25.824  1.00  0.00     0.133 C 
ATOM     19  C   UNL A   1      33.197  17.817  23.658  1.00  0.00     0.223 C 
ATOM     20  C   UNL A   1      32.911  19.289  23.497  1.00  0.00     0.115 C 
ATOM     21  O   UNL A   1      33.308  17.048  22.716  1.00  0.00    -0.275 OA
BRANCH  17  22
ATOM     22  C   UNL A   1      33.650  16.225  25.612  1.00  0.00     0.078 C 
ATOM     23  C   UNL A   1      32.582  15.163  25.337  1.00  0.00     0.031 C 
ATOM     24  C   UNL A   1      35.007  15.671  25.153  1.00  0.00     0.031 C 
ENDBRANCH  17  22
ENDBRANCH   9  16
ENDBRANCH   5   8
ENDBRANCH   3   4
ENDBRANCH   2   3
ENDBRANCH   1   2
BRANCH   1  25
ATOM     25  C   UNL A   1      31.658  30.473  25.743  1.00  0.00     0.002 C 
BRANCH  25  26
ATOM     26  C   UNL A   1      31.412  31.810  26.444  1.00  0.00     0.021 C 
BRANCH  26  27
ATOM     27  C   UNL A   1      32.627  32.362  27.183  1.00  0.00     0.116 C 
BRANCH  27  28
ATOM     28  N   UNL A   1      32.452  33.760  27.546  1.00  0.00    -0.352 N 
ATOM     29  C   UNL A   1      33.160  34.516  28.445  1.00  0.00     0.251 C 
ATOM     30  H   UNL A   1      31.725  34.230  27.079  1.00  0.00     0.163 HD
ATOM     31  O   UNL A   1      32.755  35.623  28.783  1.00  0.00    -0.269 OA
BRANCH  29  32
ATOM     32  C   UNL A   1      34.409  33.978  29.022  1.00  0.00     0.039 A 
ATOM     33  C   UNL A   1      34.357  33.307  30.246  1.00  0.00     0.014 A 
ATOM     34  C   UNL A   1      35.626  34.129  28.351  1.00  0.00     0.014 A 
ATOM     35  C   UNL A   1      35.517  32.732  30.767  1.00  0.00     0.010 A 
ATOM     36  C   UNL A   1      36.763  33.490  28.832  1.00  0.00     0.010 A 
ATOM     37  C   UNL A   1      36.721  32.789  30.047  1.00  0.00    -0.014 A 
BRANCH  37  38
ATOM     38  C   UNL A   1      37.948  32.116  30.542  1.00  0.00     0.031 A 
ATOM     39  C   UNL A   1      38.771  32.753  31.629  1.00  0.00     0.074 A 
ATOM     40  C   UNL A   1      38.360  30.970  29.965  1.00  0.00     0.049 A 
ATOM     41  N   UNL A   1      39.909  32.357  32.142  1.00  0.00    -0.248 NA
ATOM     42  C   UNL A   1      38.264  34.013  32.197  1.00  0.00     0.031 C 
ATOM     43  C   UNL A   1      37.670  30.268  28.880  1.00  0.00     0.029 A 
ATOM     44  N   UNL A   1      39.468  30.195  30.207  1.00  0.00    -0.354 N 
ATOM     45  C   UNL A   1      40.262  33.327  33.072  1.00  0.00     0.074 A 
ATOM     46  C   UNL A   1      39.242  34.352  33.023  1.00  0.00     0.031 C 
ATOM     47  C   UNL A   1      38.355  29.157  28.569  1.00  0.00     0.029 A 
ATOM     48  C   UNL A   1      39.557  29.091  29.394  1.00  0.00     0.049 A 
ATOM     49  H   UNL A   1      40.137  30.413  30.897  1.00  0.00     0.167 HD
ATOM     50  C   UNL A   1      41.331  33.356  33.902  1.00  0.00     0.031 A 
ATOM     51  C   UNL A   1      40.505  28.139  29.314  1.00  0.00     0.031 A 
ATOM     52  C   UNL A   1      42.337  32.329  33.958  1.00  0.00     0.049 A 
ATOM     53  C   UNL A   1      41.697  28.212  30.229  1.00  0.00     0.074 A 
ATOM     54  C   UNL A   1      43.420  32.233  34.814  1.00  0.00     0.029 A 
ATOM     55  N   UNL A   1      42.388  31.226  33.120  1.00  0.00    -0.354 N 
ATOM     56  N   UNL A   1      41.972  29.092  31.161  1.00  0.00    -0.248 NA
ATOM     57  C   UNL A   1      42.707  27.153  30.085  1.00  0.00     0.031 C 
ATOM     58  C   UNL A   1      44.165  31.107  34.449  1.00  0.00     0.029 A 
ATOM     59  C   UNL A   1      43.506  30.464  33.414  1.00  0.00     0.049 A 
ATOM     60  H   UNL A   1      41.728  31.016  32.420  1.00  0.00     0.167 HD
ATOM     61  C   UNL A   1      43.165  28.674  31.738  1.00  0.00     0.074 A 
ATOM     62  C   UNL A   1      43.552  27.453  31.061  1.00  0.00     0.031 C 
ATOM     63  C   UNL A   1      43.875  29.247  32.739  1.00  0.00     0.031 A 
BRANCH  50  64
ATOM     64  C   UNL A   1      41.482  34.547  34.808  1.00  0.00    -0.014 A 
ATOM     65  C   UNL A   1      40.915  34.567  36.092  1.00  0.00     0.009 A 
ATOM     66  C   UNL A   1      42.253  35.643  34.390  1.00  0.00     0.009 A 
ATOM     67  C   UNL A   1      41.089  35.674  36.925  1.00  0.00     0.001 A 
ATOM     68  C   UNL A   1      42.452  36.735  35.237  1.00  0.00     0.001 A 
ATOM     69  C   UNL A   1      41.862  36.754  36.499  1.00  0.00     0.000 A 
ENDBRANCH  50  64
BRANCH  51  70
ATOM     70  C   UNL A   1      40.378  27.031  28.329  1.00  0.00    -0.014 A 
ATOM     71  C   UNL A   1      40.892  27.168  27.030  1.00  0.00     0.009 A 
ATOM     72  C   UNL A   1      39.712  25.843  28.670  1.00  0.00     0.009 A 
ATOM     73  C   UNL A   1      40.708  26.157  26.084  1.00  0.00     0.001 A 
ATOM     74  C   UNL A   1      39.562  24.819  27.732  1.00  0.00     0.001 A 
ATOM     75  C   UNL A   1      40.047  24.982  26.436  1.00  0.00     0.000 A 
ENDBRANCH  51  70
BRANCH  63  76
ATOM     76  C   UNL A   1      45.118  28.539  33.199  1.00  0.00    -0.014 A 
ATOM     77  C   UNL A   1      46.377  28.838  32.656  1.00  0.00     0.009 A 
ATOM     78  C   UNL A   1      45.031  27.592  34.233  1.00  0.00     0.009 A 
ATOM     79  C   UNL A   1      47.518  28.176  33.115  1.00  0.00     0.001 A 
ATOM     80  C   UNL A   1      46.177  26.958  34.713  1.00  0.00     0.001 A 
ATOM     81  C   UNL A   1      47.418  27.243  34.147  1.00  0.00     0.000 A 
ENDBRANCH  63  76
ENDBRANCH  37  38
ENDBRANCH  29  32
ENDBRANCH  27  28
ENDBRANCH  26  27
ENDBRANCH  25  26
ENDBRANCH   1  25
TORSDOF 15
ENDMDL
MODEL 3
REMARK VINA RESULT:      -8.9      5.109     10.626
REMARK SMILES CC(C)N1C[C@@H](C(=O)N2CCC(C(=O)NCCCCCCNC(=O)c3ccc(-c4c5nc(c(-c6ccccc6)c6ccc([nH]6)c(-c6ccccc6)c6nc(c(-c7ccccc7)c7ccc4[nH]7)C=C6)C=C5)cc3)CC2)CC1=O
REMARK SMILES IDX 18 1 17 2 16 3 15 4 13 5 14 6 12 8 7 9 8 10 9 11 10 12 74 13
REMARK SMILES IDX 11 14 73 15 6 16 4 17 5 18 76 19 75 20 77 21 2 22 1 23 3 24
REMARK SMILES IDX 19 25 20 26 21 27 22 28 23 29 24 31 25 32 26 33 72 34 27 35
REMARK SMILES IDX 71 36 28 37 29 38 30 39 65 40 31 41 70 42 64 43 66 44 32 45
REMARK SMILES IDX 69 46 63 47 62 48 33 50 55 51 40 52 54 53 41 54 44 55 53 56
REMARK SMILES IDX 67 57 42 58 43 59 52 61 68 62 45 63 34 64 35 65 39 66 36 67
REMARK SMILES IDX 38 68 37 69 56 70 57 71 61 72 58 73 60 74 59 75 46 76 47 77
REMARK SMILES IDX 51 78 48 79 50 80 49 81
REMARK H PARENT 15 7 22 30 66 49 44 60
REMARK Flexibility Score: inf
ROOT
ATOM      1  C   UNL A   1      30.956  30.100  24.988  1.00  0.00     0.002 C 
ENDROOT
BRANCH   1   2
ATOM      2  C   UNL A   1      31.760  29.326  23.939  1.00  0.00     0.021 C 
BRANCH   2   3
ATOM      3  C   UNL A   1      30.917  28.811  22.775  1.00  0.00     0.116 C 
BRANCH   3   4
ATOM      4  N   UNL A   1      29.826  27.977  23.253  1.00  0.00    -0.356 N 
ATOM      5  C   UNL A   1      29.833  26.754  23.847  1.00  0.00     0.223 C 
ATOM      6  O   UNL A   1      28.746  26.225  24.097  1.00  0.00    -0.275 OA
ATOM      7  H   UNL A   1      28.929  28.363  23.125  1.00  0.00     0.163 HD
BRANCH   5   8
ATOM      8  C   UNL A   1      31.131  26.065  24.237  1.00  0.00     0.082 C 
ATOM      9  C   UNL A   1      32.195  22.209  24.644  1.00  0.00     0.227 C 
ATOM     10  O   UNL A   1      31.173  21.800  25.204  1.00  0.00    -0.274 OA
ATOM     11  N   UNL A   1      32.491  23.559  24.625  1.00  0.00    -0.342 N 
ATOM     12  C   UNL A   1      32.176  24.363  25.799  1.00  0.00     0.120 C 
ATOM     13  C   UNL A   1      32.821  24.324  23.435  1.00  0.00     0.120 C 
ATOM     14  C   UNL A   1      31.008  25.302  25.563  1.00  0.00     0.035 C 
ATOM     15  C   UNL A   1      31.675  25.254  23.053  1.00  0.00     0.035 C 
BRANCH   9  16
ATOM     16  C   UNL A   1      33.261  21.203  24.218  1.00  0.00     0.107 C 
ATOM     17  N   UNL A   1      33.944  18.993  24.729  1.00  0.00    -0.339 N 
ATOM     18  C   UNL A   1      32.764  19.788  24.481  1.00  0.00     0.133 C 
ATOM     19  C   UNL A   1      35.080  19.784  24.806  1.00  0.00     0.223 C 
ATOM     20  C   UNL A   1      34.664  21.234  24.792  1.00  0.00     0.115 C 
ATOM     21  O   UNL A   1      36.240  19.420  24.926  1.00  0.00    -0.275 OA
BRANCH  17  22
ATOM     22  C   UNL A   1      33.891  17.518  24.702  1.00  0.00     0.078 C 
ATOM     23  C   UNL A   1      32.618  16.925  25.311  1.00  0.00     0.031 C 
ATOM     24  C   UNL A   1      34.043  16.972  23.275  1.00  0.00     0.031 C 
ENDBRANCH  17  22
ENDBRANCH   9  16
ENDBRANCH   5   8
ENDBRANCH   3   4
ENDBRANCH   2   3
ENDBRANCH   1   2
BRANCH   1  25
ATOM     25  C   UNL A   1      31.774  30.606  26.181  1.00  0.00     0.002 C 
BRANCH  25  26
ATOM     26  C   UNL A   1      31.560  32.080  26.529  1.00  0.00     0.021 C 
BRANCH  26  27
ATOM     27  C   UNL A   1      32.647  32.680  27.414  1.00  0.00     0.116 C 
BRANCH  27  28
ATOM     28  N   UNL A   1      32.409  34.089  27.686  1.00  0.00    -0.352 N 
ATOM     29  C   UNL A   1      33.021  34.909  28.600  1.00  0.00     0.251 C 
ATOM     30  H   UNL A   1      31.713  34.514  27.137  1.00  0.00     0.163 HD
ATOM     31  O   UNL A   1      32.563  36.020  28.844  1.00  0.00    -0.269 OA
BRANCH  29  32
ATOM     32  C   UNL A   1      34.230  34.436  29.305  1.00  0.00     0.039 A 
ATOM     33  C   UNL A   1      34.091  33.825  30.554  1.00  0.00     0.014 A 
ATOM     34  C   UNL A   1      35.495  34.588  28.730  1.00  0.00     0.014 A 
ATOM     35  C   UNL A   1      35.217  33.311  31.198  1.00  0.00     0.010 A 
ATOM     36  C   UNL A   1      36.603  34.006  29.337  1.00  0.00     0.010 A 
ATOM     37  C   UNL A   1      36.476  33.365  30.579  1.00  0.00    -0.014 A 
BRANCH  37  38
ATOM     38  C   UNL A   1      37.673  32.753  31.208  1.00  0.00     0.031 A 
ATOM     39  C   UNL A   1      38.331  31.558  30.573  1.00  0.00     0.074 A 
ATOM     40  C   UNL A   1      38.123  33.227  32.387  1.00  0.00     0.049 A 
ATOM     41  N   UNL A   1      39.337  30.842  31.008  1.00  0.00    -0.248 NA
ATOM     42  C   UNL A   1      37.770  31.089  29.295  1.00  0.00     0.031 C 
ATOM     43  C   UNL A   1      37.553  34.358  33.121  1.00  0.00     0.029 A 
ATOM     44  N   UNL A   1      39.163  32.808  33.180  1.00  0.00    -0.354 N 
ATOM     45  C   UNL A   1      39.513  29.831  30.073  1.00  0.00     0.074 A 
ATOM     46  C   UNL A   1      38.485  29.998  29.069  1.00  0.00     0.031 C 
ATOM     47  C   UNL A   1      38.265  34.559  34.242  1.00  0.00     0.029 A 
ATOM     48  C   UNL A   1      39.309  33.543  34.332  1.00  0.00     0.049 A 
ATOM     49  H   UNL A   1      39.749  32.051  32.945  1.00  0.00     0.167 HD
ATOM     50  C   UNL A   1      40.455  28.858  30.043  1.00  0.00     0.031 A 
ATOM     51  C   UNL A   1      40.176  33.406  35.352  1.00  0.00     0.031 A 
ATOM     52  C   UNL A   1      41.485  28.703  31.035  1.00  0.00     0.049 A 
ATOM     53  C   UNL A   1      41.193  32.299  35.305  1.00  0.00     0.074 A 
ATOM     54  C   UNL A   1      42.527  27.792  31.055  1.00  0.00     0.029 A 
ATOM     55  N   UNL A   1      41.599  29.469  32.184  1.00  0.00    -0.354 N 
ATOM     56  N   UNL A   1      41.399  31.402  34.372  1.00  0.00    -0.248 NA
ATOM     57  C   UNL A   1      42.105  32.190  36.455  1.00  0.00     0.031 C 
ATOM     58  C   UNL A   1      43.231  27.963  32.251  1.00  0.00     0.029 A 
ATOM     59  C   UNL A   1      42.671  29.027  32.939  1.00  0.00     0.049 A 
ATOM     60  H   UNL A   1      41.005  30.216  32.426  1.00  0.00     0.167 HD
ATOM     61  C   UNL A   1      42.484  30.648  34.802  1.00  0.00     0.074 A 
ATOM     62  C   UNL A   1      42.902  31.202  36.073  1.00  0.00     0.031 C 
ATOM     63  C   UNL A   1      43.081  29.593  34.198  1.00  0.00     0.031 A 
BRANCH  50  64
ATOM     64  C   UNL A   1      40.406  27.870  28.910  1.00  0.00    -0.014 A 
ATOM     65  C   UNL A   1      39.674  26.677  29.009  1.00  0.00     0.009 A 
ATOM     66  C   UNL A   1      41.058  28.167  27.703  1.00  0.00     0.009 A 
ATOM     67  C   UNL A   1      39.624  25.786  27.936  1.00  0.00     0.001 A 
ATOM     68  C   UNL A   1      40.980  27.289  26.619  1.00  0.00     0.001 A 
ATOM     69  C   UNL A   1      40.271  26.096  26.740  1.00  0.00     0.000 A 
ENDBRANCH  50  64
BRANCH  51  70
ATOM     70  C   UNL A   1      40.127  34.337  36.511  1.00  0.00    -0.014 A 
ATOM     71  C   UNL A   1      39.366  34.020  37.648  1.00  0.00     0.009 A 
ATOM     72  C   UNL A   1      40.812  35.562  36.477  1.00  0.00     0.009 A 
ATOM     73  C   UNL A   1      39.261  34.926  38.707  1.00  0.00     0.001 A 
ATOM     74  C   UNL A   1      40.734  36.450  37.552  1.00  0.00     0.001 A 
ATOM     75  C   UNL A   1      39.948  36.138  38.659  1.00  0.00     0.000 A 
ENDBRANCH  51  70
BRANCH  63  76
ATOM     76  C   UNL A   1      44.281  28.995  34.878  1.00  0.00    -0.014 A 
ATOM     77  C   UNL A   1      45.554  29.576  34.765  1.00  0.00     0.009 A 
ATOM     78  C   UNL A   1      44.122  27.857  35.686  1.00  0.00     0.009 A 
ATOM     79  C   UNL A   1      46.648  29.008  35.421  1.00  0.00     0.001 A 
ATOM     80  C   UNL A   1      45.211  27.314  36.368  1.00  0.00     0.001 A 
ATOM     81  C   UNL A   1      46.474  27.883  36.227  1.00  0.00     0.000 A 
ENDBRANCH  63  76
ENDBRANCH  37  38
ENDBRANCH  29  32
ENDBRANCH  27  28
ENDBRANCH  26  27
ENDBRANCH  25  26
ENDBRANCH   1  25
TORSDOF 15
ENDMDL
