MODEL 1
REMARK VINA RESULT:     -11.4      0.000      0.000
REMARK SMILES Cc1c(Cl)cccc1S(=O)(=O)N[C@H]1C=C[C@@H](C(=O)NCCCCCCNC(=O)c2ccc(-c3c4nc(c(-c5ccccc5)c5ccc([nH]5)c(-c5ccccc5)c5nc(c(-c6ccccc6)c6ccc3[nH]6)C=C5)C=C4)cc2)C1
REMARK SMILES IDX 22 1 21 2 20 3 19 4 17 5 18 6 16 8 13 9 14 10 77 11 15 12
REMARK SMILES IDX 12 13 9 15 10 16 11 17 8 18 1 19 2 20 3 21 4 22 5 23 7 24
REMARK SMILES IDX 6 25 23 26 24 27 25 28 26 29 27 30 28 32 29 33 30 34 76 35
REMARK SMILES IDX 31 36 75 37 32 38 33 39 34 40 69 41 35 42 74 43 68 44 70 45
REMARK SMILES IDX 36 46 73 47 67 48 66 49 37 51 59 52 44 53 58 54 45 55 48 56
REMARK SMILES IDX 57 57 71 58 46 59 47 60 56 62 72 63 49 64 38 65 39 66 43 67
REMARK SMILES IDX 40 68 42 69 41 70 60 71 61 72 65 73 62 74 64 75 63 76 50 77
REMARK SMILES IDX 51 78 55 79 52 80 54 81 53 82
REMARK H PARENT 19 7 12 14 26 31 70 50 48 61
REMARK Flexibility Score: inf
ROOT
ATOM      1  C   UNL A   1      32.369  29.402  27.040  1.00  0.00     0.002 C 
ENDROOT
BRANCH   1   2
ATOM      2  C   UNL A   1      31.698  28.107  27.512  1.00  0.00     0.021 C 
BRANCH   2   3
ATOM      3  C   UNL A   1      31.326  27.109  26.406  1.00  0.00     0.116 C 
BRANCH   3   4
ATOM      4  N   UNL A   1      30.926  25.801  26.904  1.00  0.00    -0.356 N 
ATOM      5  C   UNL A   1      31.370  24.534  26.692  1.00  0.00     0.226 C 
ATOM      6  O   UNL A   1      30.756  23.647  27.304  1.00  0.00    -0.274 OA
ATOM      7  H   UNL A   1      30.168  25.844  27.532  1.00  0.00     0.163 HD
BRANCH   5   8
ATOM      8  C   UNL A   1      32.505  24.115  25.738  1.00  0.00     0.103 C 
ATOM      9  C   UNL A   1      33.209  25.478  23.802  1.00  0.00     0.093 C 
ATOM     10  C   UNL A   1      34.240  25.441  24.895  1.00  0.00    -0.011 C 
ATOM     11  C   UNL A   1      32.254  24.365  24.235  1.00  0.00     0.042 C 
ATOM     12  C   UNL A   1      33.856  24.707  25.947  1.00  0.00    -0.016 C 
BRANCH   9  13
ATOM     13  N   UNL A   1      32.566  26.799  23.835  1.00  0.00    -0.204 NA
ATOM     14  H   UNL A   1      31.762  26.723  24.460  1.00  0.00     0.142 HD
BRANCH  13  15
ATOM     15  S   UNL A   1      32.010  27.483  22.403  1.00  0.00     0.241 S 
ATOM     16  O   UNL A   1      31.826  26.415  21.447  1.00  0.00    -0.207 OA
ATOM     17  O   UNL A   1      32.955  28.556  22.151  1.00  0.00    -0.207 OA
BRANCH  15  18
ATOM     18  C   UNL A   1      30.419  28.295  22.587  1.00  0.00     0.086 A 
ATOM     19  C   UNL A   1      29.057  26.448  23.753  1.00  0.00     0.047 C 
ATOM     20  C   UNL A   1      29.228  27.791  23.142  1.00  0.00    -0.012 A 
ATOM     21  C   UNL A   1      28.078  28.620  23.137  1.00  0.00     0.045 A 
ATOM     22  Cl  UNL A   1      26.548  28.068  23.748  1.00  0.00    -0.084 Cl
ATOM     23  C   UNL A   1      28.113  29.920  22.642  1.00  0.00     0.021 A 
ATOM     24  C   UNL A   1      30.435  29.624  22.104  1.00  0.00     0.022 A 
ATOM     25  C   UNL A   1      29.299  30.429  22.137  1.00  0.00     0.003 A 
ENDBRANCH  15  18
ENDBRANCH  13  15
ENDBRANCH   9  13
ENDBRANCH   5   8
ENDBRANCH   3   4
ENDBRANCH   2   3
ENDBRANCH   1   2
BRANCH   1  26
ATOM     26  C   UNL A   1      31.518  30.239  26.083  1.00  0.00     0.002 C 
BRANCH  26  27
ATOM     27  C   UNL A   1      31.426  31.728  26.431  1.00  0.00     0.021 C 
BRANCH  27  28
ATOM     28  C   UNL A   1      32.676  32.310  27.087  1.00  0.00     0.116 C 
BRANCH  28  29
ATOM     29  N   UNL A   1      32.446  33.661  27.573  1.00  0.00    -0.352 N 
ATOM     30  C   UNL A   1      33.137  34.346  28.540  1.00  0.00     0.251 C 
ATOM     31  H   UNL A   1      31.697  34.145  27.156  1.00  0.00     0.163 HD
ATOM     32  O   UNL A   1      32.678  35.372  29.031  1.00  0.00    -0.269 OA
BRANCH  30  33
ATOM     33  C   UNL A   1      34.443  33.827  28.999  1.00  0.00     0.039 A 
ATOM     34  C   UNL A   1      34.496  33.051  30.158  1.00  0.00     0.014 A 
ATOM     35  C   UNL A   1      35.610  34.106  28.280  1.00  0.00     0.014 A 
ATOM     36  C   UNL A   1      35.717  32.512  30.571  1.00  0.00     0.010 A 
ATOM     37  C   UNL A   1      36.812  33.509  28.653  1.00  0.00     0.010 A 
ATOM     38  C   UNL A   1      36.879  32.712  29.806  1.00  0.00    -0.014 A 
BRANCH  38  39
ATOM     39  C   UNL A   1      38.166  32.085  30.199  1.00  0.00     0.031 A 
ATOM     40  C   UNL A   1      39.102  32.791  31.143  1.00  0.00     0.074 A 
ATOM     41  C   UNL A   1      38.515  30.898  29.668  1.00  0.00     0.049 A 
ATOM     42  N   UNL A   1      40.270  32.402  31.589  1.00  0.00    -0.248 NA
ATOM     43  C   UNL A   1      38.684  34.115  31.629  1.00  0.00     0.031 C 
ATOM     44  C   UNL A   1      37.720  30.134  28.705  1.00  0.00     0.029 A 
ATOM     45  N   UNL A   1      39.635  30.126  29.861  1.00  0.00    -0.354 N 
ATOM     46  C   UNL A   1      40.730  33.436  32.394  1.00  0.00     0.074 A 
ATOM     47  C   UNL A   1      39.740  34.490  32.334  1.00  0.00     0.031 C 
ATOM     48  C   UNL A   1      38.361  28.991  28.414  1.00  0.00     0.029 A 
ATOM     49  C   UNL A   1      39.628  28.958  29.136  1.00  0.00     0.049 A 
ATOM     50  H   UNL A   1      40.372  30.384  30.460  1.00  0.00     0.167 HD
ATOM     51  C   UNL A   1      41.865  33.499  33.131  1.00  0.00     0.031 A 
ATOM     52  C   UNL A   1      40.543  27.974  29.055  1.00  0.00     0.031 A 
ATOM     53  C   UNL A   1      42.849  32.450  33.190  1.00  0.00     0.049 A 
ATOM     54  C   UNL A   1      41.801  28.071  29.873  1.00  0.00     0.074 A 
ATOM     55  C   UNL A   1      43.999  32.390  33.959  1.00  0.00     0.029 A 
ATOM     56  N   UNL A   1      42.806  31.284  32.442  1.00  0.00    -0.354 N 
ATOM     57  N   UNL A   1      42.178  29.017  30.699  1.00  0.00    -0.248 NA
ATOM     58  C   UNL A   1      42.752  26.957  29.757  1.00  0.00     0.031 C 
ATOM     59  C   UNL A   1      44.685  31.217  33.627  1.00  0.00     0.029 A 
ATOM     60  C   UNL A   1      43.928  30.513  32.704  1.00  0.00     0.049 A 
ATOM     61  H   UNL A   1      42.085  31.038  31.818  1.00  0.00     0.167 HD
ATOM     62  C   UNL A   1      43.397  28.602  31.218  1.00  0.00     0.074 A 
ATOM     63  C   UNL A   1      43.684  27.309  30.631  1.00  0.00     0.031 C 
ATOM     64  C   UNL A   1      44.208  29.234  32.102  1.00  0.00     0.031 A 
BRANCH  51  65
ATOM     65  C   UNL A   1      42.113  34.757  33.920  1.00  0.00    -0.014 A 
ATOM     66  C   UNL A   1      41.712  34.872  35.261  1.00  0.00     0.009 A 
ATOM     67  C   UNL A   1      42.787  35.832  33.320  1.00  0.00     0.009 A 
ATOM     68  C   UNL A   1      41.945  36.052  35.971  1.00  0.00     0.001 A 
ATOM     69  C   UNL A   1      43.047  36.999  34.043  1.00  0.00     0.001 A 
ATOM     70  C   UNL A   1      42.616  37.113  35.363  1.00  0.00     0.000 A 
ENDBRANCH  51  65
BRANCH  52  71
ATOM     71  C   UNL A   1      40.299  26.805  28.168  1.00  0.00    -0.014 A 
ATOM     72  C   UNL A   1      39.519  25.724  28.606  1.00  0.00     0.009 A 
ATOM     73  C   UNL A   1      40.845  26.768  26.875  1.00  0.00     0.009 A 
ATOM     74  C   UNL A   1      39.313  24.619  27.776  1.00  0.00     0.001 A 
ATOM     75  C   UNL A   1      40.611  25.676  26.037  1.00  0.00     0.001 A 
ATOM     76  C   UNL A   1      39.855  24.599  26.492  1.00  0.00     0.000 A 
ENDBRANCH  52  71
BRANCH  64  77
ATOM     77  C   UNL A   1      45.471  28.525  32.506  1.00  0.00    -0.014 A 
ATOM     78  C   UNL A   1      45.495  27.635  33.591  1.00  0.00     0.009 A 
ATOM     79  C   UNL A   1      46.647  28.729  31.767  1.00  0.00     0.009 A 
ATOM     80  C   UNL A   1      46.683  26.992  33.950  1.00  0.00     0.001 A 
ATOM     81  C   UNL A   1      47.824  28.060  32.108  1.00  0.00     0.001 A 
ATOM     82  C   UNL A   1      47.843  27.201  33.206  1.00  0.00     0.000 A 
ENDBRANCH  64  77
ENDBRANCH  38  39
ENDBRANCH  30  33
ENDBRANCH  28  29
ENDBRANCH  27  28
ENDBRANCH  26  27
ENDBRANCH   1  26
TORSDOF 16
ENDMDL
MODEL 2
REMARK VINA RESULT:     -11.4      3.031      5.167
REMARK SMILES Cc1c(Cl)cccc1S(=O)(=O)N[C@H]1C=C[C@@H](C(=O)NCCCCCCNC(=O)c2ccc(-c3c4nc(c(-c5ccccc5)c5ccc([nH]5)c(-c5ccccc5)c5nc(c(-c6ccccc6)c6ccc3[nH]6)C=C5)C=C4)cc2)C1
REMARK SMILES IDX 22 1 21 2 20 3 19 4 17 5 18 6 16 8 13 9 14 10 77 11 15 12
REMARK SMILES IDX 12 13 9 15 10 16 11 17 8 18 1 19 2 20 3 21 4 22 5 23 7 24
REMARK SMILES IDX 6 25 23 26 24 27 25 28 26 29 27 30 28 32 29 33 30 34 76 35
REMARK SMILES IDX 31 36 75 37 32 38 33 39 34 40 69 41 35 42 74 43 68 44 70 45
REMARK SMILES IDX 36 46 73 47 67 48 66 49 37 51 59 52 44 53 58 54 45 55 48 56
REMARK SMILES IDX 57 57 71 58 46 59 47 60 56 62 72 63 49 64 38 65 39 66 43 67
REMARK SMILES IDX 40 68 42 69 41 70 60 71 61 72 65 73 62 74 64 75 63 76 50 77
REMARK SMILES IDX 51 78 55 79 52 80 54 81 53 82
REMARK H PARENT 19 7 12 14 26 31 70 50 48 61
REMARK Flexibility Score: inf
ROOT
ATOM      1  C   UNL A   1      31.105  28.965  24.674  1.00  0.00     0.002 C 
ENDROOT
BRANCH   1   2
ATOM      2  C   UNL A   1      30.398  29.451  23.403  1.00  0.00     0.021 C 
BRANCH   2   3
ATOM      3  C   UNL A   1      29.988  28.354  22.410  1.00  0.00     0.116 C 
BRANCH   3   4
ATOM      4  N   UNL A   1      31.059  27.426  22.082  1.00  0.00    -0.356 N 
ATOM      5  C   UNL A   1      31.319  26.131  22.406  1.00  0.00     0.226 C 
ATOM      6  O   UNL A   1      32.365  25.665  21.932  1.00  0.00    -0.274 OA
ATOM      7  H   UNL A   1      31.747  27.822  21.499  1.00  0.00     0.163 HD
BRANCH   5   8
ATOM      8  C   UNL A   1      30.472  25.238  23.332  1.00  0.00     0.103 C 
ATOM      9  C   UNL A   1      31.422  23.373  24.644  1.00  0.00     0.093 C 
ATOM     10  C   UNL A   1      30.979  24.524  25.503  1.00  0.00    -0.011 C 
ATOM     11  C   UNL A   1      30.791  23.728  23.297  1.00  0.00     0.042 C 
ATOM     12  C   UNL A   1      30.469  25.537  24.792  1.00  0.00    -0.016 C 
BRANCH   9  13
ATOM     13  N   UNL A   1      32.890  23.393  24.587  1.00  0.00    -0.204 NA
ATOM     14  H   UNL A   1      33.175  22.614  23.992  1.00  0.00     0.142 HD
BRANCH  13  15
ATOM     15  S   UNL A   1      33.774  23.270  26.013  1.00  0.00     0.241 S 
ATOM     16  O   UNL A   1      33.109  22.306  26.861  1.00  0.00    -0.207 OA
ATOM     17  O   UNL A   1      33.932  24.649  26.433  1.00  0.00    -0.207 OA
BRANCH  15  18
ATOM     18  C   UNL A   1      35.444  22.666  25.750  1.00  0.00     0.086 A 
ATOM     19  C   UNL A   1      34.979  20.252  24.989  1.00  0.00     0.047 C 
ATOM     20  C   UNL A   1      35.869  21.387  25.342  1.00  0.00    -0.012 A 
ATOM     21  C   UNL A   1      37.261  21.138  25.245  1.00  0.00     0.045 A 
ATOM     22  Cl  UNL A   1      37.883  19.577  24.805  1.00  0.00    -0.084 Cl
ATOM     23  C   UNL A   1      38.203  22.130  25.499  1.00  0.00     0.021 A 
ATOM     24  C   UNL A   1      36.418  23.662  25.988  1.00  0.00     0.022 A 
ATOM     25  C   UNL A   1      37.781  23.401  25.857  1.00  0.00     0.003 A 
ENDBRANCH  15  18
ENDBRANCH  13  15
ENDBRANCH   9  13
ENDBRANCH   5   8
ENDBRANCH   3   4
ENDBRANCH   2   3
ENDBRANCH   1   2
BRANCH   1  26
ATOM     26  C   UNL A   1      32.623  29.160  24.664  1.00  0.00     0.002 C 
BRANCH  26  27
ATOM     27  C   UNL A   1      33.425  28.029  25.315  1.00  0.00     0.021 C 
BRANCH  27  28
ATOM     28  C   UNL A   1      33.993  28.358  26.693  1.00  0.00     0.116 C 
BRANCH  28  29
ATOM     29  N   UNL A   1      33.702  29.729  27.078  1.00  0.00    -0.352 N 
ATOM     30  C   UNL A   1      34.435  30.560  27.887  1.00  0.00     0.251 C 
ATOM     31  H   UNL A   1      32.871  30.110  26.712  1.00  0.00     0.163 HD
ATOM     32  O   UNL A   1      33.947  31.592  28.335  1.00  0.00    -0.269 OA
BRANCH  30  33
ATOM     33  C   UNL A   1      35.825  30.192  28.230  1.00  0.00     0.039 A 
ATOM     34  C   UNL A   1      36.102  29.699  29.506  1.00  0.00     0.014 A 
ATOM     35  C   UNL A   1      36.850  30.332  27.288  1.00  0.00     0.014 A 
ATOM     36  C   UNL A   1      37.403  29.298  29.822  1.00  0.00     0.010 A 
ATOM     37  C   UNL A   1      38.129  29.866  27.582  1.00  0.00     0.010 A 
ATOM     38  C   UNL A   1      38.420  29.351  28.854  1.00  0.00    -0.014 A 
BRANCH  38  39
ATOM     39  C   UNL A   1      39.788  28.862  29.161  1.00  0.00     0.031 A 
ATOM     40  C   UNL A   1      40.778  29.754  29.860  1.00  0.00     0.074 A 
ATOM     41  C   UNL A   1      40.156  27.628  28.766  1.00  0.00     0.049 A 
ATOM     42  N   UNL A   1      42.017  29.501  30.200  1.00  0.00    -0.248 NA
ATOM     43  C   UNL A   1      40.326  31.112  30.200  1.00  0.00     0.031 C 
ATOM     44  C   UNL A   1      39.306  26.684  28.037  1.00  0.00     0.029 A 
ATOM     45  N   UNL A   1      41.344  26.957  28.918  1.00  0.00    -0.354 N 
ATOM     46  C   UNL A   1      42.495  30.670  30.778  1.00  0.00     0.074 A 
ATOM     47  C   UNL A   1      41.431  31.647  30.698  1.00  0.00     0.031 C 
ATOM     48  C   UNL A   1      39.989  25.547  27.832  1.00  0.00     0.029 A 
ATOM     49  C   UNL A   1      41.334  25.693  28.377  1.00  0.00     0.049 A 
ATOM     50  H   UNL A   1      42.128  27.343  29.371  1.00  0.00     0.167 HD
ATOM     51  C   UNL A   1      43.705  30.906  31.342  1.00  0.00     0.031 A 
ATOM     52  C   UNL A   1      42.302  24.760  28.319  1.00  0.00     0.031 A 
ATOM     53  C   UNL A   1      44.763  29.934  31.422  1.00  0.00     0.049 A 
ATOM     54  C   UNL A   1      43.640  25.048  28.941  1.00  0.00     0.074 A 
ATOM     55  C   UNL A   1      45.999  30.054  32.032  1.00  0.00     0.029 A 
ATOM     56  N   UNL A   1      44.714  28.666  30.863  1.00  0.00    -0.354 N 
ATOM     57  N   UNL A   1      44.045  26.128  29.564  1.00  0.00    -0.248 NA
ATOM     58  C   UNL A   1      44.649  23.983  28.863  1.00  0.00     0.031 C 
ATOM     59  C   UNL A   1      46.724  28.884  31.785  1.00  0.00     0.029 A 
ATOM     60  C   UNL A   1      45.913  28.006  31.083  1.00  0.00     0.049 A 
ATOM     61  H   UNL A   1      43.942  28.289  30.382  1.00  0.00     0.167 HD
ATOM     62  C   UNL A   1      45.346  25.865  29.972  1.00  0.00     0.074 A 
ATOM     63  C   UNL A   1      45.653  24.514  29.546  1.00  0.00     0.031 C 
ATOM     64  C   UNL A   1      46.210  26.668  30.641  1.00  0.00     0.031 A 
BRANCH  51  65
ATOM     65  C   UNL A   1      43.954  32.282  31.900  1.00  0.00    -0.014 A 
ATOM     66  C   UNL A   1      43.631  32.603  33.229  1.00  0.00     0.009 A 
ATOM     67  C   UNL A   1      44.552  33.262  31.093  1.00  0.00     0.009 A 
ATOM     68  C   UNL A   1      43.864  33.889  33.723  1.00  0.00     0.001 A 
ATOM     69  C   UNL A   1      44.813  34.537  31.600  1.00  0.00     0.001 A 
ATOM     70  C   UNL A   1      44.458  34.853  32.911  1.00  0.00     0.000 A 
ENDBRANCH  51  65
BRANCH  52  71
ATOM     71  C   UNL A   1      42.038  23.457  27.651  1.00  0.00    -0.014 A 
ATOM     72  C   UNL A   1      41.462  22.392  28.360  1.00  0.00     0.009 A 
ATOM     73  C   UNL A   1      42.359  23.275  26.296  1.00  0.00     0.009 A 
ATOM     74  C   UNL A   1      41.238  21.164  27.732  1.00  0.00     0.001 A 
ATOM     75  C   UNL A   1      42.105  22.057  25.664  1.00  0.00     0.001 A 
ATOM     76  C   UNL A   1      41.554  21.000  26.385  1.00  0.00     0.000 A 
ENDBRANCH  52  71
BRANCH  64  77
ATOM     77  C   UNL A   1      47.562  26.098  30.972  1.00  0.00    -0.014 A 
ATOM     78  C   UNL A   1      48.598  26.075  30.025  1.00  0.00     0.009 A 
ATOM     79  C   UNL A   1      47.810  25.605  32.263  1.00  0.00     0.009 A 
ATOM     80  C   UNL A   1      49.843  25.535  30.354  1.00  0.00     0.001 A 
ATOM     81  C   UNL A   1      49.066  25.097  32.599  1.00  0.00     0.001 A 
ATOM     82  C   UNL A   1      50.077  25.052  31.641  1.00  0.00     0.000 A 
ENDBRANCH  64  77
ENDBRANCH  38  39
ENDBRANCH  30  33
ENDBRANCH  28  29
ENDBRANCH  27  28
ENDBRANCH  26  27
ENDBRANCH   1  26
TORSDOF 16
ENDMDL
MODEL 3
REMARK VINA RESULT:     -11.3      0.758      5.877
REMARK SMILES Cc1c(Cl)cccc1S(=O)(=O)N[C@H]1C=C[C@@H](C(=O)NCCCCCCNC(=O)c2ccc(-c3c4nc(c(-c5ccccc5)c5ccc([nH]5)c(-c5ccccc5)c5nc(c(-c6ccccc6)c6ccc3[nH]6)C=C5)C=C4)cc2)C1
REMARK SMILES IDX 22 1 21 2 20 3 19 4 17 5 18 6 16 8 13 9 14 10 77 11 15 12
REMARK SMILES IDX 12 13 9 15 10 16 11 17 8 18 1 19 2 20 3 21 4 22 5 23 7 24
REMARK SMILES IDX 6 25 23 26 24 27 25 28 26 29 27 30 28 32 29 33 30 34 76 35
REMARK SMILES IDX 31 36 75 37 32 38 33 39 34 40 69 41 35 42 74 43 68 44 70 45
REMARK SMILES IDX 36 46 73 47 67 48 66 49 37 51 59 52 44 53 58 54 45 55 48 56
REMARK SMILES IDX 57 57 71 58 46 59 47 60 56 62 72 63 49 64 38 65 39 66 43 67
REMARK SMILES IDX 40 68 42 69 41 70 60 71 61 72 65 73 62 74 64 75 63 76 50 77
REMARK SMILES IDX 51 78 55 79 52 80 54 81 53 82
REMARK H PARENT 19 7 12 14 26 31 70 50 48 61
REMARK Flexibility Score: inf
ROOT
ATOM      1  C   UNL A   1      32.566  29.523  27.005  1.00  0.00     0.002 C 
ENDROOT
BRANCH   1   2
ATOM      2  C   UNL A   1      32.013  28.182  27.502  1.00  0.00     0.021 C 
BRANCH   2   3
ATOM      3  C   UNL A   1      31.468  27.244  26.415  1.00  0.00     0.116 C 
BRANCH   3   4
ATOM      4  N   UNL A   1      31.032  25.950  26.920  1.00  0.00    -0.356 N 
ATOM      5  C   UNL A   1      31.437  24.669  26.710  1.00  0.00     0.226 C 
ATOM      6  O   UNL A   1      30.802  23.803  27.328  1.00  0.00    -0.274 OA
ATOM      7  H   UNL A   1      30.280  26.018  27.552  1.00  0.00     0.163 HD
BRANCH   5   8
ATOM      8  C   UNL A   1      32.554  24.215  25.750  1.00  0.00     0.103 C 
ATOM      9  C   UNL A   1      33.261  25.533  23.785  1.00  0.00     0.093 C 
ATOM     10  C   UNL A   1      34.303  25.494  24.867  1.00  0.00    -0.011 C 
ATOM     11  C   UNL A   1      32.291  24.445  24.246  1.00  0.00     0.042 C 
ATOM     12  C   UNL A   1      33.918  24.784  25.935  1.00  0.00    -0.016 C 
BRANCH   9  13
ATOM     13  N   UNL A   1      32.643  26.866  23.803  1.00  0.00    -0.204 NA
ATOM     14  H   UNL A   1      31.853  26.818  24.448  1.00  0.00     0.142 HD
BRANCH  13  15
ATOM     15  S   UNL A   1      32.067  27.529  22.369  1.00  0.00     0.241 S 
ATOM     16  O   UNL A   1      31.907  26.452  21.419  1.00  0.00    -0.207 OA
ATOM     17  O   UNL A   1      32.984  28.623  22.109  1.00  0.00    -0.207 OA
BRANCH  15  18
ATOM     18  C   UNL A   1      30.457  28.303  22.554  1.00  0.00     0.086 A 
ATOM     19  C   UNL A   1      29.160  26.448  23.781  1.00  0.00     0.047 C 
ATOM     20  C   UNL A   1      29.286  27.781  23.136  1.00  0.00    -0.012 A 
ATOM     21  C   UNL A   1      28.114  28.578  23.126  1.00  0.00     0.045 A 
ATOM     22  Cl  UNL A   1      26.608  28.000  23.769  1.00  0.00    -0.084 Cl
ATOM     23  C   UNL A   1      28.109  29.866  22.599  1.00  0.00     0.021 A 
ATOM     24  C   UNL A   1      30.432  29.619  22.039  1.00  0.00     0.022 A 
ATOM     25  C   UNL A   1      29.274  30.395  22.067  1.00  0.00     0.003 A 
ENDBRANCH  15  18
ENDBRANCH  13  15
ENDBRANCH   9  13
ENDBRANCH   5   8
ENDBRANCH   3   4
ENDBRANCH   2   3
ENDBRANCH   1   2
BRANCH   1  26
ATOM     26  C   UNL A   1      31.589  30.328  26.146  1.00  0.00     0.002 C 
BRANCH  26  27
ATOM     27  C   UNL A   1      31.449  31.804  26.534  1.00  0.00     0.021 C 
BRANCH  27  28
ATOM     28  C   UNL A   1      32.661  32.395  27.250  1.00  0.00     0.116 C 
BRANCH  28  29
ATOM     29  N   UNL A   1      32.470  33.804  27.550  1.00  0.00    -0.352 N 
ATOM     30  C   UNL A   1      33.147  34.580  28.457  1.00  0.00     0.251 C 
ATOM     31  H   UNL A   1      31.763  34.260  27.038  1.00  0.00     0.163 HD
ATOM     32  O   UNL A   1      32.713  35.677  28.792  1.00  0.00    -0.269 OA
BRANCH  30  33
ATOM     33  C   UNL A   1      34.406  34.073  29.043  1.00  0.00     0.039 A 
ATOM     34  C   UNL A   1      34.360  33.373  30.250  1.00  0.00     0.014 A 
ATOM     35  C   UNL A   1      35.627  34.289  28.396  1.00  0.00     0.014 A 
ATOM     36  C   UNL A   1      35.537  32.845  30.784  1.00  0.00     0.010 A 
ATOM     37  C   UNL A   1      36.788  33.701  28.893  1.00  0.00     0.010 A 
ATOM     38  C   UNL A   1      36.756  32.979  30.096  1.00  0.00    -0.014 A 
BRANCH  38  39
ATOM     39  C   UNL A   1      37.999  32.361  30.623  1.00  0.00     0.031 A 
ATOM     40  C   UNL A   1      38.524  31.081  30.030  1.00  0.00     0.074 A 
ATOM     41  C   UNL A   1      38.630  32.926  31.669  1.00  0.00     0.049 A 
ATOM     42  N   UNL A   1      39.586  30.392  30.367  1.00  0.00    -0.248 NA
ATOM     43  C   UNL A   1      37.744  30.485  28.935  1.00  0.00     0.031 C 
ATOM     44  C   UNL A   1      38.196  34.140  32.365  1.00  0.00     0.029 A 
ATOM     45  N   UNL A   1      39.772  32.553  32.334  1.00  0.00    -0.354 N 
ATOM     46  C   UNL A   1      39.592  29.279  29.536  1.00  0.00     0.074 A 
ATOM     47  C   UNL A   1      38.402  29.357  28.716  1.00  0.00     0.031 C 
ATOM     48  C   UNL A   1      39.075  34.426  33.338  1.00  0.00     0.029 A 
ATOM     49  C   UNL A   1      40.111  33.399  33.362  1.00  0.00     0.049 A 
ATOM     50  H   UNL A   1      40.297  31.754  32.098  1.00  0.00     0.167 HD
ATOM     51  C   UNL A   1      40.512  28.288  29.451  1.00  0.00     0.031 A 
ATOM     52  C   UNL A   1      41.136  33.350  34.233  1.00  0.00     0.031 A 
ATOM     53  C   UNL A   1      41.695  28.211  30.267  1.00  0.00     0.049 A 
ATOM     54  C   UNL A   1      42.138  32.235  34.127  1.00  0.00     0.074 A 
ATOM     55  C   UNL A   1      42.722  27.284  30.211  1.00  0.00     0.029 A 
ATOM     56  N   UNL A   1      42.003  29.087  31.296  1.00  0.00    -0.354 N 
ATOM     57  N   UNL A   1      42.177  31.238  33.275  1.00  0.00    -0.248 NA
ATOM     58  C   UNL A   1      43.246  32.247  35.092  1.00  0.00     0.031 C 
ATOM     59  C   UNL A   1      43.617  27.561  31.249  1.00  0.00     0.029 A 
ATOM     60  C   UNL A   1      43.186  28.702  31.907  1.00  0.00     0.049 A 
ATOM     61  H   UNL A   1      41.462  29.869  31.555  1.00  0.00     0.167 HD
ATOM     62  C   UNL A   1      43.323  30.518  33.588  1.00  0.00     0.074 A 
ATOM     63  C   UNL A   1      43.962  31.206  34.691  1.00  0.00     0.031 C 
ATOM     64  C   UNL A   1      43.804  29.388  33.013  1.00  0.00     0.031 A 
BRANCH  51  65
ATOM     65  C   UNL A   1      40.263  27.193  28.448  1.00  0.00    -0.014 A 
ATOM     66  C   UNL A   1      40.772  27.266  27.141  1.00  0.00     0.009 A 
ATOM     67  C   UNL A   1      39.533  26.056  28.827  1.00  0.00     0.009 A 
ATOM     68  C   UNL A   1      40.521  26.242  26.225  1.00  0.00     0.001 A 
ATOM     69  C   UNL A   1      39.312  25.019  27.919  1.00  0.00     0.001 A 
ATOM     70  C   UNL A   1      39.795  25.118  26.615  1.00  0.00     0.000 A 
ENDBRANCH  51  65
BRANCH  52  71
ATOM     71  C   UNL A   1      41.270  34.397  35.281  1.00  0.00    -0.014 A 
ATOM     72  C   UNL A   1      40.659  34.239  36.534  1.00  0.00     0.009 A 
ATOM     73  C   UNL A   1      42.015  35.561  35.032  1.00  0.00     0.009 A 
ATOM     74  C   UNL A   1      40.769  35.237  37.506  1.00  0.00     0.001 A 
ATOM     75  C   UNL A   1      42.149  36.542  36.016  1.00  0.00     0.001 A 
ATOM     76  C   UNL A   1      41.518  36.384  37.248  1.00  0.00     0.000 A 
ENDBRANCH  52  71
BRANCH  64  77
ATOM     77  C   UNL A   1      45.096  28.838  33.552  1.00  0.00    -0.014 A 
ATOM     78  C   UNL A   1      46.337  29.262  33.051  1.00  0.00     0.009 A 
ATOM     79  C   UNL A   1      45.068  27.904  34.600  1.00  0.00     0.009 A 
ATOM     80  C   UNL A   1      47.523  28.733  33.565  1.00  0.00     0.001 A 
ATOM     81  C   UNL A   1      46.257  27.402  35.133  1.00  0.00     0.001 A 
ATOM     82  C   UNL A   1      47.482  27.808  34.607  1.00  0.00     0.000 A 
ENDBRANCH  64  77
ENDBRANCH  38  39
ENDBRANCH  30  33
ENDBRANCH  28  29
ENDBRANCH  27  28
ENDBRANCH  26  27
ENDBRANCH   1  26
TORSDOF 16
ENDMDL
