MODEL 1
REMARK VINA RESULT:     -11.0      0.000      0.000
REMARK SMILES CNC(=O)NC1=[NH+]N=CN[C@@H]1C(=O)NCCCCCCNC(=O)c1ccc(-c2c3nc(c(-c4ccccc4)c4ccc([nH]4)c(-c4ccccc4)c4nc(c(-c5ccccc5)c5ccc2[nH]5)C=C4)C=C3)cc1
REMARK SMILES IDX 18 1 17 2 16 3 15 4 14 5 12 6 13 7 11 9 1 10 2 11 3 12 4 14
REMARK SMILES IDX 5 15 6 16 7 18 8 19 10 21 9 22 19 24 20 25 21 26 22 27 23 29
REMARK SMILES IDX 24 30 25 31 71 32 26 33 70 34 27 35 28 36 29 37 64 38 30 39
REMARK SMILES IDX 69 40 63 41 65 42 31 43 68 44 62 45 61 46 32 48 54 49 39 50
REMARK SMILES IDX 53 51 40 52 43 53 52 54 66 55 41 56 42 57 51 59 67 60 44 61
REMARK SMILES IDX 33 62 34 63 38 64 35 65 37 66 36 67 55 68 56 69 60 70 57 71
REMARK SMILES IDX 59 72 58 73 45 74 46 75 50 76 47 77 49 78 48 79
REMARK H PARENT 14 8 2 13 5 17 7 20 10 23 21 28 65 47 43 58
REMARK Flexibility Score: inf
ROOT
ATOM      1  C   UNL A   1      31.708  30.463  26.099  1.00  0.00     0.002 C 
ENDROOT
BRANCH   1   2
ATOM      2  C   UNL A   1      32.283  29.480  27.123  1.00  0.00     0.002 C 
BRANCH   2   3
ATOM      3  C   UNL A   1      31.469  28.194  27.305  1.00  0.00     0.021 C 
BRANCH   3   4
ATOM      4  C   UNL A   1      32.146  26.959  26.715  1.00  0.00     0.116 C 
BRANCH   4   5
ATOM      5  N   UNL A   1      31.204  26.154  25.965  1.00  0.00    -0.354 N 
ATOM      6  C   UNL A   1      31.214  25.780  24.655  1.00  0.00     0.255 C 
ATOM      7  O   UNL A   1      30.204  25.200  24.239  1.00  0.00    -0.272 OA
ATOM      8  H   UNL A   1      30.434  25.827  26.483  1.00  0.00     0.163 HD
BRANCH   6   9
ATOM      9  C   UNL A   1      32.383  26.079  23.700  1.00  0.00     0.287 C 
ATOM     10  C   UNL A   1      33.951  28.707  22.434  1.00  0.00     0.147 C 
ATOM     11  N   UNL A   1      32.658  29.194  22.881  1.00  0.00    -0.321 N 
ATOM     12  C   UNL A   1      31.413  28.746  22.555  1.00  0.00     0.406 C 
ATOM     13  H   UNL A   1      32.684  29.954  23.507  1.00  0.00     0.167 HD
ATOM     14  O   UNL A   1      30.431  29.453  22.755  1.00  0.00    -0.221 OA
ATOM     15  N   UNL A   1      31.310  27.527  21.951  1.00  0.00    -0.191 N 
ATOM     16  C   UNL A   1      31.945  26.354  22.263  1.00  0.00     0.309 C 
ATOM     17  H   UNL A   1      30.693  27.486  21.185  1.00  0.00     0.317 HD
ATOM     18  N   UNL A   1      32.179  25.568  21.255  1.00  0.00    -0.148 N 
ATOM     19  N   UNL A   1      33.057  24.478  21.430  1.00  0.00    -0.077 NA
ATOM     20  H   UNL A   1      31.751  25.732  20.384  1.00  0.00     0.342 HD
ATOM     21  N   UNL A   1      33.377  25.018  23.720  1.00  0.00    -0.352 N 
ATOM     22  C   UNL A   1      33.608  24.310  22.588  1.00  0.00     0.241 C 
ATOM     23  H   UNL A   1      33.876  24.817  24.545  1.00  0.00     0.163 HD
ENDBRANCH   6   9
ENDBRANCH   4   5
ENDBRANCH   3   4
ENDBRANCH   2   3
ENDBRANCH   1   2
BRANCH   1  24
ATOM     24  C   UNL A   1      31.459  31.876  26.634  1.00  0.00     0.021 C 
BRANCH  24  25
ATOM     25  C   UNL A   1      32.676  32.520  27.289  1.00  0.00     0.116 C 
BRANCH  25  26
ATOM     26  N   UNL A   1      32.442  33.923  27.596  1.00  0.00    -0.352 N 
ATOM     27  C   UNL A   1      33.052  34.721  28.530  1.00  0.00     0.251 C 
ATOM     28  H   UNL A   1      31.746  34.363  27.056  1.00  0.00     0.163 HD
ATOM     29  O   UNL A   1      32.577  35.813  28.818  1.00  0.00    -0.269 OA
BRANCH  27  30
ATOM     30  C   UNL A   1      34.281  34.249  29.196  1.00  0.00     0.039 A 
ATOM     31  C   UNL A   1      34.178  33.617  30.437  1.00  0.00     0.014 A 
ATOM     32  C   UNL A   1      35.530  34.433  28.596  1.00  0.00     0.014 A 
ATOM     33  C   UNL A   1      35.326  33.110  31.048  1.00  0.00     0.010 A 
ATOM     34  C   UNL A   1      36.662  33.867  29.171  1.00  0.00     0.010 A 
ATOM     35  C   UNL A   1      36.570  33.199  30.401  1.00  0.00    -0.014 A 
BRANCH  35  36
ATOM     36  C   UNL A   1      37.783  32.576  30.984  1.00  0.00     0.031 A 
ATOM     37  C   UNL A   1      38.374  31.339  30.371  1.00  0.00     0.074 A 
ATOM     38  C   UNL A   1      38.311  33.093  32.110  1.00  0.00     0.049 A 
ATOM     39  N   UNL A   1      39.405  30.636  30.765  1.00  0.00    -0.248 NA
ATOM     40  C   UNL A   1      37.706  30.807  29.172  1.00  0.00     0.031 C 
ATOM     41  C   UNL A   1      37.804  34.269  32.822  1.00  0.00     0.029 A 
ATOM     42  N   UNL A   1      39.390  32.692  32.857  1.00  0.00    -0.354 N 
ATOM     43  C   UNL A   1      39.499  29.573  29.877  1.00  0.00     0.074 A 
ATOM     44  C   UNL A   1      38.393  29.696  28.952  1.00  0.00     0.031 C 
ATOM     45  C   UNL A   1      38.593  34.515  33.880  1.00  0.00     0.029 A 
ATOM     46  C   UNL A   1      39.630  33.492  33.947  1.00  0.00     0.049 A 
ATOM     47  H   UNL A   1      39.939  31.907  32.632  1.00  0.00     0.167 HD
ATOM     48  C   UNL A   1      40.429  28.589  29.827  1.00  0.00     0.031 A 
ATOM     49  C   UNL A   1      40.578  33.408  34.899  1.00  0.00     0.031 A 
ATOM     50  C   UNL A   1      41.529  28.473  30.747  1.00  0.00     0.049 A 
ATOM     51  C   UNL A   1      41.579  32.290  34.840  1.00  0.00     0.074 A 
ATOM     52  C   UNL A   1      42.566  27.556  30.738  1.00  0.00     0.029 A 
ATOM     53  N   UNL A   1      41.726  29.289  31.850  1.00  0.00    -0.354 N 
ATOM     54  N   UNL A   1      41.706  31.340  33.944  1.00  0.00    -0.248 NA
ATOM     55  C   UNL A   1      42.573  32.235  35.921  1.00  0.00     0.031 C 
ATOM     56  C   UNL A   1      43.355  27.778  31.871  1.00  0.00     0.029 A 
ATOM     57  C   UNL A   1      42.846  28.872  32.552  1.00  0.00     0.049 A 
ATOM     58  H   UNL A   1      41.156  30.054  32.097  1.00  0.00     0.167 HD
ATOM     59  C   UNL A   1      42.804  30.590  34.341  1.00  0.00     0.074 A 
ATOM     60  C   UNL A   1      43.319  31.206  35.546  1.00  0.00     0.031 C 
ATOM     61  C   UNL A   1      43.339  29.489  33.758  1.00  0.00     0.031 A 
BRANCH  48  62
ATOM     62  C   UNL A   1      40.280  27.549  28.751  1.00  0.00    -0.014 A 
ATOM     63  C   UNL A   1      39.544  26.373  28.964  1.00  0.00     0.009 A 
ATOM     64  C   UNL A   1      40.865  27.763  27.493  1.00  0.00     0.009 A 
ATOM     65  C   UNL A   1      39.431  25.415  27.954  1.00  0.00     0.001 A 
ATOM     66  C   UNL A   1      40.724  26.818  26.474  1.00  0.00     0.001 A 
ATOM     67  C   UNL A   1      40.017  25.640  26.710  1.00  0.00     0.000 A 
ENDBRANCH  48  62
BRANCH  49  68
ATOM     68  C   UNL A   1      40.636  34.425  35.981  1.00  0.00    -0.014 A 
ATOM     69  C   UNL A   1      39.932  34.226  37.178  1.00  0.00     0.009 A 
ATOM     70  C   UNL A   1      41.399  35.593  35.828  1.00  0.00     0.009 A 
ATOM     71  C   UNL A   1      39.974  35.187  38.191  1.00  0.00     0.001 A 
ATOM     72  C   UNL A   1      41.461  36.538  36.854  1.00  0.00     0.001 A 
ATOM     73  C   UNL A   1      40.742  36.339  38.031  1.00  0.00     0.000 A 
ENDBRANCH  49  68
BRANCH  61  74
ATOM     74  C   UNL A   1      44.555  28.891  34.408  1.00  0.00    -0.014 A 
ATOM     75  C   UNL A   1      44.442  27.874  35.368  1.00  0.00     0.009 A 
ATOM     76  C   UNL A   1      45.833  29.327  34.025  1.00  0.00     0.009 A 
ATOM     77  C   UNL A   1      45.584  27.328  35.956  1.00  0.00     0.001 A 
ATOM     78  C   UNL A   1      46.975  28.758  34.592  1.00  0.00     0.001 A 
ATOM     79  C   UNL A   1      46.849  27.767  35.563  1.00  0.00     0.000 A 
ENDBRANCH  61  74
ENDBRANCH  35  36
ENDBRANCH  27  30
ENDBRANCH  25  26
ENDBRANCH  24  25
ENDBRANCH   1  24
TORSDOF 13
ENDMDL
MODEL 2
REMARK VINA RESULT:     -11.0      1.060      6.348
REMARK SMILES CNC(=O)NC1=[NH+]N=CN[C@@H]1C(=O)NCCCCCCNC(=O)c1ccc(-c2c3nc(c(-c4ccccc4)c4ccc([nH]4)c(-c4ccccc4)c4nc(c(-c5ccccc5)c5ccc2[nH]5)C=C4)C=C3)cc1
REMARK SMILES IDX 18 1 17 2 16 3 15 4 14 5 12 6 13 7 11 9 1 10 2 11 3 12 4 14
REMARK SMILES IDX 5 15 6 16 7 18 8 19 10 21 9 22 19 24 20 25 21 26 22 27 23 29
REMARK SMILES IDX 24 30 25 31 71 32 26 33 70 34 27 35 28 36 29 37 64 38 30 39
REMARK SMILES IDX 69 40 63 41 65 42 31 43 68 44 62 45 61 46 32 48 54 49 39 50
REMARK SMILES IDX 53 51 40 52 43 53 52 54 66 55 41 56 42 57 51 59 67 60 44 61
REMARK SMILES IDX 33 62 34 63 38 64 35 65 37 66 36 67 55 68 56 69 60 70 57 71
REMARK SMILES IDX 59 72 58 73 45 74 46 75 50 76 47 77 49 78 48 79
REMARK H PARENT 14 8 2 13 5 17 7 20 10 23 21 28 65 47 43 58
REMARK Flexibility Score: inf
ROOT
ATOM      1  C   UNL A   1      31.496  30.784  26.222  1.00  0.00     0.002 C 
ENDROOT
BRANCH   1   2
ATOM      2  C   UNL A   1      32.330  29.973  27.220  1.00  0.00     0.002 C 
BRANCH   2   3
ATOM      3  C   UNL A   1      31.842  28.538  27.447  1.00  0.00     0.021 C 
BRANCH   3   4
ATOM      4  C   UNL A   1      32.848  27.478  27.002  1.00  0.00     0.116 C 
BRANCH   4   5
ATOM      5  N   UNL A   1      33.564  27.901  25.816  1.00  0.00    -0.354 N 
ATOM      6  C   UNL A   1      33.292  27.683  24.499  1.00  0.00     0.255 C 
ATOM      7  O   UNL A   1      34.154  28.046  23.690  1.00  0.00    -0.272 OA
ATOM      8  H   UNL A   1      34.376  28.429  25.990  1.00  0.00     0.163 HD
BRANCH   6   9
ATOM      9  C   UNL A   1      32.010  26.990  24.006  1.00  0.00     0.287 C 
ATOM     10  C   UNL A   1      30.886  23.918  23.484  1.00  0.00     0.147 C 
ATOM     11  N   UNL A   1      32.335  23.813  23.503  1.00  0.00    -0.321 N 
ATOM     12  C   UNL A   1      33.254  24.488  22.758  1.00  0.00     0.406 C 
ATOM     13  H   UNL A   1      32.705  23.163  24.144  1.00  0.00     0.167 HD
ATOM     14  O   UNL A   1      34.400  24.064  22.659  1.00  0.00    -0.221 OA
ATOM     15  N   UNL A   1      32.839  25.600  22.085  1.00  0.00    -0.191 N 
ATOM     16  C   UNL A   1      32.043  26.626  22.523  1.00  0.00     0.309 C 
ATOM     17  H   UNL A   1      33.157  25.677  21.156  1.00  0.00     0.317 HD
ATOM     18  N   UNL A   1      31.311  27.186  21.607  1.00  0.00    -0.148 N 
ATOM     19  N   UNL A   1      30.273  28.056  22.002  1.00  0.00    -0.077 NA
ATOM     20  H   UNL A   1      31.479  27.006  20.654  1.00  0.00     0.342 HD
ATOM     21  N   UNL A   1      30.826  27.782  24.295  1.00  0.00    -0.352 N 
ATOM     22  C   UNL A   1      30.079  28.252  23.265  1.00  0.00     0.241 C 
ATOM     23  H   UNL A   1      30.570  27.975  25.226  1.00  0.00     0.163 HD
ENDBRANCH   6   9
ENDBRANCH   4   5
ENDBRANCH   3   4
ENDBRANCH   2   3
ENDBRANCH   1   2
BRANCH   1  24
ATOM     24  C   UNL A   1      31.395  32.279  26.534  1.00  0.00     0.021 C 
BRANCH  24  25
ATOM     25  C   UNL A   1      32.622  32.857  27.232  1.00  0.00     0.116 C 
BRANCH  25  26
ATOM     26  N   UNL A   1      32.410  34.238  27.637  1.00  0.00    -0.352 N 
ATOM     27  C   UNL A   1      32.995  34.943  28.658  1.00  0.00     0.251 C 
ATOM     28  H   UNL A   1      31.752  34.738  27.103  1.00  0.00     0.163 HD
ATOM     29  O   UNL A   1      32.535  36.022  29.010  1.00  0.00    -0.269 OA
BRANCH  27  30
ATOM     30  C   UNL A   1      34.178  34.384  29.340  1.00  0.00     0.039 A 
ATOM     31  C   UNL A   1      34.003  33.681  30.534  1.00  0.00     0.014 A 
ATOM     32  C   UNL A   1      35.457  34.558  28.801  1.00  0.00     0.014 A 
ATOM     33  C   UNL A   1      35.107  33.095  31.155  1.00  0.00     0.010 A 
ATOM     34  C   UNL A   1      36.543  33.915  29.382  1.00  0.00     0.010 A 
ATOM     35  C   UNL A   1      36.378  33.177  30.563  1.00  0.00    -0.014 A 
BRANCH  35  36
ATOM     36  C   UNL A   1      37.543  32.473  31.153  1.00  0.00     0.031 A 
ATOM     37  C   UNL A   1      38.165  32.966  32.428  1.00  0.00     0.074 A 
ATOM     38  C   UNL A   1      38.081  31.427  30.497  1.00  0.00     0.049 A 
ATOM     39  N   UNL A   1      39.209  32.504  33.069  1.00  0.00    -0.248 NA
ATOM     40  C   UNL A   1      37.551  34.148  33.054  1.00  0.00     0.031 C 
ATOM     41  C   UNL A   1      37.591  30.878  29.231  1.00  0.00     0.029 A 
ATOM     42  N   UNL A   1      39.161  30.639  30.805  1.00  0.00    -0.354 N 
ATOM     43  C   UNL A   1      39.386  33.345  34.159  1.00  0.00     0.074 A 
ATOM     44  C   UNL A   1      38.372  34.373  34.069  1.00  0.00     0.031 C 
ATOM     45  C   UNL A   1      38.345  29.821  28.889  1.00  0.00     0.029 A 
ATOM     46  C   UNL A   1      39.396  29.647  29.885  1.00  0.00     0.049 A 
ATOM     47  H   UNL A   1      39.715  30.773  31.607  1.00  0.00     0.167 HD
ATOM     48  C   UNL A   1      40.301  33.261  35.154  1.00  0.00     0.031 A 
ATOM     49  C   UNL A   1      40.356  28.703  29.845  1.00  0.00     0.031 A 
ATOM     50  C   UNL A   1      41.305  32.235  35.242  1.00  0.00     0.049 A 
ATOM     51  C   UNL A   1      41.378  28.651  30.944  1.00  0.00     0.074 A 
ATOM     52  C   UNL A   1      42.232  32.019  36.247  1.00  0.00     0.029 A 
ATOM     53  N   UNL A   1      41.524  31.260  34.281  1.00  0.00    -0.354 N 
ATOM     54  N   UNL A   1      41.480  29.402  32.014  1.00  0.00    -0.248 NA
ATOM     55  C   UNL A   1      42.415  27.616  30.832  1.00  0.00     0.031 C 
ATOM     56  C   UNL A   1      43.053  30.955  35.864  1.00  0.00     0.029 A 
ATOM     57  C   UNL A   1      42.598  30.466  34.650  1.00  0.00     0.049 A 
ATOM     58  H   UNL A   1      40.994  31.148  33.458  1.00  0.00     0.167 HD
ATOM     59  C   UNL A   1      42.578  28.918  32.712  1.00  0.00     0.074 A 
ATOM     60  C   UNL A   1      43.095  27.796  31.955  1.00  0.00     0.031 C 
ATOM     61  C   UNL A   1      43.109  29.361  33.879  1.00  0.00     0.031 A 
BRANCH  48  62
ATOM     62  C   UNL A   1      40.268  34.326  36.217  1.00  0.00    -0.014 A 
ATOM     63  C   UNL A   1      41.080  35.468  36.135  1.00  0.00     0.009 A 
ATOM     64  C   UNL A   1      39.390  34.195  37.303  1.00  0.00     0.009 A 
ATOM     65  C   UNL A   1      41.043  36.437  37.141  1.00  0.00     0.001 A 
ATOM     66  C   UNL A   1      39.332  35.180  38.292  1.00  0.00     0.001 A 
ATOM     67  C   UNL A   1      40.166  36.294  38.215  1.00  0.00     0.000 A 
ENDBRANCH  48  62
BRANCH  49  68
ATOM     68  C   UNL A   1      40.382  27.718  28.733  1.00  0.00    -0.014 A 
ATOM     69  C   UNL A   1      39.681  26.508  28.844  1.00  0.00     0.009 A 
ATOM     70  C   UNL A   1      41.099  27.983  27.556  1.00  0.00     0.009 A 
ATOM     71  C   UNL A   1      39.716  25.573  27.806  1.00  0.00     0.001 A 
ATOM     72  C   UNL A   1      41.107  27.058  26.509  1.00  0.00     0.001 A 
ATOM     73  C   UNL A   1      40.423  25.852  26.638  1.00  0.00     0.000 A 
ENDBRANCH  49  68
BRANCH  61  74
ATOM     74  C   UNL A   1      44.302  28.620  34.415  1.00  0.00    -0.014 A 
ATOM     75  C   UNL A   1      44.150  27.520  35.274  1.00  0.00     0.009 A 
ATOM     76  C   UNL A   1      45.593  29.006  34.024  1.00  0.00     0.009 A 
ATOM     77  C   UNL A   1      45.270  26.842  35.756  1.00  0.00     0.001 A 
ATOM     78  C   UNL A   1      46.711  28.307  34.484  1.00  0.00     0.001 A 
ATOM     79  C   UNL A   1      46.549  27.232  35.356  1.00  0.00     0.000 A 
ENDBRANCH  61  74
ENDBRANCH  35  36
ENDBRANCH  27  30
ENDBRANCH  25  26
ENDBRANCH  24  25
ENDBRANCH   1  24
TORSDOF 13
ENDMDL
MODEL 3
REMARK VINA RESULT:     -10.9      1.714      6.517
REMARK SMILES CNC(=O)NC1=[NH+]N=CN[C@@H]1C(=O)NCCCCCCNC(=O)c1ccc(-c2c3nc(c(-c4ccccc4)c4ccc([nH]4)c(-c4ccccc4)c4nc(c(-c5ccccc5)c5ccc2[nH]5)C=C4)C=C3)cc1
REMARK SMILES IDX 18 1 17 2 16 3 15 4 14 5 12 6 13 7 11 9 1 10 2 11 3 12 4 14
REMARK SMILES IDX 5 15 6 16 7 18 8 19 10 21 9 22 19 24 20 25 21 26 22 27 23 29
REMARK SMILES IDX 24 30 25 31 71 32 26 33 70 34 27 35 28 36 29 37 64 38 30 39
REMARK SMILES IDX 69 40 63 41 65 42 31 43 68 44 62 45 61 46 32 48 54 49 39 50
REMARK SMILES IDX 53 51 40 52 43 53 52 54 66 55 41 56 42 57 51 59 67 60 44 61
REMARK SMILES IDX 33 62 34 63 38 64 35 65 37 66 36 67 55 68 56 69 60 70 57 71
REMARK SMILES IDX 59 72 58 73 45 74 46 75 50 76 47 77 49 78 48 79
REMARK H PARENT 14 8 2 13 5 17 7 20 10 23 21 28 65 47 43 58
REMARK Flexibility Score: inf
ROOT
ATOM      1  C   UNL A   1      31.836  30.062  25.346  1.00  0.00     0.002 C 
ENDROOT
BRANCH   1   2
ATOM      2  C   UNL A   1      30.788  29.652  24.307  1.00  0.00     0.002 C 
BRANCH   2   3
ATOM      3  C   UNL A   1      30.506  28.147  24.241  1.00  0.00     0.021 C 
BRANCH   3   4
ATOM      4  C   UNL A   1      30.442  27.604  22.814  1.00  0.00     0.116 C 
BRANCH   4   5
ATOM      5  N   UNL A   1      31.746  27.628  22.186  1.00  0.00    -0.354 N 
ATOM      6  C   UNL A   1      32.781  26.746  22.271  1.00  0.00     0.255 C 
ATOM      7  O   UNL A   1      33.841  27.086  21.734  1.00  0.00    -0.272 OA
ATOM      8  H   UNL A   1      31.912  28.407  21.607  1.00  0.00     0.163 HD
BRANCH   6   9
ATOM      9  C   UNL A   1      32.688  25.407  23.023  1.00  0.00     0.287 C 
ATOM     10  C   UNL A   1      32.015  24.306  26.073  1.00  0.00     0.147 C 
ATOM     11  N   UNL A   1      32.372  25.706  26.226  1.00  0.00    -0.321 N 
ATOM     12  C   UNL A   1      33.499  26.353  25.818  1.00  0.00     0.406 C 
ATOM     13  H   UNL A   1      31.707  26.265  26.689  1.00  0.00     0.167 HD
ATOM     14  O   UNL A   1      33.792  27.443  26.297  1.00  0.00    -0.221 OA
ATOM     15  N   UNL A   1      34.307  25.724  24.917  1.00  0.00    -0.191 N 
ATOM     16  C   UNL A   1      33.963  25.040  23.780  1.00  0.00     0.309 C 
ATOM     17  H   UNL A   1      35.271  25.767  25.110  1.00  0.00     0.317 HD
ATOM     18  N   UNL A   1      34.756  24.061  23.464  1.00  0.00    -0.148 N 
ATOM     19  N   UNL A   1      34.341  23.139  22.479  1.00  0.00    -0.077 NA
ATOM     20  H   UNL A   1      35.630  23.963  23.904  1.00  0.00     0.342 HD
ATOM     21  N   UNL A   1      32.310  24.319  22.135  1.00  0.00    -0.352 N 
ATOM     22  C   UNL A   1      33.178  23.297  21.937  1.00  0.00     0.241 C 
ATOM     23  H   UNL A   1      31.434  24.325  21.685  1.00  0.00     0.163 HD
ENDBRANCH   6   9
ENDBRANCH   4   5
ENDBRANCH   3   4
ENDBRANCH   2   3
ENDBRANCH   1   2
BRANCH   1  24
ATOM     24  C   UNL A   1      31.416  31.214  26.263  1.00  0.00     0.021 C 
BRANCH  24  25
ATOM     25  C   UNL A   1      32.543  31.768  27.128  1.00  0.00     0.116 C 
BRANCH  25  26
ATOM     26  N   UNL A   1      32.342  33.176  27.437  1.00  0.00    -0.352 N 
ATOM     27  C   UNL A   1      33.069  33.996  28.261  1.00  0.00     0.251 C 
ATOM     28  H   UNL A   1      31.573  33.600  26.992  1.00  0.00     0.163 HD
ATOM     29  O   UNL A   1      32.629  35.091  28.592  1.00  0.00    -0.269 OA
BRANCH  27  30
ATOM     30  C   UNL A   1      34.383  33.546  28.758  1.00  0.00     0.039 A 
ATOM     31  C   UNL A   1      34.455  32.904  29.996  1.00  0.00     0.014 A 
ATOM     32  C   UNL A   1      35.540  33.759  28.002  1.00  0.00     0.014 A 
ATOM     33  C   UNL A   1      35.683  32.417  30.448  1.00  0.00     0.010 A 
ATOM     34  C   UNL A   1      36.747  33.212  28.420  1.00  0.00     0.010 A 
ATOM     35  C   UNL A   1      36.830  32.536  29.646  1.00  0.00    -0.014 A 
BRANCH  35  36
ATOM     36  C   UNL A   1      38.120  31.934  30.062  1.00  0.00     0.031 A 
ATOM     37  C   UNL A   1      39.036  32.668  30.999  1.00  0.00     0.074 A 
ATOM     38  C   UNL A   1      38.493  30.751  29.538  1.00  0.00     0.049 A 
ATOM     39  N   UNL A   1      40.217  32.317  31.441  1.00  0.00    -0.248 NA
ATOM     40  C   UNL A   1      38.578  33.980  31.484  1.00  0.00     0.031 C 
ATOM     41  C   UNL A   1      37.708  29.959  28.589  1.00  0.00     0.029 A 
ATOM     42  N   UNL A   1      39.631  30.009  29.728  1.00  0.00    -0.354 N 
ATOM     43  C   UNL A   1      40.649  33.368  32.240  1.00  0.00     0.074 A 
ATOM     44  C   UNL A   1      39.625  34.389  32.184  1.00  0.00     0.031 C 
ATOM     45  C   UNL A   1      38.371  28.826  28.309  1.00  0.00     0.029 A 
ATOM     46  C   UNL A   1      39.644  28.832  29.021  1.00  0.00     0.049 A 
ATOM     47  H   UNL A   1      40.368  30.292  30.316  1.00  0.00     0.167 HD
ATOM     48  C   UNL A   1      41.788  33.468  32.965  1.00  0.00     0.031 A 
ATOM     49  C   UNL A   1      40.580  27.867  28.948  1.00  0.00     0.031 A 
ATOM     50  C   UNL A   1      42.802  32.448  33.020  1.00  0.00     0.049 A 
ATOM     51  C   UNL A   1      41.849  28.016  29.737  1.00  0.00     0.074 A 
ATOM     52  C   UNL A   1      43.958  32.422  33.780  1.00  0.00     0.029 A 
ATOM     53  N   UNL A   1      42.788  31.280  32.272  1.00  0.00    -0.354 N 
ATOM     54  N   UNL A   1      42.206  28.978  30.555  1.00  0.00    -0.248 NA
ATOM     55  C   UNL A   1      42.843  26.944  29.596  1.00  0.00     0.031 C 
ATOM     56  C   UNL A   1      44.675  31.269  33.446  1.00  0.00     0.029 A 
ATOM     57  C   UNL A   1      43.936  30.546  32.523  1.00  0.00     0.049 A 
ATOM     58  H   UNL A   1      42.069  31.012  31.655  1.00  0.00     0.167 HD
ATOM     59  C   UNL A   1      43.454  28.615  31.042  1.00  0.00     0.074 A 
ATOM     60  C   UNL A   1      43.783  27.338  30.444  1.00  0.00     0.031 C 
ATOM     61  C   UNL A   1      44.255  29.281  31.910  1.00  0.00     0.031 A 
BRANCH  48  62
ATOM     62  C   UNL A   1      42.007  34.738  33.741  1.00  0.00    -0.014 A 
ATOM     63  C   UNL A   1      42.724  35.815  33.198  1.00  0.00     0.009 A 
ATOM     64  C   UNL A   1      41.460  34.868  35.027  1.00  0.00     0.009 A 
ATOM     65  C   UNL A   1      42.926  36.980  33.942  1.00  0.00     0.001 A 
ATOM     66  C   UNL A   1      41.636  36.046  35.757  1.00  0.00     0.001 A 
ATOM     67  C   UNL A   1      42.378  37.095  35.218  1.00  0.00     0.000 A 
ENDBRANCH  48  62
BRANCH  49  68
ATOM     68  C   UNL A   1      40.342  26.664  28.109  1.00  0.00    -0.014 A 
ATOM     69  C   UNL A   1      40.864  26.592  26.809  1.00  0.00     0.009 A 
ATOM     70  C   UNL A   1      39.600  25.580  28.604  1.00  0.00     0.009 A 
ATOM     71  C   UNL A   1      40.630  25.468  26.014  1.00  0.00     0.001 A 
ATOM     72  C   UNL A   1      39.392  24.445  27.816  1.00  0.00     0.001 A 
ATOM     73  C   UNL A   1      39.900  24.394  26.519  1.00  0.00     0.000 A 
ENDBRANCH  49  68
BRANCH  61  74
ATOM     74  C   UNL A   1      45.559  28.630  32.277  1.00  0.00    -0.014 A 
ATOM     75  C   UNL A   1      46.735  28.898  31.559  1.00  0.00     0.009 A 
ATOM     76  C   UNL A   1      45.617  27.764  33.380  1.00  0.00     0.009 A 
ATOM     77  C   UNL A   1      47.937  28.287  31.920  1.00  0.00     0.001 A 
ATOM     78  C   UNL A   1      46.827  27.178  33.757  1.00  0.00     0.001 A 
ATOM     79  C   UNL A   1      47.983  27.432  33.022  1.00  0.00     0.000 A 
ENDBRANCH  61  74
ENDBRANCH  35  36
ENDBRANCH  27  30
ENDBRANCH  25  26
ENDBRANCH  24  25
ENDBRANCH   1  24
TORSDOF 13
ENDMDL
