MODEL 1
REMARK VINA RESULT:     -10.9      0.000      0.000
REMARK SMILES Cc1ccc(Cl)c(Nc2ccccc2C(=O)NCCCCCCNC(=O)c2ccc(-c3c4nc(c(-c5ccccc5)c5ccc([nH]5)c(-c5ccccc5)c5nc(c(-c6ccccc6)c6ccc3[nH]6)C=C5)C=C4)cc2)c1Cl
REMARK SMILES IDX 20 1 19 2 18 3 17 4 15 5 16 6 14 8 9 9 10 10 11 11 13 12
REMARK SMILES IDX 12 13 8 14 7 16 1 17 2 18 3 19 75 20 4 21 76 22 5 23 6 24
REMARK SMILES IDX 21 25 22 26 23 27 24 28 25 29 26 31 27 32 28 33 74 34 29 35
REMARK SMILES IDX 73 36 30 37 31 38 32 39 67 40 33 41 72 42 66 43 68 44 34 45
REMARK SMILES IDX 71 46 65 47 64 48 35 50 57 51 42 52 56 53 43 54 46 55 55 56
REMARK SMILES IDX 69 57 44 58 45 59 54 61 70 62 47 63 36 64 37 65 41 66 38 67
REMARK SMILES IDX 40 68 39 69 58 70 59 71 63 72 60 73 62 74 61 75 48 76 49 77
REMARK SMILES IDX 53 78 50 79 52 80 51 81
REMARK H PARENT 17 7 8 15 24 30 68 49 46 60
REMARK Flexibility Score: inf
ROOT
ATOM      1  C   UNL A   1      31.523  28.906  26.291  1.00  0.00     0.002 C 
ENDROOT
BRANCH   1   2
ATOM      2  C   UNL A   1      32.786  28.062  26.069  1.00  0.00     0.021 C 
BRANCH   2   3
ATOM      3  C   UNL A   1      32.653  26.549  26.223  1.00  0.00     0.116 C 
BRANCH   3   4
ATOM      4  N   UNL A   1      31.319  26.093  26.525  1.00  0.00    -0.352 N 
ATOM      5  C   UNL A   1      30.698  24.900  26.242  1.00  0.00     0.253 C 
ATOM      6  O   UNL A   1      29.551  24.753  26.670  1.00  0.00    -0.269 OA
ATOM      7  H   UNL A   1      30.763  26.741  27.014  1.00  0.00     0.163 HD
BRANCH   5   8
ATOM      8  C   UNL A   1      31.279  23.843  25.358  1.00  0.00     0.063 A 
ATOM      9  C   UNL A   1      31.251  23.774  23.951  1.00  0.00     0.051 A 
ATOM     10  C   UNL A   1      31.839  22.642  23.332  1.00  0.00     0.027 A 
ATOM     11  C   UNL A   1      32.494  21.648  24.059  1.00  0.00     0.002 A 
ATOM     12  C   UNL A   1      31.966  22.836  26.078  1.00  0.00     0.016 A 
ATOM     13  C   UNL A   1      32.575  21.757  25.438  1.00  0.00     0.001 A 
BRANCH   9  14
ATOM     14  N   UNL A   1      30.808  24.762  23.049  1.00  0.00    -0.352 N 
ATOM     15  H   UNL A   1      30.321  24.385  22.281  1.00  0.00     0.167 HD
BRANCH  14  16
ATOM     16  C   UNL A   1      30.903  26.173  22.996  1.00  0.00     0.077 A 
ATOM     17  C   UNL A   1      28.804  29.391  22.940  1.00  0.00     0.046 C 
ATOM     18  C   UNL A   1      29.966  28.439  22.848  1.00  0.00    -0.030 A 
ATOM     19  C   UNL A   1      31.214  28.932  22.443  1.00  0.00     0.006 A 
ATOM     20  C   UNL A   1      29.828  27.069  23.170  1.00  0.00     0.069 A 
ATOM     21  C   UNL A   1      32.315  28.088  22.378  1.00  0.00     0.023 A 
ATOM     22  Cl  UNL A   1      28.365  26.559  23.961  1.00  0.00    -0.082 Cl
ATOM     23  C   UNL A   1      32.159  26.730  22.651  1.00  0.00     0.066 A 
ATOM     24  Cl  UNL A   1      33.563  25.716  22.511  1.00  0.00    -0.082 Cl
ENDBRANCH  14  16
ENDBRANCH   9  14
ENDBRANCH   5   8
ENDBRANCH   3   4
ENDBRANCH   2   3
ENDBRANCH   1   2
BRANCH   1  25
ATOM     25  C   UNL A   1      31.440  30.280  25.617  1.00  0.00     0.002 C 
BRANCH  25  26
ATOM     26  C   UNL A   1      31.324  31.504  26.527  1.00  0.00     0.021 C 
BRANCH  26  27
ATOM     27  C   UNL A   1      32.615  32.233  26.874  1.00  0.00     0.116 C 
BRANCH  27  28
ATOM     28  N   UNL A   1      32.394  33.534  27.478  1.00  0.00    -0.352 N 
ATOM     29  C   UNL A   1      33.142  34.222  28.402  1.00  0.00     0.251 C 
ATOM     30  H   UNL A   1      31.579  33.997  27.178  1.00  0.00     0.163 HD
ATOM     31  O   UNL A   1      32.700  35.275  28.869  1.00  0.00    -0.269 OA
BRANCH  29  32
ATOM     32  C   UNL A   1      34.455  33.720  28.875  1.00  0.00     0.039 A 
ATOM     33  C   UNL A   1      34.481  32.843  29.968  1.00  0.00     0.014 A 
ATOM     34  C   UNL A   1      35.661  34.136  28.304  1.00  0.00     0.014 A 
ATOM     35  C   UNL A   1      35.697  32.347  30.448  1.00  0.00     0.010 A 
ATOM     36  C   UNL A   1      36.870  33.588  28.739  1.00  0.00     0.010 A 
ATOM     37  C   UNL A   1      36.903  32.695  29.820  1.00  0.00    -0.014 A 
BRANCH  37  38
ATOM     38  C   UNL A   1      38.205  32.154  30.294  1.00  0.00     0.031 A 
ATOM     39  C   UNL A   1      38.742  30.866  29.729  1.00  0.00     0.074 A 
ATOM     40  C   UNL A   1      38.879  32.782  31.276  1.00  0.00     0.049 A 
ATOM     41  N   UNL A   1      39.814  30.197  30.072  1.00  0.00    -0.248 NA
ATOM     42  C   UNL A   1      37.959  30.238  28.653  1.00  0.00     0.031 C 
ATOM     43  C   UNL A   1      38.461  34.020  31.936  1.00  0.00     0.029 A 
ATOM     44  N   UNL A   1      40.057  32.453  31.902  1.00  0.00    -0.354 N 
ATOM     45  C   UNL A   1      39.818  29.057  29.277  1.00  0.00     0.074 A 
ATOM     46  C   UNL A   1      38.625  29.109  28.459  1.00  0.00     0.031 C 
ATOM     47  C   UNL A   1      39.375  34.354  32.862  1.00  0.00     0.029 A 
ATOM     48  C   UNL A   1      40.424  33.338  32.886  1.00  0.00     0.049 A 
ATOM     49  H   UNL A   1      40.589  31.660  31.666  1.00  0.00     0.167 HD
ATOM     50  C   UNL A   1      40.736  28.062  29.220  1.00  0.00     0.031 A 
ATOM     51  C   UNL A   1      41.477  33.330  33.725  1.00  0.00     0.031 A 
ATOM     52  C   UNL A   1      41.936  28.014  30.012  1.00  0.00     0.049 A 
ATOM     53  C   UNL A   1      42.485  32.218  33.642  1.00  0.00     0.074 A 
ATOM     54  C   UNL A   1      42.957  27.080  29.974  1.00  0.00     0.029 A 
ATOM     55  N   UNL A   1      42.275  28.940  30.985  1.00  0.00    -0.354 N 
ATOM     56  N   UNL A   1      42.502  31.179  32.844  1.00  0.00    -0.248 NA
ATOM     57  C   UNL A   1      43.620  32.282  34.573  1.00  0.00     0.031 C 
ATOM     58  C   UNL A   1      43.896  27.419  30.955  1.00  0.00     0.029 A 
ATOM     59  C   UNL A   1      43.480  28.588  31.570  1.00  0.00     0.049 A 
ATOM     60  H   UNL A   1      41.740  29.731  31.224  1.00  0.00     0.167 HD
ATOM     61  C   UNL A   1      43.660  30.480  33.158  1.00  0.00     0.074 A 
ATOM     62  C   UNL A   1      44.324  31.218  34.213  1.00  0.00     0.031 C 
ATOM     63  C   UNL A   1      44.130  29.329  32.618  1.00  0.00     0.031 A 
BRANCH  50  64
ATOM     64  C   UNL A   1      40.466  26.929  28.270  1.00  0.00    -0.014 A 
ATOM     65  C   UNL A   1      40.986  26.931  26.966  1.00  0.00     0.009 A 
ATOM     66  C   UNL A   1      39.704  25.829  28.696  1.00  0.00     0.009 A 
ATOM     67  C   UNL A   1      40.714  25.874  26.095  1.00  0.00     0.001 A 
ATOM     68  C   UNL A   1      39.457  24.761  27.832  1.00  0.00     0.001 A 
ATOM     69  C   UNL A   1      39.953  24.789  26.529  1.00  0.00     0.000 A 
ENDBRANCH  50  64
BRANCH  51  70
ATOM     70  C   UNL A   1      41.642  34.425  34.715  1.00  0.00    -0.014 A 
ATOM     71  C   UNL A   1      42.351  35.588  34.376  1.00  0.00     0.009 A 
ATOM     72  C   UNL A   1      41.085  34.317  35.998  1.00  0.00     0.009 A 
ATOM     73  C   UNL A   1      42.514  36.613  35.310  1.00  0.00     0.001 A 
ATOM     74  C   UNL A   1      41.230  35.354  36.922  1.00  0.00     0.001 A 
ATOM     75  C   UNL A   1      41.951  36.497  36.580  1.00  0.00     0.000 A 
ENDBRANCH  51  70
BRANCH  63  76
ATOM     76  C   UNL A   1      45.440  28.810  33.139  1.00  0.00    -0.014 A 
ATOM     77  C   UNL A   1      46.658  29.220  32.580  1.00  0.00     0.009 A 
ATOM     78  C   UNL A   1      45.453  27.935  34.237  1.00  0.00     0.009 A 
ATOM     79  C   UNL A   1      47.866  28.743  33.094  1.00  0.00     0.001 A 
ATOM     80  C   UNL A   1      46.661  27.478  34.763  1.00  0.00     0.001 A 
ATOM     81  C   UNL A   1      47.867  27.877  34.187  1.00  0.00     0.000 A 
ENDBRANCH  63  76
ENDBRANCH  37  38
ENDBRANCH  29  32
ENDBRANCH  27  28
ENDBRANCH  26  27
ENDBRANCH  25  26
ENDBRANCH   1  25
TORSDOF 15
ENDMDL
MODEL 2
REMARK VINA RESULT:     -10.8      3.516      8.295
REMARK SMILES Cc1ccc(Cl)c(Nc2ccccc2C(=O)NCCCCCCNC(=O)c2ccc(-c3c4nc(c(-c5ccccc5)c5ccc([nH]5)c(-c5ccccc5)c5nc(c(-c6ccccc6)c6ccc3[nH]6)C=C5)C=C4)cc2)c1Cl
REMARK SMILES IDX 20 1 19 2 18 3 17 4 15 5 16 6 14 8 9 9 10 10 11 11 13 12
REMARK SMILES IDX 12 13 8 14 7 16 1 17 2 18 3 19 75 20 4 21 76 22 5 23 6 24
REMARK SMILES IDX 21 25 22 26 23 27 24 28 25 29 26 31 27 32 28 33 74 34 29 35
REMARK SMILES IDX 73 36 30 37 31 38 32 39 67 40 33 41 72 42 66 43 68 44 34 45
REMARK SMILES IDX 71 46 65 47 64 48 35 50 57 51 42 52 56 53 43 54 46 55 55 56
REMARK SMILES IDX 69 57 44 58 45 59 54 61 70 62 47 63 36 64 37 65 41 66 38 67
REMARK SMILES IDX 40 68 39 69 58 70 59 71 63 72 60 73 62 74 61 75 48 76 49 77
REMARK SMILES IDX 53 78 50 79 52 80 51 81
REMARK H PARENT 17 7 8 15 24 30 68 49 46 60
REMARK Flexibility Score: inf
ROOT
ATOM      1  C   UNL A   1      35.764  21.962  25.336  1.00  0.00     0.002 C 
ENDROOT
BRANCH   1   2
ATOM      2  C   UNL A   1      35.198  22.450  26.677  1.00  0.00     0.021 C 
BRANCH   2   3
ATOM      3  C   UNL A   1      34.123  21.591  27.338  1.00  0.00     0.116 C 
BRANCH   3   4
ATOM      4  N   UNL A   1      32.922  22.305  27.694  1.00  0.00    -0.352 N 
ATOM      5  C   UNL A   1      31.851  22.690  26.924  1.00  0.00     0.253 C 
ATOM      6  O   UNL A   1      30.919  23.252  27.505  1.00  0.00    -0.269 OA
ATOM      7  H   UNL A   1      32.859  22.557  28.643  1.00  0.00     0.163 HD
BRANCH   5   8
ATOM      8  C   UNL A   1      31.807  22.578  25.434  1.00  0.00     0.063 A 
ATOM      9  C   UNL A   1      31.447  23.568  24.498  1.00  0.00     0.051 A 
ATOM     10  C   UNL A   1      31.442  23.211  23.126  1.00  0.00     0.027 A 
ATOM     11  C   UNL A   1      31.844  21.951  22.680  1.00  0.00     0.002 A 
ATOM     12  C   UNL A   1      32.233  21.313  24.962  1.00  0.00     0.016 A 
ATOM     13  C   UNL A   1      32.261  21.005  23.601  1.00  0.00     0.001 A 
BRANCH   9  14
ATOM     14  N   UNL A   1      31.196  24.933  24.741  1.00  0.00    -0.352 N 
ATOM     15  H   UNL A   1      30.793  25.095  25.624  1.00  0.00     0.167 HD
BRANCH  14  16
ATOM     16  C   UNL A   1      31.392  26.126  24.004  1.00  0.00     0.077 A 
ATOM     17  C   UNL A   1      34.082  28.618  22.855  1.00  0.00     0.046 C 
ATOM     18  C   UNL A   1      32.747  27.986  23.146  1.00  0.00    -0.030 A 
ATOM     19  C   UNL A   1      31.581  28.723  22.894  1.00  0.00     0.006 A 
ATOM     20  C   UNL A   1      32.644  26.671  23.655  1.00  0.00     0.069 A 
ATOM     21  C   UNL A   1      30.331  28.160  23.120  1.00  0.00     0.023 A 
ATOM     22  Cl  UNL A   1      34.077  25.684  23.659  1.00  0.00    -0.082 Cl
ATOM     23  C   UNL A   1      30.241  26.881  23.667  1.00  0.00     0.066 A 
ATOM     24  Cl  UNL A   1      28.652  26.246  23.968  1.00  0.00    -0.082 Cl
ENDBRANCH  14  16
ENDBRANCH   9  14
ENDBRANCH   5   8
ENDBRANCH   3   4
ENDBRANCH   2   3
ENDBRANCH   1   2
BRANCH   1  25
ATOM     25  C   UNL A   1      35.869  20.451  25.099  1.00  0.00     0.002 C 
BRANCH  25  26
ATOM     26  C   UNL A   1      37.255  19.881  24.795  1.00  0.00     0.021 C 
BRANCH  26  27
ATOM     27  C   UNL A   1      38.410  20.373  25.658  1.00  0.00     0.116 C 
BRANCH  27  28
ATOM     28  N   UNL A   1      39.541  19.465  25.674  1.00  0.00    -0.352 N 
ATOM     29  C   UNL A   1      40.846  19.679  26.044  1.00  0.00     0.251 C 
ATOM     30  H   UNL A   1      39.341  18.549  25.372  1.00  0.00     0.163 HD
ATOM     31  O   UNL A   1      41.676  18.784  25.864  1.00  0.00    -0.269 OA
BRANCH  29  32
ATOM     32  C   UNL A   1      41.292  20.967  26.628  1.00  0.00     0.039 A 
ATOM     33  C   UNL A   1      41.778  21.959  25.766  1.00  0.00     0.014 A 
ATOM     34  C   UNL A   1      41.293  21.199  28.006  1.00  0.00     0.014 A 
ATOM     35  C   UNL A   1      42.210  23.189  26.274  1.00  0.00     0.010 A 
ATOM     36  C   UNL A   1      41.661  22.450  28.508  1.00  0.00     0.010 A 
ATOM     37  C   UNL A   1      42.131  23.455  27.649  1.00  0.00    -0.014 A 
BRANCH  37  38
ATOM     38  C   UNL A   1      42.555  24.767  28.208  1.00  0.00     0.031 A 
ATOM     39  C   UNL A   1      41.543  25.858  28.436  1.00  0.00     0.074 A 
ATOM     40  C   UNL A   1      43.857  25.006  28.455  1.00  0.00     0.049 A 
ATOM     41  N   UNL A   1      41.731  27.090  28.836  1.00  0.00    -0.248 NA
ATOM     42  C   UNL A   1      40.137  25.525  28.153  1.00  0.00     0.031 C 
ATOM     43  C   UNL A   1      44.949  24.052  28.252  1.00  0.00     0.029 A 
ATOM     44  N   UNL A   1      44.485  26.136  28.918  1.00  0.00    -0.354 N 
ATOM     45  C   UNL A   1      40.477  27.687  28.826  1.00  0.00     0.074 A 
ATOM     46  C   UNL A   1      39.540  26.692  28.348  1.00  0.00     0.031 C 
ATOM     47  C   UNL A   1      46.109  24.631  28.603  1.00  0.00     0.029 A 
ATOM     48  C   UNL A   1      45.849  26.006  29.021  1.00  0.00     0.049 A 
ATOM     49  H   UNL A   1      44.003  26.961  29.155  1.00  0.00     0.167 HD
ATOM     50  C   UNL A   1      40.129  28.944  29.193  1.00  0.00     0.031 A 
ATOM     51  C   UNL A   1      46.788  26.893  29.398  1.00  0.00     0.031 A 
ATOM     52  C   UNL A   1      41.048  29.931  29.692  1.00  0.00     0.049 A 
ATOM     53  C   UNL A   1      46.379  28.282  29.804  1.00  0.00     0.074 A 
ATOM     54  C   UNL A   1      40.777  31.208  30.153  1.00  0.00     0.029 A 
ATOM     55  N   UNL A   1      42.418  29.750  29.796  1.00  0.00    -0.354 N 
ATOM     56  N   UNL A   1      45.181  28.810  29.843  1.00  0.00    -0.248 NA
ATOM     57  C   UNL A   1      47.454  29.193  30.224  1.00  0.00     0.031 C 
ATOM     58  C   UNL A   1      41.989  31.816  30.496  1.00  0.00     0.029 A 
ATOM     59  C   UNL A   1      43.009  30.901  30.292  1.00  0.00     0.049 A 
ATOM     60  H   UNL A   1      42.900  28.927  29.553  1.00  0.00     0.167 HD
ATOM     61  C   UNL A   1      45.353  30.105  30.314  1.00  0.00     0.074 A 
ATOM     62  C   UNL A   1      46.771  30.279  30.557  1.00  0.00     0.031 C 
ATOM     63  C   UNL A   1      44.419  31.063  30.527  1.00  0.00     0.031 A 
BRANCH  50  64
ATOM     64  C   UNL A   1      38.682  29.327  29.054  1.00  0.00    -0.014 A 
ATOM     65  C   UNL A   1      38.164  29.783  27.832  1.00  0.00     0.009 A 
ATOM     66  C   UNL A   1      37.820  29.204  30.155  1.00  0.00     0.009 A 
ATOM     67  C   UNL A   1      36.818  30.146  27.726  1.00  0.00     0.001 A 
ATOM     68  C   UNL A   1      36.470  29.541  30.039  1.00  0.00     0.001 A 
ATOM     69  C   UNL A   1      35.973  30.022  28.827  1.00  0.00     0.000 A 
ENDBRANCH  50  64
BRANCH  51  70
ATOM     70  C   UNL A   1      48.218  26.491  29.421  1.00  0.00    -0.014 A 
ATOM     71  C   UNL A   1      48.766  25.884  30.561  1.00  0.00     0.009 A 
ATOM     72  C   UNL A   1      49.038  26.704  28.302  1.00  0.00     0.009 A 
ATOM     73  C   UNL A   1      50.113  25.514  30.586  1.00  0.00     0.001 A 
ATOM     74  C   UNL A   1      50.377  26.312  28.322  1.00  0.00     0.001 A 
ATOM     75  C   UNL A   1      50.916  25.725  29.466  1.00  0.00     0.000 A 
ENDBRANCH  51  70
BRANCH  63  76
ATOM     76  C   UNL A   1      44.895  32.378  31.076  1.00  0.00    -0.014 A 
ATOM     77  C   UNL A   1      45.257  33.431  30.224  1.00  0.00     0.009 A 
ATOM     78  C   UNL A   1      44.935  32.578  32.464  1.00  0.00     0.009 A 
ATOM     79  C   UNL A   1      45.675  34.654  30.754  1.00  0.00     0.001 A 
ATOM     80  C   UNL A   1      45.331  33.807  32.991  1.00  0.00     0.001 A 
ATOM     81  C   UNL A   1      45.707  34.842  32.136  1.00  0.00     0.000 A 
ENDBRANCH  63  76
ENDBRANCH  37  38
ENDBRANCH  29  32
ENDBRANCH  27  28
ENDBRANCH  26  27
ENDBRANCH  25  26
ENDBRANCH   1  25
TORSDOF 15
ENDMDL
MODEL 3
REMARK VINA RESULT:     -10.5      3.776      8.784
REMARK SMILES Cc1ccc(Cl)c(Nc2ccccc2C(=O)NCCCCCCNC(=O)c2ccc(-c3c4nc(c(-c5ccccc5)c5ccc([nH]5)c(-c5ccccc5)c5nc(c(-c6ccccc6)c6ccc3[nH]6)C=C5)C=C4)cc2)c1Cl
REMARK SMILES IDX 20 1 19 2 18 3 17 4 15 5 16 6 14 8 9 9 10 10 11 11 13 12
REMARK SMILES IDX 12 13 8 14 7 16 1 17 2 18 3 19 75 20 4 21 76 22 5 23 6 24
REMARK SMILES IDX 21 25 22 26 23 27 24 28 25 29 26 31 27 32 28 33 74 34 29 35
REMARK SMILES IDX 73 36 30 37 31 38 32 39 67 40 33 41 72 42 66 43 68 44 34 45
REMARK SMILES IDX 71 46 65 47 64 48 35 50 57 51 42 52 56 53 43 54 46 55 55 56
REMARK SMILES IDX 69 57 44 58 45 59 54 61 70 62 47 63 36 64 37 65 41 66 38 67
REMARK SMILES IDX 40 68 39 69 58 70 59 71 63 72 60 73 62 74 61 75 48 76 49 77
REMARK SMILES IDX 53 78 50 79 52 80 51 81
REMARK H PARENT 17 7 8 15 24 30 68 49 46 60
REMARK Flexibility Score: inf
ROOT
ATOM      1  C   UNL A   1      37.105  21.871  24.637  1.00  0.00     0.002 C 
ENDROOT
BRANCH   1   2
ATOM      2  C   UNL A   1      36.055  22.430  23.665  1.00  0.00     0.021 C 
BRANCH   2   3
ATOM      3  C   UNL A   1      35.458  23.797  23.989  1.00  0.00     0.116 C 
BRANCH   3   4
ATOM      4  N   UNL A   1      34.565  24.314  22.982  1.00  0.00    -0.352 N 
ATOM      5  C   UNL A   1      33.549  25.234  23.078  1.00  0.00     0.253 C 
ATOM      6  O   UNL A   1      32.970  25.537  22.032  1.00  0.00    -0.269 OA
ATOM      7  H   UNL A   1      34.706  23.949  22.079  1.00  0.00     0.163 HD
BRANCH   5   8
ATOM      8  C   UNL A   1      33.036  25.785  24.370  1.00  0.00     0.063 A 
ATOM      9  C   UNL A   1      32.173  25.166  25.297  1.00  0.00     0.051 A 
ATOM     10  C   UNL A   1      31.791  25.909  26.442  1.00  0.00     0.027 A 
ATOM     11  C   UNL A   1      32.290  27.185  26.707  1.00  0.00     0.002 A 
ATOM     12  C   UNL A   1      33.550  27.071  24.666  1.00  0.00     0.016 A 
ATOM     13  C   UNL A   1      33.190  27.759  25.825  1.00  0.00     0.001 A 
BRANCH   9  14
ATOM     14  N   UNL A   1      31.721  23.832  25.296  1.00  0.00    -0.352 N 
ATOM     15  H   UNL A   1      30.745  23.761  25.394  1.00  0.00     0.167 HD
BRANCH  14  16
ATOM     16  C   UNL A   1      32.352  22.569  25.184  1.00  0.00     0.077 A 
ATOM     17  C   UNL A   1      32.445  19.360  23.073  1.00  0.00     0.046 C 
ATOM     18  C   UNL A   1      32.669  20.347  24.187  1.00  0.00    -0.030 A 
ATOM     19  C   UNL A   1      33.357  19.927  25.334  1.00  0.00     0.006 A 
ATOM     20  C   UNL A   1      32.212  21.682  24.098  1.00  0.00     0.069 A 
ATOM     21  C   UNL A   1      33.610  20.820  26.368  1.00  0.00     0.023 A 
ATOM     22  Cl  UNL A   1      31.646  22.249  22.553  1.00  0.00    -0.082 Cl
ATOM     23  C   UNL A   1      33.114  22.121  26.291  1.00  0.00     0.066 A 
ATOM     24  Cl  UNL A   1      33.424  23.179  27.634  1.00  0.00    -0.082 Cl
ENDBRANCH  14  16
ENDBRANCH   9  14
ENDBRANCH   5   8
ENDBRANCH   3   4
ENDBRANCH   2   3
ENDBRANCH   1   2
BRANCH   1  25
ATOM     25  C   UNL A   1      37.072  20.373  24.958  1.00  0.00     0.002 C 
BRANCH  25  26
ATOM     26  C   UNL A   1      38.389  19.602  24.852  1.00  0.00     0.021 C 
BRANCH  26  27
ATOM     27  C   UNL A   1      39.299  19.616  26.074  1.00  0.00     0.116 C 
BRANCH  27  28
ATOM     28  N   UNL A   1      40.592  19.005  25.832  1.00  0.00    -0.352 N 
ATOM     29  C   UNL A   1      41.855  19.535  25.921  1.00  0.00     0.251 C 
ATOM     30  H   UNL A   1      40.558  18.058  25.562  1.00  0.00     0.163 HD
ATOM     31  O   UNL A   1      42.819  18.859  25.552  1.00  0.00    -0.269 OA
BRANCH  29  32
ATOM     32  C   UNL A   1      42.092  20.911  26.422  1.00  0.00     0.039 A 
ATOM     33  C   UNL A   1      41.959  21.154  27.796  1.00  0.00     0.014 A 
ATOM     34  C   UNL A   1      42.388  21.975  25.566  1.00  0.00     0.014 A 
ATOM     35  C   UNL A   1      42.172  22.437  28.311  1.00  0.00     0.010 A 
ATOM     36  C   UNL A   1      42.667  23.241  26.087  1.00  0.00     0.010 A 
ATOM     37  C   UNL A   1      42.554  23.487  27.463  1.00  0.00    -0.014 A 
BRANCH  37  38
ATOM     38  C   UNL A   1      42.817  24.852  27.994  1.00  0.00     0.031 A 
ATOM     39  C   UNL A   1      44.202  25.240  28.437  1.00  0.00     0.074 A 
ATOM     40  C   UNL A   1      41.803  25.727  28.139  1.00  0.00     0.049 A 
ATOM     41  N   UNL A   1      44.610  26.350  29.000  1.00  0.00    -0.248 NA
ATOM     42  C   UNL A   1      45.263  24.239  28.243  1.00  0.00     0.031 C 
ATOM     43  C   UNL A   1      40.406  25.475  27.779  1.00  0.00     0.029 A 
ATOM     44  N   UNL A   1      41.792  27.004  28.642  1.00  0.00    -0.354 N 
ATOM     45  C   UNL A   1      45.964  26.170  29.253  1.00  0.00     0.074 A 
ATOM     46  C   UNL A   1      46.302  24.833  28.814  1.00  0.00     0.031 C 
ATOM     47  C   UNL A   1      39.677  26.567  28.059  1.00  0.00     0.029 A 
ATOM     48  C   UNL A   1      40.545  27.583  28.650  1.00  0.00     0.049 A 
ATOM     49  H   UNL A   1      42.600  27.463  28.966  1.00  0.00     0.167 HD
ATOM     50  C   UNL A   1      46.853  27.041  29.790  1.00  0.00     0.031 A 
ATOM     51  C   UNL A   1      40.140  28.788  29.091  1.00  0.00     0.031 A 
ATOM     52  C   UNL A   1      46.532  28.379  30.207  1.00  0.00     0.049 A 
ATOM     53  C   UNL A   1      41.144  29.740  29.680  1.00  0.00     0.074 A 
ATOM     54  C   UNL A   1      47.380  29.357  30.699  1.00  0.00     0.029 A 
ATOM     55  N   UNL A   1      45.260  28.929  30.181  1.00  0.00    -0.354 N 
ATOM     56  N   UNL A   1      42.431  29.574  29.858  1.00  0.00    -0.248 NA
ATOM     57  C   UNL A   1      40.637  31.046  30.123  1.00  0.00     0.031 C 
ATOM     58  C   UNL A   1      46.614  30.485  31.011  1.00  0.00     0.029 A 
ATOM     59  C   UNL A   1      45.297  30.225  30.669  1.00  0.00     0.049 A 
ATOM     60  H   UNL A   1      44.450  28.468  29.863  1.00  0.00     0.167 HD
ATOM     61  C   UNL A   1      42.894  30.762  30.410  1.00  0.00     0.074 A 
ATOM     62  C   UNL A   1      41.750  31.643  30.528  1.00  0.00     0.031 C 
ATOM     63  C   UNL A   1      44.153  31.091  30.784  1.00  0.00     0.031 A 
BRANCH  50  64
ATOM     64  C   UNL A   1      48.266  26.561  29.969  1.00  0.00    -0.014 A 
ATOM     65  C   UNL A   1      49.236  26.765  28.975  1.00  0.00     0.009 A 
ATOM     66  C   UNL A   1      48.639  25.922  31.162  1.00  0.00     0.009 A 
ATOM     67  C   UNL A   1      50.542  26.302  29.156  1.00  0.00     0.001 A 
ATOM     68  C   UNL A   1      49.950  25.483  31.351  1.00  0.00     0.001 A 
ATOM     69  C   UNL A   1      50.898  25.665  30.344  1.00  0.00     0.000 A 
ENDBRANCH  50  64
BRANCH  51  70
ATOM     70  C   UNL A   1      38.710  29.173  28.982  1.00  0.00    -0.014 A 
ATOM     71  C   UNL A   1      37.850  29.028  30.081  1.00  0.00     0.009 A 
ATOM     72  C   UNL A   1      38.200  29.693  27.783  1.00  0.00     0.009 A 
ATOM     73  C   UNL A   1      36.503  29.380  29.976  1.00  0.00     0.001 A 
ATOM     74  C   UNL A   1      36.858  30.066  27.688  1.00  0.00     0.001 A 
ATOM     75  C   UNL A   1      36.009  29.902  28.782  1.00  0.00     0.000 A 
ENDBRANCH  51  70
BRANCH  63  76
ATOM     76  C   UNL A   1      44.369  32.473  31.331  1.00  0.00    -0.014 A 
ATOM     77  C   UNL A   1      44.672  33.550  30.485  1.00  0.00     0.009 A 
ATOM     78  C   UNL A   1      44.220  32.707  32.707  1.00  0.00     0.009 A 
ATOM     79  C   UNL A   1      44.847  34.832  31.011  1.00  0.00     0.001 A 
ATOM     80  C   UNL A   1      44.372  33.992  33.227  1.00  0.00     0.001 A 
ATOM     81  C   UNL A   1      44.692  35.052  32.380  1.00  0.00     0.000 A 
ENDBRANCH  63  76
ENDBRANCH  37  38
ENDBRANCH  29  32
ENDBRANCH  27  28
ENDBRANCH  26  27
ENDBRANCH  25  26
ENDBRANCH   1  25
TORSDOF 15
ENDMDL
