MODEL 1
REMARK VINA RESULT:      -8.4      0.000      0.000
REMARK SMILES Cc1ccc(CNC(=O)NC[C@@H](CC(C)C)C(=O)NCCCCCCNC(=O)c2ccc(-c3c4nc(c(-c5ccccc5)c5ccc([nH]5)c(-c5ccccc5)c5nc(c(-c6ccccc6)c6ccc3[nH]6)C=C5)C=C4)cc2)s1
REMARK SMILES IDX 21 1 20 2 19 3 17 4 18 5 12 7 11 8 10 9 7 10 8 11 9 13 6 15
REMARK SMILES IDX 5 16 1 17 2 18 3 19 77 20 4 21 13 22 14 23 15 24 16 25 22 26
REMARK SMILES IDX 23 27 24 28 25 29 26 30 27 31 28 33 29 34 30 35 76 36 31 37
REMARK SMILES IDX 75 38 32 39 33 40 34 41 69 42 35 43 74 44 68 45 70 46 36 47
REMARK SMILES IDX 73 48 67 49 66 50 37 52 59 53 44 54 58 55 45 56 48 57 57 58
REMARK SMILES IDX 71 59 46 60 47 61 56 63 72 64 49 65 38 66 39 67 43 68 40 69
REMARK SMILES IDX 42 70 41 71 60 72 61 73 65 74 62 75 64 76 63 77 50 78 51 79
REMARK SMILES IDX 55 80 52 81 54 82 53 83
REMARK H PARENT 19 6 7 12 10 14 26 32 70 51 48 62
REMARK Flexibility Score: inf
ROOT
ATOM      1  C   UNL A   1      44.326  24.079  32.161  1.00  0.00     0.021 C 
ENDROOT
BRANCH   1   2
ATOM      2  C   UNL A   1      44.265  23.279  30.870  1.00  0.00     0.116 C 
BRANCH   2   3
ATOM      3  N   UNL A   1      43.785  24.051  29.743  1.00  0.00    -0.356 N 
ATOM      4  C   UNL A   1      44.454  24.655  28.727  1.00  0.00     0.224 C 
ATOM      5  O   UNL A   1      43.773  25.089  27.794  1.00  0.00    -0.275 OA
ATOM      6  H   UNL A   1      42.807  24.155  29.706  1.00  0.00     0.163 HD
BRANCH   4   7
ATOM      7  C   UNL A   1      45.974  24.795  28.686  1.00  0.00     0.098 C 
BRANCH   7   8
ATOM      8  C   UNL A   1      46.621  24.186  27.435  1.00  0.00     0.131 C 
BRANCH   8   9
ATOM      9  N   UNL A   1      46.749  25.136  26.343  1.00  0.00    -0.337 N 
ATOM     10  N   UNL A   1      45.409  24.254  24.611  1.00  0.00    -0.333 N 
ATOM     11  C   UNL A   1      46.065  25.262  25.195  1.00  0.00     0.315 C 
ATOM     12  H   UNL A   1      44.722  24.551  23.972  1.00  0.00     0.165 HD
ATOM     13  O   UNL A   1      46.042  26.370  24.656  1.00  0.00    -0.249 OA
ATOM     14  H   UNL A   1      47.461  25.804  26.467  1.00  0.00     0.165 HD
BRANCH  10  15
ATOM     15  C   UNL A   1      45.502  22.815  24.731  1.00  0.00     0.164 C 
BRANCH  15  16
ATOM     16  C   UNL A   1      44.194  22.233  25.185  1.00  0.00     0.024 A 
ATOM     17  C   UNL A   1      41.598  19.562  26.447  1.00  0.00     0.056 C 
ATOM     18  C   UNL A   1      42.374  20.742  25.971  1.00  0.00     0.002 A 
ATOM     19  C   UNL A   1      41.966  22.054  25.874  1.00  0.00     0.015 A 
ATOM     20  S   UNL A   1      43.993  20.548  25.454  1.00  0.00    -0.144 S 
ATOM     21  C   UNL A   1      43.010  22.910  25.420  1.00  0.00     0.017 A 
ENDBRANCH  15  16
ENDBRANCH  10  15
ENDBRANCH   8   9
ENDBRANCH   7   8
BRANCH   7  22
ATOM     22  C   UNL A   1      46.506  26.203  29.061  1.00  0.00     0.018 C 
BRANCH  22  23
ATOM     23  C   UNL A   1      46.431  26.633  30.542  1.00  0.00    -0.017 C 
ATOM     24  C   UNL A   1      47.473  25.907  31.403  1.00  0.00     0.007 C 
ATOM     25  C   UNL A   1      46.652  28.141  30.698  1.00  0.00     0.007 C 
ENDBRANCH  22  23
ENDBRANCH   7  22
ENDBRANCH   4   7
ENDBRANCH   2   3
ENDBRANCH   1   2
BRANCH   1  26
ATOM     26  C   UNL A   1      44.009  23.272  33.422  1.00  0.00     0.002 C 
BRANCH  26  27
ATOM     27  C   UNL A   1      45.162  22.441  33.998  1.00  0.00     0.002 C 
BRANCH  27  28
ATOM     28  C   UNL A   1      45.916  23.061  35.177  1.00  0.00     0.021 C 
BRANCH  28  29
ATOM     29  C   UNL A   1      46.961  24.102  34.805  1.00  0.00     0.116 C 
BRANCH  29  30
ATOM     30  N   UNL A   1      47.356  24.927  35.930  1.00  0.00    -0.352 N 
ATOM     31  C   UNL A   1      46.919  26.181  36.281  1.00  0.00     0.251 C 
ATOM     32  H   UNL A   1      48.031  24.533  36.527  1.00  0.00     0.163 HD
ATOM     33  O   UNL A   1      47.463  26.791  37.192  1.00  0.00    -0.269 OA
BRANCH  31  34
ATOM     34  C   UNL A   1      45.803  26.802  35.536  1.00  0.00     0.039 A 
ATOM     35  C   UNL A   1      44.511  26.308  35.731  1.00  0.00     0.014 A 
ATOM     36  C   UNL A   1      46.027  27.855  34.645  1.00  0.00     0.014 A 
ATOM     37  C   UNL A   1      43.440  26.896  35.059  1.00  0.00     0.010 A 
ATOM     38  C   UNL A   1      44.949  28.493  34.042  1.00  0.00     0.010 A 
ATOM     39  C   UNL A   1      43.647  28.006  34.225  1.00  0.00    -0.014 A 
BRANCH  39  40
ATOM     40  C   UNL A   1      42.520  28.643  33.500  1.00  0.00     0.031 A 
ATOM     41  C   UNL A   1      41.625  29.618  34.216  1.00  0.00     0.074 A 
ATOM     42  C   UNL A   1      42.277  28.318  32.216  1.00  0.00     0.049 A 
ATOM     43  N   UNL A   1      40.569  30.251  33.771  1.00  0.00    -0.248 NA
ATOM     44  C   UNL A   1      41.943  29.900  35.625  1.00  0.00     0.031 C 
ATOM     45  C   UNL A   1      43.055  27.368  31.418  1.00  0.00     0.029 A 
ATOM     46  N   UNL A   1      41.304  28.757  31.355  1.00  0.00    -0.354 N 
ATOM     47  C   UNL A   1      40.092  30.989  34.847  1.00  0.00     0.074 A 
ATOM     48  C   UNL A   1      40.932  30.678  35.981  1.00  0.00     0.031 C 
ATOM     49  C   UNL A   1      42.551  27.324  30.174  1.00  0.00     0.029 A 
ATOM     50  C   UNL A   1      41.391  28.206  30.099  1.00  0.00     0.049 A 
ATOM     51  H   UNL A   1      40.608  29.405  31.611  1.00  0.00     0.167 HD
ATOM     52  C   UNL A   1      39.063  31.870  34.885  1.00  0.00     0.031 A 
ATOM     53  C   UNL A   1      40.621  28.391  29.010  1.00  0.00     0.031 A 
ATOM     54  C   UNL A   1      38.230  32.182  33.755  1.00  0.00     0.049 A 
ATOM     55  C   UNL A   1      39.463  29.347  29.086  1.00  0.00     0.074 A 
ATOM     56  C   UNL A   1      37.187  33.089  33.677  1.00  0.00     0.029 A 
ATOM     57  N   UNL A   1      38.346  31.595  32.505  1.00  0.00    -0.354 N 
ATOM     58  N   UNL A   1      39.060  30.083  30.095  1.00  0.00    -0.248 NA
ATOM     59  C   UNL A   1      38.661  29.509  27.865  1.00  0.00     0.031 C 
ATOM     60  C   UNL A   1      36.635  33.007  32.395  1.00  0.00     0.029 A 
ATOM     61  C   UNL A   1      37.378  32.102  31.654  1.00  0.00     0.049 A 
ATOM     62  H   UNL A   1      39.017  30.917  32.258  1.00  0.00     0.167 HD
ATOM     63  C   UNL A   1      37.985  30.823  29.619  1.00  0.00     0.074 A 
ATOM     64  C   UNL A   1      37.808  30.456  28.229  1.00  0.00     0.031 C 
ATOM     65  C   UNL A   1      37.218  31.730  30.272  1.00  0.00     0.031 A 
BRANCH  52  66
ATOM     66  C   UNL A   1      38.782  32.546  36.200  1.00  0.00    -0.014 A 
ATOM     67  C   UNL A   1      37.941  31.958  37.158  1.00  0.00     0.009 A 
ATOM     68  C   UNL A   1      39.378  33.782  36.492  1.00  0.00     0.009 A 
ATOM     69  C   UNL A   1      37.665  32.614  38.360  1.00  0.00     0.001 A 
ATOM     70  C   UNL A   1      39.131  34.420  37.709  1.00  0.00     0.001 A 
ATOM     71  C   UNL A   1      38.265  33.842  38.637  1.00  0.00     0.000 A 
ENDBRANCH  52  66
BRANCH  53  72
ATOM     72  C   UNL A   1      40.933  27.678  27.743  1.00  0.00    -0.014 A 
ATOM     73  C   UNL A   1      41.775  28.263  26.785  1.00  0.00     0.009 A 
ATOM     74  C   UNL A   1      40.380  26.414  27.478  1.00  0.00     0.009 A 
ATOM     75  C   UNL A   1      42.031  27.614  25.575  1.00  0.00     0.001 A 
ATOM     76  C   UNL A   1      40.665  25.753  26.280  1.00  0.00     0.001 A 
ATOM     77  C   UNL A   1      41.480  26.358  25.325  1.00  0.00     0.000 A 
ENDBRANCH  53  72
BRANCH  65  78
ATOM     78  C   UNL A   1      36.151  32.432  29.476  1.00  0.00    -0.014 A 
ATOM     79  C   UNL A   1      34.924  31.818  29.186  1.00  0.00     0.009 A 
ATOM     80  C   UNL A   1      36.370  33.750  29.043  1.00  0.00     0.009 A 
ATOM     81  C   UNL A   1      33.953  32.496  28.445  1.00  0.00     0.001 A 
ATOM     82  C   UNL A   1      35.386  34.438  28.334  1.00  0.00     0.001 A 
ATOM     83  C   UNL A   1      34.182  33.806  28.026  1.00  0.00     0.000 A 
ENDBRANCH  65  78
ENDBRANCH  39  40
ENDBRANCH  31  34
ENDBRANCH  29  30
ENDBRANCH  28  29
ENDBRANCH  27  28
ENDBRANCH  26  27
ENDBRANCH   1  26
TORSDOF 19
ENDMDL
MODEL 2
REMARK VINA RESULT:      -7.9      1.238      2.193
REMARK SMILES Cc1ccc(CNC(=O)NC[C@@H](CC(C)C)C(=O)NCCCCCCNC(=O)c2ccc(-c3c4nc(c(-c5ccccc5)c5ccc([nH]5)c(-c5ccccc5)c5nc(c(-c6ccccc6)c6ccc3[nH]6)C=C5)C=C4)cc2)s1
REMARK SMILES IDX 21 1 20 2 19 3 17 4 18 5 12 7 11 8 10 9 7 10 8 11 9 13 6 15
REMARK SMILES IDX 5 16 1 17 2 18 3 19 77 20 4 21 13 22 14 23 15 24 16 25 22 26
REMARK SMILES IDX 23 27 24 28 25 29 26 30 27 31 28 33 29 34 30 35 76 36 31 37
REMARK SMILES IDX 75 38 32 39 33 40 34 41 69 42 35 43 74 44 68 45 70 46 36 47
REMARK SMILES IDX 73 48 67 49 66 50 37 52 59 53 44 54 58 55 45 56 48 57 57 58
REMARK SMILES IDX 71 59 46 60 47 61 56 63 72 64 49 65 38 66 39 67 43 68 40 69
REMARK SMILES IDX 42 70 41 71 60 72 61 73 65 74 62 75 64 76 63 77 50 78 51 79
REMARK SMILES IDX 55 80 52 81 54 82 53 83
REMARK H PARENT 19 6 7 12 10 14 26 32 70 51 48 62
REMARK Flexibility Score: inf
ROOT
ATOM      1  C   UNL A   1      46.976  26.951  30.995  1.00  0.00     0.021 C 
ENDROOT
BRANCH   1   2
ATOM      2  C   UNL A   1      46.306  27.291  29.673  1.00  0.00     0.116 C 
BRANCH   2   3
ATOM      3  N   UNL A   1      46.986  26.725  28.528  1.00  0.00    -0.356 N 
ATOM      4  C   UNL A   1      46.551  25.870  27.566  1.00  0.00     0.224 C 
ATOM      5  O   UNL A   1      47.295  25.700  26.595  1.00  0.00    -0.275 OA
ATOM      6  H   UNL A   1      47.923  27.008  28.428  1.00  0.00     0.163 HD
BRANCH   4   7
ATOM      7  C   UNL A   1      45.206  25.148  27.626  1.00  0.00     0.098 C 
BRANCH   7   8
ATOM      8  C   UNL A   1      44.446  25.136  26.293  1.00  0.00     0.131 C 
BRANCH   8   9
ATOM      9  N   UNL A   1      44.966  24.158  25.353  1.00  0.00    -0.337 N 
ATOM     10  N   UNL A   1      43.074  22.950  24.625  1.00  0.00    -0.333 N 
ATOM     11  C   UNL A   1      44.343  23.346  24.485  1.00  0.00     0.315 C 
ATOM     12  H   UNL A   1      42.669  22.626  23.788  1.00  0.00     0.165 HD
ATOM     13  O   UNL A   1      44.978  22.950  23.507  1.00  0.00    -0.249 OA
ATOM     14  H   UNL A   1      45.947  24.078  25.352  1.00  0.00     0.165 HD
BRANCH  10  15
ATOM     15  C   UNL A   1      42.173  22.902  25.757  1.00  0.00     0.164 C 
BRANCH  15  16
ATOM     16  C   UNL A   1      42.097  21.509  26.317  1.00  0.00     0.024 A 
ATOM     17  C   UNL A   1      43.029  17.738  26.935  1.00  0.00     0.056 C 
ATOM     18  C   UNL A   1      42.473  19.120  26.867  1.00  0.00     0.002 A 
ATOM     19  C   UNL A   1      41.457  19.672  27.615  1.00  0.00     0.015 A 
ATOM     20  S   UNL A   1      43.110  20.244  25.747  1.00  0.00    -0.144 S 
ATOM     21  C   UNL A   1      41.239  21.044  27.298  1.00  0.00     0.017 A 
ENDBRANCH  15  16
ENDBRANCH  10  15
ENDBRANCH   8   9
ENDBRANCH   7   8
BRANCH   7  22
ATOM     22  C   UNL A   1      45.236  23.781  28.358  1.00  0.00     0.018 C 
BRANCH  22  23
ATOM     23  C   UNL A   1      44.193  23.533  29.468  1.00  0.00    -0.017 C 
ATOM     24  C   UNL A   1      44.533  24.295  30.756  1.00  0.00     0.007 C 
ATOM     25  C   UNL A   1      42.790  23.958  29.021  1.00  0.00     0.007 C 
ENDBRANCH  22  23
ENDBRANCH   7  22
ENDBRANCH   4   7
ENDBRANCH   2   3
ENDBRANCH   1   2
BRANCH   1  26
ATOM     26  C   UNL A   1      48.067  25.882  30.896  1.00  0.00     0.002 C 
BRANCH  26  27
ATOM     27  C   UNL A   1      48.877  25.626  32.173  1.00  0.00     0.002 C 
BRANCH  27  28
ATOM     28  C   UNL A   1      48.065  25.381  33.448  1.00  0.00     0.021 C 
BRANCH  28  29
ATOM     29  C   UNL A   1      48.257  26.413  34.548  1.00  0.00     0.116 C 
BRANCH  29  30
ATOM     30  N   UNL A   1      47.845  25.927  35.851  1.00  0.00    -0.352 N 
ATOM     31  C   UNL A   1      46.648  26.097  36.501  1.00  0.00     0.251 C 
ATOM     32  H   UNL A   1      48.519  25.399  36.338  1.00  0.00     0.163 HD
ATOM     33  O   UNL A   1      46.519  25.731  37.662  1.00  0.00    -0.269 OA
BRANCH  31  34
ATOM     34  C   UNL A   1      45.521  26.750  35.800  1.00  0.00     0.039 A 
ATOM     35  C   UNL A   1      45.684  28.061  35.347  1.00  0.00     0.014 A 
ATOM     36  C   UNL A   1      44.312  26.080  35.599  1.00  0.00     0.014 A 
ATOM     37  C   UNL A   1      44.644  28.687  34.660  1.00  0.00     0.010 A 
ATOM     38  C   UNL A   1      43.310  26.675  34.840  1.00  0.00     0.010 A 
ATOM     39  C   UNL A   1      43.456  27.992  34.382  1.00  0.00    -0.014 A 
BRANCH  39  40
ATOM     40  C   UNL A   1      42.338  28.642  33.655  1.00  0.00     0.031 A 
ATOM     41  C   UNL A   1      41.407  29.570  34.388  1.00  0.00     0.074 A 
ATOM     42  C   UNL A   1      42.136  28.370  32.352  1.00  0.00     0.049 A 
ATOM     43  N   UNL A   1      40.353  30.205  33.942  1.00  0.00    -0.248 NA
ATOM     44  C   UNL A   1      41.683  29.794  35.817  1.00  0.00     0.031 C 
ATOM     45  C   UNL A   1      42.951  27.469  31.535  1.00  0.00     0.029 A 
ATOM     46  N   UNL A   1      41.178  28.831  31.484  1.00  0.00    -0.354 N 
ATOM     47  C   UNL A   1      39.835  30.887  35.037  1.00  0.00     0.074 A 
ATOM     48  C   UNL A   1      40.650  30.539  36.178  1.00  0.00     0.031 C 
ATOM     49  C   UNL A   1      42.481  27.472  30.277  1.00  0.00     0.029 A 
ATOM     50  C   UNL A   1      41.308  28.338  30.208  1.00  0.00     0.049 A 
ATOM     51  H   UNL A   1      40.465  29.456  31.750  1.00  0.00     0.167 HD
ATOM     52  C   UNL A   1      38.790  31.749  35.085  1.00  0.00     0.031 A 
ATOM     53  C   UNL A   1      40.565  28.558  29.109  1.00  0.00     0.031 A 
ATOM     54  C   UNL A   1      37.983  32.097  33.947  1.00  0.00     0.049 A 
ATOM     55  C   UNL A   1      39.389  29.492  29.194  1.00  0.00     0.074 A 
ATOM     56  C   UNL A   1      36.927  32.989  33.881  1.00  0.00     0.029 A 
ATOM     57  N   UNL A   1      38.142  31.568  32.676  1.00  0.00    -0.354 N 
ATOM     58  N   UNL A   1      38.946  30.175  30.223  1.00  0.00    -0.248 NA
ATOM     59  C   UNL A   1      38.617  29.695  27.960  1.00  0.00     0.031 C 
ATOM     60  C   UNL A   1      36.410  32.955  32.582  1.00  0.00     0.029 A 
ATOM     61  C   UNL A   1      37.189  32.096  31.822  1.00  0.00     0.049 A 
ATOM     62  H   UNL A   1      38.831  30.913  32.419  1.00  0.00     0.167 HD
ATOM     63  C   UNL A   1      37.872  30.919  29.750  1.00  0.00     0.074 A 
ATOM     64  C   UNL A   1      37.738  30.610  28.341  1.00  0.00     0.031 C 
ATOM     65  C   UNL A   1      37.071  31.783  30.421  1.00  0.00     0.031 A 
BRANCH  52  66
ATOM     66  C   UNL A   1      38.462  32.361  36.420  1.00  0.00    -0.014 A 
ATOM     67  C   UNL A   1      37.717  31.660  37.381  1.00  0.00     0.009 A 
ATOM     68  C   UNL A   1      38.918  33.652  36.727  1.00  0.00     0.009 A 
ATOM     69  C   UNL A   1      37.395  32.257  38.603  1.00  0.00     0.001 A 
ATOM     70  C   UNL A   1      38.626  34.233  37.963  1.00  0.00     0.001 A 
ATOM     71  C   UNL A   1      37.854  33.540  38.895  1.00  0.00     0.000 A 
ENDBRANCH  52  66
BRANCH  53  72
ATOM     72  C   UNL A   1      40.923  27.907  27.821  1.00  0.00    -0.014 A 
ATOM     73  C   UNL A   1      41.760  28.558  26.901  1.00  0.00     0.009 A 
ATOM     74  C   UNL A   1      40.419  26.637  27.496  1.00  0.00     0.009 A 
ATOM     75  C   UNL A   1      42.059  27.966  25.672  1.00  0.00     0.001 A 
ATOM     76  C   UNL A   1      40.747  26.034  26.279  1.00  0.00     0.001 A 
ATOM     77  C   UNL A   1      41.556  26.704  25.363  1.00  0.00     0.000 A 
ENDBRANCH  53  72
BRANCH  65  78
ATOM     78  C   UNL A   1      36.015  32.502  29.628  1.00  0.00    -0.014 A 
ATOM     79  C   UNL A   1      36.194  33.822  29.187  1.00  0.00     0.009 A 
ATOM     80  C   UNL A   1      34.833  31.825  29.284  1.00  0.00     0.009 A 
ATOM     81  C   UNL A   1      35.194  34.462  28.452  1.00  0.00     0.001 A 
ATOM     82  C   UNL A   1      33.851  32.455  28.519  1.00  0.00     0.001 A 
ATOM     83  C   UNL A   1      34.027  33.776  28.113  1.00  0.00     0.000 A 
ENDBRANCH  65  78
ENDBRANCH  39  40
ENDBRANCH  31  34
ENDBRANCH  29  30
ENDBRANCH  28  29
ENDBRANCH  27  28
ENDBRANCH  26  27
ENDBRANCH   1  26
TORSDOF 19
ENDMDL
MODEL 3
REMARK VINA RESULT:      -7.8      5.384     10.908
REMARK SMILES Cc1ccc(CNC(=O)NC[C@@H](CC(C)C)C(=O)NCCCCCCNC(=O)c2ccc(-c3c4nc(c(-c5ccccc5)c5ccc([nH]5)c(-c5ccccc5)c5nc(c(-c6ccccc6)c6ccc3[nH]6)C=C5)C=C4)cc2)s1
REMARK SMILES IDX 21 1 20 2 19 3 17 4 18 5 12 7 11 8 10 9 7 10 8 11 9 13 6 15
REMARK SMILES IDX 5 16 1 17 2 18 3 19 77 20 4 21 13 22 14 23 15 24 16 25 22 26
REMARK SMILES IDX 23 27 24 28 25 29 26 30 27 31 28 33 29 34 30 35 76 36 31 37
REMARK SMILES IDX 75 38 32 39 33 40 34 41 69 42 35 43 74 44 68 45 70 46 36 47
REMARK SMILES IDX 73 48 67 49 66 50 37 52 59 53 44 54 58 55 45 56 48 57 57 58
REMARK SMILES IDX 71 59 46 60 47 61 56 63 72 64 49 65 38 66 39 67 43 68 40 69
REMARK SMILES IDX 42 70 41 71 60 72 61 73 65 74 62 75 64 76 63 77 50 78 51 79
REMARK SMILES IDX 55 80 52 81 54 82 53 83
REMARK H PARENT 19 6 7 12 10 14 26 32 70 51 48 62
REMARK Flexibility Score: inf
ROOT
ATOM      1  C   UNL A   1      35.609  29.858  27.742  1.00  0.00     0.021 C 
ENDROOT
BRANCH   1   2
ATOM      2  C   UNL A   1      34.609  29.191  26.811  1.00  0.00     0.116 C 
BRANCH   2   3
ATOM      3  N   UNL A   1      33.374  28.823  27.470  1.00  0.00    -0.356 N 
ATOM      4  C   UNL A   1      32.368  27.998  27.081  1.00  0.00     0.224 C 
ATOM      5  O   UNL A   1      31.517  27.721  27.931  1.00  0.00    -0.275 OA
ATOM      6  H   UNL A   1      33.241  29.241  28.351  1.00  0.00     0.163 HD
BRANCH   4   7
ATOM      7  C   UNL A   1      32.263  27.400  25.680  1.00  0.00     0.098 C 
BRANCH   7   8
ATOM      8  C   UNL A   1      33.226  26.233  25.428  1.00  0.00     0.131 C 
BRANCH   8   9
ATOM      9  N   UNL A   1      33.778  26.235  24.083  1.00  0.00    -0.337 N 
ATOM     10  N   UNL A   1      33.410  24.048  23.274  1.00  0.00    -0.333 N 
ATOM     11  C   UNL A   1      33.677  25.344  23.084  1.00  0.00     0.315 C 
ATOM     12  H   UNL A   1      33.069  23.595  22.469  1.00  0.00     0.165 HD
ATOM     13  O   UNL A   1      33.837  25.749  21.932  1.00  0.00    -0.249 OA
ATOM     14  H   UNL A   1      34.320  27.027  23.867  1.00  0.00     0.165 HD
BRANCH  10  15
ATOM     15  C   UNL A   1      33.520  23.175  24.424  1.00  0.00     0.164 C 
BRANCH  15  16
ATOM     16  C   UNL A   1      34.897  22.580  24.510  1.00  0.00     0.024 A 
ATOM     17  C   UNL A   1      37.709  19.864  24.937  1.00  0.00     0.056 C 
ATOM     18  C   UNL A   1      36.846  21.065  24.752  1.00  0.00     0.002 A 
ATOM     19  C   UNL A   1      37.223  22.348  24.423  1.00  0.00     0.015 A 
ATOM     20  S   UNL A   1      35.153  20.941  24.955  1.00  0.00    -0.144 S 
ATOM     21  C   UNL A   1      36.104  23.220  24.286  1.00  0.00     0.017 A 
ENDBRANCH  15  16
ENDBRANCH  10  15
ENDBRANCH   8   9
ENDBRANCH   7   8
BRANCH   7  22
ATOM     22  C   UNL A   1      30.813  27.151  25.189  1.00  0.00     0.018 C 
BRANCH  22  23
ATOM     23  C   UNL A   1      30.433  27.649  23.778  1.00  0.00    -0.017 C 
ATOM     24  C   UNL A   1      28.939  27.454  23.484  1.00  0.00     0.007 C 
ATOM     25  C   UNL A   1      30.762  29.135  23.602  1.00  0.00     0.007 C 
ENDBRANCH  22  23
ENDBRANCH   7  22
ENDBRANCH   4   7
ENDBRANCH   2   3
ENDBRANCH   1   2
BRANCH   1  26
ATOM     26  C   UNL A   1      35.100  31.138  28.407  1.00  0.00     0.002 C 
BRANCH  26  27
ATOM     27  C   UNL A   1      35.864  31.599  29.655  1.00  0.00     0.002 C 
BRANCH  27  28
ATOM     28  C   UNL A   1      35.078  32.462  30.645  1.00  0.00     0.021 C 
BRANCH  28  29
ATOM     29  C   UNL A   1      35.292  33.963  30.511  1.00  0.00     0.116 C 
BRANCH  29  30
ATOM     30  N   UNL A   1      35.713  34.581  31.753  1.00  0.00    -0.352 N 
ATOM     31  C   UNL A   1      36.907  34.463  32.420  1.00  0.00     0.251 C 
ATOM     32  H   UNL A   1      35.048  35.171  32.178  1.00  0.00     0.163 HD
ATOM     33  O   UNL A   1      37.043  34.952  33.533  1.00  0.00    -0.269 OA
BRANCH  31  34
ATOM     34  C   UNL A   1      38.022  33.719  31.795  1.00  0.00     0.039 A 
ATOM     35  C   UNL A   1      38.470  34.119  30.534  1.00  0.00     0.014 A 
ATOM     36  C   UNL A   1      38.615  32.631  32.440  1.00  0.00     0.014 A 
ATOM     37  C   UNL A   1      39.538  33.448  29.937  1.00  0.00     0.010 A 
ATOM     38  C   UNL A   1      39.732  32.020  31.882  1.00  0.00     0.010 A 
ATOM     39  C   UNL A   1      40.191  32.407  30.615  1.00  0.00    -0.014 A 
BRANCH  39  40
ATOM     40  C   UNL A   1      41.327  31.681  29.995  1.00  0.00     0.031 A 
ATOM     41  C   UNL A   1      42.669  32.352  29.877  1.00  0.00     0.074 A 
ATOM     42  C   UNL A   1      41.145  30.440  29.506  1.00  0.00     0.049 A 
ATOM     43  N   UNL A   1      43.773  31.902  29.336  1.00  0.00    -0.248 NA
ATOM     44  C   UNL A   1      42.778  33.718  30.414  1.00  0.00     0.031 C 
ATOM     45  C   UNL A   1      39.887  29.690  29.536  1.00  0.00     0.029 A 
ATOM     46  N   UNL A   1      42.024  29.588  28.888  1.00  0.00    -0.354 N 
ATOM     47  C   UNL A   1      44.697  32.933  29.454  1.00  0.00     0.074 A 
ATOM     48  C   UNL A   1      44.009  34.052  30.058  1.00  0.00     0.031 C 
ATOM     49  C   UNL A   1      40.087  28.477  28.996  1.00  0.00     0.029 A 
ATOM     50  C   UNL A   1      41.470  28.379  28.542  1.00  0.00     0.049 A 
ATOM     51  H   UNL A   1      42.965  29.820  28.709  1.00  0.00     0.167 HD
ATOM     52  C   UNL A   1      46.009  32.943  29.117  1.00  0.00     0.031 A 
ATOM     53  C   UNL A   1      42.016  27.314  27.928  1.00  0.00     0.031 A 
ATOM     54  C   UNL A   1      46.693  31.827  28.520  1.00  0.00     0.049 A 
ATOM     55  C   UNL A   1      43.465  27.360  27.530  1.00  0.00     0.074 A 
ATOM     56  C   UNL A   1      48.029  31.720  28.176  1.00  0.00     0.029 A 
ATOM     57  N   UNL A   1      46.093  30.626  28.177  1.00  0.00    -0.354 N 
ATOM     58  N   UNL A   1      44.341  28.321  27.702  1.00  0.00    -0.248 NA
ATOM     59  C   UNL A   1      44.005  26.165  26.865  1.00  0.00     0.031 C 
ATOM     60  C   UNL A   1      48.224  30.474  27.571  1.00  0.00     0.029 A 
ATOM     61  C   UNL A   1      47.025  29.779  27.604  1.00  0.00     0.049 A 
ATOM     62  H   UNL A   1      45.143  30.408  28.320  1.00  0.00     0.167 HD
ATOM     63  C   UNL A   1      45.543  27.832  27.205  1.00  0.00     0.074 A 
ATOM     64  C   UNL A   1      45.285  26.486  26.736  1.00  0.00     0.031 C 
ATOM     65  C   UNL A   1      46.753  28.440  27.147  1.00  0.00     0.031 A 
BRANCH  52  66
ATOM     66  C   UNL A   1      46.780  34.208  29.380  1.00  0.00    -0.014 A 
ATOM     67  C   UNL A   1      46.915  35.198  28.394  1.00  0.00     0.009 A 
ATOM     68  C   UNL A   1      47.367  34.420  30.637  1.00  0.00     0.009 A 
ATOM     69  C   UNL A   1      47.661  36.353  28.645  1.00  0.00     0.001 A 
ATOM     70  C   UNL A   1      48.082  35.591  30.897  1.00  0.00     0.001 A 
ATOM     71  C   UNL A   1      48.240  36.550  29.898  1.00  0.00     0.000 A 
ENDBRANCH  52  66
BRANCH  53  72
ATOM     72  C   UNL A   1      41.198  26.098  27.672  1.00  0.00    -0.014 A 
ATOM     73  C   UNL A   1      40.230  26.090  26.657  1.00  0.00     0.009 A 
ATOM     74  C   UNL A   1      41.371  24.942  28.452  1.00  0.00     0.009 A 
ATOM     75  C   UNL A   1      39.430  24.965  26.447  1.00  0.00     0.001 A 
ATOM     76  C   UNL A   1      40.591  23.806  28.218  1.00  0.00     0.001 A 
ATOM     77  C   UNL A   1      39.614  23.822  27.224  1.00  0.00     0.000 A 
ENDBRANCH  53  72
BRANCH  65  78
ATOM     78  C   UNL A   1      47.904  27.636  26.607  1.00  0.00    -0.014 A 
ATOM     79  C   UNL A   1      48.237  27.646  25.245  1.00  0.00     0.009 A 
ATOM     80  C   UNL A   1      48.693  26.884  27.493  1.00  0.00     0.009 A 
ATOM     81  C   UNL A   1      49.312  26.889  24.774  1.00  0.00     0.001 A 
ATOM     82  C   UNL A   1      49.789  26.156  27.027  1.00  0.00     0.001 A 
ATOM     83  C   UNL A   1      50.090  26.150  25.666  1.00  0.00     0.000 A 
ENDBRANCH  65  78
ENDBRANCH  39  40
ENDBRANCH  31  34
ENDBRANCH  29  30
ENDBRANCH  28  29
ENDBRANCH  27  28
ENDBRANCH  26  27
ENDBRANCH   1  26
TORSDOF 19
ENDMDL
