MODEL 1
REMARK VINA RESULT:     -10.1      0.000      0.000
REMARK SMILES O=C(N[C@H](CCBr)C(=O)NCCCCCCNC(=O)c1ccc(-c2c3nc(c(-c4ccccc4)c4ccc([nH]4)c(-c4ccccc4)c4nc(c(-c5ccccc5)c5ccc2[nH]5)C=C4)C=C3)cc1)OCc1ccccc1
REMARK SMILES IDX 12 1 11 2 10 3 8 4 9 5 4 7 3 8 1 9 2 10 68 12 69 13 70 14
REMARK SMILES IDX 71 15 75 16 72 17 74 18 73 19 5 20 6 21 7 22 13 23 14 24
REMARK SMILES IDX 15 25 16 26 17 27 18 28 19 30 20 31 21 32 67 33 22 34 66 35
REMARK SMILES IDX 23 36 24 37 25 38 60 39 26 40 65 41 59 42 61 43 27 44 64 45
REMARK SMILES IDX 58 46 57 47 28 49 50 50 35 51 49 52 36 53 39 54 48 55 62 56
REMARK SMILES IDX 37 57 38 58 47 60 63 61 40 62 29 63 30 64 34 65 31 66 33 67
REMARK SMILES IDX 32 68 51 69 52 70 56 71 53 72 55 73 54 74 41 75 42 76 46 77
REMARK SMILES IDX 43 78 45 79 44 80
REMARK H PARENT 10 6 3 11 17 29 61 48 39 59
REMARK Flexibility Score: inf
ROOT
ATOM      1  C   UNL A   1      32.657  28.454  26.948  1.00  0.00     0.021 C 
ENDROOT
BRANCH   1   2
ATOM      2  C   UNL A   1      33.829  27.972  26.087  1.00  0.00     0.116 C 
BRANCH   2   3
ATOM      3  N   UNL A   1      34.013  28.869  24.970  1.00  0.00    -0.354 N 
ATOM      4  C   UNL A   1      33.858  28.519  23.661  1.00  0.00     0.242 C 
ATOM      5  O   UNL A   1      34.790  28.756  22.888  1.00  0.00    -0.273 OA
ATOM      6  H   UNL A   1      34.268  29.800  25.167  1.00  0.00     0.163 HD
BRANCH   4   7
ATOM      7  C   UNL A   1      32.590  27.780  23.189  1.00  0.00     0.175 C 
BRANCH   7   8
ATOM      8  N   UNL A   1      32.730  27.088  21.916  1.00  0.00    -0.310 N 
ATOM      9  O   UNL A   1      33.052  25.517  20.390  1.00  0.00    -0.225 OA
ATOM     10  C   UNL A   1      32.965  25.782  21.588  1.00  0.00     0.408 C 
ATOM     11  H   UNL A   1      32.636  27.678  21.135  1.00  0.00     0.167 HD
BRANCH  10  12
ATOM     12  O   UNL A   1      33.069  24.779  22.497  1.00  0.00    -0.445 OA
BRANCH  12  13
ATOM     13  C   UNL A   1      33.446  24.749  23.897  1.00  0.00     0.270 C 
BRANCH  13  14
ATOM     14  C   UNL A   1      34.816  24.167  24.153  1.00  0.00    -0.011 A 
ATOM     15  C   UNL A   1      35.426  23.350  23.182  1.00  0.00     0.007 A 
ATOM     16  C   UNL A   1      35.448  24.334  25.391  1.00  0.00     0.007 A 
ATOM     17  C   UNL A   1      36.556  22.599  23.503  1.00  0.00     0.000 A 
ATOM     18  C   UNL A   1      36.599  23.607  25.694  1.00  0.00     0.000 A 
ATOM     19  C   UNL A   1      37.133  22.717  24.764  1.00  0.00     0.000 A 
ENDBRANCH  13  14
ENDBRANCH  12  13
ENDBRANCH  10  12
ENDBRANCH   7   8
BRANCH   7  20
ATOM     20  C   UNL A   1      31.208  28.414  23.397  1.00  0.00     0.047 C 
BRANCH  20  21
ATOM     21  C   UNL A   1      30.174  28.303  22.299  1.00  0.00     0.083 C 
ATOM     22  Br  UNL A   1      28.510  29.172  22.810  1.00  0.00    -0.093 Br
ENDBRANCH  20  21
ENDBRANCH   7  20
ENDBRANCH   4   7
ENDBRANCH   2   3
ENDBRANCH   1   2
BRANCH   1  23
ATOM     23  C   UNL A   1      32.607  29.967  27.183  1.00  0.00     0.002 C 
BRANCH  23  24
ATOM     24  C   UNL A   1      31.490  30.691  26.434  1.00  0.00     0.002 C 
BRANCH  24  25
ATOM     25  C   UNL A   1      31.473  32.206  26.636  1.00  0.00     0.021 C 
BRANCH  25  26
ATOM     26  C   UNL A   1      32.722  32.763  27.306  1.00  0.00     0.116 C 
BRANCH  26  27
ATOM     27  N   UNL A   1      32.515  34.114  27.798  1.00  0.00    -0.352 N 
ATOM     28  C   UNL A   1      33.208  34.779  28.778  1.00  0.00     0.251 C 
ATOM     29  H   UNL A   1      31.783  34.617  27.374  1.00  0.00     0.163 HD
ATOM     30  O   UNL A   1      32.786  35.830  29.242  1.00  0.00    -0.269 OA
BRANCH  28  31
ATOM     31  C   UNL A   1      34.466  34.192  29.281  1.00  0.00     0.039 A 
ATOM     32  C   UNL A   1      34.425  33.372  30.409  1.00  0.00     0.014 A 
ATOM     33  C   UNL A   1      35.674  34.435  28.620  1.00  0.00     0.014 A 
ATOM     34  C   UNL A   1      35.596  32.755  30.848  1.00  0.00     0.010 A 
ATOM     35  C   UNL A   1      36.821  33.755  29.009  1.00  0.00     0.010 A 
ATOM     36  C   UNL A   1      36.796  32.919  30.136  1.00  0.00    -0.014 A 
BRANCH  36  37
ATOM     37  C   UNL A   1      38.040  32.234  30.567  1.00  0.00     0.031 A 
ATOM     38  C   UNL A   1      38.902  32.844  31.637  1.00  0.00     0.074 A 
ATOM     39  C   UNL A   1      38.414  31.090  29.963  1.00  0.00     0.049 A 
ATOM     40  N   UNL A   1      40.036  32.413  32.127  1.00  0.00    -0.248 NA
ATOM     41  C   UNL A   1      38.442  34.117  32.219  1.00  0.00     0.031 C 
ATOM     42  C   UNL A   1      37.681  30.419  28.887  1.00  0.00     0.029 A 
ATOM     43  N   UNL A   1      39.507  30.288  30.172  1.00  0.00    -0.354 N 
ATOM     44  C   UNL A   1      40.429  33.366  33.060  1.00  0.00     0.074 A 
ATOM     45  C   UNL A   1      39.444  34.423  33.027  1.00  0.00     0.031 C 
ATOM     46  C   UNL A   1      38.329  29.291  28.553  1.00  0.00     0.029 A 
ATOM     47  C   UNL A   1      39.541  29.183  29.357  1.00  0.00     0.049 A 
ATOM     48  H   UNL A   1      40.202  30.487  30.841  1.00  0.00     0.167 HD
ATOM     49  C   UNL A   1      41.503  33.350  33.885  1.00  0.00     0.031 A 
ATOM     50  C   UNL A   1      40.452  28.194  29.265  1.00  0.00     0.031 A 
ATOM     51  C   UNL A   1      42.479  32.295  33.917  1.00  0.00     0.049 A 
ATOM     52  C   UNL A   1      41.650  28.216  30.172  1.00  0.00     0.074 A 
ATOM     53  C   UNL A   1      43.575  32.162  34.751  1.00  0.00     0.029 A 
ATOM     54  N   UNL A   1      42.482  31.196  33.071  1.00  0.00    -0.354 N 
ATOM     55  N   UNL A   1      41.969  29.087  31.100  1.00  0.00    -0.248 NA
ATOM     56  C   UNL A   1      42.608  27.111  30.028  1.00  0.00     0.031 C 
ATOM     57  C   UNL A   1      44.276  31.013  34.369  1.00  0.00     0.029 A 
ATOM     58  C   UNL A   1      43.577  30.395  33.344  1.00  0.00     0.049 A 
ATOM     59  H   UNL A   1      41.805  31.013  32.381  1.00  0.00     0.167 HD
ATOM     60  C   UNL A   1      43.146  28.618  31.670  1.00  0.00     0.074 A 
ATOM     61  C   UNL A   1      43.473  27.379  30.995  1.00  0.00     0.031 C 
ATOM     62  C   UNL A   1      43.889  29.164  32.664  1.00  0.00     0.031 A 
BRANCH  49  63
ATOM     63  C   UNL A   1      41.680  34.521  34.813  1.00  0.00    -0.014 A 
ATOM     64  C   UNL A   1      41.147  34.512  36.112  1.00  0.00     0.009 A 
ATOM     65  C   UNL A   1      42.420  35.638  34.393  1.00  0.00     0.009 A 
ATOM     66  C   UNL A   1      41.318  35.611  36.957  1.00  0.00     0.001 A 
ATOM     67  C   UNL A   1      42.619  36.721  35.252  1.00  0.00     0.001 A 
ATOM     68  C   UNL A   1      42.059  36.711  36.528  1.00  0.00     0.000 A 
ENDBRANCH  49  63
BRANCH  50  69
ATOM     69  C   UNL A   1      40.261  27.094  28.283  1.00  0.00    -0.014 A 
ATOM     70  C   UNL A   1      39.527  25.949  28.626  1.00  0.00     0.009 A 
ATOM     71  C   UNL A   1      40.822  27.179  26.998  1.00  0.00     0.009 A 
ATOM     72  C   UNL A   1      39.384  24.898  27.717  1.00  0.00     0.001 A 
ATOM     73  C   UNL A   1      40.649  26.141  26.079  1.00  0.00     0.001 A 
ATOM     74  C   UNL A   1      39.941  24.997  26.443  1.00  0.00     0.000 A 
ENDBRANCH  50  69
BRANCH  62  75
ATOM     75  C   UNL A   1      45.106  28.403  33.113  1.00  0.00    -0.014 A 
ATOM     76  C   UNL A   1      46.370  28.646  32.554  1.00  0.00     0.009 A 
ATOM     77  C   UNL A   1      44.988  27.457  34.143  1.00  0.00     0.009 A 
ATOM     78  C   UNL A   1      47.485  27.930  32.994  1.00  0.00     0.001 A 
ATOM     79  C   UNL A   1      46.110  26.767  34.604  1.00  0.00     0.001 A 
ATOM     80  C   UNL A   1      47.355  26.997  34.022  1.00  0.00     0.000 A 
ENDBRANCH  62  75
ENDBRANCH  36  37
ENDBRANCH  28  31
ENDBRANCH  26  27
ENDBRANCH  25  26
ENDBRANCH  24  25
ENDBRANCH  23  24
ENDBRANCH   1  23
TORSDOF 19
ENDMDL
MODEL 2
REMARK VINA RESULT:     -10.0      0.557      5.960
REMARK SMILES O=C(N[C@H](CCBr)C(=O)NCCCCCCNC(=O)c1ccc(-c2c3nc(c(-c4ccccc4)c4ccc([nH]4)c(-c4ccccc4)c4nc(c(-c5ccccc5)c5ccc2[nH]5)C=C4)C=C3)cc1)OCc1ccccc1
REMARK SMILES IDX 12 1 11 2 10 3 8 4 9 5 4 7 3 8 1 9 2 10 68 12 69 13 70 14
REMARK SMILES IDX 71 15 75 16 72 17 74 18 73 19 5 20 6 21 7 22 13 23 14 24
REMARK SMILES IDX 15 25 16 26 17 27 18 28 19 30 20 31 21 32 67 33 22 34 66 35
REMARK SMILES IDX 23 36 24 37 25 38 60 39 26 40 65 41 59 42 61 43 27 44 64 45
REMARK SMILES IDX 58 46 57 47 28 49 50 50 35 51 49 52 36 53 39 54 48 55 62 56
REMARK SMILES IDX 37 57 38 58 47 60 63 61 40 62 29 63 30 64 34 65 31 66 33 67
REMARK SMILES IDX 32 68 51 69 52 70 56 71 53 72 55 73 54 74 41 75 42 76 46 77
REMARK SMILES IDX 43 78 45 79 44 80
REMARK H PARENT 10 6 3 11 17 29 61 48 39 59
REMARK Flexibility Score: inf
ROOT
ATOM      1  C   UNL A   1      33.630  28.568  26.826  1.00  0.00     0.021 C 
ENDROOT
BRANCH   1   2
ATOM      2  C   UNL A   1      33.335  27.884  25.488  1.00  0.00     0.116 C 
BRANCH   2   3
ATOM      3  N   UNL A   1      33.147  28.882  24.462  1.00  0.00    -0.354 N 
ATOM      4  C   UNL A   1      32.911  28.607  23.147  1.00  0.00     0.242 C 
ATOM      5  O   UNL A   1      33.647  29.133  22.307  1.00  0.00    -0.273 OA
ATOM      6  H   UNL A   1      33.192  29.829  24.730  1.00  0.00     0.163 HD
BRANCH   4   7
ATOM      7  C   UNL A   1      31.809  27.609  22.737  1.00  0.00     0.175 C 
BRANCH   7   8
ATOM      8  N   UNL A   1      32.123  26.808  21.563  1.00  0.00    -0.310 N 
ATOM      9  O   UNL A   1      33.029  25.310  20.209  1.00  0.00    -0.225 OA
ATOM     10  C   UNL A   1      32.981  25.766  21.350  1.00  0.00     0.408 C 
ATOM     11  H   UNL A   1      31.615  27.069  20.761  1.00  0.00     0.167 HD
BRANCH  10  12
ATOM     12  O   UNL A   1      33.739  25.198  22.323  1.00  0.00    -0.445 OA
BRANCH  12  13
ATOM     13  C   UNL A   1      33.944  23.825  22.741  1.00  0.00     0.270 C 
BRANCH  13  14
ATOM     14  C   UNL A   1      35.131  23.631  23.656  1.00  0.00    -0.011 A 
ATOM     15  C   UNL A   1      36.163  22.748  23.290  1.00  0.00     0.007 A 
ATOM     16  C   UNL A   1      35.170  24.233  24.918  1.00  0.00     0.007 A 
ATOM     17  C   UNL A   1      37.123  22.360  24.224  1.00  0.00     0.000 A 
ATOM     18  C   UNL A   1      36.153  23.869  25.838  1.00  0.00     0.000 A 
ATOM     19  C   UNL A   1      37.107  22.909  25.504  1.00  0.00     0.000 A 
ENDBRANCH  13  14
ENDBRANCH  12  13
ENDBRANCH  10  12
ENDBRANCH   7   8
BRANCH   7  20
ATOM     20  C   UNL A   1      30.332  28.014  22.830  1.00  0.00     0.047 C 
BRANCH  20  21
ATOM     21  C   UNL A   1      29.963  29.479  22.743  1.00  0.00     0.083 C 
ATOM     22  Br  UNL A   1      28.046  29.708  22.506  1.00  0.00    -0.093 Br
ENDBRANCH  20  21
ENDBRANCH   7  20
ENDBRANCH   4   7
ENDBRANCH   2   3
ENDBRANCH   1   2
BRANCH   1  23
ATOM     23  C   UNL A   1      33.305  30.064  26.873  1.00  0.00     0.002 C 
BRANCH  23  24
ATOM     24  C   UNL A   1      31.812  30.391  26.865  1.00  0.00     0.002 C 
BRANCH  24  25
ATOM     25  C   UNL A   1      31.494  31.884  26.945  1.00  0.00     0.021 C 
BRANCH  25  26
ATOM     26  C   UNL A   1      32.719  32.789  26.931  1.00  0.00     0.116 C 
BRANCH  26  27
ATOM     27  N   UNL A   1      32.490  34.021  27.665  1.00  0.00    -0.352 N 
ATOM     28  C   UNL A   1      33.168  34.501  28.757  1.00  0.00     0.251 C 
ATOM     29  H   UNL A   1      31.752  34.585  27.337  1.00  0.00     0.163 HD
ATOM     30  O   UNL A   1      32.728  35.441  29.405  1.00  0.00    -0.269 OA
BRANCH  28  31
ATOM     31  C   UNL A   1      34.432  33.849  29.151  1.00  0.00     0.039 A 
ATOM     32  C   UNL A   1      35.621  34.262  28.549  1.00  0.00     0.014 A 
ATOM     33  C   UNL A   1      34.438  32.850  30.130  1.00  0.00     0.014 A 
ATOM     34  C   UNL A   1      36.829  33.702  28.966  1.00  0.00     0.010 A 
ATOM     35  C   UNL A   1      35.648  32.355  30.601  1.00  0.00     0.010 A 
ATOM     36  C   UNL A   1      36.854  32.766  30.014  1.00  0.00    -0.014 A 
BRANCH  36  37
ATOM     37  C   UNL A   1      38.135  32.196  30.497  1.00  0.00     0.031 A 
ATOM     38  C   UNL A   1      38.655  30.913  29.911  1.00  0.00     0.074 A 
ATOM     39  C   UNL A   1      38.804  32.808  31.493  1.00  0.00     0.049 A 
ATOM     40  N   UNL A   1      39.737  30.243  30.220  1.00  0.00    -0.248 NA
ATOM     41  C   UNL A   1      37.844  30.286  28.853  1.00  0.00     0.031 C 
ATOM     42  C   UNL A   1      38.383  34.037  32.168  1.00  0.00     0.029 A 
ATOM     43  N   UNL A   1      39.983  32.476  32.110  1.00  0.00    -0.354 N 
ATOM     44  C   UNL A   1      39.727  29.115  29.408  1.00  0.00     0.074 A 
ATOM     45  C   UNL A   1      38.506  29.161  28.635  1.00  0.00     0.031 C 
ATOM     46  C   UNL A   1      39.307  34.374  33.082  1.00  0.00     0.029 A 
ATOM     47  C   UNL A   1      40.359  33.363  33.090  1.00  0.00     0.049 A 
ATOM     48  H   UNL A   1      40.510  31.678  31.875  1.00  0.00     0.167 HD
ATOM     49  C   UNL A   1      40.660  28.141  29.301  1.00  0.00     0.031 A 
ATOM     50  C   UNL A   1      41.430  33.359  33.907  1.00  0.00     0.031 A 
ATOM     51  C   UNL A   1      41.874  28.100  30.070  1.00  0.00     0.049 A 
ATOM     52  C   UNL A   1      42.437  32.249  33.788  1.00  0.00     0.074 A 
ATOM     53  C   UNL A   1      42.908  27.183  30.000  1.00  0.00     0.029 A 
ATOM     54  N   UNL A   1      42.215  29.013  31.057  1.00  0.00    -0.354 N 
ATOM     55  N   UNL A   1      42.449  31.229  32.964  1.00  0.00    -0.248 NA
ATOM     56  C   UNL A   1      43.585  32.298  34.704  1.00  0.00     0.031 C 
ATOM     57  C   UNL A   1      43.845  27.506  30.986  1.00  0.00     0.029 A 
ATOM     58  C   UNL A   1      43.429  28.664  31.623  1.00  0.00     0.049 A 
ATOM     59  H   UNL A   1      41.674  29.794  31.315  1.00  0.00     0.167 HD
ATOM     60  C   UNL A   1      43.619  30.532  33.241  1.00  0.00     0.074 A 
ATOM     61  C   UNL A   1      44.297  31.258  34.296  1.00  0.00     0.031 C 
ATOM     62  C   UNL A   1      44.091  29.396  32.672  1.00  0.00     0.031 A 
BRANCH  49  63
ATOM     63  C   UNL A   1      40.393  27.031  28.321  1.00  0.00    -0.014 A 
ATOM     64  C   UNL A   1      40.955  27.040  27.034  1.00  0.00     0.009 A 
ATOM     65  C   UNL A   1      39.595  25.941  28.703  1.00  0.00     0.009 A 
ATOM     66  C   UNL A   1      40.691  26.002  26.138  1.00  0.00     0.001 A 
ATOM     67  C   UNL A   1      39.360  24.888  27.816  1.00  0.00     0.001 A 
ATOM     68  C   UNL A   1      39.899  24.925  26.531  1.00  0.00     0.000 A 
ENDBRANCH  49  63
BRANCH  50  69
ATOM     69  C   UNL A   1      41.611  34.447  34.905  1.00  0.00    -0.014 A 
ATOM     70  C   UNL A   1      41.126  34.304  36.214  1.00  0.00     0.009 A 
ATOM     71  C   UNL A   1      42.263  35.638  34.550  1.00  0.00     0.009 A 
ATOM     72  C   UNL A   1      41.261  35.343  37.137  1.00  0.00     0.001 A 
ATOM     73  C   UNL A   1      42.427  36.662  35.486  1.00  0.00     0.001 A 
ATOM     74  C   UNL A   1      41.915  36.519  36.774  1.00  0.00     0.000 A 
ENDBRANCH  50  69
BRANCH  62  75
ATOM     75  C   UNL A   1      45.424  28.889  33.148  1.00  0.00    -0.014 A 
ATOM     76  C   UNL A   1      46.625  29.323  32.565  1.00  0.00     0.009 A 
ATOM     77  C   UNL A   1      45.477  27.992  34.226  1.00  0.00     0.009 A 
ATOM     78  C   UNL A   1      47.850  28.840  33.030  1.00  0.00     0.001 A 
ATOM     79  C   UNL A   1      46.704  27.538  34.711  1.00  0.00     0.001 A 
ATOM     80  C   UNL A   1      47.888  27.954  34.107  1.00  0.00     0.000 A 
ENDBRANCH  62  75
ENDBRANCH  36  37
ENDBRANCH  28  31
ENDBRANCH  26  27
ENDBRANCH  25  26
ENDBRANCH  24  25
ENDBRANCH  23  24
ENDBRANCH   1  23
TORSDOF 19
ENDMDL
MODEL 3
REMARK VINA RESULT:      -9.9      1.969      7.033
REMARK SMILES O=C(N[C@H](CCBr)C(=O)NCCCCCCNC(=O)c1ccc(-c2c3nc(c(-c4ccccc4)c4ccc([nH]4)c(-c4ccccc4)c4nc(c(-c5ccccc5)c5ccc2[nH]5)C=C4)C=C3)cc1)OCc1ccccc1
REMARK SMILES IDX 12 1 11 2 10 3 8 4 9 5 4 7 3 8 1 9 2 10 68 12 69 13 70 14
REMARK SMILES IDX 71 15 75 16 72 17 74 18 73 19 5 20 6 21 7 22 13 23 14 24
REMARK SMILES IDX 15 25 16 26 17 27 18 28 19 30 20 31 21 32 67 33 22 34 66 35
REMARK SMILES IDX 23 36 24 37 25 38 60 39 26 40 65 41 59 42 61 43 27 44 64 45
REMARK SMILES IDX 58 46 57 47 28 49 50 50 35 51 49 52 36 53 39 54 48 55 62 56
REMARK SMILES IDX 37 57 38 58 47 60 63 61 40 62 29 63 30 64 34 65 31 66 33 67
REMARK SMILES IDX 32 68 51 69 52 70 56 71 53 72 55 73 54 74 41 75 42 76 46 77
REMARK SMILES IDX 43 78 45 79 44 80
REMARK H PARENT 10 6 3 11 17 29 61 48 39 59
REMARK Flexibility Score: inf
ROOT
ATOM      1  C   UNL A   1      32.518  27.884  27.155  1.00  0.00     0.021 C 
ENDROOT
BRANCH   1   2
ATOM      2  C   UNL A   1      32.997  26.969  26.024  1.00  0.00     0.116 C 
BRANCH   2   3
ATOM      3  N   UNL A   1      32.594  25.609  26.294  1.00  0.00    -0.354 N 
ATOM      4  C   UNL A   1      31.391  25.072  25.940  1.00  0.00     0.242 C 
ATOM      5  O   UNL A   1      30.722  24.528  26.822  1.00  0.00    -0.273 OA
ATOM      6  H   UNL A   1      33.233  25.027  26.766  1.00  0.00     0.163 HD
BRANCH   4   7
ATOM      7  C   UNL A   1      30.857  25.215  24.501  1.00  0.00     0.175 C 
BRANCH   7   8
ATOM      8  N   UNL A   1      29.558  25.862  24.397  1.00  0.00    -0.310 N 
ATOM      9  O   UNL A   1      27.917  27.221  23.798  1.00  0.00    -0.225 OA
ATOM     10  C   UNL A   1      29.089  26.890  23.627  1.00  0.00     0.408 C 
ATOM     11  H   UNL A   1      28.881  25.483  25.002  1.00  0.00     0.167 HD
BRANCH  10  12
ATOM     12  O   UNL A   1      29.826  27.524  22.680  1.00  0.00    -0.445 OA
BRANCH  12  13
ATOM     13  C   UNL A   1      30.473  28.821  22.635  1.00  0.00     0.270 C 
BRANCH  13  14
ATOM     14  C   UNL A   1      29.514  29.984  22.537  1.00  0.00    -0.011 A 
ATOM     15  C   UNL A   1      29.049  30.408  21.278  1.00  0.00     0.007 A 
ATOM     16  C   UNL A   1      29.163  30.723  23.672  1.00  0.00     0.007 A 
ATOM     17  C   UNL A   1      28.383  31.626  21.147  1.00  0.00     0.000 A 
ATOM     18  C   UNL A   1      28.466  31.923  23.540  1.00  0.00     0.000 A 
ATOM     19  C   UNL A   1      28.106  32.390  22.277  1.00  0.00     0.000 A 
ENDBRANCH  13  14
ENDBRANCH  12  13
ENDBRANCH  10  12
ENDBRANCH   7   8
BRANCH   7  20
ATOM     20  C   UNL A   1      31.064  24.080  23.488  1.00  0.00     0.047 C 
BRANCH  20  21
ATOM     21  C   UNL A   1      32.055  22.981  23.806  1.00  0.00     0.083 C 
ATOM     22  Br  UNL A   1      33.859  23.490  23.289  1.00  0.00    -0.093 Br
ENDBRANCH  20  21
ENDBRANCH   7  20
ENDBRANCH   4   7
ENDBRANCH   2   3
ENDBRANCH   1   2
BRANCH   1  23
ATOM     23  C   UNL A   1      31.410  28.867  26.765  1.00  0.00     0.002 C 
BRANCH  23  24
ATOM     24  C   UNL A   1      31.876  30.047  25.913  1.00  0.00     0.002 C 
BRANCH  24  25
ATOM     25  C   UNL A   1      31.586  31.418  26.523  1.00  0.00     0.021 C 
BRANCH  25  26
ATOM     26  C   UNL A   1      32.795  32.090  27.161  1.00  0.00     0.116 C 
BRANCH  26  27
ATOM     27  N   UNL A   1      32.520  33.470  27.521  1.00  0.00    -0.352 N 
ATOM     28  C   UNL A   1      33.185  34.264  28.421  1.00  0.00     0.251 C 
ATOM     29  H   UNL A   1      31.757  33.890  27.061  1.00  0.00     0.163 HD
ATOM     30  O   UNL A   1      32.711  35.332  28.785  1.00  0.00    -0.269 OA
BRANCH  28  31
ATOM     31  C   UNL A   1      34.477  33.798  28.960  1.00  0.00     0.039 A 
ATOM     32  C   UNL A   1      34.485  33.022  30.120  1.00  0.00     0.014 A 
ATOM     33  C   UNL A   1      35.672  34.108  28.302  1.00  0.00     0.014 A 
ATOM     34  C   UNL A   1      35.694  32.516  30.596  1.00  0.00     0.010 A 
ATOM     35  C   UNL A   1      36.863  33.535  28.731  1.00  0.00     0.010 A 
ATOM     36  C   UNL A   1      36.888  32.745  29.890  1.00  0.00    -0.014 A 
BRANCH  36  37
ATOM     37  C   UNL A   1      38.174  32.176  30.361  1.00  0.00     0.031 A 
ATOM     38  C   UNL A   1      38.670  30.872  29.802  1.00  0.00     0.074 A 
ATOM     39  C   UNL A   1      38.870  32.811  31.324  1.00  0.00     0.049 A 
ATOM     40  N   UNL A   1      39.752  30.202  30.107  1.00  0.00    -0.248 NA
ATOM     41  C   UNL A   1      37.830  30.223  28.781  1.00  0.00     0.031 C 
ATOM     42  C   UNL A   1      38.476  34.063  31.972  1.00  0.00     0.029 A 
ATOM     43  N   UNL A   1      40.060  32.486  31.925  1.00  0.00    -0.354 N 
ATOM     44  C   UNL A   1      39.714  29.051  29.328  1.00  0.00     0.074 A 
ATOM     45  C   UNL A   1      38.477  29.086  28.581  1.00  0.00     0.031 C 
ATOM     46  C   UNL A   1      39.422  34.417  32.856  1.00  0.00     0.029 A 
ATOM     47  C   UNL A   1      40.465  33.397  32.870  1.00  0.00     0.049 A 
ATOM     48  H   UNL A   1      40.574  31.676  31.701  1.00  0.00     0.167 HD
ATOM     49  C   UNL A   1      40.636  28.065  29.229  1.00  0.00     0.031 A 
ATOM     50  C   UNL A   1      41.554  33.406  33.663  1.00  0.00     0.031 A 
ATOM     51  C   UNL A   1      41.866  28.035  29.972  1.00  0.00     0.049 A 
ATOM     52  C   UNL A   1      42.548  32.284  33.554  1.00  0.00     0.074 A 
ATOM     53  C   UNL A   1      42.890  27.106  29.906  1.00  0.00     0.029 A 
ATOM     54  N   UNL A   1      42.237  28.973  30.924  1.00  0.00    -0.354 N 
ATOM     55  N   UNL A   1      42.533  31.240  32.761  1.00  0.00    -0.248 NA
ATOM     56  C   UNL A   1      43.717  32.348  34.443  1.00  0.00     0.031 C 
ATOM     57  C   UNL A   1      43.851  27.448  30.862  1.00  0.00     0.029 A 
ATOM     58  C   UNL A   1      43.460  28.629  31.473  1.00  0.00     0.049 A 
ATOM     59  H   UNL A   1      41.709  29.766  31.172  1.00  0.00     0.167 HD
ATOM     60  C   UNL A   1      43.702  30.541  33.032  1.00  0.00     0.074 A 
ATOM     61  C   UNL A   1      44.410  31.290  34.050  1.00  0.00     0.031 C 
ATOM     62  C   UNL A   1      44.152  29.384  32.486  1.00  0.00     0.031 A 
BRANCH  49  63
ATOM     63  C   UNL A   1      40.337  26.929  28.288  1.00  0.00    -0.014 A 
ATOM     64  C   UNL A   1      40.817  26.928  26.968  1.00  0.00     0.009 A 
ATOM     65  C   UNL A   1      39.593  25.827  28.739  1.00  0.00     0.009 A 
ATOM     66  C   UNL A   1      40.524  25.867  26.109  1.00  0.00     0.001 A 
ATOM     67  C   UNL A   1      39.332  24.752  27.888  1.00  0.00     0.001 A 
ATOM     68  C   UNL A   1      39.787  24.777  26.571  1.00  0.00     0.000 A 
ENDBRANCH  49  63
BRANCH  50  69
ATOM     69  C   UNL A   1      41.767  34.521  34.625  1.00  0.00    -0.014 A 
ATOM     70  C   UNL A   1      42.447  35.683  34.231  1.00  0.00     0.009 A 
ATOM     71  C   UNL A   1      41.300  34.424  35.945  1.00  0.00     0.009 A 
ATOM     72  C   UNL A   1      42.683  36.711  35.146  1.00  0.00     0.001 A 
ATOM     73  C   UNL A   1      41.507  35.468  36.849  1.00  0.00     0.001 A 
ATOM     74  C   UNL A   1      42.209  36.605  36.453  1.00  0.00     0.000 A 
ENDBRANCH  50  69
BRANCH  62  75
ATOM     75  C   UNL A   1      45.490  28.878  32.947  1.00  0.00    -0.014 A 
ATOM     76  C   UNL A   1      46.682  29.284  32.326  1.00  0.00     0.009 A 
ATOM     77  C   UNL A   1      45.559  28.011  34.049  1.00  0.00     0.009 A 
ATOM     78  C   UNL A   1      47.912  28.803  32.779  1.00  0.00     0.001 A 
ATOM     79  C   UNL A   1      46.792  27.560  34.521  1.00  0.00     0.001 A 
ATOM     80  C   UNL A   1      47.966  27.947  33.879  1.00  0.00     0.000 A 
ENDBRANCH  62  75
ENDBRANCH  36  37
ENDBRANCH  28  31
ENDBRANCH  26  27
ENDBRANCH  25  26
ENDBRANCH  24  25
ENDBRANCH  23  24
ENDBRANCH   1  23
TORSDOF 19
ENDMDL
