MODEL 1
REMARK VINA RESULT:     -10.6      0.000      0.000
REMARK SMILES C[NH+]1CCC([N@@H+](C)Cc2ccc(C(=O)NCCCCCCNC(=O)c3ccc(-c4c5nc(c(-c6ccccc6)c6ccc([nH]6)c(-c6ccccc6)c6nc(c(-c7ccccc7)c7ccc4[nH]7)C=C6)C=C5)cc3)cn2)CC1
REMARK SMILES IDX 18 1 17 2 16 3 15 4 13 5 14 6 12 8 9 9 10 10 74 11 11 12
REMARK SMILES IDX 73 13 8 14 6 15 7 16 5 18 1 19 2 20 3 21 76 22 4 24 75 25
REMARK SMILES IDX 19 26 20 27 21 28 22 29 23 30 24 32 25 33 26 34 72 35 27 36
REMARK SMILES IDX 71 37 28 38 29 39 30 40 65 41 31 42 70 43 64 44 66 45 32 46
REMARK SMILES IDX 69 47 63 48 62 49 33 51 55 52 40 53 54 54 41 55 44 56 53 57
REMARK SMILES IDX 67 58 42 59 43 60 52 62 68 63 45 64 34 65 35 66 39 67 36 68
REMARK SMILES IDX 38 69 37 70 56 71 57 72 61 73 58 74 60 75 59 76 46 77 47 78
REMARK SMILES IDX 51 79 48 80 50 81 49 82
REMARK H PARENT 15 7 6 17 2 23 22 31 66 50 44 61
REMARK Flexibility Score: inf
ROOT
ATOM      1  C   UNL A   1      32.907  29.992  25.925  1.00  0.00     0.002 C 
ENDROOT
BRANCH   1   2
ATOM      2  C   UNL A   1      33.066  28.740  25.047  1.00  0.00     0.021 C 
BRANCH   2   3
ATOM      3  C   UNL A   1      33.236  29.067  23.562  1.00  0.00     0.116 C 
BRANCH   3   4
ATOM      4  N   UNL A   1      31.939  29.093  22.918  1.00  0.00    -0.352 N 
ATOM      5  C   UNL A   1      31.103  28.113  22.458  1.00  0.00     0.252 C 
ATOM      6  O   UNL A   1      30.086  28.479  21.868  1.00  0.00    -0.269 OA
ATOM      7  H   UNL A   1      31.588  30.002  22.783  1.00  0.00     0.163 HD
BRANCH   5   8
ATOM      8  C   UNL A   1      31.303  26.663  22.701  1.00  0.00     0.058 A 
ATOM      9  C   UNL A   1      31.595  24.082  23.663  1.00  0.00     0.095 A 
ATOM     10  C   UNL A   1      32.486  24.557  22.704  1.00  0.00     0.030 A 
ATOM     11  N   UNL A   1      30.503  24.793  24.032  1.00  0.00    -0.255 NA
ATOM     12  C   UNL A   1      32.321  25.853  22.202  1.00  0.00     0.017 A 
ATOM     13  C   UNL A   1      30.393  26.058  23.561  1.00  0.00     0.125 A 
BRANCH   9  14
ATOM     14  C   UNL A   1      31.883  22.792  24.414  1.00  0.00     0.319 C 
BRANCH  14  15
ATOM     15  N   UNL A   1      32.852  22.855  25.532  1.00  0.00    -0.330 N 
ATOM     16  C   UNL A   1      32.658  24.046  26.361  1.00  0.00     0.333 C 
ATOM     17  H   UNL A   1      32.606  22.028  26.074  1.00  0.00     0.348 HD
BRANCH  15  18
ATOM     18  C   UNL A   1      34.279  22.590  25.239  1.00  0.00     0.195 C 
ATOM     19  C   UNL A   1      38.481  21.702  25.699  1.00  0.00     0.332 C 
ATOM     20  N   UNL A   1      37.051  21.914  25.913  1.00  0.00    -0.337 N 
ATOM     21  C   UNL A   1      36.264  20.998  25.076  1.00  0.00     0.268 C 
ATOM     22  C   UNL A   1      36.680  23.306  25.631  1.00  0.00     0.268 C 
ATOM     23  H   UNL A   1      36.847  21.720  26.894  1.00  0.00     0.347 HD
ATOM     24  C   UNL A   1      34.772  21.136  25.383  1.00  0.00     0.126 C 
ATOM     25  C   UNL A   1      35.214  23.550  25.996  1.00  0.00     0.126 C 
ENDBRANCH  15  18
ENDBRANCH  14  15
ENDBRANCH   9  14
ENDBRANCH   5   8
ENDBRANCH   3   4
ENDBRANCH   2   3
ENDBRANCH   1   2
BRANCH   1  26
ATOM     26  C   UNL A   1      31.479  30.547  26.005  1.00  0.00     0.002 C 
BRANCH  26  27
ATOM     27  C   UNL A   1      31.375  31.982  26.526  1.00  0.00     0.021 C 
BRANCH  27  28
ATOM     28  C   UNL A   1      32.680  32.540  27.084  1.00  0.00     0.116 C 
BRANCH  28  29
ATOM     29  N   UNL A   1      32.492  33.852  27.681  1.00  0.00    -0.352 N 
ATOM     30  C   UNL A   1      33.193  34.450  28.697  1.00  0.00     0.251 C 
ATOM     31  H   UNL A   1      31.757  34.386  27.302  1.00  0.00     0.163 HD
ATOM     32  O   UNL A   1      32.761  35.465  29.234  1.00  0.00    -0.269 OA
BRANCH  30  33
ATOM     33  C   UNL A   1      34.471  33.862  29.151  1.00  0.00     0.039 A 
ATOM     34  C   UNL A   1      35.650  34.212  28.489  1.00  0.00     0.014 A 
ATOM     35  C   UNL A   1      34.500  32.949  30.209  1.00  0.00     0.014 A 
ATOM     36  C   UNL A   1      36.867  33.675  28.915  1.00  0.00     0.010 A 
ATOM     37  C   UNL A   1      35.720  32.472  30.678  1.00  0.00     0.010 A 
ATOM     38  C   UNL A   1      36.913  32.818  30.026  1.00  0.00    -0.014 A 
BRANCH  38  39
ATOM     39  C   UNL A   1      38.197  32.249  30.505  1.00  0.00     0.031 A 
ATOM     40  C   UNL A   1      38.714  30.963  29.921  1.00  0.00     0.074 A 
ATOM     41  C   UNL A   1      38.868  32.857  31.502  1.00  0.00     0.049 A 
ATOM     42  N   UNL A   1      39.782  30.279  30.246  1.00  0.00    -0.248 NA
ATOM     43  C   UNL A   1      37.912  30.351  28.849  1.00  0.00     0.031 C 
ATOM     44  C   UNL A   1      38.454  34.090  32.175  1.00  0.00     0.029 A 
ATOM     45  N   UNL A   1      40.041  32.514  32.126  1.00  0.00    -0.354 N 
ATOM     46  C   UNL A   1      39.767  29.151  29.434  1.00  0.00     0.074 A 
ATOM     47  C   UNL A   1      38.561  29.216  28.639  1.00  0.00     0.031 C 
ATOM     48  C   UNL A   1      39.373  34.414  33.100  1.00  0.00     0.029 A 
ATOM     49  C   UNL A   1      40.417  33.395  33.111  1.00  0.00     0.049 A 
ATOM     50  H   UNL A   1      40.563  31.715  31.890  1.00  0.00     0.167 HD
ATOM     51  C   UNL A   1      40.685  28.160  29.342  1.00  0.00     0.031 A 
ATOM     52  C   UNL A   1      41.482  33.379  33.934  1.00  0.00     0.031 A 
ATOM     53  C   UNL A   1      41.892  28.102  30.123  1.00  0.00     0.049 A 
ATOM     54  C   UNL A   1      42.483  32.264  33.819  1.00  0.00     0.074 A 
ATOM     55  C   UNL A   1      42.911  27.167  30.069  1.00  0.00     0.029 A 
ATOM     56  N   UNL A   1      42.241  29.019  31.102  1.00  0.00    -0.354 N 
ATOM     57  N   UNL A   1      42.487  31.237  33.004  1.00  0.00    -0.248 NA
ATOM     58  C   UNL A   1      43.635  32.314  34.730  1.00  0.00     0.031 C 
ATOM     59  C   UNL A   1      43.854  27.493  31.049  1.00  0.00     0.029 A 
ATOM     60  C   UNL A   1      43.451  28.662  31.673  1.00  0.00     0.049 A 
ATOM     61  H   UNL A   1      41.708  29.807  31.354  1.00  0.00     0.167 HD
ATOM     62  C   UNL A   1      43.654  30.539  33.279  1.00  0.00     0.074 A 
ATOM     63  C   UNL A   1      44.340  31.265  34.328  1.00  0.00     0.031 C 
ATOM     64  C   UNL A   1      44.120  29.399  32.713  1.00  0.00     0.031 A 
BRANCH  51  65
ATOM     65  C   UNL A   1      40.411  27.051  28.364  1.00  0.00    -0.014 A 
ATOM     66  C   UNL A   1      40.969  27.063  27.074  1.00  0.00     0.009 A 
ATOM     67  C   UNL A   1      39.604  25.967  28.743  1.00  0.00     0.009 A 
ATOM     68  C   UNL A   1      40.692  26.032  26.174  1.00  0.00     0.001 A 
ATOM     69  C   UNL A   1      39.355  24.923  27.851  1.00  0.00     0.001 A 
ATOM     70  C   UNL A   1      39.889  24.961  26.564  1.00  0.00     0.000 A 
ENDBRANCH  51  65
BRANCH  52  71
ATOM     71  C   UNL A   1      41.671  34.469  34.927  1.00  0.00    -0.014 A 
ATOM     72  C   UNL A   1      41.167  34.339  36.230  1.00  0.00     0.009 A 
ATOM     73  C   UNL A   1      42.350  35.646  34.577  1.00  0.00     0.009 A 
ATOM     74  C   UNL A   1      41.313  35.377  37.153  1.00  0.00     0.001 A 
ATOM     75  C   UNL A   1      42.521  36.670  35.510  1.00  0.00     0.001 A 
ATOM     76  C   UNL A   1      41.994  36.540  36.794  1.00  0.00     0.000 A 
ENDBRANCH  52  71
BRANCH  64  77
ATOM     77  C   UNL A   1      45.454  28.892  33.185  1.00  0.00    -0.014 A 
ATOM     78  C   UNL A   1      45.557  27.985  34.252  1.00  0.00     0.009 A 
ATOM     79  C   UNL A   1      46.622  29.303  32.526  1.00  0.00     0.009 A 
ATOM     80  C   UNL A   1      46.808  27.527  34.669  1.00  0.00     0.001 A 
ATOM     81  C   UNL A   1      47.869  28.821  32.925  1.00  0.00     0.001 A 
ATOM     82  C   UNL A   1      47.962  27.941  34.003  1.00  0.00     0.000 A 
ENDBRANCH  64  77
ENDBRANCH  38  39
ENDBRANCH  30  33
ENDBRANCH  28  29
ENDBRANCH  27  28
ENDBRANCH  26  27
ENDBRANCH   1  26
TORSDOF 16
ENDMDL
MODEL 2
REMARK VINA RESULT:     -10.5      0.962      1.373
REMARK SMILES C[NH+]1CCC([N@@H+](C)Cc2ccc(C(=O)NCCCCCCNC(=O)c3ccc(-c4c5nc(c(-c6ccccc6)c6ccc([nH]6)c(-c6ccccc6)c6nc(c(-c7ccccc7)c7ccc4[nH]7)C=C6)C=C5)cc3)cn2)CC1
REMARK SMILES IDX 18 1 17 2 16 3 15 4 13 5 14 6 12 8 9 9 10 10 74 11 11 12
REMARK SMILES IDX 73 13 8 14 6 15 7 16 5 18 1 19 2 20 3 21 76 22 4 24 75 25
REMARK SMILES IDX 19 26 20 27 21 28 22 29 23 30 24 32 25 33 26 34 72 35 27 36
REMARK SMILES IDX 71 37 28 38 29 39 30 40 65 41 31 42 70 43 64 44 66 45 32 46
REMARK SMILES IDX 69 47 63 48 62 49 33 51 55 52 40 53 54 54 41 55 44 56 53 57
REMARK SMILES IDX 67 58 42 59 43 60 52 62 68 63 45 64 34 65 35 66 39 67 36 68
REMARK SMILES IDX 38 69 37 70 56 71 57 72 61 73 58 74 60 75 59 76 46 77 47 78
REMARK SMILES IDX 51 79 48 80 50 81 49 82
REMARK H PARENT 15 7 6 17 2 23 22 31 66 50 44 61
REMARK Flexibility Score: inf
ROOT
ATOM      1  C   UNL A   1      31.771  29.709  26.871  1.00  0.00     0.002 C 
ENDROOT
BRANCH   1   2
ATOM      2  C   UNL A   1      31.786  28.310  26.236  1.00  0.00     0.021 C 
BRANCH   2   3
ATOM      3  C   UNL A   1      31.694  28.342  24.709  1.00  0.00     0.116 C 
BRANCH   3   4
ATOM      4  N   UNL A   1      30.326  28.105  24.298  1.00  0.00    -0.352 N 
ATOM      5  C   UNL A   1      29.616  26.969  24.021  1.00  0.00     0.252 C 
ATOM      6  O   UNL A   1      28.467  27.118  23.604  1.00  0.00    -0.269 OA
ATOM      7  H   UNL A   1      29.800  28.930  24.196  1.00  0.00     0.163 HD
BRANCH   5   8
ATOM      8  C   UNL A   1      30.112  25.593  24.272  1.00  0.00     0.058 A 
ATOM      9  C   UNL A   1      31.323  23.252  25.125  1.00  0.00     0.095 A 
ATOM     10  C   UNL A   1      31.203  23.501  23.760  1.00  0.00     0.030 A 
ATOM     11  N   UNL A   1      30.733  24.052  26.046  1.00  0.00    -0.255 NA
ATOM     12  C   UNL A   1      30.569  24.672  23.333  1.00  0.00     0.017 A 
ATOM     13  C   UNL A   1      30.163  25.199  25.605  1.00  0.00     0.125 A 
BRANCH   9  14
ATOM     14  C   UNL A   1      32.217  22.133  25.633  1.00  0.00     0.319 C 
BRANCH  14  15
ATOM     15  N   UNL A   1      33.051  21.422  24.636  1.00  0.00    -0.330 N 
ATOM     16  C   UNL A   1      32.698  20.006  24.534  1.00  0.00     0.333 C 
ATOM     17  H   UNL A   1      32.795  21.894  23.770  1.00  0.00     0.348 HD
BRANCH  15  18
ATOM     18  C   UNL A   1      34.515  21.646  24.660  1.00  0.00     0.195 C 
ATOM     19  C   UNL A   1      38.586  22.117  26.023  1.00  0.00     0.332 C 
ATOM     20  N   UNL A   1      37.154  21.847  25.921  1.00  0.00    -0.337 N 
ATOM     21  C   UNL A   1      36.898  20.785  24.938  1.00  0.00     0.268 C 
ATOM     22  C   UNL A   1      36.416  23.063  25.558  1.00  0.00     0.268 C 
ATOM     23  H   UNL A   1      36.827  21.534  26.835  1.00  0.00     0.347 HD
ATOM     24  C   UNL A   1      35.413  20.419  24.914  1.00  0.00     0.126 C 
ATOM     25  C   UNL A   1      34.909  22.802  25.596  1.00  0.00     0.126 C 
ENDBRANCH  15  18
ENDBRANCH  14  15
ENDBRANCH   9  14
ENDBRANCH   5   8
ENDBRANCH   3   4
ENDBRANCH   2   3
ENDBRANCH   1   2
BRANCH   1  26
ATOM     26  C   UNL A   1      31.386  30.848  25.918  1.00  0.00     0.002 C 
BRANCH  26  27
ATOM     27  C   UNL A   1      31.280  32.227  26.572  1.00  0.00     0.021 C 
BRANCH  27  28
ATOM     28  C   UNL A   1      32.580  32.724  27.196  1.00  0.00     0.116 C 
BRANCH  28  29
ATOM     29  N   UNL A   1      32.455  34.088  27.682  1.00  0.00    -0.352 N 
ATOM     30  C   UNL A   1      33.180  34.732  28.652  1.00  0.00     0.251 C 
ATOM     31  H   UNL A   1      31.751  34.626  27.252  1.00  0.00     0.163 HD
ATOM     32  O   UNL A   1      32.797  35.808  29.100  1.00  0.00    -0.269 OA
BRANCH  30  33
ATOM     33  C   UNL A   1      34.423  34.120  29.166  1.00  0.00     0.039 A 
ATOM     34  C   UNL A   1      35.621  34.347  28.485  1.00  0.00     0.014 A 
ATOM     35  C   UNL A   1      34.401  33.303  30.300  1.00  0.00     0.014 A 
ATOM     36  C   UNL A   1      36.807  33.787  28.964  1.00  0.00     0.010 A 
ATOM     37  C   UNL A   1      35.592  32.805  30.818  1.00  0.00     0.010 A 
ATOM     38  C   UNL A   1      36.804  33.029  30.147  1.00  0.00    -0.014 A 
BRANCH  38  39
ATOM     39  C   UNL A   1      38.054  32.438  30.684  1.00  0.00     0.031 A 
ATOM     40  C   UNL A   1      38.606  31.174  30.085  1.00  0.00     0.074 A 
ATOM     41  C   UNL A   1      38.661  33.005  31.744  1.00  0.00     0.049 A 
ATOM     42  N   UNL A   1      39.651  30.474  30.449  1.00  0.00    -0.248 NA
ATOM     43  C   UNL A   1      37.873  30.607  28.941  1.00  0.00     0.031 C 
ATOM     44  C   UNL A   1      38.207  34.212  32.438  1.00  0.00     0.029 A 
ATOM     45  N   UNL A   1      39.792  32.634  32.427  1.00  0.00    -0.354 N 
ATOM     46  C   UNL A   1      39.686  29.379  29.595  1.00  0.00     0.074 A 
ATOM     47  C   UNL A   1      38.533  29.479  28.729  1.00  0.00     0.031 C 
ATOM     48  C   UNL A   1      39.065  34.497  33.430  1.00  0.00     0.029 A 
ATOM     49  C   UNL A   1      40.105  33.475  33.468  1.00  0.00     0.049 A 
ATOM     50  H   UNL A   1      40.327  31.843  32.194  1.00  0.00     0.167 HD
ATOM     51  C   UNL A   1      40.607  28.389  29.523  1.00  0.00     0.031 A 
ATOM     52  C   UNL A   1      41.116  33.424  34.356  1.00  0.00     0.031 A 
ATOM     53  C   UNL A   1      41.763  28.297  30.376  1.00  0.00     0.049 A 
ATOM     54  C   UNL A   1      42.122  32.311  34.261  1.00  0.00     0.074 A 
ATOM     55  C   UNL A   1      42.782  27.361  30.350  1.00  0.00     0.029 A 
ATOM     56  N   UNL A   1      42.049  29.174  31.410  1.00  0.00    -0.354 N 
ATOM     57  N   UNL A   1      42.176  31.316  33.408  1.00  0.00    -0.248 NA
ATOM     58  C   UNL A   1      43.214  32.321  35.244  1.00  0.00     0.031 C 
ATOM     59  C   UNL A   1      43.662  27.645  31.400  1.00  0.00     0.029 A 
ATOM     60  C   UNL A   1      43.221  28.791  32.042  1.00  0.00     0.049 A 
ATOM     61  H   UNL A   1      41.502  29.954  31.658  1.00  0.00     0.167 HD
ATOM     62  C   UNL A   1      43.323  30.604  33.730  1.00  0.00     0.074 A 
ATOM     63  C   UNL A   1      43.942  31.287  34.848  1.00  0.00     0.031 C 
ATOM     64  C   UNL A   1      43.823  29.485  33.151  1.00  0.00     0.031 A 
BRANCH  51  65
ATOM     65  C   UNL A   1      40.395  27.319  28.487  1.00  0.00    -0.014 A 
ATOM     66  C   UNL A   1      39.598  26.194  28.755  1.00  0.00     0.009 A 
ATOM     67  C   UNL A   1      40.978  27.451  27.217  1.00  0.00     0.009 A 
ATOM     68  C   UNL A   1      39.423  25.203  27.786  1.00  0.00     0.001 A 
ATOM     69  C   UNL A   1      40.776  26.474  26.240  1.00  0.00     0.001 A 
ATOM     70  C   UNL A   1      40.008  25.347  26.528  1.00  0.00     0.000 A 
ENDBRANCH  51  65
BRANCH  52  71
ATOM     71  C   UNL A   1      41.243  34.473  35.401  1.00  0.00    -0.014 A 
ATOM     72  C   UNL A   1      41.971  35.645  35.147  1.00  0.00     0.009 A 
ATOM     73  C   UNL A   1      40.644  34.305  36.659  1.00  0.00     0.009 A 
ATOM     74  C   UNL A   1      42.121  36.615  36.141  1.00  0.00     0.001 A 
ATOM     75  C   UNL A   1      40.771  35.289  37.641  1.00  0.00     0.001 A 
ATOM     76  C   UNL A   1      41.517  36.438  37.386  1.00  0.00     0.000 A 
ENDBRANCH  52  71
BRANCH  64  77
ATOM     77  C   UNL A   1      45.124  28.955  33.686  1.00  0.00    -0.014 A 
ATOM     78  C   UNL A   1      45.158  28.000  34.713  1.00  0.00     0.009 A 
ATOM     79  C   UNL A   1      46.332  29.396  33.125  1.00  0.00     0.009 A 
ATOM     80  C   UNL A   1      46.380  27.522  35.191  1.00  0.00     0.001 A 
ATOM     81  C   UNL A   1      47.551  28.895  33.584  1.00  0.00     0.001 A 
ATOM     82  C   UNL A   1      47.574  27.966  34.623  1.00  0.00     0.000 A 
ENDBRANCH  64  77
ENDBRANCH  38  39
ENDBRANCH  30  33
ENDBRANCH  28  29
ENDBRANCH  27  28
ENDBRANCH  26  27
ENDBRANCH   1  26
TORSDOF 16
ENDMDL
MODEL 3
REMARK VINA RESULT:     -10.4      0.883      5.953
REMARK SMILES C[NH+]1CCC([N@@H+](C)Cc2ccc(C(=O)NCCCCCCNC(=O)c3ccc(-c4c5nc(c(-c6ccccc6)c6ccc([nH]6)c(-c6ccccc6)c6nc(c(-c7ccccc7)c7ccc4[nH]7)C=C6)C=C5)cc3)cn2)CC1
REMARK SMILES IDX 18 1 17 2 16 3 15 4 13 5 14 6 12 8 9 9 10 10 74 11 11 12
REMARK SMILES IDX 73 13 8 14 6 15 7 16 5 18 1 19 2 20 3 21 76 22 4 24 75 25
REMARK SMILES IDX 19 26 20 27 21 28 22 29 23 30 24 32 25 33 26 34 72 35 27 36
REMARK SMILES IDX 71 37 28 38 29 39 30 40 65 41 31 42 70 43 64 44 66 45 32 46
REMARK SMILES IDX 69 47 63 48 62 49 33 51 55 52 40 53 54 54 41 55 44 56 53 57
REMARK SMILES IDX 67 58 42 59 43 60 52 62 68 63 45 64 34 65 35 66 39 67 36 68
REMARK SMILES IDX 38 69 37 70 56 71 57 72 61 73 58 74 60 75 59 76 46 77 47 78
REMARK SMILES IDX 51 79 48 80 50 81 49 82
REMARK H PARENT 15 7 6 17 2 23 22 31 66 50 44 61
REMARK Flexibility Score: inf
ROOT
ATOM      1  C   UNL A   1      31.799  29.671  26.737  1.00  0.00     0.002 C 
ENDROOT
BRANCH   1   2
ATOM      2  C   UNL A   1      31.851  28.324  25.997  1.00  0.00     0.021 C 
BRANCH   2   3
ATOM      3  C   UNL A   1      31.677  28.463  24.484  1.00  0.00     0.116 C 
BRANCH   3   4
ATOM      4  N   UNL A   1      30.294  28.222  24.129  1.00  0.00    -0.352 N 
ATOM      5  C   UNL A   1      29.569  27.083  23.906  1.00  0.00     0.252 C 
ATOM      6  O   UNL A   1      28.406  27.228  23.528  1.00  0.00    -0.269 OA
ATOM      7  H   UNL A   1      29.768  29.048  24.025  1.00  0.00     0.163 HD
BRANCH   5   8
ATOM      8  C   UNL A   1      30.067  25.712  24.175  1.00  0.00     0.058 A 
ATOM      9  C   UNL A   1      31.253  23.378  25.080  1.00  0.00     0.095 A 
ATOM     10  C   UNL A   1      31.223  23.642  23.713  1.00  0.00     0.030 A 
ATOM     11  N   UNL A   1      30.590  24.157  25.968  1.00  0.00    -0.255 NA
ATOM     12  C   UNL A   1      30.602  24.810  23.257  1.00  0.00     0.017 A 
ATOM     13  C   UNL A   1      30.034  25.301  25.503  1.00  0.00     0.125 A 
BRANCH   9  14
ATOM     14  C   UNL A   1      32.128  22.265  25.634  1.00  0.00     0.319 C 
BRANCH  14  15
ATOM     15  N   UNL A   1      32.893  21.452  24.661  1.00  0.00    -0.330 N 
ATOM     16  C   UNL A   1      32.457  20.056  24.647  1.00  0.00     0.333 C 
ATOM     17  H   UNL A   1      32.643  21.889  23.775  1.00  0.00     0.348 HD
BRANCH  15  18
ATOM     18  C   UNL A   1      34.368  21.590  24.640  1.00  0.00     0.195 C 
ATOM     19  C   UNL A   1      38.489  21.940  25.885  1.00  0.00     0.332 C 
ATOM     20  N   UNL A   1      37.041  21.748  25.833  1.00  0.00    -0.337 N 
ATOM     21  C   UNL A   1      36.703  20.618  24.956  1.00  0.00     0.268 C 
ATOM     22  C   UNL A   1      36.367  22.967  25.371  1.00  0.00     0.268 C 
ATOM     23  H   UNL A   1      36.717  21.539  26.777  1.00  0.00     0.347 HD
ATOM     24  C   UNL A   1      35.200  20.340  24.991  1.00  0.00     0.126 C 
ATOM     25  C   UNL A   1      34.849  22.801  25.459  1.00  0.00     0.126 C 
ENDBRANCH  15  18
ENDBRANCH  14  15
ENDBRANCH   9  14
ENDBRANCH   5   8
ENDBRANCH   3   4
ENDBRANCH   2   3
ENDBRANCH   1   2
BRANCH   1  26
ATOM     26  C   UNL A   1      31.377  30.866  25.873  1.00  0.00     0.002 C 
BRANCH  26  27
ATOM     27  C   UNL A   1      31.281  32.198  26.620  1.00  0.00     0.021 C 
BRANCH  27  28
ATOM     28  C   UNL A   1      32.627  32.772  27.048  1.00  0.00     0.116 C 
BRANCH  28  29
ATOM     29  N   UNL A   1      32.477  34.054  27.716  1.00  0.00    -0.352 N 
ATOM     30  C   UNL A   1      33.180  34.567  28.776  1.00  0.00     0.251 C 
ATOM     31  H   UNL A   1      31.770  34.637  27.355  1.00  0.00     0.163 HD
ATOM     32  O   UNL A   1      32.776  35.565  29.363  1.00  0.00    -0.269 OA
BRANCH  30  33
ATOM     33  C   UNL A   1      34.426  33.905  29.218  1.00  0.00     0.039 A 
ATOM     34  C   UNL A   1      35.630  34.244  28.595  1.00  0.00     0.014 A 
ATOM     35  C   UNL A   1      34.401  32.935  30.223  1.00  0.00     0.014 A 
ATOM     36  C   UNL A   1      36.817  33.638  29.010  1.00  0.00     0.010 A 
ATOM     37  C   UNL A   1      35.593  32.385  30.684  1.00  0.00     0.010 A 
ATOM     38  C   UNL A   1      36.810  32.720  30.072  1.00  0.00    -0.014 A 
BRANCH  38  39
ATOM     39  C   UNL A   1      38.063  32.075  30.540  1.00  0.00     0.031 A 
ATOM     40  C   UNL A   1      38.859  32.700  31.652  1.00  0.00     0.074 A 
ATOM     41  C   UNL A   1      38.511  30.962  29.928  1.00  0.00     0.049 A 
ATOM     42  N   UNL A   1      40.004  32.322  32.161  1.00  0.00    -0.248 NA
ATOM     43  C   UNL A   1      38.310  33.925  32.254  1.00  0.00     0.031 C 
ATOM     44  C   UNL A   1      37.850  30.279  28.815  1.00  0.00     0.029 A 
ATOM     45  N   UNL A   1      39.638  30.214  30.156  1.00  0.00    -0.354 N 
ATOM     46  C   UNL A   1      40.319  33.271  33.126  1.00  0.00     0.074 A 
ATOM     47  C   UNL A   1      39.273  34.268  33.096  1.00  0.00     0.031 C 
ATOM     48  C   UNL A   1      38.569  29.197  28.475  1.00  0.00     0.029 A 
ATOM     49  C   UNL A   1      39.758  29.132  29.318  1.00  0.00     0.049 A 
ATOM     50  H   UNL A   1      40.297  30.430  30.853  1.00  0.00     0.167 HD
ATOM     51  C   UNL A   1      41.373  33.301  33.975  1.00  0.00     0.031 A 
ATOM     52  C   UNL A   1      40.721  28.195  29.235  1.00  0.00     0.031 A 
ATOM     53  C   UNL A   1      42.407  32.301  34.014  1.00  0.00     0.049 A 
ATOM     54  C   UNL A   1      41.885  28.253  30.183  1.00  0.00     0.074 A 
ATOM     55  C   UNL A   1      43.490  32.214  34.870  1.00  0.00     0.029 A 
ATOM     56  N   UNL A   1      42.485  31.216  33.155  1.00  0.00    -0.354 N 
ATOM     57  N   UNL A   1      42.137  29.124  31.131  1.00  0.00    -0.248 NA
ATOM     58  C   UNL A   1      42.893  27.190  30.058  1.00  0.00     0.031 C 
ATOM     59  C   UNL A   1      44.251  31.099  34.500  1.00  0.00     0.029 A 
ATOM     60  C   UNL A   1      43.609  30.462  33.449  1.00  0.00     0.049 A 
ATOM     61  H   UNL A   1      41.838  31.011  32.442  1.00  0.00     0.167 HD
ATOM     62  C   UNL A   1      43.311  28.695  31.736  1.00  0.00     0.074 A 
ATOM     63  C   UNL A   1      43.715  27.482  31.057  1.00  0.00     0.031 C 
ATOM     64  C   UNL A   1      43.994  29.255  32.765  1.00  0.00     0.031 A 
BRANCH  51  65
ATOM     65  C   UNL A   1      41.462  34.461  34.928  1.00  0.00    -0.014 A 
ATOM     66  C   UNL A   1      40.883  34.398  36.207  1.00  0.00     0.009 A 
ATOM     67  C   UNL A   1      42.154  35.622  34.554  1.00  0.00     0.009 A 
ATOM     68  C   UNL A   1      40.962  35.490  37.074  1.00  0.00     0.001 A 
ATOM     69  C   UNL A   1      42.259  36.701  35.435  1.00  0.00     0.001 A 
ATOM     70  C   UNL A   1      41.654  36.638  36.689  1.00  0.00     0.000 A 
ENDBRANCH  51  65
BRANCH  52  71
ATOM     71  C   UNL A   1      40.615  27.105  28.230  1.00  0.00    -0.014 A 
ATOM     72  C   UNL A   1      39.961  25.905  28.549  1.00  0.00     0.009 A 
ATOM     73  C   UNL A   1      41.174  27.255  26.951  1.00  0.00     0.009 A 
ATOM     74  C   UNL A   1      39.893  24.867  27.617  1.00  0.00     0.001 A 
ATOM     75  C   UNL A   1      41.078  26.226  26.012  1.00  0.00     0.001 A 
ATOM     76  C   UNL A   1      40.448  25.030  26.348  1.00  0.00     0.000 A 
ENDBRANCH  52  71
BRANCH  64  77
ATOM     77  C   UNL A   1      45.222  28.536  33.247  1.00  0.00    -0.014 A 
ATOM     78  C   UNL A   1      45.148  27.538  34.231  1.00  0.00     0.009 A 
ATOM     79  C   UNL A   1      46.469  28.839  32.678  1.00  0.00     0.009 A 
ATOM     80  C   UNL A   1      46.304  26.884  34.660  1.00  0.00     0.001 A 
ATOM     81  C   UNL A   1      47.618  28.163  33.087  1.00  0.00     0.001 A 
ATOM     82  C   UNL A   1      47.536  27.192  34.085  1.00  0.00     0.000 A 
ENDBRANCH  64  77
ENDBRANCH  38  39
ENDBRANCH  30  33
ENDBRANCH  28  29
ENDBRANCH  27  28
ENDBRANCH  26  27
ENDBRANCH   1  26
TORSDOF 16
ENDMDL
