MODEL 1
REMARK VINA RESULT:      -8.8      0.000      0.000
REMARK SMILES CN(C)S(=O)(=O)c1cccc(-c2cc(Cl)cc(C(=O)NCCCCCCNC(=O)c3ccc(-c4c5nc(c(-c6ccccc6)c6ccc([nH]6)c(-c6ccccc6)c6nc(c(-c7ccccc7)c7ccc4[nH]7)C=C6)C=C5)cc3)c2)c1
REMARK SMILES IDX 23 1 22 2 21 3 20 4 18 5 19 6 17 8 12 9 13 10 78 11 14 12
REMARK SMILES IDX 15 13 16 14 11 15 7 16 8 17 79 18 9 19 10 20 4 21 5 22 6 23
REMARK SMILES IDX 2 24 1 25 3 26 24 27 25 28 26 29 27 30 28 31 29 33 30 34
REMARK SMILES IDX 31 35 77 36 32 37 76 38 33 39 34 40 35 41 70 42 36 43 75 44
REMARK SMILES IDX 69 45 71 46 37 47 74 48 68 49 67 50 38 52 60 53 45 54 59 55
REMARK SMILES IDX 46 56 49 57 58 58 72 59 47 60 48 61 57 63 73 64 50 65 39 66
REMARK SMILES IDX 40 67 44 68 41 69 43 70 42 71 61 72 62 73 66 74 63 75 65 76
REMARK SMILES IDX 64 77 51 78 52 79 56 80 53 81 55 82 54 83
REMARK H PARENT 20 7 27 32 71 51 49 62
REMARK Flexibility Score: inf
ROOT
ATOM      1  C   UNL A   1      45.926  21.803  25.287  1.00  0.00     0.002 C 
ENDROOT
BRANCH   1   2
ATOM      2  C   UNL A   1      45.846  23.012  24.354  1.00  0.00     0.021 C 
BRANCH   2   3
ATOM      3  C   UNL A   1      46.258  24.360  24.934  1.00  0.00     0.116 C 
BRANCH   3   4
ATOM      4  N   UNL A   1      45.180  25.324  25.070  1.00  0.00    -0.352 N 
ATOM      5  C   UNL A   1      45.202  26.641  25.482  1.00  0.00     0.251 C 
ATOM      6  O   UNL A   1      44.147  27.266  25.542  1.00  0.00    -0.269 OA
ATOM      7  H   UNL A   1      44.288  24.983  24.827  1.00  0.00     0.163 HD
BRANCH   5   8
ATOM      8  C   UNL A   1      46.462  27.307  25.910  1.00  0.00     0.041 A 
ATOM      9  C   UNL A   1      47.616  29.193  26.951  1.00  0.00    -0.016 A 
ATOM     10  C   UNL A   1      48.825  28.711  26.433  1.00  0.00     0.029 A 
ATOM     11  C   UNL A   1      46.461  28.415  26.758  1.00  0.00     0.022 A 
ATOM     12  C   UNL A   1      48.852  27.524  25.694  1.00  0.00     0.042 A 
ATOM     13  Cl  UNL A   1      50.348  26.957  25.059  1.00  0.00    -0.084 Cl
ATOM     14  C   UNL A   1      47.676  26.833  25.408  1.00  0.00     0.034 A 
BRANCH   9  15
ATOM     15  C   UNL A   1      47.470  30.551  27.507  1.00  0.00    -0.017 A 
ATOM     16  C   UNL A   1      46.580  32.807  27.334  1.00  0.00     0.083 A 
ATOM     17  C   UNL A   1      47.564  33.290  28.198  1.00  0.00     0.022 A 
ATOM     18  C   UNL A   1      46.508  31.446  27.012  1.00  0.00     0.030 A 
ATOM     19  C   UNL A   1      48.479  32.402  28.753  1.00  0.00     0.002 A 
ATOM     20  C   UNL A   1      48.436  31.049  28.404  1.00  0.00     0.009 A 
BRANCH  16  21
ATOM     21  S   UNL A   1      45.487  33.960  26.542  1.00  0.00     0.242 S 
ATOM     22  O   UNL A   1      44.160  33.769  27.101  1.00  0.00    -0.207 OA
ATOM     23  O   UNL A   1      45.733  33.869  25.125  1.00  0.00    -0.207 OA
BRANCH  21  24
ATOM     24  N   UNL A   1      46.024  35.497  27.091  1.00  0.00    -0.204 NA
ATOM     25  C   UNL A   1      46.578  36.327  25.992  1.00  0.00     0.124 C 
ATOM     26  C   UNL A   1      45.042  36.265  27.887  1.00  0.00     0.124 C 
ENDBRANCH  21  24
ENDBRANCH  16  21
ENDBRANCH   9  15
ENDBRANCH   5   8
ENDBRANCH   3   4
ENDBRANCH   2   3
ENDBRANCH   1   2
BRANCH   1  27
ATOM     27  C   UNL A   1      46.198  20.442  24.642  1.00  0.00     0.002 C 
BRANCH  27  28
ATOM     28  C   UNL A   1      44.992  19.527  24.425  1.00  0.00     0.021 C 
BRANCH  28  29
ATOM     29  C   UNL A   1      44.347  18.934  25.674  1.00  0.00     0.116 C 
BRANCH  29  30
ATOM     30  N   UNL A   1      42.923  18.702  25.531  1.00  0.00    -0.352 N 
ATOM     31  C   UNL A   1      41.859  19.500  25.877  1.00  0.00     0.251 C 
ATOM     32  H   UNL A   1      42.680  17.839  25.123  1.00  0.00     0.163 HD
ATOM     33  O   UNL A   1      40.714  19.070  25.758  1.00  0.00    -0.269 OA
BRANCH  31  34
ATOM     34  C   UNL A   1      42.070  20.863  26.423  1.00  0.00     0.039 A 
ATOM     35  C   UNL A   1      41.993  21.044  27.809  1.00  0.00     0.014 A 
ATOM     36  C   UNL A   1      42.302  21.964  25.593  1.00  0.00     0.014 A 
ATOM     37  C   UNL A   1      42.202  22.310  28.363  1.00  0.00     0.010 A 
ATOM     38  C   UNL A   1      42.573  23.214  26.152  1.00  0.00     0.010 A 
ATOM     39  C   UNL A   1      42.520  23.402  27.541  1.00  0.00    -0.014 A 
BRANCH  39  40
ATOM     40  C   UNL A   1      42.780  24.748  28.116  1.00  0.00     0.031 A 
ATOM     41  C   UNL A   1      44.157  25.111  28.601  1.00  0.00     0.074 A 
ATOM     42  C   UNL A   1      41.770  25.629  28.249  1.00  0.00     0.049 A 
ATOM     43  N   UNL A   1      44.564  26.207  29.192  1.00  0.00    -0.248 NA
ATOM     44  C   UNL A   1      45.211  24.101  28.416  1.00  0.00     0.031 C 
ATOM     45  C   UNL A   1      40.382  25.399  27.845  1.00  0.00     0.029 A 
ATOM     46  N   UNL A   1      41.758  26.899  28.773  1.00  0.00    -0.354 N 
ATOM     47  C   UNL A   1      45.910  26.009  29.468  1.00  0.00     0.074 A 
ATOM     48  C   UNL A   1      46.244  24.676  29.015  1.00  0.00     0.031 C 
ATOM     49  C   UNL A   1      39.658  26.498  28.116  1.00  0.00     0.029 A 
ATOM     50  C   UNL A   1      40.520  27.494  28.744  1.00  0.00     0.049 A 
ATOM     51  H   UNL A   1      42.559  27.340  29.135  1.00  0.00     0.167 HD
ATOM     52  C   UNL A   1      46.796  26.864  30.032  1.00  0.00     0.031 A 
ATOM     53  C   UNL A   1      40.122  28.705  29.177  1.00  0.00     0.031 A 
ATOM     54  C   UNL A   1      46.478  28.198  30.469  1.00  0.00     0.049 A 
ATOM     55  C   UNL A   1      41.123  29.635  29.803  1.00  0.00     0.074 A 
ATOM     56  C   UNL A   1      47.320  29.152  31.013  1.00  0.00     0.029 A 
ATOM     57  N   UNL A   1      45.216  28.766  30.406  1.00  0.00    -0.354 N 
ATOM     58  N   UNL A   1      42.403  29.449  30.015  1.00  0.00    -0.248 NA
ATOM     59  C   UNL A   1      40.624  30.946  30.241  1.00  0.00     0.031 C 
ATOM     60  C   UNL A   1      46.560  30.288  31.310  1.00  0.00     0.029 A 
ATOM     61  C   UNL A   1      45.254  30.055  30.912  1.00  0.00     0.049 A 
ATOM     62  H   UNL A   1      44.412  28.320  30.055  1.00  0.00     0.167 HD
ATOM     63  C   UNL A   1      42.868  30.628  30.581  1.00  0.00     0.074 A 
ATOM     64  C   UNL A   1      41.736  31.528  30.671  1.00  0.00     0.031 C 
ATOM     65  C   UNL A   1      44.122  30.940  30.987  1.00  0.00     0.031 A 
BRANCH  52  66
ATOM     66  C   UNL A   1      48.205  26.374  30.215  1.00  0.00    -0.014 A 
ATOM     67  C   UNL A   1      48.604  25.742  31.404  1.00  0.00     0.009 A 
ATOM     68  C   UNL A   1      49.137  26.519  29.176  1.00  0.00     0.009 A 
ATOM     69  C   UNL A   1      49.918  25.299  31.563  1.00  0.00     0.001 A 
ATOM     70  C   UNL A   1      50.444  26.051  29.328  1.00  0.00     0.001 A 
ATOM     71  C   UNL A   1      50.836  25.451  30.523  1.00  0.00     0.000 A 
ENDBRANCH  52  66
BRANCH  53  72
ATOM     72  C   UNL A   1      38.706  29.125  29.015  1.00  0.00    -0.014 A 
ATOM     73  C   UNL A   1      38.261  29.656  27.795  1.00  0.00     0.009 A 
ATOM     74  C   UNL A   1      37.799  29.007  30.079  1.00  0.00     0.009 A 
ATOM     75  C   UNL A   1      36.939  30.086  27.651  1.00  0.00     0.001 A 
ATOM     76  C   UNL A   1      36.472  29.414  29.924  1.00  0.00     0.001 A 
ATOM     77  C   UNL A   1      36.046  29.962  28.713  1.00  0.00     0.000 A 
ENDBRANCH  53  72
BRANCH  65  78
ATOM     78  C   UNL A   1      44.345  32.323  31.526  1.00  0.00    -0.014 A 
ATOM     79  C   UNL A   1      44.184  32.609  32.890  1.00  0.00     0.009 A 
ATOM     80  C   UNL A   1      44.759  33.346  30.658  1.00  0.00     0.009 A 
ATOM     81  C   UNL A   1      44.404  33.902  33.370  1.00  0.00     0.001 A 
ATOM     82  C   UNL A   1      45.000  34.631  31.143  1.00  0.00     0.001 A 
ATOM     83  C   UNL A   1      44.815  34.910  32.497  1.00  0.00     0.000 A 
ENDBRANCH  65  78
ENDBRANCH  39  40
ENDBRANCH  31  34
ENDBRANCH  29  30
ENDBRANCH  28  29
ENDBRANCH  27  28
ENDBRANCH   1  27
TORSDOF 16
ENDMDL
MODEL 2
REMARK VINA RESULT:      -8.4      5.361     10.531
REMARK SMILES CN(C)S(=O)(=O)c1cccc(-c2cc(Cl)cc(C(=O)NCCCCCCNC(=O)c3ccc(-c4c5nc(c(-c6ccccc6)c6ccc([nH]6)c(-c6ccccc6)c6nc(c(-c7ccccc7)c7ccc4[nH]7)C=C6)C=C5)cc3)c2)c1
REMARK SMILES IDX 23 1 22 2 21 3 20 4 18 5 19 6 17 8 12 9 13 10 78 11 14 12
REMARK SMILES IDX 15 13 16 14 11 15 7 16 8 17 79 18 9 19 10 20 4 21 5 22 6 23
REMARK SMILES IDX 2 24 1 25 3 26 24 27 25 28 26 29 27 30 28 31 29 33 30 34
REMARK SMILES IDX 31 35 77 36 32 37 76 38 33 39 34 40 35 41 70 42 36 43 75 44
REMARK SMILES IDX 69 45 71 46 37 47 74 48 68 49 67 50 38 52 60 53 45 54 59 55
REMARK SMILES IDX 46 56 49 57 58 58 72 59 47 60 48 61 57 63 73 64 50 65 39 66
REMARK SMILES IDX 40 67 44 68 41 69 43 70 42 71 61 72 62 73 66 74 63 75 65 76
REMARK SMILES IDX 64 77 51 78 52 79 56 80 53 81 55 82 54 83
REMARK H PARENT 20 7 27 32 71 51 49 62
REMARK Flexibility Score: inf
ROOT
ATOM      1  C   UNL A   1      32.345  26.071  26.197  1.00  0.00     0.002 C 
ENDROOT
BRANCH   1   2
ATOM      2  C   UNL A   1      31.160  25.330  25.576  1.00  0.00     0.021 C 
BRANCH   2   3
ATOM      3  C   UNL A   1      31.452  23.983  24.925  1.00  0.00     0.116 C 
BRANCH   3   4
ATOM      4  N   UNL A   1      32.058  24.057  23.607  1.00  0.00    -0.352 N 
ATOM      5  C   UNL A   1      33.156  23.403  23.087  1.00  0.00     0.251 C 
ATOM      6  O   UNL A   1      33.506  23.644  21.935  1.00  0.00    -0.269 OA
ATOM      7  H   UNL A   1      31.612  24.675  22.982  1.00  0.00     0.163 HD
BRANCH   5   8
ATOM      8  C   UNL A   1      33.962  22.455  23.904  1.00  0.00     0.041 A 
ATOM      9  C   UNL A   1      35.993  21.933  25.158  1.00  0.00    -0.016 A 
ATOM     10  C   UNL A   1      35.617  20.584  25.165  1.00  0.00     0.029 A 
ATOM     11  C   UNL A   1      35.096  22.864  24.607  1.00  0.00     0.022 A 
ATOM     12  C   UNL A   1      34.411  20.186  24.577  1.00  0.00     0.042 A 
ATOM     13  Cl  UNL A   1      33.975  18.520  24.588  1.00  0.00    -0.084 Cl
ATOM     14  C   UNL A   1      33.595  21.108  23.926  1.00  0.00     0.034 A 
BRANCH   9  15
ATOM     15  C   UNL A   1      37.350  22.385  25.519  1.00  0.00    -0.017 A 
ATOM     16  C   UNL A   1      39.588  21.881  26.322  1.00  0.00     0.083 A 
ATOM     17  C   UNL A   1      39.772  23.206  26.722  1.00  0.00     0.022 A 
ATOM     18  C   UNL A   1      38.403  21.475  25.697  1.00  0.00     0.030 A 
ATOM     19  C   UNL A   1      38.765  24.135  26.485  1.00  0.00     0.002 A 
ATOM     20  C   UNL A   1      37.564  23.726  25.897  1.00  0.00     0.009 A 
BRANCH  16  21
ATOM     21  S   UNL A   1      40.829  20.678  26.727  1.00  0.00     0.242 S 
ATOM     22  O   UNL A   1      40.741  19.604  25.753  1.00  0.00    -0.207 OA
ATOM     23  O   UNL A   1      40.727  20.427  28.142  1.00  0.00    -0.207 OA
BRANCH  21  24
ATOM     24  N   UNL A   1      42.316  21.485  26.422  1.00  0.00    -0.204 NA
ATOM     25  C   UNL A   1      42.953  21.983  27.667  1.00  0.00     0.124 C 
ATOM     26  C   UNL A   1      43.287  20.735  25.597  1.00  0.00     0.124 C 
ENDBRANCH  21  24
ENDBRANCH  16  21
ENDBRANCH   9  15
ENDBRANCH   5   8
ENDBRANCH   3   4
ENDBRANCH   2   3
ENDBRANCH   1   2
BRANCH   1  27
ATOM     27  C   UNL A   1      33.361  26.690  25.235  1.00  0.00     0.002 C 
BRANCH  27  28
ATOM     28  C   UNL A   1      32.906  27.918  24.446  1.00  0.00     0.021 C 
BRANCH  28  29
ATOM     29  C   UNL A   1      33.603  29.236  24.765  1.00  0.00     0.116 C 
BRANCH  29  30
ATOM     30  N   UNL A   1      32.769  30.164  25.504  1.00  0.00    -0.352 N 
ATOM     31  C   UNL A   1      33.004  30.806  26.696  1.00  0.00     0.251 C 
ATOM     32  H   UNL A   1      31.900  30.366  25.086  1.00  0.00     0.163 HD
ATOM     33  O   UNL A   1      32.116  31.485  27.204  1.00  0.00    -0.269 OA
BRANCH  31  34
ATOM     34  C   UNL A   1      34.303  30.666  27.397  1.00  0.00     0.039 A 
ATOM     35  C   UNL A   1      35.028  31.826  27.694  1.00  0.00     0.014 A 
ATOM     36  C   UNL A   1      34.834  29.416  27.728  1.00  0.00     0.014 A 
ATOM     37  C   UNL A   1      36.249  31.738  28.369  1.00  0.00     0.010 A 
ATOM     38  C   UNL A   1      36.022  29.332  28.457  1.00  0.00     0.010 A 
ATOM     39  C   UNL A   1      36.745  30.491  28.779  1.00  0.00    -0.014 A 
BRANCH  39  40
ATOM     40  C   UNL A   1      38.023  30.380  29.528  1.00  0.00     0.031 A 
ATOM     41  C   UNL A   1      39.186  29.629  28.936  1.00  0.00     0.074 A 
ATOM     42  C   UNL A   1      38.128  30.909  30.763  1.00  0.00     0.049 A 
ATOM     43  N   UNL A   1      40.356  29.367  29.462  1.00  0.00    -0.248 NA
ATOM     44  C   UNL A   1      39.000  29.086  27.581  1.00  0.00     0.031 C 
ATOM     45  C   UNL A   1      37.073  31.638  31.467  1.00  0.00     0.029 A 
ATOM     46  N   UNL A   1      39.178  30.905  31.648  1.00  0.00    -0.354 N 
ATOM     47  C   UNL A   1      41.035  28.612  28.516  1.00  0.00     0.074 A 
ATOM     48  C   UNL A   1      40.134  28.425  27.398  1.00  0.00     0.031 C 
ATOM     49  C   UNL A   1      37.535  32.029  32.667  1.00  0.00     0.029 A 
ATOM     50  C   UNL A   1      38.904  31.549  32.830  1.00  0.00     0.049 A 
ATOM     51  H   UNL A   1      40.044  30.480  31.455  1.00  0.00     0.167 HD
ATOM     52  C   UNL A   1      42.299  28.129  28.562  1.00  0.00     0.031 A 
ATOM     53  C   UNL A   1      39.666  31.731  33.924  1.00  0.00     0.031 A 
ATOM     54  C   UNL A   1      43.208  28.325  29.660  1.00  0.00     0.049 A 
ATOM     55  C   UNL A   1      41.066  31.183  33.953  1.00  0.00     0.074 A 
ATOM     56  C   UNL A   1      44.522  27.910  29.778  1.00  0.00     0.029 A 
ATOM     57  N   UNL A   1      42.894  28.998  30.830  1.00  0.00    -0.354 N 
ATOM     58  N   UNL A   1      41.708  30.510  33.029  1.00  0.00    -0.248 NA
ATOM     59  C   UNL A   1      41.847  31.430  35.173  1.00  0.00     0.031 C 
ATOM     60  C   UNL A   1      44.995  28.303  31.034  1.00  0.00     0.029 A 
ATOM     61  C   UNL A   1      43.987  29.000  31.680  1.00  0.00     0.049 A 
ATOM     62  H   UNL A   1      42.023  29.412  31.028  1.00  0.00     0.167 HD
ATOM     63  C   UNL A   1      42.977  30.280  33.543  1.00  0.00     0.074 A 
ATOM     64  C   UNL A   1      43.018  30.893  34.855  1.00  0.00     0.031 C 
ATOM     65  C   UNL A   1      44.017  29.621  32.978  1.00  0.00     0.031 A 
BRANCH  52  66
ATOM     66  C   UNL A   1      42.774  27.331  27.381  1.00  0.00    -0.014 A 
ATOM     67  C   UNL A   1      42.497  25.958  27.274  1.00  0.00     0.009 A 
ATOM     68  C   UNL A   1      43.483  27.963  26.348  1.00  0.00     0.009 A 
ATOM     69  C   UNL A   1      42.952  25.228  26.175  1.00  0.00     0.001 A 
ATOM     70  C   UNL A   1      43.915  27.235  25.237  1.00  0.00     0.001 A 
ATOM     71  C   UNL A   1      43.657  25.868  25.156  1.00  0.00     0.000 A 
ENDBRANCH  52  66
BRANCH  53  72
ATOM     72  C   UNL A   1      39.133  32.489  35.086  1.00  0.00    -0.014 A 
ATOM     73  C   UNL A   1      39.417  33.855  35.229  1.00  0.00     0.009 A 
ATOM     74  C   UNL A   1      38.350  31.849  36.058  1.00  0.00     0.009 A 
ATOM     75  C   UNL A   1      38.947  34.562  36.339  1.00  0.00     0.001 A 
ATOM     76  C   UNL A   1      37.861  32.564  37.154  1.00  0.00     0.001 A 
ATOM     77  C   UNL A   1      38.168  33.917  37.298  1.00  0.00     0.000 A 
ENDBRANCH  53  72
BRANCH  65  78
ATOM     78  C   UNL A   1      45.299  29.567  33.755  1.00  0.00    -0.014 A 
ATOM     79  C   UNL A   1      45.623  28.458  34.551  1.00  0.00     0.009 A 
ATOM     80  C   UNL A   1      46.213  30.629  33.659  1.00  0.00     0.009 A 
ATOM     81  C   UNL A   1      46.826  28.426  35.259  1.00  0.00     0.001 A 
ATOM     82  C   UNL A   1      47.424  30.584  34.350  1.00  0.00     0.001 A 
ATOM     83  C   UNL A   1      47.726  29.487  35.156  1.00  0.00     0.000 A 
ENDBRANCH  65  78
ENDBRANCH  39  40
ENDBRANCH  31  34
ENDBRANCH  29  30
ENDBRANCH  28  29
ENDBRANCH  27  28
ENDBRANCH   1  27
TORSDOF 16
ENDMDL
MODEL 3
REMARK VINA RESULT:      -8.4      5.966     10.405
REMARK SMILES CN(C)S(=O)(=O)c1cccc(-c2cc(Cl)cc(C(=O)NCCCCCCNC(=O)c3ccc(-c4c5nc(c(-c6ccccc6)c6ccc([nH]6)c(-c6ccccc6)c6nc(c(-c7ccccc7)c7ccc4[nH]7)C=C6)C=C5)cc3)c2)c1
REMARK SMILES IDX 23 1 22 2 21 3 20 4 18 5 19 6 17 8 12 9 13 10 78 11 14 12
REMARK SMILES IDX 15 13 16 14 11 15 7 16 8 17 79 18 9 19 10 20 4 21 5 22 6 23
REMARK SMILES IDX 2 24 1 25 3 26 24 27 25 28 26 29 27 30 28 31 29 33 30 34
REMARK SMILES IDX 31 35 77 36 32 37 76 38 33 39 34 40 35 41 70 42 36 43 75 44
REMARK SMILES IDX 69 45 71 46 37 47 74 48 68 49 67 50 38 52 60 53 45 54 59 55
REMARK SMILES IDX 46 56 49 57 58 58 72 59 47 60 48 61 57 63 73 64 50 65 39 66
REMARK SMILES IDX 40 67 44 68 41 69 43 70 42 71 61 72 62 73 66 74 63 75 65 76
REMARK SMILES IDX 64 77 51 78 52 79 56 80 53 81 55 82 54 83
REMARK H PARENT 20 7 27 32 71 51 49 62
REMARK Flexibility Score: inf
ROOT
ATOM      1  C   UNL A   1      34.302  26.059  25.049  1.00  0.00     0.002 C 
ENDROOT
BRANCH   1   2
ATOM      2  C   UNL A   1      33.903  27.178  26.012  1.00  0.00     0.021 C 
BRANCH   2   3
ATOM      3  C   UNL A   1      34.283  28.600  25.614  1.00  0.00     0.116 C 
BRANCH   3   4
ATOM      4  N   UNL A   1      33.511  29.646  26.263  1.00  0.00    -0.352 N 
ATOM      5  C   UNL A   1      32.192  30.016  26.103  1.00  0.00     0.251 C 
ATOM      6  O   UNL A   1      31.753  30.961  26.752  1.00  0.00    -0.269 OA
ATOM      7  H   UNL A   1      34.011  30.176  26.926  1.00  0.00     0.163 HD
BRANCH   5   8
ATOM      8  C   UNL A   1      31.301  29.338  25.123  1.00  0.00     0.041 A 
ATOM      9  C   UNL A   1      30.533  27.302  24.010  1.00  0.00    -0.016 A 
ATOM     10  C   UNL A   1      29.865  28.095  23.068  1.00  0.00     0.029 A 
ATOM     11  C   UNL A   1      31.162  27.950  25.087  1.00  0.00     0.022 A 
ATOM     12  C   UNL A   1      29.889  29.490  23.177  1.00  0.00     0.042 A 
ATOM     13  Cl  UNL A   1      29.068  30.443  22.001  1.00  0.00    -0.084 Cl
ATOM     14  C   UNL A   1      30.622  30.116  24.182  1.00  0.00     0.034 A 
BRANCH   9  15
ATOM     15  C   UNL A   1      30.769  25.860  23.815  1.00  0.00    -0.017 A 
ATOM     16  C   UNL A   1      31.216  23.660  24.748  1.00  0.00     0.083 A 
ATOM     17  C   UNL A   1      31.745  23.222  23.532  1.00  0.00     0.022 A 
ATOM     18  C   UNL A   1      30.702  24.954  24.885  1.00  0.00     0.030 A 
ATOM     19  C   UNL A   1      31.751  24.086  22.442  1.00  0.00     0.002 A 
ATOM     20  C   UNL A   1      31.276  25.393  22.585  1.00  0.00     0.009 A 
BRANCH  16  21
ATOM     21  S   UNL A   1      31.313  22.593  26.163  1.00  0.00     0.242 S 
ATOM     22  O   UNL A   1      30.148  21.724  26.145  1.00  0.00    -0.207 OA
ATOM     23  O   UNL A   1      31.619  23.426  27.298  1.00  0.00    -0.207 OA
BRANCH  21  24
ATOM     24  N   UNL A   1      32.669  21.587  25.842  1.00  0.00    -0.204 NA
ATOM     25  C   UNL A   1      33.526  21.396  27.040  1.00  0.00     0.124 C 
ATOM     26  C   UNL A   1      32.359  20.289  25.205  1.00  0.00     0.124 C 
ENDBRANCH  21  24
ENDBRANCH  16  21
ENDBRANCH   9  15
ENDBRANCH   5   8
ENDBRANCH   3   4
ENDBRANCH   2   3
ENDBRANCH   1   2
BRANCH   1  27
ATOM     27  C   UNL A   1      34.554  24.677  25.655  1.00  0.00     0.002 C 
BRANCH  27  28
ATOM     28  C   UNL A   1      36.000  24.335  26.017  1.00  0.00     0.021 C 
BRANCH  28  29
ATOM     29  C   UNL A   1      36.872  23.769  24.902  1.00  0.00     0.116 C 
BRANCH  29  30
ATOM     30  N   UNL A   1      37.751  22.703  25.343  1.00  0.00    -0.352 N 
ATOM     31  C   UNL A   1      38.873  22.754  26.135  1.00  0.00     0.251 C 
ATOM     32  H   UNL A   1      37.506  21.803  25.026  1.00  0.00     0.163 HD
ATOM     33  O   UNL A   1      39.537  21.736  26.312  1.00  0.00    -0.269 OA
BRANCH  31  34
ATOM     34  C   UNL A   1      39.315  24.027  26.755  1.00  0.00     0.039 A 
ATOM     35  C   UNL A   1      40.107  24.897  25.997  1.00  0.00     0.014 A 
ATOM     36  C   UNL A   1      38.997  24.355  28.076  1.00  0.00     0.014 A 
ATOM     37  C   UNL A   1      40.530  26.114  26.540  1.00  0.00     0.010 A 
ATOM     38  C   UNL A   1      39.366  25.597  28.595  1.00  0.00     0.010 A 
ATOM     39  C   UNL A   1      40.141  26.486  27.836  1.00  0.00    -0.014 A 
BRANCH  39  40
ATOM     40  C   UNL A   1      40.552  27.791  28.417  1.00  0.00     0.031 A 
ATOM     41  C   UNL A   1      41.976  28.014  28.848  1.00  0.00     0.074 A 
ATOM     42  C   UNL A   1      39.637  28.762  28.604  1.00  0.00     0.049 A 
ATOM     43  N   UNL A   1      42.509  29.056  29.436  1.00  0.00    -0.248 NA
ATOM     44  C   UNL A   1      42.920  26.912  28.605  1.00  0.00     0.031 C 
ATOM     45  C   UNL A   1      38.218  28.671  28.257  1.00  0.00     0.029 A 
ATOM     46  N   UNL A   1      39.767  30.017  29.145  1.00  0.00    -0.354 N 
ATOM     47  C   UNL A   1      43.841  28.727  29.652  1.00  0.00     0.074 A 
ATOM     48  C   UNL A   1      44.027  27.376  29.167  1.00  0.00     0.031 C 
ATOM     49  C   UNL A   1      37.613  29.828  28.574  1.00  0.00     0.029 A 
ATOM     50  C   UNL A   1      38.591  30.727  29.177  1.00  0.00     0.049 A 
ATOM     51  H   UNL A   1      40.621  30.374  29.479  1.00  0.00     0.167 HD
ATOM     52  C   UNL A   1      44.826  29.485  30.189  1.00  0.00     0.031 A 
ATOM     53  C   UNL A   1      38.328  31.962  29.643  1.00  0.00     0.031 A 
ATOM     54  C   UNL A   1      44.655  30.834  30.657  1.00  0.00     0.049 A 
ATOM     55  C   UNL A   1      39.438  32.783  30.239  1.00  0.00     0.074 A 
ATOM     56  C   UNL A   1      45.605  31.695  31.178  1.00  0.00     0.029 A 
ATOM     57  N   UNL A   1      43.451  31.520  30.656  1.00  0.00    -0.354 N 
ATOM     58  N   UNL A   1      40.703  32.473  30.393  1.00  0.00    -0.248 NA
ATOM     59  C   UNL A   1      39.084  34.128  30.715  1.00  0.00     0.031 C 
ATOM     60  C   UNL A   1      44.970  32.892  31.522  1.00  0.00     0.029 A 
ATOM     61  C   UNL A   1      43.632  32.791  31.177  1.00  0.00     0.049 A 
ATOM     62  H   UNL A   1      42.594  31.159  30.333  1.00  0.00     0.167 HD
ATOM     63  C   UNL A   1      41.300  33.593  30.955  1.00  0.00     0.074 A 
ATOM     64  C   UNL A   1      40.263  34.594  31.105  1.00  0.00     0.031 C 
ATOM     65  C   UNL A   1      42.594  33.778  31.312  1.00  0.00     0.031 A 
BRANCH  52  66
ATOM     66  C   UNL A   1      46.188  28.860  30.305  1.00  0.00    -0.014 A 
ATOM     67  C   UNL A   1      46.562  28.144  31.454  1.00  0.00     0.009 A 
ATOM     68  C   UNL A   1      47.099  28.964  29.243  1.00  0.00     0.009 A 
ATOM     69  C   UNL A   1      47.833  27.576  31.551  1.00  0.00     0.001 A 
ATOM     70  C   UNL A   1      48.361  28.373  29.332  1.00  0.00     0.001 A 
ATOM     71  C   UNL A   1      48.730  27.688  30.489  1.00  0.00     0.000 A 
ENDBRANCH  52  66
BRANCH  53  72
ATOM     72  C   UNL A   1      36.953  32.517  29.547  1.00  0.00    -0.014 A 
ATOM     73  C   UNL A   1      36.553  33.222  28.402  1.00  0.00     0.009 A 
ATOM     74  C   UNL A   1      36.041  32.355  30.601  1.00  0.00     0.009 A 
ATOM     75  C   UNL A   1      35.273  33.776  28.323  1.00  0.00     0.001 A 
ATOM     76  C   UNL A   1      34.754  32.889  30.509  1.00  0.00     0.001 A 
ATOM     77  C   UNL A   1      34.374  33.607  29.375  1.00  0.00     0.000 A 
ENDBRANCH  53  72
BRANCH  65  78
ATOM     78  C   UNL A   1      42.969  35.124  31.860  1.00  0.00    -0.014 A 
ATOM     79  C   UNL A   1      42.796  35.433  33.217  1.00  0.00     0.009 A 
ATOM     80  C   UNL A   1      43.540  36.083  31.008  1.00  0.00     0.009 A 
ATOM     81  C   UNL A   1      43.160  36.690  33.705  1.00  0.00     0.001 A 
ATOM     82  C   UNL A   1      43.923  37.330  31.503  1.00  0.00     0.001 A 
ATOM     83  C   UNL A   1      43.725  37.635  32.849  1.00  0.00     0.000 A 
ENDBRANCH  65  78
ENDBRANCH  39  40
ENDBRANCH  31  34
ENDBRANCH  29  30
ENDBRANCH  28  29
ENDBRANCH  27  28
ENDBRANCH   1  27
TORSDOF 16
ENDMDL
