MODEL 1
REMARK VINA RESULT:     -11.5      0.000      0.000
REMARK SMILES O=C(COc1ccccc1/C=C1\C(=O)Nc2ccccc21)NCCCCCCNC(=O)c1ccc(-c2c3nc(c(-c4ccccc4)c4ccc([nH]4)c(-c4ccccc4)c4nc(c(-c5ccccc5)c5ccc2[nH]5)C=C4)C=C3)cc1
REMARK SMILES IDX 25 1 24 2 23 3 22 4 1 5 2 6 3 8 4 9 5 10 6 11 10 12 7 13
REMARK SMILES IDX 9 14 8 15 11 16 12 17 13 18 21 19 14 20 15 21 16 22 20 23
REMARK SMILES IDX 17 25 19 26 18 27 26 28 27 29 28 30 29 31 30 32 31 34 32 35
REMARK SMILES IDX 33 36 79 37 34 38 78 39 35 40 36 41 37 42 72 43 38 44 77 45
REMARK SMILES IDX 71 46 73 47 39 48 76 49 70 50 69 51 40 53 62 54 47 55 61 56
REMARK SMILES IDX 48 57 51 58 60 59 74 60 49 61 50 62 59 64 75 65 52 66 41 67
REMARK SMILES IDX 42 68 46 69 43 70 45 71 44 72 63 73 64 74 68 75 65 76 67 77
REMARK SMILES IDX 66 78 53 79 54 80 58 81 55 82 57 83 56 84
REMARK H PARENT 22 7 15 24 29 33 73 52 51 63
REMARK Flexibility Score: inf
ROOT
ATOM      1  C   UNL A   1      34.670  32.917  29.229  1.00  0.00     0.002 C 
ENDROOT
BRANCH   1   2
ATOM      2  C   UNL A   1      34.911  31.947  28.066  1.00  0.00     0.021 C 
BRANCH   2   3
ATOM      3  C   UNL A   1      33.675  31.199  27.605  1.00  0.00     0.116 C 
BRANCH   3   4
ATOM      4  N   UNL A   1      33.852  29.780  27.485  1.00  0.00    -0.353 N 
ATOM      5  O   UNL A   1      32.243  29.402  25.873  1.00  0.00    -0.271 OA
ATOM      6  C   UNL A   1      33.244  29.044  26.482  1.00  0.00     0.257 C 
ATOM      7  H   UNL A   1      34.424  29.314  28.138  1.00  0.00     0.163 HD
BRANCH   6   8
ATOM      8  C   UNL A   1      33.975  27.740  26.202  1.00  0.00     0.329 C 
BRANCH   8   9
ATOM      9  O   UNL A   1      32.940  26.747  26.134  1.00  0.00    -0.483 OA
BRANCH   9  10
ATOM     10  C   UNL A   1      33.170  25.783  25.189  1.00  0.00     0.127 A 
ATOM     11  C   UNL A   1      34.294  24.968  25.392  1.00  0.00     0.047 A 
ATOM     12  C   UNL A   1      32.439  25.746  23.982  1.00  0.00     0.017 A 
ATOM     13  C   UNL A   1      34.736  24.126  24.379  1.00  0.00     0.004 A 
ATOM     14  C   UNL A   1      32.991  24.983  22.943  1.00  0.00     0.012 A 
ATOM     15  C   UNL A   1      34.103  24.159  23.144  1.00  0.00     0.001 A 
BRANCH  12  16
ATOM     16  C   UNL A   1      31.169  26.496  23.764  1.00  0.00     0.026 C 
ATOM     17  C   UNL A   1      30.999  27.688  23.146  1.00  0.00     0.050 C 
ATOM     18  C   UNL A   1      32.090  28.554  22.528  1.00  0.00     0.256 C 
ATOM     19  C   UNL A   1      29.732  28.433  22.917  1.00  0.00     0.011 A 
ATOM     20  O   UNL A   1      33.274  28.336  22.392  1.00  0.00    -0.269 OA
ATOM     21  N   UNL A   1      31.455  29.708  22.111  1.00  0.00    -0.321 N 
ATOM     22  C   UNL A   1      30.087  29.637  22.298  1.00  0.00     0.049 A 
ATOM     23  C   UNL A   1      28.388  28.187  23.138  1.00  0.00     0.011 A 
ATOM     24  H   UNL A   1      31.921  30.486  21.729  1.00  0.00     0.170 HD
ATOM     25  C   UNL A   1      29.175  30.595  21.891  1.00  0.00     0.027 A 
ATOM     26  C   UNL A   1      27.433  29.122  22.701  1.00  0.00     0.001 A 
ATOM     27  C   UNL A   1      27.824  30.320  22.085  1.00  0.00     0.002 A 
ENDBRANCH  12  16
ENDBRANCH   9  10
ENDBRANCH   8   9
ENDBRANCH   6   8
ENDBRANCH   3   4
ENDBRANCH   2   3
ENDBRANCH   1   2
BRANCH   1  28
ATOM     28  C   UNL A   1      34.830  34.410  28.916  1.00  0.00     0.002 C 
BRANCH  28  29
ATOM     29  C   UNL A   1      33.537  35.227  28.854  1.00  0.00     0.021 C 
BRANCH  29  30
ATOM     30  C   UNL A   1      33.463  36.407  29.816  1.00  0.00     0.116 C 
BRANCH  30  31
ATOM     31  N   UNL A   1      32.440  36.244  30.834  1.00  0.00    -0.352 N 
ATOM     32  C   UNL A   1      32.481  35.540  32.012  1.00  0.00     0.251 C 
ATOM     33  H   UNL A   1      31.590  36.706  30.653  1.00  0.00     0.163 HD
ATOM     34  O   UNL A   1      31.463  35.406  32.683  1.00  0.00    -0.269 OA
BRANCH  32  35
ATOM     35  C   UNL A   1      33.744  34.910  32.460  1.00  0.00     0.039 A 
ATOM     36  C   UNL A   1      33.706  33.593  32.922  1.00  0.00     0.014 A 
ATOM     37  C   UNL A   1      34.956  35.606  32.430  1.00  0.00     0.014 A 
ATOM     38  C   UNL A   1      34.890  32.953  33.289  1.00  0.00     0.010 A 
ATOM     39  C   UNL A   1      36.146  34.942  32.719  1.00  0.00     0.010 A 
ATOM     40  C   UNL A   1      36.126  33.608  33.151  1.00  0.00    -0.014 A 
BRANCH  40  41
ATOM     41  C   UNL A   1      37.397  32.889  33.423  1.00  0.00     0.031 A 
ATOM     42  C   UNL A   1      38.167  33.133  34.691  1.00  0.00     0.074 A 
ATOM     43  C   UNL A   1      37.882  32.038  32.497  1.00  0.00     0.049 A 
ATOM     44  N   UNL A   1      39.280  32.577  35.100  1.00  0.00    -0.248 NA
ATOM     45  C   UNL A   1      37.631  34.148  35.610  1.00  0.00     0.031 C 
ATOM     46  C   UNL A   1      37.256  31.746  31.205  1.00  0.00     0.029 A 
ATOM     47  N   UNL A   1      39.009  31.254  32.504  1.00  0.00    -0.354 N 
ATOM     48  C   UNL A   1      39.581  33.180  36.314  1.00  0.00     0.074 A 
ATOM     49  C   UNL A   1      38.565  34.184  36.548  1.00  0.00     0.031 C 
ATOM     50  C   UNL A   1      37.978  30.812  30.569  1.00  0.00     0.029 A 
ATOM     51  C   UNL A   1      39.141  30.473  31.382  1.00  0.00     0.049 A 
ATOM     52  H   UNL A   1      39.659  31.252  33.242  1.00  0.00     0.167 HD
ATOM     53  C   UNL A   1      40.600  32.913  37.166  1.00  0.00     0.031 A 
ATOM     54  C   UNL A   1      40.090  29.580  31.043  1.00  0.00     0.031 A 
ATOM     55  C   UNL A   1      41.616  31.921  36.927  1.00  0.00     0.049 A 
ATOM     56  C   UNL A   1      41.226  29.323  31.992  1.00  0.00     0.074 A 
ATOM     57  C   UNL A   1      42.656  31.533  37.756  1.00  0.00     0.029 A 
ATOM     58  N   UNL A   1      41.731  31.171  35.767  1.00  0.00    -0.354 N 
ATOM     59  N   UNL A   1      41.449  29.839  33.176  1.00  0.00    -0.248 NA
ATOM     60  C   UNL A   1      42.237  28.349  31.557  1.00  0.00     0.031 C 
ATOM     61  C   UNL A   1      43.441  30.603  37.067  1.00  0.00     0.029 A 
ATOM     62  C   UNL A   1      42.848  30.353  35.839  1.00  0.00     0.049 A 
ATOM     63  H   UNL A   1      41.112  31.213  35.003  1.00  0.00     0.167 HD
ATOM     64  C   UNL A   1      42.610  29.235  33.639  1.00  0.00     0.074 A 
ATOM     65  C   UNL A   1      43.030  28.297  32.618  1.00  0.00     0.031 C 
ATOM     66  C   UNL A   1      43.269  29.438  34.807  1.00  0.00     0.031 A 
BRANCH  53  67
ATOM     67  C   UNL A   1      40.676  33.730  38.430  1.00  0.00    -0.014 A 
ATOM     68  C   UNL A   1      40.035  33.319  39.611  1.00  0.00     0.009 A 
ATOM     69  C   UNL A   1      41.418  34.921  38.445  1.00  0.00     0.009 A 
ATOM     70  C   UNL A   1      40.094  34.108  40.762  1.00  0.00     0.001 A 
ATOM     71  C   UNL A   1      41.505  35.690  39.608  1.00  0.00     0.001 A 
ATOM     72  C   UNL A   1      40.832  35.290  40.761  1.00  0.00     0.000 A 
ENDBRANCH  53  67
BRANCH  54  73
ATOM     73  C   UNL A   1      39.991  28.845  29.754  1.00  0.00    -0.014 A 
ATOM     74  C   UNL A   1      39.417  27.565  29.706  1.00  0.00     0.009 A 
ATOM     75  C   UNL A   1      40.464  29.421  28.564  1.00  0.00     0.009 A 
ATOM     76  C   UNL A   1      39.339  26.869  28.498  1.00  0.00     0.001 A 
ATOM     77  C   UNL A   1      40.354  28.735  27.353  1.00  0.00     0.001 A 
ATOM     78  C   UNL A   1      39.801  27.457  27.322  1.00  0.00     0.000 A 
ENDBRANCH  54  73
BRANCH  66  79
ATOM     79  C   UNL A   1      44.505  28.613  35.048  1.00  0.00    -0.014 A 
ATOM     80  C   UNL A   1      44.435  27.349  35.656  1.00  0.00     0.009 A 
ATOM     81  C   UNL A   1      45.757  29.102  34.644  1.00  0.00     0.009 A 
ATOM     82  C   UNL A   1      45.599  26.614  35.896  1.00  0.00     0.001 A 
ATOM     83  C   UNL A   1      46.914  28.349  34.851  1.00  0.00     0.001 A 
ATOM     84  C   UNL A   1      46.835  27.112  35.490  1.00  0.00     0.000 A 
ENDBRANCH  66  79
ENDBRANCH  40  41
ENDBRANCH  32  35
ENDBRANCH  30  31
ENDBRANCH  29  30
ENDBRANCH  28  29
ENDBRANCH   1  28
TORSDOF 16
ENDMDL
MODEL 2
REMARK VINA RESULT:     -11.4      4.212      8.091
REMARK SMILES O=C(COc1ccccc1/C=C1\C(=O)Nc2ccccc21)NCCCCCCNC(=O)c1ccc(-c2c3nc(c(-c4ccccc4)c4ccc([nH]4)c(-c4ccccc4)c4nc(c(-c5ccccc5)c5ccc2[nH]5)C=C4)C=C3)cc1
REMARK SMILES IDX 25 1 24 2 23 3 22 4 1 5 2 6 3 8 4 9 5 10 6 11 10 12 7 13
REMARK SMILES IDX 9 14 8 15 11 16 12 17 13 18 21 19 14 20 15 21 16 22 20 23
REMARK SMILES IDX 17 25 19 26 18 27 26 28 27 29 28 30 29 31 30 32 31 34 32 35
REMARK SMILES IDX 33 36 79 37 34 38 78 39 35 40 36 41 37 42 72 43 38 44 77 45
REMARK SMILES IDX 71 46 73 47 39 48 76 49 70 50 69 51 40 53 62 54 47 55 61 56
REMARK SMILES IDX 48 57 51 58 60 59 74 60 49 61 50 62 59 64 75 65 52 66 41 67
REMARK SMILES IDX 42 68 46 69 43 70 45 71 44 72 63 73 64 74 68 75 65 76 67 77
REMARK SMILES IDX 66 78 53 79 54 80 58 81 55 82 57 83 56 84
REMARK H PARENT 22 7 15 24 29 33 73 52 51 63
REMARK Flexibility Score: inf
ROOT
ATOM      1  C   UNL A   1      35.426  33.581  28.423  1.00  0.00     0.002 C 
ENDROOT
BRANCH   1   2
ATOM      2  C   UNL A   1      35.486  32.114  27.979  1.00  0.00     0.021 C 
BRANCH   2   3
ATOM      3  C   UNL A   1      34.132  31.461  27.782  1.00  0.00     0.116 C 
BRANCH   3   4
ATOM      4  N   UNL A   1      34.181  30.039  27.600  1.00  0.00    -0.353 N 
ATOM      5  O   UNL A   1      32.745  29.907  25.796  1.00  0.00    -0.271 OA
ATOM      6  C   UNL A   1      33.627  29.418  26.493  1.00  0.00     0.257 C 
ATOM      7  H   UNL A   1      34.623  29.485  28.286  1.00  0.00     0.163 HD
BRANCH   6   8
ATOM      8  C   UNL A   1      34.254  28.059  26.222  1.00  0.00     0.329 C 
BRANCH   8   9
ATOM      9  O   UNL A   1      33.145  27.149  26.167  1.00  0.00    -0.483 OA
BRANCH   9  10
ATOM     10  C   UNL A   1      33.357  26.081  25.336  1.00  0.00     0.127 A 
ATOM     11  C   UNL A   1      34.500  25.309  25.594  1.00  0.00     0.047 A 
ATOM     12  C   UNL A   1      32.584  25.890  24.170  1.00  0.00     0.017 A 
ATOM     13  C   UNL A   1      34.919  24.357  24.673  1.00  0.00     0.004 A 
ATOM     14  C   UNL A   1      33.111  25.015  23.210  1.00  0.00     0.012 A 
ATOM     15  C   UNL A   1      34.243  24.234  23.467  1.00  0.00     0.001 A 
BRANCH  12  16
ATOM     16  C   UNL A   1      31.295  26.595  23.911  1.00  0.00     0.026 C 
ATOM     17  C   UNL A   1      31.097  27.751  23.235  1.00  0.00     0.050 C 
ATOM     18  C   UNL A   1      32.167  28.615  22.582  1.00  0.00     0.256 C 
ATOM     19  C   UNL A   1      29.811  28.449  22.966  1.00  0.00     0.011 A 
ATOM     20  O   UNL A   1      33.358  28.423  22.461  1.00  0.00    -0.269 OA
ATOM     21  N   UNL A   1      31.503  29.730  22.107  1.00  0.00    -0.321 N 
ATOM     22  C   UNL A   1      30.136  29.631  22.291  1.00  0.00     0.049 A 
ATOM     23  C   UNL A   1      28.473  28.177  23.192  1.00  0.00     0.011 A 
ATOM     24  H   UNL A   1      31.951  30.502  21.690  1.00  0.00     0.170 HD
ATOM     25  C   UNL A   1      29.201  30.543  21.835  1.00  0.00     0.027 A 
ATOM     26  C   UNL A   1      27.495  29.064  22.708  1.00  0.00     0.001 A 
ATOM     27  C   UNL A   1      27.858  30.241  22.036  1.00  0.00     0.002 A 
ENDBRANCH  12  16
ENDBRANCH   9  10
ENDBRANCH   8   9
ENDBRANCH   6   8
ENDBRANCH   3   4
ENDBRANCH   2   3
ENDBRANCH   1   2
BRANCH   1  28
ATOM     28  C   UNL A   1      34.222  33.983  29.285  1.00  0.00     0.002 C 
BRANCH  28  29
ATOM     29  C   UNL A   1      34.449  33.986  30.798  1.00  0.00     0.021 C 
BRANCH  29  30
ATOM     30  C   UNL A   1      34.724  32.622  31.420  1.00  0.00     0.116 C 
BRANCH  30  31
ATOM     31  N   UNL A   1      35.252  32.712  32.771  1.00  0.00    -0.352 N 
ATOM     32  C   UNL A   1      36.423  32.217  33.288  1.00  0.00     0.251 C 
ATOM     33  H   UNL A   1      34.685  33.200  33.410  1.00  0.00     0.163 HD
ATOM     34  O   UNL A   1      36.636  32.277  34.494  1.00  0.00    -0.269 OA
BRANCH  32  35
ATOM     35  C   UNL A   1      37.420  31.580  32.398  1.00  0.00     0.039 A 
ATOM     36  C   UNL A   1      37.547  32.055  31.090  1.00  0.00     0.014 A 
ATOM     37  C   UNL A   1      38.223  30.525  32.839  1.00  0.00     0.014 A 
ATOM     38  C   UNL A   1      38.523  31.517  30.250  1.00  0.00     0.010 A 
ATOM     39  C   UNL A   1      39.249  30.045  32.028  1.00  0.00     0.010 A 
ATOM     40  C   UNL A   1      39.410  30.537  30.725  1.00  0.00    -0.014 A 
BRANCH  40  41
ATOM     41  C   UNL A   1      40.527  30.052  29.874  1.00  0.00     0.031 A 
ATOM     42  C   UNL A   1      40.444  28.725  29.171  1.00  0.00     0.074 A 
ATOM     43  C   UNL A   1      41.645  30.797  29.768  1.00  0.00     0.049 A 
ATOM     44  N   UNL A   1      41.314  28.159  28.373  1.00  0.00    -0.248 NA
ATOM     45  C   UNL A   1      39.237  27.920  29.411  1.00  0.00     0.031 C 
ATOM     46  C   UNL A   1      41.872  32.082  30.435  1.00  0.00     0.029 A 
ATOM     47  N   UNL A   1      42.797  30.589  29.052  1.00  0.00    -0.354 N 
ATOM     48  C   UNL A   1      40.766  26.931  28.025  1.00  0.00     0.074 A 
ATOM     49  C   UNL A   1      39.516  26.811  28.744  1.00  0.00     0.031 C 
ATOM     50  C   UNL A   1      43.063  32.569  30.057  1.00  0.00     0.029 A 
ATOM     51  C   UNL A   1      43.705  31.613  29.161  1.00  0.00     0.049 A 
ATOM     52  H   UNL A   1      42.956  29.781  28.512  1.00  0.00     0.167 HD
ATOM     53  C   UNL A   1      41.250  25.995  27.173  1.00  0.00     0.031 A 
ATOM     54  C   UNL A   1      44.919  31.772  28.600  1.00  0.00     0.031 A 
ATOM     55  C   UNL A   1      42.499  26.112  26.467  1.00  0.00     0.049 A 
ATOM     56  C   UNL A   1      45.446  30.705  27.682  1.00  0.00     0.074 A 
ATOM     57  C   UNL A   1      43.048  25.247  25.536  1.00  0.00     0.029 A 
ATOM     58  N   UNL A   1      43.403  27.152  26.625  1.00  0.00    -0.354 N 
ATOM     59  N   UNL A   1      44.877  29.590  27.296  1.00  0.00    -0.248 NA
ATOM     60  C   UNL A   1      46.783  30.930  27.115  1.00  0.00     0.031 C 
ATOM     61  C   UNL A   1      44.315  25.725  25.188  1.00  0.00     0.029 A 
ATOM     62  C   UNL A   1      44.525  26.929  25.843  1.00  0.00     0.049 A 
ATOM     63  H   UNL A   1      43.268  27.933  27.209  1.00  0.00     0.167 HD
ATOM     64  C   UNL A   1      45.774  28.991  26.421  1.00  0.00     0.074 A 
ATOM     65  C   UNL A   1      46.913  29.880  26.317  1.00  0.00     0.031 C 
ATOM     66  C   UNL A   1      45.663  27.810  25.762  1.00  0.00     0.031 A 
BRANCH  53  67
ATOM     67  C   UNL A   1      40.429  24.747  26.980  1.00  0.00    -0.014 A 
ATOM     68  C   UNL A   1      39.191  24.776  26.316  1.00  0.00     0.009 A 
ATOM     69  C   UNL A   1      40.911  23.516  27.453  1.00  0.00     0.009 A 
ATOM     70  C   UNL A   1      38.433  23.610  26.175  1.00  0.00     0.001 A 
ATOM     71  C   UNL A   1      40.168  22.347  27.279  1.00  0.00     0.001 A 
ATOM     72  C   UNL A   1      38.924  22.397  26.653  1.00  0.00     0.000 A 
ENDBRANCH  53  67
BRANCH  54  73
ATOM     73  C   UNL A   1      45.708  33.001  28.875  1.00  0.00    -0.014 A 
ATOM     74  C   UNL A   1      46.626  33.035  29.937  1.00  0.00     0.009 A 
ATOM     75  C   UNL A   1      45.555  34.144  28.075  1.00  0.00     0.009 A 
ATOM     76  C   UNL A   1      47.355  34.195  30.205  1.00  0.00     0.001 A 
ATOM     77  C   UNL A   1      46.310  35.291  28.325  1.00  0.00     0.001 A 
ATOM     78  C   UNL A   1      47.203  35.319  29.395  1.00  0.00     0.000 A 
ENDBRANCH  54  73
BRANCH  66  79
ATOM     79  C   UNL A   1      46.800  27.425  24.853  1.00  0.00    -0.014 A 
ATOM     80  C   UNL A   1      46.951  28.004  23.584  1.00  0.00     0.009 A 
ATOM     81  C   UNL A   1      47.743  26.479  25.284  1.00  0.00     0.009 A 
ATOM     82  C   UNL A   1      47.997  27.608  22.746  1.00  0.00     0.001 A 
ATOM     83  C   UNL A   1      48.809  26.113  24.460  1.00  0.00     0.001 A 
ATOM     84  C   UNL A   1      48.927  26.667  23.187  1.00  0.00     0.000 A 
ENDBRANCH  66  79
ENDBRANCH  40  41
ENDBRANCH  32  35
ENDBRANCH  30  31
ENDBRANCH  29  30
ENDBRANCH  28  29
ENDBRANCH   1  28
TORSDOF 16
ENDMDL
MODEL 3
REMARK VINA RESULT:     -11.4      2.418      3.551
REMARK SMILES O=C(COc1ccccc1/C=C1\C(=O)Nc2ccccc21)NCCCCCCNC(=O)c1ccc(-c2c3nc(c(-c4ccccc4)c4ccc([nH]4)c(-c4ccccc4)c4nc(c(-c5ccccc5)c5ccc2[nH]5)C=C4)C=C3)cc1
REMARK SMILES IDX 25 1 24 2 23 3 22 4 1 5 2 6 3 8 4 9 5 10 6 11 10 12 7 13
REMARK SMILES IDX 9 14 8 15 11 16 12 17 13 18 21 19 14 20 15 21 16 22 20 23
REMARK SMILES IDX 17 25 19 26 18 27 26 28 27 29 28 30 29 31 30 32 31 34 32 35
REMARK SMILES IDX 33 36 79 37 34 38 78 39 35 40 36 41 37 42 72 43 38 44 77 45
REMARK SMILES IDX 71 46 73 47 39 48 76 49 70 50 69 51 40 53 62 54 47 55 61 56
REMARK SMILES IDX 48 57 51 58 60 59 74 60 49 61 50 62 59 64 75 65 52 66 41 67
REMARK SMILES IDX 42 68 46 69 43 70 45 71 44 72 63 73 64 74 68 75 65 76 67 77
REMARK SMILES IDX 66 78 53 79 54 80 58 81 55 82 57 83 56 84
REMARK H PARENT 22 7 15 24 29 33 73 52 51 63
REMARK Flexibility Score: inf
ROOT
ATOM      1  C   UNL A   1      31.750  29.062  26.938  1.00  0.00     0.002 C 
ENDROOT
BRANCH   1   2
ATOM      2  C   UNL A   1      32.305  27.725  26.430  1.00  0.00     0.021 C 
BRANCH   2   3
ATOM      3  C   UNL A   1      31.309  26.583  26.451  1.00  0.00     0.116 C 
BRANCH   3   4
ATOM      4  N   UNL A   1      31.855  25.330  26.891  1.00  0.00    -0.353 N 
ATOM      5  O   UNL A   1      29.892  24.114  26.874  1.00  0.00    -0.271 OA
ATOM      6  C   UNL A   1      31.116  24.159  26.874  1.00  0.00     0.257 C 
ATOM      7  H   UNL A   1      32.784  25.303  27.216  1.00  0.00     0.163 HD
BRANCH   6   8
ATOM      8  C   UNL A   1      32.001  22.922  26.834  1.00  0.00     0.329 C 
BRANCH   8   9
ATOM      9  O   UNL A   1      32.772  23.063  25.630  1.00  0.00    -0.483 OA
BRANCH   9  10
ATOM     10  C   UNL A   1      32.361  22.235  24.620  1.00  0.00     0.127 A 
ATOM     11  C   UNL A   1      32.795  20.903  24.690  1.00  0.00     0.047 A 
ATOM     12  C   UNL A   1      31.711  22.740  23.473  1.00  0.00     0.017 A 
ATOM     13  C   UNL A   1      32.625  20.056  23.602  1.00  0.00     0.004 A 
ATOM     14  C   UNL A   1      31.675  21.895  22.354  1.00  0.00     0.012 A 
ATOM     15  C   UNL A   1      32.095  20.563  22.423  1.00  0.00     0.001 A 
BRANCH  12  16
ATOM     16  C   UNL A   1      31.119  24.107  23.395  1.00  0.00     0.026 C 
ATOM     17  C   UNL A   1      31.733  25.263  23.049  1.00  0.00     0.050 C 
ATOM     18  C   UNL A   1      33.196  25.434  22.663  1.00  0.00     0.256 C 
ATOM     19  C   UNL A   1      31.143  26.626  22.960  1.00  0.00     0.011 A 
ATOM     20  O   UNL A   1      34.064  24.602  22.509  1.00  0.00    -0.269 OA
ATOM     21  N   UNL A   1      33.378  26.793  22.494  1.00  0.00    -0.321 N 
ATOM     22  C   UNL A   1      32.192  27.491  22.628  1.00  0.00     0.049 A 
ATOM     23  C   UNL A   1      29.874  27.164  23.090  1.00  0.00     0.011 A 
ATOM     24  H   UNL A   1      34.248  27.213  22.302  1.00  0.00     0.170 HD
ATOM     25  C   UNL A   1      32.037  28.850  22.420  1.00  0.00     0.027 A 
ATOM     26  C   UNL A   1      29.675  28.534  22.847  1.00  0.00     0.001 A 
ATOM     27  C   UNL A   1      30.750  29.372  22.518  1.00  0.00     0.002 A 
ENDBRANCH  12  16
ENDBRANCH   9  10
ENDBRANCH   8   9
ENDBRANCH   6   8
ENDBRANCH   3   4
ENDBRANCH   2   3
ENDBRANCH   1   2
BRANCH   1  28
ATOM     28  C   UNL A   1      31.724  30.217  25.928  1.00  0.00     0.002 C 
BRANCH  28  29
ATOM     29  C   UNL A   1      31.494  31.613  26.509  1.00  0.00     0.021 C 
BRANCH  29  30
ATOM     30  C   UNL A   1      32.706  32.252  27.177  1.00  0.00     0.116 C 
BRANCH  30  31
ATOM     31  N   UNL A   1      32.461  33.617  27.608  1.00  0.00    -0.352 N 
ATOM     32  C   UNL A   1      33.180  34.404  28.474  1.00  0.00     0.251 C 
ATOM     33  H   UNL A   1      31.661  34.041  27.223  1.00  0.00     0.163 HD
ATOM     34  O   UNL A   1      32.739  35.494  28.823  1.00  0.00    -0.269 OA
BRANCH  32  35
ATOM     35  C   UNL A   1      34.472  33.928  29.016  1.00  0.00     0.039 A 
ATOM     36  C   UNL A   1      34.463  33.155  30.180  1.00  0.00     0.014 A 
ATOM     37  C   UNL A   1      35.684  34.237  28.391  1.00  0.00     0.014 A 
ATOM     38  C   UNL A   1      35.660  32.638  30.677  1.00  0.00     0.010 A 
ATOM     39  C   UNL A   1      36.866  33.654  28.841  1.00  0.00     0.010 A 
ATOM     40  C   UNL A   1      36.867  32.848  29.988  1.00  0.00    -0.014 A 
BRANCH  40  41
ATOM     41  C   UNL A   1      38.122  32.197  30.445  1.00  0.00     0.031 A 
ATOM     42  C   UNL A   1      38.965  32.816  31.525  1.00  0.00     0.074 A 
ATOM     43  C   UNL A   1      38.525  31.057  29.851  1.00  0.00     0.049 A 
ATOM     44  N   UNL A   1      40.075  32.373  32.061  1.00  0.00    -0.248 NA
ATOM     45  C   UNL A   1      38.516  34.111  32.059  1.00  0.00     0.031 C 
ATOM     46  C   UNL A   1      37.823  30.376  28.760  1.00  0.00     0.029 A 
ATOM     47  N   UNL A   1      39.619  30.262  30.087  1.00  0.00    -0.354 N 
ATOM     48  C   UNL A   1      40.461  33.337  32.984  1.00  0.00     0.074 A 
ATOM     49  C   UNL A   1      39.498  34.414  32.895  1.00  0.00     0.031 C 
ATOM     50  C   UNL A   1      38.474  29.244  28.458  1.00  0.00     0.029 A 
ATOM     51  C   UNL A   1      39.663  29.139  29.296  1.00  0.00     0.049 A 
ATOM     52  H   UNL A   1      40.306  30.477  30.758  1.00  0.00     0.167 HD
ATOM     53  C   UNL A   1      41.511  33.321  33.840  1.00  0.00     0.031 A 
ATOM     54  C   UNL A   1      40.558  28.135  29.251  1.00  0.00     0.031 A 
ATOM     55  C   UNL A   1      42.475  32.254  33.920  1.00  0.00     0.049 A 
ATOM     56  C   UNL A   1      41.731  28.155  30.191  1.00  0.00     0.074 A 
ATOM     57  C   UNL A   1      43.539  32.116  34.795  1.00  0.00     0.029 A 
ATOM     58  N   UNL A   1      42.501  31.148  33.084  1.00  0.00    -0.354 N 
ATOM     59  N   UNL A   1      42.033  29.031  31.117  1.00  0.00    -0.248 NA
ATOM     60  C   UNL A   1      42.679  27.038  30.081  1.00  0.00     0.031 C 
ATOM     61  C   UNL A   1      44.251  30.966  34.439  1.00  0.00     0.029 A 
ATOM     62  C   UNL A   1      43.587  30.345  33.392  1.00  0.00     0.049 A 
ATOM     63  H   UNL A   1      41.844  30.961  32.373  1.00  0.00     0.167 HD
ATOM     64  C   UNL A   1      43.193  28.559  31.719  1.00  0.00     0.074 A 
ATOM     65  C   UNL A   1      43.523  27.308  31.067  1.00  0.00     0.031 C 
ATOM     66  C   UNL A   1      43.919  29.112  32.723  1.00  0.00     0.031 A 
BRANCH  53  67
ATOM     67  C   UNL A   1      41.684  34.514  34.744  1.00  0.00    -0.014 A 
ATOM     68  C   UNL A   1      41.073  34.574  36.008  1.00  0.00     0.009 A 
ATOM     69  C   UNL A   1      42.486  35.589  34.332  1.00  0.00     0.009 A 
ATOM     70  C   UNL A   1      41.223  35.704  36.816  1.00  0.00     0.001 A 
ATOM     71  C   UNL A   1      42.663  36.702  35.157  1.00  0.00     0.001 A 
ATOM     72  C   UNL A   1      42.021  36.764  36.391  1.00  0.00     0.000 A 
ENDBRANCH  53  67
BRANCH  54  73
ATOM     73  C   UNL A   1      40.365  27.011  28.296  1.00  0.00    -0.014 A 
ATOM     74  C   UNL A   1      39.612  25.885  28.665  1.00  0.00     0.009 A 
ATOM     75  C   UNL A   1      40.926  27.060  27.010  1.00  0.00     0.009 A 
ATOM     76  C   UNL A   1      39.444  24.824  27.774  1.00  0.00     0.001 A 
ATOM     77  C   UNL A   1      40.728  26.012  26.110  1.00  0.00     0.001 A 
ATOM     78  C   UNL A   1      39.996  24.890  26.496  1.00  0.00     0.000 A 
ENDBRANCH  54  73
BRANCH  66  79
ATOM     79  C   UNL A   1      45.132  28.352  33.189  1.00  0.00    -0.014 A 
ATOM     80  C   UNL A   1      46.401  28.587  32.637  1.00  0.00     0.009 A 
ATOM     81  C   UNL A   1      45.003  27.397  34.210  1.00  0.00     0.009 A 
ATOM     82  C   UNL A   1      47.507  27.849  33.064  1.00  0.00     0.001 A 
ATOM     83  C   UNL A   1      46.117  26.688  34.662  1.00  0.00     0.001 A 
ATOM     84  C   UNL A   1      47.365  26.903  34.079  1.00  0.00     0.000 A 
ENDBRANCH  66  79
ENDBRANCH  40  41
ENDBRANCH  32  35
ENDBRANCH  30  31
ENDBRANCH  29  30
ENDBRANCH  28  29
ENDBRANCH   1  28
TORSDOF 16
ENDMDL
