MODEL 1
REMARK VINA RESULT:     -10.3      0.000      0.000
REMARK SMILES C[NH2+][C@]1(C(=O)NCCCCCCNC(=O)c2ccc(-c3c4nc(c(-c5ccccc5)c5ccc([nH]5)c(-c5ccccc5)c5nc(c(-c6ccccc6)c6ccc3[nH]6)C=C5)C=C4)cc2)CC[C@@H](OCCCc2ccccc2)C1
REMARK SMILES IDX 8 1 7 2 6 3 4 4 5 5 3 7 64 8 77 9 65 10 66 11 2 12 1 13
REMARK SMILES IDX 67 16 68 17 69 18 70 19 71 20 72 21 76 22 73 23 75 24 74 25
REMARK SMILES IDX 9 26 10 27 11 28 12 29 13 30 14 31 15 33 16 34 17 35 63 36
REMARK SMILES IDX 18 37 62 38 19 39 20 40 21 41 56 42 22 43 61 44 55 45 57 46
REMARK SMILES IDX 23 47 60 48 54 49 53 50 24 52 46 53 31 54 45 55 32 56 35 57
REMARK SMILES IDX 44 58 58 59 33 60 34 61 43 63 59 64 36 65 25 66 26 67 30 68
REMARK SMILES IDX 27 69 29 70 28 71 47 72 48 73 52 74 49 75 51 76 50 77 37 78
REMARK SMILES IDX 38 79 42 80 39 81 41 82 40 83
REMARK H PARENT 6 6 2 14 2 15 13 32 57 51 35 62
REMARK Flexibility Score: inf
ROOT
ATOM      1  C   UNL A   1      33.485  28.360  26.377  1.00  0.00     0.021 C 
ENDROOT
BRANCH   1   2
ATOM      2  C   UNL A   1      31.997  28.128  26.169  1.00  0.00     0.116 C 
BRANCH   2   3
ATOM      3  N   UNL A   1      31.560  26.678  26.767  1.00  0.00    -0.351 N 
ATOM      4  C   UNL A   1      32.015  24.777  26.711  1.00  0.00     0.281 C 
ATOM      5  O   UNL A   1      31.426  23.800  27.320  1.00  0.00    -0.268 OA
ATOM      6  H   UNL A   1      30.794  26.803  27.373  1.00  0.00     0.163 HD
BRANCH   4   7
ATOM      7  C   UNL A   1      33.331  23.848  25.749  1.00  0.00     0.177 C 
ATOM      8  C   UNL A   1      32.711  22.634  24.981  1.00  0.00     0.082 C 
ATOM      9  C   UNL A   1      34.475  24.378  24.800  1.00  0.00     0.111 C 
ATOM     10  C   UNL A   1      33.404  22.522  23.621  1.00  0.00     0.039 C 
ATOM     11  C   UNL A   1      34.259  23.764  23.418  1.00  0.00     0.125 C 
BRANCH   7  12
ATOM     12  N   UNL A   1      34.148  23.300  26.939  1.00  0.00    -0.336 N 
ATOM     13  C   UNL A   1      34.258  21.858  27.126  1.00  0.00     0.331 C 
ATOM     14  H   UNL A   1      35.097  23.660  26.840  1.00  0.00     0.346 HD
ATOM     15  H   UNL A   1      33.621  23.609  27.756  1.00  0.00     0.346 HD
ENDBRANCH   7  12
BRANCH  11  16
ATOM     16  O   UNL A   1      33.930  24.492  22.247  1.00  0.00    -0.378 OA
BRANCH  16  17
ATOM     17  C   UNL A   1      32.646  24.927  21.873  1.00  0.00     0.161 C 
BRANCH  17  18
ATOM     18  C   UNL A   1      32.236  26.322  22.309  1.00  0.00     0.033 C 
BRANCH  18  19
ATOM     19  C   UNL A   1      31.143  26.488  23.346  1.00  0.00     0.038 C 
BRANCH  19  20
ATOM     20  C   UNL A   1      29.983  27.435  23.131  1.00  0.00    -0.048 A 
ATOM     21  C   UNL A   1      28.194  27.121  23.536  1.00  0.00     0.004 A 
ATOM     22  C   UNL A   1      30.492  29.139  22.692  1.00  0.00     0.004 A 
ATOM     23  C   UNL A   1      26.987  28.490  23.471  1.00  0.00     0.000 A 
ATOM     24  C   UNL A   1      29.293  30.501  22.689  1.00  0.00     0.000 A 
ATOM     25  C   UNL A   1      27.533  30.166  23.067  1.00  0.00     0.000 A 
ENDBRANCH  19  20
ENDBRANCH  18  19
ENDBRANCH  17  18
ENDBRANCH  16  17
ENDBRANCH  11  16
ENDBRANCH   4   7
ENDBRANCH   2   3
ENDBRANCH   1   2
BRANCH   1  26
ATOM     26  C   UNL A   1      33.781  29.128  27.658  1.00  0.00     0.002 C 
BRANCH  26  27
ATOM     27  C   UNL A   1      34.223  30.585  27.454  1.00  0.00     0.002 C 
BRANCH  27  28
ATOM     28  C   UNL A   1      33.128  31.636  27.670  1.00  0.00     0.021 C 
BRANCH  28  29
ATOM     29  C   UNL A   1      33.504  33.027  27.195  1.00  0.00     0.116 C 
BRANCH  29  30
ATOM     30  N   UNL A   1      32.955  34.051  28.062  1.00  0.00    -0.352 N 
ATOM     31  C   UNL A   1      33.379  34.414  29.309  1.00  0.00     0.251 C 
ATOM     32  H   UNL A   1      32.180  34.547  27.709  1.00  0.00     0.163 HD
ATOM     33  O   UNL A   1      32.698  35.133  30.026  1.00  0.00    -0.269 OA
BRANCH  31  34
ATOM     34  C   UNL A   1      34.674  33.892  29.772  1.00  0.00     0.039 A 
ATOM     35  C   UNL A   1      34.690  32.974  30.818  1.00  0.00     0.014 A 
ATOM     36  C   UNL A   1      35.855  34.274  29.123  1.00  0.00     0.014 A 
ATOM     37  C   UNL A   1      35.902  32.416  31.207  1.00  0.00     0.010 A 
ATOM     38  C   UNL A   1      37.045  33.643  29.448  1.00  0.00     0.010 A 
ATOM     39  C   UNL A   1      37.082  32.728  30.509  1.00  0.00    -0.014 A 
BRANCH  39  40
ATOM     40  C   UNL A   1      38.372  32.122  30.904  1.00  0.00     0.031 A 
ATOM     41  C   UNL A   1      38.831  30.849  30.251  1.00  0.00     0.074 A 
ATOM     42  C   UNL A   1      39.112  32.706  31.864  1.00  0.00     0.049 A 
ATOM     43  N   UNL A   1      39.926  30.165  30.460  1.00  0.00    -0.248 NA
ATOM     44  C   UNL A   1      37.931  30.251  29.249  1.00  0.00     0.031 C 
ATOM     45  C   UNL A   1      38.747  33.923  32.593  1.00  0.00     0.029 A 
ATOM     46  N   UNL A   1      40.327  32.356  32.390  1.00  0.00    -0.354 N 
ATOM     47  C   UNL A   1      39.840  29.057  29.628  1.00  0.00     0.074 A 
ATOM     48  C   UNL A   1      38.560  29.123  28.960  1.00  0.00     0.031 C 
ATOM     49  C   UNL A   1      39.738  34.240  33.441  1.00  0.00     0.029 A 
ATOM     50  C   UNL A   1      40.779  33.223  33.353  1.00  0.00     0.049 A 
ATOM     51  H   UNL A   1      40.831  31.559  32.103  1.00  0.00     0.167 HD
ATOM     52  C   UNL A   1      40.756  28.082  29.420  1.00  0.00     0.031 A 
ATOM     53  C   UNL A   1      41.903  33.194  34.093  1.00  0.00     0.031 A 
ATOM     54  C   UNL A   1      42.025  28.023  30.095  1.00  0.00     0.049 A 
ATOM     55  C   UNL A   1      42.888  32.079  33.872  1.00  0.00     0.074 A 
ATOM     56  C   UNL A   1      43.046  27.106  29.926  1.00  0.00     0.029 A 
ATOM     57  N   UNL A   1      42.438  28.909  31.077  1.00  0.00    -0.354 N 
ATOM     58  N   UNL A   1      42.829  31.080  33.025  1.00  0.00    -0.248 NA
ATOM     59  C   UNL A   1      44.099  32.096  34.701  1.00  0.00     0.031 C 
ATOM     60  C   UNL A   1      44.045  27.391  30.861  1.00  0.00     0.029 A 
ATOM     61  C   UNL A   1      43.684  28.538  31.553  1.00  0.00     0.049 A 
ATOM     62  H   UNL A   1      41.923  29.687  31.392  1.00  0.00     0.167 HD
ATOM     63  C   UNL A   1      44.008  30.366  33.199  1.00  0.00     0.074 A 
ATOM     64  C   UNL A   1      44.770  31.062  34.216  1.00  0.00     0.031 C 
ATOM     65  C   UNL A   1      44.425  29.239  32.572  1.00  0.00     0.031 A 
BRANCH  52  66
ATOM     66  C   UNL A   1      40.401  26.993  28.445  1.00  0.00    -0.014 A 
ATOM     67  C   UNL A   1      39.566  25.923  28.809  1.00  0.00     0.009 A 
ATOM     68  C   UNL A   1      40.894  27.049  27.132  1.00  0.00     0.009 A 
ATOM     69  C   UNL A   1      39.270  24.912  27.892  1.00  0.00     0.001 A 
ATOM     70  C   UNL A   1      40.566  26.057  26.207  1.00  0.00     0.001 A 
ATOM     71  C   UNL A   1      39.765  24.983  26.591  1.00  0.00     0.000 A 
ENDBRANCH  52  66
BRANCH  53  72
ATOM     72  C   UNL A   1      42.153  34.249  35.110  1.00  0.00    -0.014 A 
ATOM     73  C   UNL A   1      42.860  35.416  34.780  1.00  0.00     0.009 A 
ATOM     74  C   UNL A   1      41.686  34.091  36.425  1.00  0.00     0.009 A 
ATOM     75  C   UNL A   1      43.124  36.383  35.752  1.00  0.00     0.001 A 
ATOM     76  C   UNL A   1      41.918  35.077  37.386  1.00  0.00     0.001 A 
ATOM     77  C   UNL A   1      42.647  36.216  37.052  1.00  0.00     0.000 A 
ENDBRANCH  53  72
BRANCH  65  78
ATOM     78  C   UNL A   1      45.784  28.707  32.940  1.00  0.00    -0.014 A 
ATOM     79  C   UNL A   1      45.952  27.755  33.958  1.00  0.00     0.009 A 
ATOM     80  C   UNL A   1      46.911  29.140  32.223  1.00  0.00     0.009 A 
ATOM     81  C   UNL A   1      47.225  27.279  34.275  1.00  0.00     0.001 A 
ATOM     82  C   UNL A   1      48.177  28.633  32.515  1.00  0.00     0.001 A 
ATOM     83  C   UNL A   1      48.334  27.713  33.550  1.00  0.00     0.000 A 
ENDBRANCH  65  78
ENDBRANCH  39  40
ENDBRANCH  31  34
ENDBRANCH  29  30
ENDBRANCH  28  29
ENDBRANCH  27  28
ENDBRANCH  26  27
ENDBRANCH   1  26
TORSDOF 19
ENDMDL
MODEL 2
REMARK VINA RESULT:     -10.0      1.768      7.016
REMARK SMILES C[NH2+][C@]1(C(=O)NCCCCCCNC(=O)c2ccc(-c3c4nc(c(-c5ccccc5)c5ccc([nH]5)c(-c5ccccc5)c5nc(c(-c6ccccc6)c6ccc3[nH]6)C=C5)C=C4)cc2)CC[C@@H](OCCCc2ccccc2)C1
REMARK SMILES IDX 8 1 7 2 6 3 4 4 5 5 3 7 64 8 77 9 65 10 66 11 2 12 1 13
REMARK SMILES IDX 67 16 68 17 69 18 70 19 71 20 72 21 76 22 73 23 75 24 74 25
REMARK SMILES IDX 9 26 10 27 11 28 12 29 13 30 14 31 15 33 16 34 17 35 63 36
REMARK SMILES IDX 18 37 62 38 19 39 20 40 21 41 56 42 22 43 61 44 55 45 57 46
REMARK SMILES IDX 23 47 60 48 54 49 53 50 24 52 46 53 31 54 45 55 32 56 35 57
REMARK SMILES IDX 44 58 58 59 33 60 34 61 43 63 59 64 36 65 25 66 26 67 30 68
REMARK SMILES IDX 27 69 29 70 28 71 47 72 48 73 52 74 49 75 51 76 50 77 37 78
REMARK SMILES IDX 38 79 42 80 39 81 41 82 40 83
REMARK H PARENT 6 6 2 14 2 15 13 32 57 51 35 62
REMARK Flexibility Score: inf
ROOT
ATOM      1  C   UNL A   1      34.992  30.042  27.322  1.00  0.00     0.021 C 
ENDROOT
BRANCH   1   2
ATOM      2  C   UNL A   1      34.239  28.774  26.948  1.00  0.00     0.116 C 
BRANCH   2   3
ATOM      3  N   UNL A   1      34.398  28.471  25.357  1.00  0.00    -0.351 N 
ATOM      4  C   UNL A   1      33.411  27.835  23.793  1.00  0.00     0.281 C 
ATOM      5  O   UNL A   1      33.849  27.670  22.588  1.00  0.00    -0.268 OA
ATOM      6  H   UNL A   1      35.320  28.682  25.085  1.00  0.00     0.163 HD
BRANCH   4   7
ATOM      7  C   UNL A   1      31.641  27.240  23.606  1.00  0.00     0.177 C 
ATOM      8  C   UNL A   1      31.596  25.788  23.027  1.00  0.00     0.082 C 
ATOM      9  C   UNL A   1      30.424  27.306  24.610  1.00  0.00     0.111 C 
ATOM     10  C   UNL A   1      30.465  25.028  23.722  1.00  0.00     0.039 C 
ATOM     11  C   UNL A   1      29.964  25.876  24.881  1.00  0.00     0.125 C 
BRANCH   7  12
ATOM     12  N   UNL A   1      31.181  28.216  22.501  1.00  0.00    -0.336 N 
ATOM     13  C   UNL A   1      29.844  28.793  22.571  1.00  0.00     0.331 C 
ATOM     14  H   UNL A   1      31.841  28.993  22.497  1.00  0.00     0.346 HD
ATOM     15  H   UNL A   1      31.150  27.634  21.664  1.00  0.00     0.346 HD
ENDBRANCH   7  12
BRANCH  11  16
ATOM     16  O   UNL A   1      30.041  25.221  26.136  1.00  0.00    -0.378 OA
BRANCH  16  17
ATOM     17  C   UNL A   1      30.370  23.870  26.349  1.00  0.00     0.161 C 
BRANCH  17  18
ATOM     18  C   UNL A   1      31.755  23.575  26.897  1.00  0.00     0.033 C 
BRANCH  18  19
ATOM     19  C   UNL A   1      32.970  24.156  26.201  1.00  0.00     0.038 C 
BRANCH  19  20
ATOM     20  C   UNL A   1      34.192  23.315  25.906  1.00  0.00    -0.048 A 
ATOM     21  C   UNL A   1      34.256  21.466  25.709  1.00  0.00     0.004 A 
ATOM     22  C   UNL A   1      35.665  24.295  25.428  1.00  0.00     0.004 A 
ATOM     23  C   UNL A   1      35.767  20.664  25.072  1.00  0.00     0.000 A 
ATOM     24  C   UNL A   1      37.139  23.490  24.740  1.00  0.00     0.000 A 
ATOM     25  C   UNL A   1      37.189  21.666  24.578  1.00  0.00     0.000 A 
ENDBRANCH  19  20
ENDBRANCH  18  19
ENDBRANCH  17  18
ENDBRANCH  16  17
ENDBRANCH  11  16
ENDBRANCH   4   7
ENDBRANCH   2   3
ENDBRANCH   1   2
BRANCH   1  26
ATOM     26  C   UNL A   1      34.057  31.185  27.697  1.00  0.00     0.002 C 
BRANCH  26  27
ATOM     27  C   UNL A   1      34.754  32.519  28.003  1.00  0.00     0.002 C 
BRANCH  27  28
ATOM     28  C   UNL A   1      33.821  33.728  28.139  1.00  0.00     0.021 C 
BRANCH  28  29
ATOM     29  C   UNL A   1      34.447  34.917  28.844  1.00  0.00     0.116 C 
BRANCH  29  30
ATOM     30  N   UNL A   1      33.827  35.157  30.133  1.00  0.00    -0.352 N 
ATOM     31  C   UNL A   1      34.101  34.548  31.324  1.00  0.00     0.251 C 
ATOM     32  H   UNL A   1      33.122  35.845  30.151  1.00  0.00     0.163 HD
ATOM     33  O   UNL A   1      33.359  34.678  32.288  1.00  0.00    -0.269 OA
BRANCH  31  34
ATOM     34  C   UNL A   1      35.307  33.711  31.407  1.00  0.00     0.039 A 
ATOM     35  C   UNL A   1      36.534  34.269  31.059  1.00  0.00     0.014 A 
ATOM     36  C   UNL A   1      35.217  32.399  31.887  1.00  0.00     0.014 A 
ATOM     37  C   UNL A   1      37.688  33.509  31.212  1.00  0.00     0.010 A 
ATOM     38  C   UNL A   1      36.377  31.680  32.130  1.00  0.00     0.010 A 
ATOM     39  C   UNL A   1      37.620  32.221  31.770  1.00  0.00    -0.014 A 
BRANCH  39  40
ATOM     40  C   UNL A   1      38.846  31.415  31.955  1.00  0.00     0.031 A 
ATOM     41  C   UNL A   1      39.769  31.712  33.102  1.00  0.00     0.074 A 
ATOM     42  C   UNL A   1      39.135  30.438  31.076  1.00  0.00     0.049 A 
ATOM     43  N   UNL A   1      40.889  31.121  33.431  1.00  0.00    -0.248 NA
ATOM     44  C   UNL A   1      39.401  32.835  33.982  1.00  0.00     0.031 C 
ATOM     45  C   UNL A   1      38.329  30.086  29.904  1.00  0.00     0.029 A 
ATOM     46  N   UNL A   1      40.182  29.557  31.036  1.00  0.00    -0.354 N 
ATOM     47  C   UNL A   1      41.360  31.806  34.543  1.00  0.00     0.074 A 
ATOM     48  C   UNL A   1      40.445  32.895  34.794  1.00  0.00     0.031 C 
ATOM     49  C   UNL A   1      38.892  29.037  29.284  1.00  0.00     0.029 A 
ATOM     50  C   UNL A   1      40.121  28.678  29.983  1.00  0.00     0.049 A 
ATOM     51  H   UNL A   1      40.911  29.552  31.699  1.00  0.00     0.167 HD
ATOM     52  C   UNL A   1      42.448  31.537  35.303  1.00  0.00     0.031 A 
ATOM     53  C   UNL A   1      40.968  27.700  29.614  1.00  0.00     0.031 A 
ATOM     54  C   UNL A   1      43.357  30.454  35.041  1.00  0.00     0.049 A 
ATOM     55  C   UNL A   1      42.191  27.446  30.452  1.00  0.00     0.074 A 
ATOM     56  C   UNL A   1      44.464  30.064  35.773  1.00  0.00     0.029 A 
ATOM     57  N   UNL A   1      43.271  29.597  33.954  1.00  0.00    -0.354 N 
ATOM     58  N   UNL A   1      42.584  28.052  31.547  1.00  0.00    -0.248 NA
ATOM     59  C   UNL A   1      43.080  26.365  30.009  1.00  0.00     0.031 C 
ATOM     60  C   UNL A   1      45.092  29.021  35.087  1.00  0.00     0.029 A 
ATOM     61  C   UNL A   1      44.329  28.704  33.973  1.00  0.00     0.049 A 
ATOM     62  H   UNL A   1      42.564  29.621  33.269  1.00  0.00     0.167 HD
ATOM     63  C   UNL A   1      43.749  27.406  31.940  1.00  0.00     0.074 A 
ATOM     64  C   UNL A   1      43.985  26.349  30.977  1.00  0.00     0.031 C 
ATOM     65  C   UNL A   1      44.551  27.662  33.003  1.00  0.00     0.031 A 
BRANCH  52  66
ATOM     66  C   UNL A   1      42.722  32.448  36.468  1.00  0.00    -0.014 A 
ATOM     67  C   UNL A   1      42.184  32.197  37.742  1.00  0.00     0.009 A 
ATOM     68  C   UNL A   1      43.552  33.567  36.295  1.00  0.00     0.009 A 
ATOM     69  C   UNL A   1      42.434  33.070  38.802  1.00  0.00     0.001 A 
ATOM     70  C   UNL A   1      43.831  34.418  37.366  1.00  0.00     0.001 A 
ATOM     71  C   UNL A   1      43.262  34.176  38.615  1.00  0.00     0.000 A 
ENDBRANCH  52  66
BRANCH  53  72
ATOM     72  C   UNL A   1      40.691  26.894  28.396  1.00  0.00    -0.014 A 
ATOM     73  C   UNL A   1      41.272  27.229  27.163  1.00  0.00     0.009 A 
ATOM     74  C   UNL A   1      39.838  25.781  28.461  1.00  0.00     0.009 A 
ATOM     75  C   UNL A   1      40.974  26.489  26.016  1.00  0.00     0.001 A 
ATOM     76  C   UNL A   1      39.572  25.020  27.321  1.00  0.00     0.001 A 
ATOM     77  C   UNL A   1      40.131  25.382  26.097  1.00  0.00     0.000 A 
ENDBRANCH  53  72
BRANCH  65  78
ATOM     78  C   UNL A   1      45.739  26.760  33.204  1.00  0.00    -0.014 A 
ATOM     79  C   UNL A   1      46.999  27.071  32.669  1.00  0.00     0.009 A 
ATOM     80  C   UNL A   1      45.598  25.598  33.979  1.00  0.00     0.009 A 
ATOM     81  C   UNL A   1      48.082  26.215  32.874  1.00  0.00     0.001 A 
ATOM     82  C   UNL A   1      46.691  24.765  34.216  1.00  0.00     0.001 A 
ATOM     83  C   UNL A   1      47.930  25.068  33.653  1.00  0.00     0.000 A 
ENDBRANCH  65  78
ENDBRANCH  39  40
ENDBRANCH  31  34
ENDBRANCH  29  30
ENDBRANCH  28  29
ENDBRANCH  27  28
ENDBRANCH  26  27
ENDBRANCH   1  26
TORSDOF 19
ENDMDL
MODEL 3
REMARK VINA RESULT:      -9.6      4.022      7.870
REMARK SMILES C[NH2+][C@]1(C(=O)NCCCCCCNC(=O)c2ccc(-c3c4nc(c(-c5ccccc5)c5ccc([nH]5)c(-c5ccccc5)c5nc(c(-c6ccccc6)c6ccc3[nH]6)C=C5)C=C4)cc2)CC[C@@H](OCCCc2ccccc2)C1
REMARK SMILES IDX 8 1 7 2 6 3 4 4 5 5 3 7 64 8 77 9 65 10 66 11 2 12 1 13
REMARK SMILES IDX 67 16 68 17 69 18 70 19 71 20 72 21 76 22 73 23 75 24 74 25
REMARK SMILES IDX 9 26 10 27 11 28 12 29 13 30 14 31 15 33 16 34 17 35 63 36
REMARK SMILES IDX 18 37 62 38 19 39 20 40 21 41 56 42 22 43 61 44 55 45 57 46
REMARK SMILES IDX 23 47 60 48 54 49 53 50 24 52 46 53 31 54 45 55 32 56 35 57
REMARK SMILES IDX 44 58 58 59 33 60 34 61 43 63 59 64 36 65 25 66 26 67 30 68
REMARK SMILES IDX 27 69 29 70 28 71 47 72 48 73 52 74 49 75 51 76 50 77 37 78
REMARK SMILES IDX 38 79 42 80 39 81 41 82 40 83
REMARK H PARENT 6 6 2 14 2 15 13 32 57 51 35 62
REMARK Flexibility Score: inf
ROOT
ATOM      1  C   UNL A   1      36.435  29.403  28.436  1.00  0.00     0.021 C 
ENDROOT
BRANCH   1   2
ATOM      2  C   UNL A   1      35.466  29.704  27.303  1.00  0.00     0.116 C 
BRANCH   2   3
ATOM      3  N   UNL A   1      34.047  28.946  27.556  1.00  0.00    -0.351 N 
ATOM      4  C   UNL A   1      32.336  28.533  26.704  1.00  0.00     0.281 C 
ATOM      5  O   UNL A   1      31.333  27.890  27.205  1.00  0.00    -0.268 OA
ATOM      6  H   UNL A   1      34.053  28.557  28.461  1.00  0.00     0.163 HD
BRANCH   4   7
ATOM      7  C   UNL A   1      31.653  28.988  25.016  1.00  0.00     0.177 C 
ATOM      8  C   UNL A   1      32.810  29.235  23.992  1.00  0.00     0.082 C 
ATOM      9  C   UNL A   1      30.500  28.329  24.164  1.00  0.00     0.111 C 
ATOM     10  C   UNL A   1      32.379  28.670  22.637  1.00  0.00     0.039 C 
ATOM     11  C   UNL A   1      31.103  27.869  22.839  1.00  0.00     0.125 C 
BRANCH   7  12
ATOM     12  N   UNL A   1      31.028  30.353  25.378  1.00  0.00    -0.336 N 
ATOM     13  C   UNL A   1      31.797  31.301  26.176  1.00  0.00     0.331 C 
ATOM     14  H   UNL A   1      30.802  30.819  24.500  1.00  0.00     0.346 HD
ATOM     15  H   UNL A   1      30.245  30.107  25.984  1.00  0.00     0.346 HD
ENDBRANCH   7  12
BRANCH  11  16
ATOM     16  O   UNL A   1      31.210  26.518  22.420  1.00  0.00    -0.378 OA
BRANCH  16  17
ATOM     17  C   UNL A   1      32.216  25.983  21.594  1.00  0.00     0.161 C 
BRANCH  17  18
ATOM     18  C   UNL A   1      33.297  25.159  22.270  1.00  0.00     0.033 C 
BRANCH  18  19
ATOM     19  C   UNL A   1      33.924  25.664  23.555  1.00  0.00     0.038 C 
BRANCH  19  20
ATOM     20  C   UNL A   1      33.875  24.855  24.832  1.00  0.00    -0.048 A 
ATOM     21  C   UNL A   1      32.366  24.444  25.838  1.00  0.00     0.004 A 
ATOM     22  C   UNL A   1      35.443  23.987  25.217  1.00  0.00     0.004 A 
ATOM     23  C   UNL A   1      32.469  23.217  27.187  1.00  0.00     0.000 A 
ATOM     24  C   UNL A   1      35.517  22.727  26.521  1.00  0.00     0.000 A 
ATOM     25  C   UNL A   1      34.025  22.356  27.516  1.00  0.00     0.000 A 
ENDBRANCH  19  20
ENDBRANCH  18  19
ENDBRANCH  17  18
ENDBRANCH  16  17
ENDBRANCH  11  16
ENDBRANCH   4   7
ENDBRANCH   2   3
ENDBRANCH   1   2
BRANCH   1  26
ATOM     26  C   UNL A   1      36.692  30.616  29.320  1.00  0.00     0.002 C 
BRANCH  26  27
ATOM     27  C   UNL A   1      36.484  30.379  30.823  1.00  0.00     0.002 C 
BRANCH  27  28
ATOM     28  C   UNL A   1      35.699  31.474  31.555  1.00  0.00     0.021 C 
BRANCH  28  29
ATOM     29  C   UNL A   1      36.119  31.675  33.000  1.00  0.00     0.116 C 
BRANCH  29  30
ATOM     30  N   UNL A   1      36.298  33.080  33.310  1.00  0.00    -0.352 N 
ATOM     31  C   UNL A   1      37.418  33.843  33.138  1.00  0.00     0.251 C 
ATOM     32  H   UNL A   1      35.516  33.540  33.692  1.00  0.00     0.163 HD
ATOM     33  O   UNL A   1      37.512  34.952  33.645  1.00  0.00    -0.269 OA
BRANCH  31  34
ATOM     34  C   UNL A   1      38.518  33.278  32.342  1.00  0.00     0.039 A 
ATOM     35  C   UNL A   1      39.418  32.415  32.961  1.00  0.00     0.014 A 
ATOM     36  C   UNL A   1      38.609  33.564  30.974  1.00  0.00     0.014 A 
ATOM     37  C   UNL A   1      40.411  31.815  32.195  1.00  0.00     0.010 A 
ATOM     38  C   UNL A   1      39.538  32.888  30.198  1.00  0.00     0.010 A 
ATOM     39  C   UNL A   1      40.462  32.029  30.807  1.00  0.00    -0.014 A 
BRANCH  39  40
ATOM     40  C   UNL A   1      41.504  31.376  29.984  1.00  0.00     0.031 A 
ATOM     41  C   UNL A   1      42.776  32.110  29.670  1.00  0.00     0.074 A 
ATOM     42  C   UNL A   1      41.289  30.138  29.504  1.00  0.00     0.049 A 
ATOM     43  N   UNL A   1      43.804  31.710  28.967  1.00  0.00    -0.248 NA
ATOM     44  C   UNL A   1      42.902  33.482  30.192  1.00  0.00     0.031 C 
ATOM     45  C   UNL A   1      40.074  29.346  29.715  1.00  0.00     0.029 A 
ATOM     46  N   UNL A   1      42.087  29.326  28.743  1.00  0.00    -0.354 N 
ATOM     47  C   UNL A   1      44.688  32.782  28.954  1.00  0.00     0.074 A 
ATOM     48  C   UNL A   1      44.051  33.869  29.660  1.00  0.00     0.031 C 
ATOM     49  C   UNL A   1      40.227  28.146  29.132  1.00  0.00     0.029 A 
ATOM     50  C   UNL A   1      41.523  28.106  28.465  1.00  0.00     0.049 A 
ATOM     51  H   UNL A   1      42.981  29.591  28.426  1.00  0.00     0.167 HD
ATOM     52  C   UNL A   1      45.930  32.846  28.420  1.00  0.00     0.031 A 
ATOM     53  C   UNL A   1      41.994  27.073  27.742  1.00  0.00     0.031 A 
ATOM     54  C   UNL A   1      46.553  31.759  27.713  1.00  0.00     0.049 A 
ATOM     55  C   UNL A   1      43.361  27.183  27.125  1.00  0.00     0.074 A 
ATOM     56  C   UNL A   1      47.825  31.701  27.172  1.00  0.00     0.029 A 
ATOM     57  N   UNL A   1      45.943  30.546  27.436  1.00  0.00    -0.354 N 
ATOM     58  N   UNL A   1      44.218  28.173  27.187  1.00  0.00    -0.248 NA
ATOM     59  C   UNL A   1      43.830  26.028  26.350  1.00  0.00     0.031 C 
ATOM     60  C   UNL A   1      47.956  30.482  26.501  1.00  0.00     0.029 A 
ATOM     61  C   UNL A   1      46.797  29.745  26.697  1.00  0.00     0.049 A 
ATOM     62  H   UNL A   1      45.035  30.290  27.721  1.00  0.00     0.167 HD
ATOM     63  C   UNL A   1      45.339  27.749  26.484  1.00  0.00     0.074 A 
ATOM     64  C   UNL A   1      45.058  26.404  26.025  1.00  0.00     0.031 C 
ATOM     65  C   UNL A   1      46.497  28.411  26.243  1.00  0.00     0.031 A 
BRANCH  52  66
ATOM     66  C   UNL A   1      46.679  34.143  28.561  1.00  0.00    -0.014 A 
ATOM     67  C   UNL A   1      47.558  34.372  29.633  1.00  0.00     0.009 A 
ATOM     68  C   UNL A   1      46.519  35.146  27.592  1.00  0.00     0.009 A 
ATOM     69  C   UNL A   1      48.224  35.594  29.754  1.00  0.00     0.001 A 
ATOM     70  C   UNL A   1      47.215  36.351  27.695  1.00  0.00     0.001 A 
ATOM     71  C   UNL A   1      48.057  36.579  28.782  1.00  0.00     0.000 A 
ENDBRANCH  52  66
BRANCH  53  72
ATOM     72  C   UNL A   1      41.166  25.852  27.559  1.00  0.00    -0.014 A 
ATOM     73  C   UNL A   1      40.033  25.867  26.730  1.00  0.00     0.009 A 
ATOM     74  C   UNL A   1      41.505  24.660  28.218  1.00  0.00     0.009 A 
ATOM     75  C   UNL A   1      39.238  24.726  26.596  1.00  0.00     0.001 A 
ATOM     76  C   UNL A   1      40.732  23.509  28.052  1.00  0.00     0.001 A 
ATOM     77  C   UNL A   1      39.592  23.547  27.251  1.00  0.00     0.000 A 
ENDBRANCH  53  72
BRANCH  65  78
ATOM     78  C   UNL A   1      47.565  27.675  25.478  1.00  0.00    -0.014 A 
ATOM     79  C   UNL A   1      47.626  27.713  24.076  1.00  0.00     0.009 A 
ATOM     80  C   UNL A   1      48.552  26.966  26.181  1.00  0.00     0.009 A 
ATOM     81  C   UNL A   1      48.629  27.022  23.395  1.00  0.00     0.001 A 
ATOM     82  C   UNL A   1      49.577  26.310  25.501  1.00  0.00     0.001 A 
ATOM     83  C   UNL A   1      49.607  26.328  24.107  1.00  0.00     0.000 A 
ENDBRANCH  65  78
ENDBRANCH  39  40
ENDBRANCH  31  34
ENDBRANCH  29  30
ENDBRANCH  28  29
ENDBRANCH  27  28
ENDBRANCH  26  27
ENDBRANCH   1  26
TORSDOF 19
ENDMDL
