MODEL 1
REMARK VINA RESULT:     -10.3      0.000      0.000
REMARK SMILES CC[C@@](O)(C(=O)NCCCCCCNC(=O)c1ccc(-c2c3nc(c(-c4ccccc4)c4ccc([nH]4)c(-c4ccccc4)c4nc(c(-c5ccccc5)c5ccc2[nH]5)C=C4)C=C3)cc1)[C@@H](C)c1ccc(OC(C)C)cc1
REMARK SMILES IDX 9 1 8 2 7 3 5 4 6 5 3 7 2 8 1 9 4 10 65 12 66 13 67 14 68 15
REMARK SMILES IDX 76 16 69 17 75 18 70 19 71 20 72 21 73 22 74 23 10 24 11 25
REMARK SMILES IDX 12 26 13 27 14 28 15 29 16 31 17 32 18 33 64 34 19 35 63 36
REMARK SMILES IDX 20 37 21 38 22 39 57 40 23 41 62 42 56 43 58 44 24 45 61 46
REMARK SMILES IDX 55 47 54 48 25 50 47 51 32 52 46 53 33 54 36 55 45 56 59 57
REMARK SMILES IDX 34 58 35 59 44 61 60 62 37 63 26 64 27 65 31 66 28 67 30 68
REMARK SMILES IDX 29 69 48 70 49 71 53 72 50 73 52 74 51 75 38 76 39 77 43 78
REMARK SMILES IDX 40 79 42 80 41 81
REMARK H PARENT 7 6 4 11 14 30 58 49 36 60
REMARK Flexibility Score: inf
ROOT
ATOM      1  C   UNL A   1      35.906  22.653  25.747  1.00  0.00     0.021 C 
ENDROOT
BRANCH   1   2
ATOM      2  C   UNL A   1      35.602  24.088  25.322  1.00  0.00     0.116 C 
BRANCH   2   3
ATOM      3  N   UNL A   1      35.131  24.136  23.951  1.00  0.00    -0.354 N 
ATOM      4  C   UNL A   1      33.952  24.598  23.435  1.00  0.00     0.252 C 
ATOM      5  O   UNL A   1      33.867  24.609  22.204  1.00  0.00    -0.272 OA
ATOM      6  H   UNL A   1      35.761  23.780  23.284  1.00  0.00     0.163 HD
BRANCH   4   7
ATOM      7  C   UNL A   1      32.819  25.153  24.369  1.00  0.00     0.149 C 
BRANCH   7   8
ATOM      8  C   UNL A   1      33.412  25.564  25.744  1.00  0.00     0.043 C 
ATOM      9  C   UNL A   1      33.448  27.051  26.068  1.00  0.00     0.007 C 
ENDBRANCH   7   8
BRANCH   7  10
ATOM     10  O   UNL A   1      32.371  26.313  23.639  1.00  0.00    -0.379 OA
ATOM     11  H   UNL A   1      32.673  26.253  22.719  1.00  0.00     0.212 HD
ENDBRANCH   7  10
BRANCH   7  12
ATOM     12  C   UNL A   1      31.650  24.088  24.482  1.00  0.00     0.057 C 
ATOM     13  C   UNL A   1      30.621  24.331  23.343  1.00  0.00     0.016 C 
BRANCH  12  14
ATOM     14  C   UNL A   1      32.047  22.595  24.540  1.00  0.00    -0.042 A 
ATOM     15  C   UNL A   1      32.418  21.941  25.723  1.00  0.00     0.008 A 
ATOM     16  C   UNL A   1      32.059  21.811  23.375  1.00  0.00     0.008 A 
ATOM     17  C   UNL A   1      32.950  20.647  25.710  1.00  0.00     0.047 A 
ATOM     18  C   UNL A   1      32.570  20.506  23.365  1.00  0.00     0.047 A 
ATOM     19  C   UNL A   1      33.067  19.933  24.526  1.00  0.00     0.119 A 
BRANCH  19  20
ATOM     20  O   UNL A   1      33.691  18.733  24.661  1.00  0.00    -0.491 OA
BRANCH  20  21
ATOM     21  C   UNL A   1      33.091  17.497  24.270  1.00  0.00     0.167 C 
ATOM     22  C   UNL A   1      33.965  16.696  23.312  1.00  0.00     0.052 C 
ATOM     23  C   UNL A   1      32.489  16.703  25.429  1.00  0.00     0.052 C 
ENDBRANCH  20  21
ENDBRANCH  19  20
ENDBRANCH  12  14
ENDBRANCH   7  12
ENDBRANCH   4   7
ENDBRANCH   2   3
ENDBRANCH   1   2
BRANCH   1  24
ATOM     24  C   UNL A   1      36.418  21.767  24.610  1.00  0.00     0.002 C 
BRANCH  24  25
ATOM     25  C   UNL A   1      36.690  20.313  25.005  1.00  0.00     0.002 C 
BRANCH  25  26
ATOM     26  C   UNL A   1      38.120  19.834  24.745  1.00  0.00     0.021 C 
BRANCH  26  27
ATOM     27  C   UNL A   1      39.105  20.162  25.862  1.00  0.00     0.116 C 
BRANCH  27  28
ATOM     28  N   UNL A   1      40.255  19.273  25.846  1.00  0.00    -0.352 N 
ATOM     29  C   UNL A   1      41.577  19.568  26.053  1.00  0.00     0.251 C 
ATOM     30  H   UNL A   1      40.056  18.327  25.662  1.00  0.00     0.163 HD
ATOM     31  O   UNL A   1      42.446  18.743  25.793  1.00  0.00    -0.269 OA
BRANCH  29  32
ATOM     32  C   UNL A   1      41.954  20.897  26.577  1.00  0.00     0.039 A 
ATOM     33  C   UNL A   1      42.434  21.861  25.691  1.00  0.00     0.014 A 
ATOM     34  C   UNL A   1      41.835  21.184  27.940  1.00  0.00     0.014 A 
ATOM     35  C   UNL A   1      42.748  23.136  26.164  1.00  0.00     0.010 A 
ATOM     36  C   UNL A   1      42.079  22.475  28.398  1.00  0.00     0.010 A 
ATOM     37  C   UNL A   1      42.546  23.461  27.516  1.00  0.00    -0.014 A 
BRANCH  37  38
ATOM     38  C   UNL A   1      42.821  24.827  28.025  1.00  0.00     0.031 A 
ATOM     39  C   UNL A   1      44.218  25.221  28.416  1.00  0.00     0.074 A 
ATOM     40  C   UNL A   1      41.803  25.693  28.188  1.00  0.00     0.049 A 
ATOM     41  N   UNL A   1      44.646  26.349  28.922  1.00  0.00    -0.248 NA
ATOM     42  C   UNL A   1      45.269  24.205  28.238  1.00  0.00     0.031 C 
ATOM     43  C   UNL A   1      40.398  25.418  27.882  1.00  0.00     0.029 A 
ATOM     44  N   UNL A   1      41.796  26.982  28.658  1.00  0.00    -0.354 N 
ATOM     45  C   UNL A   1      46.008  26.174  29.136  1.00  0.00     0.074 A 
ATOM     46  C   UNL A   1      46.325  24.816  28.754  1.00  0.00     0.031 C 
ATOM     47  C   UNL A   1      39.670  26.516  28.144  1.00  0.00     0.029 A 
ATOM     48  C   UNL A   1      40.546  27.554  28.676  1.00  0.00     0.049 A 
ATOM     49  H   UNL A   1      42.608  27.453  28.956  1.00  0.00     0.167 HD
ATOM     50  C   UNL A   1      46.917  27.069  29.591  1.00  0.00     0.031 A 
ATOM     51  C   UNL A   1      40.151  28.775  29.080  1.00  0.00     0.031 A 
ATOM     52  C   UNL A   1      46.601  28.422  29.965  1.00  0.00     0.049 A 
ATOM     53  C   UNL A   1      41.176  29.743  29.601  1.00  0.00     0.074 A 
ATOM     54  C   UNL A   1      47.459  29.423  30.385  1.00  0.00     0.029 A 
ATOM     55  N   UNL A   1      45.324  28.961  29.969  1.00  0.00    -0.354 N 
ATOM     56  N   UNL A   1      42.471  29.586  29.730  1.00  0.00    -0.248 NA
ATOM     57  C   UNL A   1      40.684  31.063  30.021  1.00  0.00     0.031 C 
ATOM     58  C   UNL A   1      46.695  30.552  30.696  1.00  0.00     0.029 A 
ATOM     59  C   UNL A   1      45.368  30.274  30.411  1.00  0.00     0.049 A 
ATOM     60  H   UNL A   1      44.508  28.483  29.697  1.00  0.00     0.167 HD
ATOM     61  C   UNL A   1      42.952  30.793  30.222  1.00  0.00     0.074 A 
ATOM     62  C   UNL A   1      41.812  31.677  30.349  1.00  0.00     0.031 C 
ATOM     63  C   UNL A   1      44.224  31.139  30.536  1.00  0.00     0.031 A 
BRANCH  50  64
ATOM     64  C   UNL A   1      48.341  26.604  29.718  1.00  0.00    -0.014 A 
ATOM     65  C   UNL A   1      49.265  26.792  28.678  1.00  0.00     0.009 A 
ATOM     66  C   UNL A   1      48.774  25.996  30.907  1.00  0.00     0.009 A 
ATOM     67  C   UNL A   1      50.582  26.345  28.810  1.00  0.00     0.001 A 
ATOM     68  C   UNL A   1      50.099  25.577  31.048  1.00  0.00     0.001 A 
ATOM     69  C   UNL A   1      50.998  25.743  29.996  1.00  0.00     0.000 A 
ENDBRANCH  50  64
BRANCH  51  70
ATOM     70  C   UNL A   1      38.718  29.159  28.994  1.00  0.00    -0.014 A 
ATOM     71  C   UNL A   1      38.184  29.659  27.797  1.00  0.00     0.009 A 
ATOM     72  C   UNL A   1      37.876  29.032  30.111  1.00  0.00     0.009 A 
ATOM     73  C   UNL A   1      36.846  30.050  27.726  1.00  0.00     0.001 A 
ATOM     74  C   UNL A   1      36.531  29.396  30.029  1.00  0.00     0.001 A 
ATOM     75  C   UNL A   1      36.019  29.914  28.841  1.00  0.00     0.000 A 
ENDBRANCH  51  70
BRANCH  63  76
ATOM     76  C   UNL A   1      44.454  32.543  31.019  1.00  0.00    -0.014 A 
ATOM     77  C   UNL A   1      44.443  32.856  32.388  1.00  0.00     0.009 A 
ATOM     78  C   UNL A   1      44.723  33.561  30.092  1.00  0.00     0.009 A 
ATOM     79  C   UNL A   1      44.664  34.167  32.813  1.00  0.00     0.001 A 
ATOM     80  C   UNL A   1      44.975  34.864  30.521  1.00  0.00     0.001 A 
ATOM     81  C   UNL A   1      44.934  35.168  31.881  1.00  0.00     0.000 A 
ENDBRANCH  63  76
ENDBRANCH  37  38
ENDBRANCH  29  32
ENDBRANCH  27  28
ENDBRANCH  26  27
ENDBRANCH  25  26
ENDBRANCH  24  25
ENDBRANCH   1  24
TORSDOF 19
ENDMDL
MODEL 2
REMARK VINA RESULT:     -10.1      3.801      9.371
REMARK SMILES CC[C@@](O)(C(=O)NCCCCCCNC(=O)c1ccc(-c2c3nc(c(-c4ccccc4)c4ccc([nH]4)c(-c4ccccc4)c4nc(c(-c5ccccc5)c5ccc2[nH]5)C=C4)C=C3)cc1)[C@@H](C)c1ccc(OC(C)C)cc1
REMARK SMILES IDX 9 1 8 2 7 3 5 4 6 5 3 7 2 8 1 9 4 10 65 12 66 13 67 14 68 15
REMARK SMILES IDX 76 16 69 17 75 18 70 19 71 20 72 21 73 22 74 23 10 24 11 25
REMARK SMILES IDX 12 26 13 27 14 28 15 29 16 31 17 32 18 33 64 34 19 35 63 36
REMARK SMILES IDX 20 37 21 38 22 39 57 40 23 41 62 42 56 43 58 44 24 45 61 46
REMARK SMILES IDX 55 47 54 48 25 50 47 51 32 52 46 53 33 54 36 55 45 56 59 57
REMARK SMILES IDX 34 58 35 59 44 61 60 62 37 63 26 64 27 65 31 66 28 67 30 68
REMARK SMILES IDX 29 69 48 70 49 71 53 72 50 73 52 74 51 75 38 76 39 77 43 78
REMARK SMILES IDX 40 79 42 80 41 81
REMARK H PARENT 7 6 4 11 14 30 58 49 36 60
REMARK Flexibility Score: inf
ROOT
ATOM      1  C   UNL A   1      33.941  28.199  26.567  1.00  0.00     0.021 C 
ENDROOT
BRANCH   1   2
ATOM      2  C   UNL A   1      33.453  26.808  26.167  1.00  0.00     0.116 C 
BRANCH   2   3
ATOM      3  N   UNL A   1      32.089  26.587  26.611  1.00  0.00    -0.354 N 
ATOM      4  C   UNL A   1      31.051  25.946  25.995  1.00  0.00     0.252 C 
ATOM      5  O   UNL A   1      30.021  25.820  26.663  1.00  0.00    -0.272 OA
ATOM      6  H   UNL A   1      31.878  26.959  27.497  1.00  0.00     0.163 HD
BRANCH   4   7
ATOM      7  C   UNL A   1      31.209  25.341  24.555  1.00  0.00     0.149 C 
BRANCH   7   8
ATOM      8  C   UNL A   1      32.276  24.212  24.563  1.00  0.00     0.043 C 
ATOM      9  C   UNL A   1      31.798  22.803  24.245  1.00  0.00     0.007 C 
ENDBRANCH   7   8
BRANCH   7  10
ATOM     10  O   UNL A   1      29.895  24.800  24.313  1.00  0.00    -0.379 OA
ATOM     11  H   UNL A   1      29.969  24.000  23.770  1.00  0.00     0.212 HD
ENDBRANCH   7  10
BRANCH   7  12
ATOM     12  C   UNL A   1      31.527  26.500  23.521  1.00  0.00     0.057 C 
ATOM     13  C   UNL A   1      31.631  25.899  22.092  1.00  0.00     0.016 C 
BRANCH  12  14
ATOM     14  C   UNL A   1      30.594  27.733  23.522  1.00  0.00    -0.042 A 
ATOM     15  C   UNL A   1      29.294  27.717  22.997  1.00  0.00     0.008 A 
ATOM     16  C   UNL A   1      31.026  28.956  24.057  1.00  0.00     0.008 A 
ATOM     17  C   UNL A   1      28.551  28.892  22.843  1.00  0.00     0.047 A 
ATOM     18  C   UNL A   1      30.271  30.131  23.925  1.00  0.00     0.047 A 
ATOM     19  C   UNL A   1      29.049  30.116  23.271  1.00  0.00     0.119 A 
BRANCH  19  20
ATOM     20  O   UNL A   1      28.255  31.175  22.965  1.00  0.00    -0.491 OA
BRANCH  20  21
ATOM     21  C   UNL A   1      28.726  32.318  22.248  1.00  0.00     0.167 C 
ATOM     22  C   UNL A   1      27.915  32.596  20.988  1.00  0.00     0.052 C 
ATOM     23  C   UNL A   1      29.008  33.533  23.130  1.00  0.00     0.052 C 
ENDBRANCH  20  21
ENDBRANCH  19  20
ENDBRANCH  12  14
ENDBRANCH   7  12
ENDBRANCH   4   7
ENDBRANCH   2   3
ENDBRANCH   1   2
BRANCH   1  24
ATOM     24  C   UNL A   1      32.825  29.136  27.031  1.00  0.00     0.002 C 
BRANCH  24  25
ATOM     25  C   UNL A   1      33.284  30.554  27.382  1.00  0.00     0.002 C 
BRANCH  25  26
ATOM     26  C   UNL A   1      32.184  31.617  27.330  1.00  0.00     0.021 C 
BRANCH  26  27
ATOM     27  C   UNL A   1      32.638  32.962  26.774  1.00  0.00     0.116 C 
BRANCH  27  28
ATOM     28  N   UNL A   1      32.405  34.042  27.718  1.00  0.00    -0.352 N 
ATOM     29  C   UNL A   1      33.092  34.353  28.863  1.00  0.00     0.251 C 
ATOM     30  H   UNL A   1      31.647  34.634  27.505  1.00  0.00     0.163 HD
ATOM     31  O   UNL A   1      32.636  35.166  29.659  1.00  0.00    -0.269 OA
BRANCH  29  32
ATOM     32  C   UNL A   1      34.382  33.690  29.140  1.00  0.00     0.039 A 
ATOM     33  C   UNL A   1      35.493  34.020  28.364  1.00  0.00     0.014 A 
ATOM     34  C   UNL A   1      34.489  32.742  30.162  1.00  0.00     0.014 A 
ATOM     35  C   UNL A   1      36.728  33.436  28.645  1.00  0.00     0.010 A 
ATOM     36  C   UNL A   1      35.736  32.217  30.489  1.00  0.00     0.010 A 
ATOM     37  C   UNL A   1      36.866  32.553  29.728  1.00  0.00    -0.014 A 
BRANCH  37  38
ATOM     38  C   UNL A   1      38.183  31.966  30.077  1.00  0.00     0.031 A 
ATOM     39  C   UNL A   1      39.137  32.721  30.960  1.00  0.00     0.074 A 
ATOM     40  C   UNL A   1      38.541  30.778  29.553  1.00  0.00     0.049 A 
ATOM     41  N   UNL A   1      40.347  32.393  31.336  1.00  0.00    -0.248 NA
ATOM     42  C   UNL A   1      38.683  34.027  31.466  1.00  0.00     0.031 C 
ATOM     43  C   UNL A   1      37.720  29.966  28.653  1.00  0.00     0.029 A 
ATOM     44  N   UNL A   1      39.695  30.050  29.699  1.00  0.00    -0.354 N 
ATOM     45  C   UNL A   1      40.802  33.455  32.108  1.00  0.00     0.074 A 
ATOM     46  C   UNL A   1      39.760  34.458  32.104  1.00  0.00     0.031 C 
ATOM     47  C   UNL A   1      38.384  28.838  28.351  1.00  0.00     0.029 A 
ATOM     48  C   UNL A   1      39.691  28.867  28.999  1.00  0.00     0.049 A 
ATOM     49  H   UNL A   1      40.454  30.347  30.251  1.00  0.00     0.167 HD
ATOM     50  C   UNL A   1      41.973  33.576  32.778  1.00  0.00     0.031 A 
ATOM     51  C   UNL A   1      40.636  27.917  28.889  1.00  0.00     0.031 A 
ATOM     52  C   UNL A   1      43.005  32.575  32.788  1.00  0.00     0.049 A 
ATOM     53  C   UNL A   1      41.936  28.084  29.625  1.00  0.00     0.074 A 
ATOM     54  C   UNL A   1      44.204  32.579  33.479  1.00  0.00     0.029 A 
ATOM     55  N   UNL A   1      42.963  31.392  32.066  1.00  0.00    -0.354 N 
ATOM     56  N   UNL A   1      42.323  29.062  30.408  1.00  0.00    -0.248 NA
ATOM     57  C   UNL A   1      42.926  27.010  29.469  1.00  0.00     0.031 C 
ATOM     58  C   UNL A   1      44.912  31.423  33.132  1.00  0.00     0.029 A 
ATOM     59  C   UNL A   1      44.128  30.671  32.274  1.00  0.00     0.049 A 
ATOM     60  H   UNL A   1      42.216  31.106  31.492  1.00  0.00     0.167 HD
ATOM     61  C   UNL A   1      43.588  28.709  30.858  1.00  0.00     0.074 A 
ATOM     62  C   UNL A   1      43.895  27.419  30.275  1.00  0.00     0.031 C 
ATOM     63  C   UNL A   1      44.420  29.390  31.683  1.00  0.00     0.031 A 
BRANCH  50  64
ATOM     64  C   UNL A   1      42.200  34.847  33.548  1.00  0.00    -0.014 A 
ATOM     65  C   UNL A   1      41.683  35.018  34.843  1.00  0.00     0.009 A 
ATOM     66  C   UNL A   1      42.968  35.879  32.984  1.00  0.00     0.009 A 
ATOM     67  C   UNL A   1      41.896  36.210  35.540  1.00  0.00     0.001 A 
ATOM     68  C   UNL A   1      43.205  37.057  33.695  1.00  0.00     0.001 A 
ATOM     69  C   UNL A   1      42.661  37.225  34.967  1.00  0.00     0.000 A 
ENDBRANCH  50  64
BRANCH  51  70
ATOM     70  C   UNL A   1      40.384  26.710  28.059  1.00  0.00    -0.014 A 
ATOM     71  C   UNL A   1      39.650  25.630  28.574  1.00  0.00     0.009 A 
ATOM     72  C   UNL A   1      40.879  26.628  26.747  1.00  0.00     0.009 A 
ATOM     73  C   UNL A   1      39.441  24.484  27.805  1.00  0.00     0.001 A 
ATOM     74  C   UNL A   1      40.643  25.492  25.970  1.00  0.00     0.001 A 
ATOM     75  C   UNL A   1      39.933  24.418  26.503  1.00  0.00     0.000 A 
ENDBRANCH  51  70
BRANCH  63  76
ATOM     76  C   UNL A   1      45.729  28.739  32.029  1.00  0.00    -0.014 A 
ATOM     77  C   UNL A   1      46.885  28.971  31.267  1.00  0.00     0.009 A 
ATOM     78  C   UNL A   1      45.815  27.910  33.158  1.00  0.00     0.009 A 
ATOM     79  C   UNL A   1      48.091  28.359  31.610  1.00  0.00     0.001 A 
ATOM     80  C   UNL A   1      47.029  27.324  33.518  1.00  0.00     0.001 A 
ATOM     81  C   UNL A   1      48.164  27.540  32.737  1.00  0.00     0.000 A 
ENDBRANCH  63  76
ENDBRANCH  37  38
ENDBRANCH  29  32
ENDBRANCH  27  28
ENDBRANCH  26  27
ENDBRANCH  25  26
ENDBRANCH  24  25
ENDBRANCH   1  24
TORSDOF 19
ENDMDL
MODEL 3
REMARK VINA RESULT:     -10.0      1.736      3.882
REMARK SMILES CC[C@@](O)(C(=O)NCCCCCCNC(=O)c1ccc(-c2c3nc(c(-c4ccccc4)c4ccc([nH]4)c(-c4ccccc4)c4nc(c(-c5ccccc5)c5ccc2[nH]5)C=C4)C=C3)cc1)[C@@H](C)c1ccc(OC(C)C)cc1
REMARK SMILES IDX 9 1 8 2 7 3 5 4 6 5 3 7 2 8 1 9 4 10 65 12 66 13 67 14 68 15
REMARK SMILES IDX 76 16 69 17 75 18 70 19 71 20 72 21 73 22 74 23 10 24 11 25
REMARK SMILES IDX 12 26 13 27 14 28 15 29 16 31 17 32 18 33 64 34 19 35 63 36
REMARK SMILES IDX 20 37 21 38 22 39 57 40 23 41 62 42 56 43 58 44 24 45 61 46
REMARK SMILES IDX 55 47 54 48 25 50 47 51 32 52 46 53 33 54 36 55 45 56 59 57
REMARK SMILES IDX 34 58 35 59 44 61 60 62 37 63 26 64 27 65 31 66 28 67 30 68
REMARK SMILES IDX 29 69 48 70 49 71 53 72 50 73 52 74 51 75 38 76 39 77 43 78
REMARK SMILES IDX 40 79 42 80 41 81
REMARK H PARENT 7 6 4 11 14 30 58 49 36 60
REMARK Flexibility Score: inf
ROOT
ATOM      1  C   UNL A   1      33.946  20.969  25.800  1.00  0.00     0.021 C 
ENDROOT
BRANCH   1   2
ATOM      2  C   UNL A   1      32.843  21.711  25.048  1.00  0.00     0.116 C 
BRANCH   2   3
ATOM      3  N   UNL A   1      33.335  22.237  23.788  1.00  0.00    -0.354 N 
ATOM      4  C   UNL A   1      33.723  23.502  23.447  1.00  0.00     0.252 C 
ATOM      5  O   UNL A   1      34.203  23.637  22.318  1.00  0.00    -0.272 OA
ATOM      6  H   UNL A   1      33.401  21.576  23.061  1.00  0.00     0.163 HD
BRANCH   4   7
ATOM      7  C   UNL A   1      33.632  24.684  24.477  1.00  0.00     0.149 C 
BRANCH   7   8
ATOM      8  C   UNL A   1      34.399  24.321  25.778  1.00  0.00     0.043 C 
ATOM      9  C   UNL A   1      35.910  24.166  25.672  1.00  0.00     0.007 C 
ENDBRANCH   7   8
BRANCH   7  10
ATOM     10  O   UNL A   1      34.300  25.748  23.771  1.00  0.00    -0.379 OA
ATOM     11  H   UNL A   1      34.706  26.356  24.408  1.00  0.00     0.212 HD
ENDBRANCH   7  10
BRANCH   7  12
ATOM     12  C   UNL A   1      32.111  25.058  24.727  1.00  0.00     0.057 C 
ATOM     13  C   UNL A   1      31.809  24.992  26.250  1.00  0.00     0.016 C 
BRANCH  12  14
ATOM     14  C   UNL A   1      31.596  26.388  24.132  1.00  0.00    -0.042 A 
ATOM     15  C   UNL A   1      31.459  27.566  24.879  1.00  0.00     0.008 A 
ATOM     16  C   UNL A   1      31.227  26.471  22.780  1.00  0.00     0.008 A 
ATOM     17  C   UNL A   1      30.815  28.694  24.359  1.00  0.00     0.047 A 
ATOM     18  C   UNL A   1      30.603  27.610  22.251  1.00  0.00     0.047 A 
ATOM     19  C   UNL A   1      30.347  28.712  23.052  1.00  0.00     0.119 A 
BRANCH  19  20
ATOM     20  O   UNL A   1      29.659  29.838  22.724  1.00  0.00    -0.491 OA
BRANCH  20  21
ATOM     21  C   UNL A   1      28.234  29.915  22.757  1.00  0.00     0.167 C 
ATOM     22  C   UNL A   1      27.582  28.585  23.120  1.00  0.00     0.052 C 
ATOM     23  C   UNL A   1      27.692  31.136  23.498  1.00  0.00     0.052 C 
ENDBRANCH  20  21
ENDBRANCH  19  20
ENDBRANCH  12  14
ENDBRANCH   7  12
ENDBRANCH   4   7
ENDBRANCH   2   3
ENDBRANCH   1   2
BRANCH   1  24
ATOM     24  C   UNL A   1      34.908  20.202  24.891  1.00  0.00     0.002 C 
BRANCH  24  25
ATOM     25  C   UNL A   1      36.301  20.823  24.763  1.00  0.00     0.002 C 
BRANCH  25  26
ATOM     26  C   UNL A   1      37.461  19.837  24.918  1.00  0.00     0.021 C 
BRANCH  26  27
ATOM     27  C   UNL A   1      38.673  20.404  25.648  1.00  0.00     0.116 C 
BRANCH  27  28
ATOM     28  N   UNL A   1      39.756  19.438  25.729  1.00  0.00    -0.352 N 
ATOM     29  C   UNL A   1      41.076  19.643  26.035  1.00  0.00     0.251 C 
ATOM     30  H   UNL A   1      39.506  18.505  25.537  1.00  0.00     0.163 HD
ATOM     31  O   UNL A   1      41.902  18.757  25.850  1.00  0.00    -0.269 OA
BRANCH  29  32
ATOM     32  C   UNL A   1      41.503  20.950  26.576  1.00  0.00     0.039 A 
ATOM     33  C   UNL A   1      42.015  21.908  25.701  1.00  0.00     0.014 A 
ATOM     34  C   UNL A   1      41.400  21.222  27.944  1.00  0.00     0.014 A 
ATOM     35  C   UNL A   1      42.378  23.164  26.191  1.00  0.00     0.010 A 
ATOM     36  C   UNL A   1      41.693  22.497  28.418  1.00  0.00     0.010 A 
ATOM     37  C   UNL A   1      42.193  23.477  27.548  1.00  0.00    -0.014 A 
BRANCH  37  38
ATOM     38  C   UNL A   1      42.521  24.825  28.075  1.00  0.00     0.031 A 
ATOM     39  C   UNL A   1      43.929  25.155  28.481  1.00  0.00     0.074 A 
ATOM     40  C   UNL A   1      41.538  25.731  28.240  1.00  0.00     0.049 A 
ATOM     41  N   UNL A   1      44.399  26.259  29.004  1.00  0.00    -0.248 NA
ATOM     42  C   UNL A   1      44.939  24.098  28.300  1.00  0.00     0.031 C 
ATOM     43  C   UNL A   1      40.125  25.518  27.919  1.00  0.00     0.029 A 
ATOM     44  N   UNL A   1      41.580  27.013  28.725  1.00  0.00    -0.354 N 
ATOM     45  C   UNL A   1      45.751  26.025  29.227  1.00  0.00     0.074 A 
ATOM     46  C   UNL A   1      46.014  24.660  28.832  1.00  0.00     0.031 C 
ATOM     47  C   UNL A   1      39.441  26.642  28.188  1.00  0.00     0.029 A 
ATOM     48  C   UNL A   1      40.355  27.636  28.738  1.00  0.00     0.049 A 
ATOM     49  H   UNL A   1      42.409  27.447  29.034  1.00  0.00     0.167 HD
ATOM     50  C   UNL A   1      46.692  26.876  29.700  1.00  0.00     0.031 A 
ATOM     51  C   UNL A   1      40.008  28.868  29.153  1.00  0.00     0.031 A 
ATOM     52  C   UNL A   1      46.430  28.237  30.086  1.00  0.00     0.049 A 
ATOM     53  C   UNL A   1      41.068  29.787  29.693  1.00  0.00     0.074 A 
ATOM     54  C   UNL A   1      47.326  29.197  30.524  1.00  0.00     0.029 A 
ATOM     55  N   UNL A   1      45.177  28.829  30.086  1.00  0.00    -0.354 N 
ATOM     56  N   UNL A   1      42.354  29.575  29.831  1.00  0.00    -0.248 NA
ATOM     57  C   UNL A   1      40.627  31.121  30.125  1.00  0.00     0.031 C 
ATOM     58  C   UNL A   1      46.606  30.353  30.843  1.00  0.00     0.029 A 
ATOM     59  C   UNL A   1      45.271  30.134  30.544  1.00  0.00     0.049 A 
ATOM     60  H   UNL A   1      44.343  28.389  29.802  1.00  0.00     0.167 HD
ATOM     61  C   UNL A   1      42.880  30.755  30.341  1.00  0.00     0.074 A 
ATOM     62  C   UNL A   1      41.777  31.684  30.469  1.00  0.00     0.031 C 
ATOM     63  C   UNL A   1      44.163  31.044  30.669  1.00  0.00     0.031 A 
BRANCH  50  64
ATOM     64  C   UNL A   1      48.095  26.352  29.833  1.00  0.00    -0.014 A 
ATOM     65  C   UNL A   1      48.532  25.729  31.014  1.00  0.00     0.009 A 
ATOM     66  C   UNL A   1      48.985  26.454  28.753  1.00  0.00     0.009 A 
ATOM     67  C   UNL A   1      49.842  25.256  31.123  1.00  0.00     0.001 A 
ATOM     68  C   UNL A   1      50.284  25.954  28.853  1.00  0.00     0.001 A 
ATOM     69  C   UNL A   1      50.715  25.365  30.041  1.00  0.00     0.000 A 
ENDBRANCH  50  64
BRANCH  51  70
ATOM     70  C   UNL A   1      38.593  29.313  29.060  1.00  0.00    -0.014 A 
ATOM     71  C   UNL A   1      37.734  29.193  30.164  1.00  0.00     0.009 A 
ATOM     72  C   UNL A   1      38.090  29.857  27.867  1.00  0.00     0.009 A 
ATOM     73  C   UNL A   1      36.397  29.581  30.067  1.00  0.00     0.001 A 
ATOM     74  C   UNL A   1      36.761  30.271  27.782  1.00  0.00     0.001 A 
ATOM     75  C   UNL A   1      35.912  30.124  28.878  1.00  0.00     0.000 A 
ENDBRANCH  51  70
BRANCH  63  76
ATOM     76  C   UNL A   1      44.447  32.432  31.171  1.00  0.00    -0.014 A 
ATOM     77  C   UNL A   1      44.415  32.735  32.541  1.00  0.00     0.009 A 
ATOM     78  C   UNL A   1      44.789  33.443  30.259  1.00  0.00     0.009 A 
ATOM     79  C   UNL A   1      44.687  34.031  32.983  1.00  0.00     0.001 A 
ATOM     80  C   UNL A   1      45.092  34.729  30.706  1.00  0.00     0.001 A 
ATOM     81  C   UNL A   1      45.030  35.025  32.067  1.00  0.00     0.000 A 
ENDBRANCH  63  76
ENDBRANCH  37  38
ENDBRANCH  29  32
ENDBRANCH  27  28
ENDBRANCH  26  27
ENDBRANCH  25  26
ENDBRANCH  24  25
ENDBRANCH   1  24
TORSDOF 19
ENDMDL
