MODEL 1
REMARK VINA RESULT:     -10.4      0.000      0.000
REMARK SMILES C[C@@H]1CCC[C@]1(Sc1ccc(F)cc1)C(=O)NCCCCCCNC(=O)c1ccc(-c2c3nc(c(-c4ccccc4)c4ccc([nH]4)c(-c4ccccc4)c4nc(c(-c5ccccc5)c5ccc2[nH]5)C=C4)C=C3)cc1
REMARK SMILES IDX 20 1 19 2 18 3 17 4 15 5 16 6 6 8 1 9 2 10 3 11 4 12 5 13
REMARK SMILES IDX 7 14 8 15 9 16 14 17 10 18 13 19 11 20 12 21 21 22 22 23
REMARK SMILES IDX 23 24 24 25 25 26 26 28 27 29 28 30 74 31 29 32 73 33 30 34
REMARK SMILES IDX 31 35 32 36 67 37 33 38 72 39 66 40 68 41 34 42 71 43 65 44
REMARK SMILES IDX 64 45 35 47 57 48 42 49 56 50 43 51 46 52 55 53 69 54 44 55
REMARK SMILES IDX 45 56 54 58 70 59 47 60 36 61 37 62 41 63 38 64 40 65 39 66
REMARK SMILES IDX 58 67 59 68 63 69 60 70 62 71 61 72 48 73 49 74 53 75 50 76
REMARK SMILES IDX 52 77 51 78
REMARK H PARENT 17 7 24 27 68 46 46 57
REMARK Flexibility Score: inf
ROOT
ATOM      1  C   UNL A   1      33.435  30.221  27.257  1.00  0.00     0.002 C 
ENDROOT
BRANCH   1   2
ATOM      2  C   UNL A   1      34.131  29.113  26.463  1.00  0.00     0.021 C 
BRANCH   2   3
ATOM      3  C   UNL A   1      33.598  28.906  25.048  1.00  0.00     0.116 C 
BRANCH   3   4
ATOM      4  N   UNL A   1      33.976  27.617  24.499  1.00  0.00    -0.355 N 
ATOM      5  C   UNL A   1      33.230  26.670  23.850  1.00  0.00     0.236 C 
ATOM      6  O   UNL A   1      33.847  25.697  23.405  1.00  0.00    -0.273 OA
ATOM      7  H   UNL A   1      34.926  27.385  24.612  1.00  0.00     0.163 HD
BRANCH   5   8
ATOM      8  C   UNL A   1      31.682  26.815  23.695  1.00  0.00     0.102 C 
ATOM      9  C   UNL A   1      31.609  26.117  26.193  1.00  0.00     0.009 C 
ATOM     10  C   UNL A   1      30.946  26.922  25.059  1.00  0.00     0.012 C 
ATOM     11  C   UNL A   1      29.548  26.328  24.823  1.00  0.00     0.005 C 
ATOM     12  C   UNL A   1      29.654  25.414  23.612  1.00  0.00     0.002 C 
ATOM     13  C   UNL A   1      31.084  25.526  23.094  1.00  0.00     0.028 C 
BRANCH   8  14
ATOM     14  S   UNL A   1      31.507  28.232  22.445  1.00  0.00    -0.109 SA
BRANCH  14  15
ATOM     15  C   UNL A   1      30.122  29.212  22.950  1.00  0.00     0.008 A 
ATOM     16  C   UNL A   1      30.288  30.356  23.738  1.00  0.00     0.018 A 
ATOM     17  C   UNL A   1      28.863  28.936  22.401  1.00  0.00     0.018 A 
ATOM     18  C   UNL A   1      29.193  31.172  24.034  1.00  0.00     0.040 A 
ATOM     19  C   UNL A   1      27.773  29.763  22.679  1.00  0.00     0.040 A 
ATOM     20  C   UNL A   1      27.947  30.868  23.501  1.00  0.00     0.123 A 
ATOM     21  F   UNL A   1      26.903  31.662  23.770  1.00  0.00    -0.207 F 
ENDBRANCH  14  15
ENDBRANCH   8  14
ENDBRANCH   5   8
ENDBRANCH   3   4
ENDBRANCH   2   3
ENDBRANCH   1   2
BRANCH   1  22
ATOM     22  C   UNL A   1      31.975  30.481  26.877  1.00  0.00     0.002 C 
BRANCH  22  23
ATOM     23  C   UNL A   1      31.542  31.950  26.887  1.00  0.00     0.021 C 
BRANCH  23  24
ATOM     24  C   UNL A   1      32.679  32.968  26.876  1.00  0.00     0.116 C 
BRANCH  24  25
ATOM     25  N   UNL A   1      32.378  34.150  27.662  1.00  0.00    -0.352 N 
ATOM     26  C   UNL A   1      33.026  34.661  28.756  1.00  0.00     0.251 C 
ATOM     27  H   UNL A   1      31.591  34.661  27.366  1.00  0.00     0.163 HD
ATOM     28  O   UNL A   1      32.528  35.603  29.374  1.00  0.00    -0.269 OA
BRANCH  26  29
ATOM     29  C   UNL A   1      34.306  34.080  29.221  1.00  0.00     0.039 A 
ATOM     30  C   UNL A   1      34.273  33.162  30.274  1.00  0.00     0.014 A 
ATOM     31  C   UNL A   1      35.530  34.456  28.662  1.00  0.00     0.014 A 
ATOM     32  C   UNL A   1      35.460  32.592  30.737  1.00  0.00     0.010 A 
ATOM     33  C   UNL A   1      36.710  33.838  29.082  1.00  0.00     0.010 A 
ATOM     34  C   UNL A   1      36.686  32.907  30.130  1.00  0.00    -0.014 A 
BRANCH  34  35
ATOM     35  C   UNL A   1      37.940  32.261  30.596  1.00  0.00     0.031 A 
ATOM     36  C   UNL A   1      38.712  32.829  31.755  1.00  0.00     0.074 A 
ATOM     37  C   UNL A   1      38.392  31.161  29.963  1.00  0.00     0.049 A 
ATOM     38  N   UNL A   1      39.795  32.368  32.329  1.00  0.00    -0.248 NA
ATOM     39  C   UNL A   1      38.215  34.087  32.336  1.00  0.00     0.031 C 
ATOM     40  C   UNL A   1      37.764  30.536  28.797  1.00  0.00     0.029 A 
ATOM     41  N   UNL A   1      39.479  30.365  30.222  1.00  0.00    -0.354 N 
ATOM     42  C   UNL A   1      40.110  33.277  33.332  1.00  0.00     0.074 A 
ATOM     43  C   UNL A   1      39.136  34.344  33.254  1.00  0.00     0.031 C 
ATOM     44  C   UNL A   1      38.451  29.429  28.469  1.00  0.00     0.029 A 
ATOM     45  C   UNL A   1      39.578  29.281  29.383  1.00  0.00     0.049 A 
ATOM     46  H   UNL A   1      40.126  30.553  30.940  1.00  0.00     0.167 HD
ATOM     47  C   UNL A   1      41.105  33.220  34.249  1.00  0.00     0.031 A 
ATOM     48  C   UNL A   1      40.469  28.273  29.363  1.00  0.00     0.031 A 
ATOM     49  C   UNL A   1      42.073  32.159  34.336  1.00  0.00     0.049 A 
ATOM     50  C   UNL A   1      41.556  28.228  30.399  1.00  0.00     0.074 A 
ATOM     51  C   UNL A   1      43.093  31.993  35.255  1.00  0.00     0.029 A 
ATOM     52  N   UNL A   1      42.136  31.080  33.469  1.00  0.00    -0.354 N 
ATOM     53  N   UNL A   1      41.797  29.061  31.381  1.00  0.00    -0.248 NA
ATOM     54  C   UNL A   1      42.481  27.087  30.333  1.00  0.00     0.031 C 
ATOM     55  C   UNL A   1      43.798  30.830  34.923  1.00  0.00     0.029 A 
ATOM     56  C   UNL A   1      43.187  30.249  33.825  1.00  0.00     0.049 A 
ATOM     57  H   UNL A   1      41.525  30.925  32.713  1.00  0.00     0.167 HD
ATOM     58  C   UNL A   1      42.883  28.532  32.065  1.00  0.00     0.074 A 
ATOM     59  C   UNL A   1      43.239  27.297  31.398  1.00  0.00     0.031 C 
ATOM     60  C   UNL A   1      43.530  29.026  33.150  1.00  0.00     0.031 A 
BRANCH  47  61
ATOM     61  C   UNL A   1      41.190  34.345  35.243  1.00  0.00    -0.014 A 
ATOM     62  C   UNL A   1      41.958  35.490  34.974  1.00  0.00     0.009 A 
ATOM     63  C   UNL A   1      40.466  34.279  36.443  1.00  0.00     0.009 A 
ATOM     64  C   UNL A   1      42.025  36.531  35.903  1.00  0.00     0.001 A 
ATOM     65  C   UNL A   1      40.516  35.333  37.359  1.00  0.00     0.001 A 
ATOM     66  C   UNL A   1      41.301  36.453  37.092  1.00  0.00     0.000 A 
ENDBRANCH  47  61
BRANCH  48  67
ATOM     67  C   UNL A   1      40.348  27.191  28.351  1.00  0.00    -0.014 A 
ATOM     68  C   UNL A   1      40.967  27.320  27.098  1.00  0.00     0.009 A 
ATOM     69  C   UNL A   1      39.599  26.037  28.624  1.00  0.00     0.009 A 
ATOM     70  C   UNL A   1      40.812  26.329  26.126  1.00  0.00     0.001 A 
ATOM     71  C   UNL A   1      39.468  25.035  27.660  1.00  0.00     0.001 A 
ATOM     72  C   UNL A   1      40.065  25.187  26.409  1.00  0.00     0.000 A 
ENDBRANCH  48  67
BRANCH  60  73
ATOM     73  C   UNL A   1      44.665  28.206  33.694  1.00  0.00    -0.014 A 
ATOM     74  C   UNL A   1      44.447  27.207  34.656  1.00  0.00     0.009 A 
ATOM     75  C   UNL A   1      45.970  28.434  33.233  1.00  0.00     0.009 A 
ATOM     76  C   UNL A   1      45.521  26.483  35.177  1.00  0.00     0.001 A 
ATOM     77  C   UNL A   1      47.038  27.690  33.736  1.00  0.00     0.001 A 
ATOM     78  C   UNL A   1      46.815  26.724  34.716  1.00  0.00     0.000 A 
ENDBRANCH  60  73
ENDBRANCH  34  35
ENDBRANCH  26  29
ENDBRANCH  24  25
ENDBRANCH  23  24
ENDBRANCH  22  23
ENDBRANCH   1  22
TORSDOF 15
ENDMDL
MODEL 2
REMARK VINA RESULT:     -10.3      4.323      9.047
REMARK SMILES C[C@@H]1CCC[C@]1(Sc1ccc(F)cc1)C(=O)NCCCCCCNC(=O)c1ccc(-c2c3nc(c(-c4ccccc4)c4ccc([nH]4)c(-c4ccccc4)c4nc(c(-c5ccccc5)c5ccc2[nH]5)C=C4)C=C3)cc1
REMARK SMILES IDX 20 1 19 2 18 3 17 4 15 5 16 6 6 8 1 9 2 10 3 11 4 12 5 13
REMARK SMILES IDX 7 14 8 15 9 16 14 17 10 18 13 19 11 20 12 21 21 22 22 23
REMARK SMILES IDX 23 24 24 25 25 26 26 28 27 29 28 30 74 31 29 32 73 33 30 34
REMARK SMILES IDX 31 35 32 36 67 37 33 38 72 39 66 40 68 41 34 42 71 43 65 44
REMARK SMILES IDX 64 45 35 47 57 48 42 49 56 50 43 51 46 52 55 53 69 54 44 55
REMARK SMILES IDX 45 56 54 58 70 59 47 60 36 61 37 62 41 63 38 64 40 65 39 66
REMARK SMILES IDX 58 67 59 68 63 69 60 70 62 71 61 72 48 73 49 74 53 75 50 76
REMARK SMILES IDX 52 77 51 78
REMARK H PARENT 17 7 24 27 68 46 46 57
REMARK Flexibility Score: inf
ROOT
ATOM      1  C   UNL A   1      37.001  21.894  23.855  1.00  0.00     0.002 C 
ENDROOT
BRANCH   1   2
ATOM      2  C   UNL A   1      36.695  23.328  24.294  1.00  0.00     0.021 C 
BRANCH   2   3
ATOM      3  C   UNL A   1      35.303  23.829  23.920  1.00  0.00     0.116 C 
BRANCH   3   4
ATOM      4  N   UNL A   1      34.432  22.756  23.477  1.00  0.00    -0.355 N 
ATOM      5  C   UNL A   1      33.128  22.478  23.791  1.00  0.00     0.236 C 
ATOM      6  O   UNL A   1      32.606  21.539  23.182  1.00  0.00    -0.273 OA
ATOM      7  H   UNL A   1      34.846  22.124  22.847  1.00  0.00     0.163 HD
BRANCH   5   8
ATOM      8  C   UNL A   1      32.354  23.302  24.869  1.00  0.00     0.102 C 
ATOM      9  C   UNL A   1      33.716  21.897  26.572  1.00  0.00     0.009 C 
ATOM     10  C   UNL A   1      33.021  23.237  26.271  1.00  0.00     0.012 C 
ATOM     11  C   UNL A   1      31.875  23.404  27.283  1.00  0.00     0.005 C 
ATOM     12  C   UNL A   1      30.593  23.001  26.570  1.00  0.00     0.002 C 
ATOM     13  C   UNL A   1      30.970  22.672  25.129  1.00  0.00     0.028 C 
BRANCH   8  14
ATOM     14  S   UNL A   1      32.131  24.993  24.038  1.00  0.00    -0.109 SA
BRANCH  14  15
ATOM     15  C   UNL A   1      32.433  26.229  25.268  1.00  0.00     0.008 A 
ATOM     16  C   UNL A   1      33.697  26.810  25.422  1.00  0.00     0.018 A 
ATOM     17  C   UNL A   1      31.347  26.759  25.976  1.00  0.00     0.018 A 
ATOM     18  C   UNL A   1      33.886  27.858  26.326  1.00  0.00     0.040 A 
ATOM     19  C   UNL A   1      31.530  27.821  26.864  1.00  0.00     0.040 A 
ATOM     20  C   UNL A   1      32.801  28.354  27.038  1.00  0.00     0.123 A 
ATOM     21  F   UNL A   1      32.979  29.372  27.889  1.00  0.00    -0.207 F 
ENDBRANCH  14  15
ENDBRANCH   8  14
ENDBRANCH   5   8
ENDBRANCH   3   4
ENDBRANCH   2   3
ENDBRANCH   1   2
BRANCH   1  22
ATOM     22  C   UNL A   1      36.998  20.851  24.977  1.00  0.00     0.002 C 
BRANCH  22  23
ATOM     23  C   UNL A   1      38.130  19.821  24.923  1.00  0.00     0.021 C 
BRANCH  23  24
ATOM     24  C   UNL A   1      39.126  19.883  26.079  1.00  0.00     0.116 C 
BRANCH  24  25
ATOM     25  N   UNL A   1      40.366  19.188  25.785  1.00  0.00    -0.352 N 
ATOM     26  C   UNL A   1      41.660  19.623  25.894  1.00  0.00     0.251 C 
ATOM     27  H   UNL A   1      40.262  18.265  25.458  1.00  0.00     0.163 HD
ATOM     28  O   UNL A   1      42.577  18.926  25.458  1.00  0.00    -0.269 OA
BRANCH  26  29
ATOM     29  C   UNL A   1      41.971  20.933  26.510  1.00  0.00     0.039 A 
ATOM     30  C   UNL A   1      42.286  22.003  25.667  1.00  0.00     0.014 A 
ATOM     31  C   UNL A   1      41.994  21.108  27.897  1.00  0.00     0.014 A 
ATOM     32  C   UNL A   1      42.582  23.253  26.212  1.00  0.00     0.010 A 
ATOM     33  C   UNL A   1      42.227  22.374  28.438  1.00  0.00     0.010 A 
ATOM     34  C   UNL A   1      42.533  23.456  27.601  1.00  0.00    -0.014 A 
BRANCH  34  35
ATOM     35  C   UNL A   1      42.802  24.801  28.172  1.00  0.00     0.031 A 
ATOM     36  C   UNL A   1      44.201  25.214  28.538  1.00  0.00     0.074 A 
ATOM     37  C   UNL A   1      41.777  25.653  28.371  1.00  0.00     0.049 A 
ATOM     38  N   UNL A   1      44.627  26.364  28.997  1.00  0.00    -0.248 NA
ATOM     39  C   UNL A   1      45.257  24.200  28.386  1.00  0.00     0.031 C 
ATOM     40  C   UNL A   1      40.367  25.359  28.102  1.00  0.00     0.029 A 
ATOM     41  N   UNL A   1      41.766  26.944  28.834  1.00  0.00    -0.354 N 
ATOM     42  C   UNL A   1      45.995  26.211  29.192  1.00  0.00     0.074 A 
ATOM     43  C   UNL A   1      46.319  24.843  28.852  1.00  0.00     0.031 C 
ATOM     44  C   UNL A   1      39.634  26.455  28.363  1.00  0.00     0.029 A 
ATOM     45  C   UNL A   1      40.516  27.515  28.839  1.00  0.00     0.049 A 
ATOM     46  H   UNL A   1      42.576  27.416  29.132  1.00  0.00     0.167 HD
ATOM     47  C   UNL A   1      46.904  27.131  29.594  1.00  0.00     0.031 A 
ATOM     48  C   UNL A   1      40.127  28.758  29.174  1.00  0.00     0.031 A 
ATOM     49  C   UNL A   1      46.589  28.496  29.926  1.00  0.00     0.049 A 
ATOM     50  C   UNL A   1      41.156  29.762  29.606  1.00  0.00     0.074 A 
ATOM     51  C   UNL A   1      47.448  29.513  30.306  1.00  0.00     0.029 A 
ATOM     52  N   UNL A   1      45.312  29.033  29.916  1.00  0.00    -0.354 N 
ATOM     53  N   UNL A   1      42.454  29.619  29.720  1.00  0.00    -0.248 NA
ATOM     54  C   UNL A   1      40.666  31.108  29.937  1.00  0.00     0.031 C 
ATOM     55  C   UNL A   1      46.685  30.658  30.560  1.00  0.00     0.029 A 
ATOM     56  C   UNL A   1      45.358  30.365  30.294  1.00  0.00     0.049 A 
ATOM     57  H   UNL A   1      44.494  28.542  29.675  1.00  0.00     0.167 HD
ATOM     58  C   UNL A   1      42.938  30.861  30.108  1.00  0.00     0.074 A 
ATOM     59  C   UNL A   1      41.797  31.750  30.190  1.00  0.00     0.031 C 
ATOM     60  C   UNL A   1      44.214  31.234  30.374  1.00  0.00     0.031 A 
BRANCH  47  61
ATOM     61  C   UNL A   1      48.337  26.687  29.690  1.00  0.00    -0.014 A 
ATOM     62  C   UNL A   1      49.224  26.864  28.616  1.00  0.00     0.009 A 
ATOM     63  C   UNL A   1      48.818  26.120  30.881  1.00  0.00     0.009 A 
ATOM     64  C   UNL A   1      50.553  26.451  28.719  1.00  0.00     0.001 A 
ATOM     65  C   UNL A   1      50.155  25.731  30.990  1.00  0.00     0.001 A 
ATOM     66  C   UNL A   1      51.019  25.889  29.907  1.00  0.00     0.000 A 
ENDBRANCH  47  61
BRANCH  48  67
ATOM     67  C   UNL A   1      38.695  29.144  29.073  1.00  0.00    -0.014 A 
ATOM     68  C   UNL A   1      38.171  29.618  27.861  1.00  0.00     0.009 A 
ATOM     69  C   UNL A   1      37.852  29.059  30.192  1.00  0.00     0.009 A 
ATOM     70  C   UNL A   1      36.840  30.030  27.777  1.00  0.00     0.001 A 
ATOM     71  C   UNL A   1      36.513  29.447  30.098  1.00  0.00     0.001 A 
ATOM     72  C   UNL A   1      36.012  29.941  28.895  1.00  0.00     0.000 A 
ENDBRANCH  48  67
BRANCH  60  73
ATOM     73  C   UNL A   1      44.437  32.673  30.745  1.00  0.00    -0.014 A 
ATOM     74  C   UNL A   1      44.621  33.660  29.764  1.00  0.00     0.009 A 
ATOM     75  C   UNL A   1      44.457  33.045  32.098  1.00  0.00     0.009 A 
ATOM     76  C   UNL A   1      44.865  34.983  30.132  1.00  0.00     0.001 A 
ATOM     77  C   UNL A   1      44.674  34.375  32.463  1.00  0.00     0.001 A 
ATOM     78  C   UNL A   1      44.890  35.340  31.480  1.00  0.00     0.000 A 
ENDBRANCH  60  73
ENDBRANCH  34  35
ENDBRANCH  26  29
ENDBRANCH  24  25
ENDBRANCH  23  24
ENDBRANCH  22  23
ENDBRANCH   1  22
TORSDOF 15
ENDMDL
MODEL 3
REMARK VINA RESULT:     -10.2      2.372      3.566
REMARK SMILES C[C@@H]1CCC[C@]1(Sc1ccc(F)cc1)C(=O)NCCCCCCNC(=O)c1ccc(-c2c3nc(c(-c4ccccc4)c4ccc([nH]4)c(-c4ccccc4)c4nc(c(-c5ccccc5)c5ccc2[nH]5)C=C4)C=C3)cc1
REMARK SMILES IDX 20 1 19 2 18 3 17 4 15 5 16 6 6 8 1 9 2 10 3 11 4 12 5 13
REMARK SMILES IDX 7 14 8 15 9 16 14 17 10 18 13 19 11 20 12 21 21 22 22 23
REMARK SMILES IDX 23 24 24 25 25 26 26 28 27 29 28 30 74 31 29 32 73 33 30 34
REMARK SMILES IDX 31 35 32 36 67 37 33 38 72 39 66 40 68 41 34 42 71 43 65 44
REMARK SMILES IDX 64 45 35 47 57 48 42 49 56 50 43 51 46 52 55 53 69 54 44 55
REMARK SMILES IDX 45 56 54 58 70 59 47 60 36 61 37 62 41 63 38 64 40 65 39 66
REMARK SMILES IDX 58 67 59 68 63 69 60 70 62 71 61 72 48 73 49 74 53 75 50 76
REMARK SMILES IDX 52 77 51 78
REMARK H PARENT 17 7 24 27 68 46 46 57
REMARK Flexibility Score: inf
ROOT
ATOM      1  C   UNL A   1      33.592  28.690  27.215  1.00  0.00     0.002 C 
ENDROOT
BRANCH   1   2
ATOM      2  C   UNL A   1      32.117  28.293  27.304  1.00  0.00     0.021 C 
BRANCH   2   3
ATOM      3  C   UNL A   1      31.768  26.968  26.632  1.00  0.00     0.116 C 
BRANCH   3   4
ATOM      4  N   UNL A   1      30.677  27.101  25.685  1.00  0.00    -0.355 N 
ATOM      5  C   UNL A   1      30.577  26.707  24.377  1.00  0.00     0.236 C 
ATOM      6  O   UNL A   1      29.477  26.870  23.838  1.00  0.00    -0.273 OA
ATOM      7  H   UNL A   1      29.876  27.549  26.041  1.00  0.00     0.163 HD
BRANCH   5   8
ATOM      8  C   UNL A   1      31.795  26.095  23.614  1.00  0.00     0.102 C 
ATOM      9  C   UNL A   1      32.605  28.553  23.429  1.00  0.00     0.009 C 
ATOM     10  C   UNL A   1      33.002  27.068  23.526  1.00  0.00     0.012 C 
ATOM     11  C   UNL A   1      33.740  26.699  22.228  1.00  0.00     0.005 C 
ATOM     12  C   UNL A   1      32.733  25.989  21.335  1.00  0.00     0.002 C 
ATOM     13  C   UNL A   1      31.436  25.875  22.129  1.00  0.00     0.028 C 
BRANCH   8  14
ATOM     14  S   UNL A   1      32.032  24.414  24.460  1.00  0.00    -0.109 SA
BRANCH  14  15
ATOM     15  C   UNL A   1      33.768  24.070  24.472  1.00  0.00     0.008 A 
ATOM     16  C   UNL A   1      34.569  24.399  25.571  1.00  0.00     0.018 A 
ATOM     17  C   UNL A   1      34.310  23.295  23.438  1.00  0.00     0.018 A 
ATOM     18  C   UNL A   1      35.913  24.021  25.601  1.00  0.00     0.040 A 
ATOM     19  C   UNL A   1      35.649  22.899  23.477  1.00  0.00     0.040 A 
ATOM     20  C   UNL A   1      36.440  23.275  24.554  1.00  0.00     0.123 A 
ATOM     21  F   UNL A   1      37.724  22.897  24.594  1.00  0.00    -0.207 F 
ENDBRANCH  14  15
ENDBRANCH   8  14
ENDBRANCH   5   8
ENDBRANCH   3   4
ENDBRANCH   2   3
ENDBRANCH   1   2
BRANCH   1  22
ATOM     22  C   UNL A   1      33.873  30.192  27.297  1.00  0.00     0.002 C 
BRANCH  22  23
ATOM     23  C   UNL A   1      32.646  31.083  27.512  1.00  0.00     0.021 C 
BRANCH  23  24
ATOM     24  C   UNL A   1      32.592  32.340  26.647  1.00  0.00     0.116 C 
BRANCH  24  25
ATOM     25  N   UNL A   1      32.313  33.538  27.419  1.00  0.00    -0.352 N 
ATOM     26  C   UNL A   1      33.037  34.116  28.427  1.00  0.00     0.251 C 
ATOM     27  H   UNL A   1      31.479  34.004  27.183  1.00  0.00     0.163 HD
ATOM     28  O   UNL A   1      32.558  35.059  29.058  1.00  0.00    -0.269 OA
BRANCH  26  29
ATOM     29  C   UNL A   1      34.381  33.608  28.785  1.00  0.00     0.039 A 
ATOM     30  C   UNL A   1      34.521  32.887  29.975  1.00  0.00     0.014 A 
ATOM     31  C   UNL A   1      35.501  33.864  27.990  1.00  0.00     0.014 A 
ATOM     32  C   UNL A   1      35.772  32.390  30.344  1.00  0.00     0.010 A 
ATOM     33  C   UNL A   1      36.739  33.312  28.326  1.00  0.00     0.010 A 
ATOM     34  C   UNL A   1      36.887  32.578  29.512  1.00  0.00    -0.014 A 
BRANCH  34  35
ATOM     35  C   UNL A   1      38.206  32.006  29.886  1.00  0.00     0.031 A 
ATOM     36  C   UNL A   1      39.119  32.735  30.833  1.00  0.00     0.074 A 
ATOM     37  C   UNL A   1      38.589  30.825  29.361  1.00  0.00     0.049 A 
ATOM     38  N   UNL A   1      40.280  32.361  31.311  1.00  0.00    -0.248 NA
ATOM     39  C   UNL A   1      38.682  34.064  31.291  1.00  0.00     0.031 C 
ATOM     40  C   UNL A   1      37.817  30.039  28.395  1.00  0.00     0.029 A 
ATOM     41  N   UNL A   1      39.716  30.075  29.578  1.00  0.00    -0.354 N 
ATOM     42  C   UNL A   1      40.712  33.407  32.119  1.00  0.00     0.074 A 
ATOM     43  C   UNL A   1      39.715  34.451  32.025  1.00  0.00     0.031 C 
ATOM     44  C   UNL A   1      38.476  28.896  28.137  1.00  0.00     0.029 A 
ATOM     45  C   UNL A   1      39.720  28.881  28.897  1.00  0.00     0.049 A 
ATOM     46  H   UNL A   1      40.451  30.364  30.165  1.00  0.00     0.167 HD
ATOM     47  C   UNL A   1      41.824  33.482  32.888  1.00  0.00     0.031 A 
ATOM     48  C   UNL A   1      40.619  27.880  28.898  1.00  0.00     0.031 A 
ATOM     49  C   UNL A   1      42.815  32.444  32.990  1.00  0.00     0.049 A 
ATOM     50  C   UNL A   1      41.839  27.985  29.768  1.00  0.00     0.074 A 
ATOM     51  C   UNL A   1      43.956  32.413  33.773  1.00  0.00     0.029 A 
ATOM     52  N   UNL A   1      42.780  31.251  32.287  1.00  0.00    -0.354 N 
ATOM     53  N   UNL A   1      42.197  28.952  30.577  1.00  0.00    -0.248 NA
ATOM     54  C   UNL A   1      42.769  26.846  29.739  1.00  0.00     0.031 C 
ATOM     55  C   UNL A   1      44.632  31.214  33.516  1.00  0.00     0.029 A 
ATOM     56  C   UNL A   1      43.886  30.481  32.609  1.00  0.00     0.049 A 
ATOM     57  H   UNL A   1      42.074  30.989  31.653  1.00  0.00     0.167 HD
ATOM     58  C   UNL A   1      43.377  28.527  31.172  1.00  0.00     0.074 A 
ATOM     59  C   UNL A   1      43.662  27.208  30.647  1.00  0.00     0.031 C 
ATOM     60  C   UNL A   1      44.157  29.172  32.075  1.00  0.00     0.031 A 
BRANCH  47  61
ATOM     61  C   UNL A   1      42.023  34.739  33.688  1.00  0.00    -0.014 A 
ATOM     62  C   UNL A   1      41.515  34.855  34.993  1.00  0.00     0.009 A 
ATOM     63  C   UNL A   1      42.759  35.806  33.150  1.00  0.00     0.009 A 
ATOM     64  C   UNL A   1      41.710  36.026  35.727  1.00  0.00     0.001 A 
ATOM     65  C   UNL A   1      42.975  36.966  33.897  1.00  0.00     0.001 A 
ATOM     66  C   UNL A   1      42.444  37.078  35.181  1.00  0.00     0.000 A 
ENDBRANCH  47  61
BRANCH  48  67
ATOM     67  C   UNL A   1      40.382  26.664  28.079  1.00  0.00    -0.014 A 
ATOM     68  C   UNL A   1      40.924  26.560  26.788  1.00  0.00     0.009 A 
ATOM     69  C   UNL A   1      39.597  25.610  28.573  1.00  0.00     0.009 A 
ATOM     70  C   UNL A   1      40.659  25.441  25.996  1.00  0.00     0.001 A 
ATOM     71  C   UNL A   1      39.356  24.480  27.788  1.00  0.00     0.001 A 
ATOM     72  C   UNL A   1      39.878  24.402  26.498  1.00  0.00     0.000 A 
ENDBRANCH  48  67
BRANCH  60  73
ATOM     73  C   UNL A   1      45.372  28.440  32.568  1.00  0.00    -0.014 A 
ATOM     74  C   UNL A   1      45.311  27.598  33.690  1.00  0.00     0.009 A 
ATOM     75  C   UNL A   1      46.595  28.590  31.895  1.00  0.00     0.009 A 
ATOM     76  C   UNL A   1      46.461  26.957  34.155  1.00  0.00     0.001 A 
ATOM     77  C   UNL A   1      47.736  27.926  32.346  1.00  0.00     0.001 A 
ATOM     78  C   UNL A   1      47.671  27.121  33.482  1.00  0.00     0.000 A 
ENDBRANCH  60  73
ENDBRANCH  34  35
ENDBRANCH  26  29
ENDBRANCH  24  25
ENDBRANCH  23  24
ENDBRANCH  22  23
ENDBRANCH   1  22
TORSDOF 15
ENDMDL
