MODEL 1
REMARK VINA RESULT:     -11.3      0.000      0.000
REMARK SMILES CC(=O)N1CCN(C(=O)c2ccc(=O)n(CCC(=O)NCCCCCCNC(=O)c3ccc(-c4c5nc(c(-c6ccccc6)c6ccc([nH]6)c(-c6ccccc6)c6nc(c(-c7ccccc7)c7ccc4[nH]7)C=C6)C=C5)cc3)n2)CC1
REMARK SMILES IDX 23 1 22 2 21 3 20 4 18 5 19 6 17 8 16 9 15 10 10 11 11 12
REMARK SMILES IDX 78 13 12 14 13 15 14 16 8 17 1 18 2 19 3 20 4 21 5 22 80 23
REMARK SMILES IDX 6 24 79 25 7 26 9 27 24 28 25 29 26 30 27 31 28 32 29 34
REMARK SMILES IDX 30 35 31 36 77 37 32 38 76 39 33 40 34 41 35 42 70 43 36 44
REMARK SMILES IDX 75 45 69 46 71 47 37 48 74 49 68 50 67 51 38 53 60 54 45 55
REMARK SMILES IDX 59 56 46 57 49 58 58 59 72 60 47 61 48 62 57 64 73 65 50 66
REMARK SMILES IDX 39 67 40 68 44 69 41 70 43 71 42 72 61 73 62 74 66 75 63 76
REMARK SMILES IDX 65 77 64 78 51 79 52 80 56 81 53 82 55 83 54 84
REMARK H PARENT 20 7 27 33 71 52 49 63
REMARK Flexibility Score: inf
ROOT
ATOM      1  C   UNL A   1      42.103  21.245  27.253  1.00  0.00     0.002 C 
ENDROOT
BRANCH   1   2
ATOM      2  C   UNL A   1      41.260  21.851  26.130  1.00  0.00     0.021 C 
BRANCH   2   3
ATOM      3  C   UNL A   1      39.780  21.477  26.194  1.00  0.00     0.116 C 
BRANCH   3   4
ATOM      4  N   UNL A   1      38.936  22.655  26.312  1.00  0.00    -0.356 N 
ATOM      5  C   UNL A   1      37.730  22.933  25.744  1.00  0.00     0.221 C 
ATOM      6  O   UNL A   1      37.196  24.016  25.990  1.00  0.00    -0.275 OA
ATOM      7  H   UNL A   1      39.292  23.364  26.895  1.00  0.00     0.163 HD
BRANCH   5   8
ATOM      8  C   UNL A   1      37.052  21.905  24.872  1.00  0.00     0.124 C 
BRANCH   8   9
ATOM      9  C   UNL A   1      35.791  21.378  25.559  1.00  0.00     0.158 C 
BRANCH   9  10
ATOM     10  N   UNL A   1      34.615  21.556  24.705  1.00  0.00    -0.229 N 
ATOM     11  C   UNL A   1      33.327  23.016  23.520  1.00  0.00     0.149 A 
ATOM     12  C   UNL A   1      32.277  22.011  23.277  1.00  0.00     0.042 A 
ATOM     13  N   UNL A   1      34.416  22.824  24.195  1.00  0.00    -0.164 NA
ATOM     14  C   UNL A   1      32.516  20.785  23.742  1.00  0.00     0.076 A 
ATOM     15  C   UNL A   1      33.749  20.488  24.503  1.00  0.00     0.266 A 
ATOM     16  O   UNL A   1      33.911  19.352  24.937  1.00  0.00    -0.268 OA
BRANCH  11  17
ATOM     17  C   UNL A   1      33.082  24.370  22.886  1.00  0.00     0.274 C 
ATOM     18  C   UNL A   1      31.644  28.159  27.527  1.00  0.00     0.114 C 
ATOM     19  C   UNL A   1      31.639  28.428  26.044  1.00  0.00     0.219 C 
ATOM     20  O   UNL A   1      31.994  29.524  25.613  1.00  0.00    -0.275 OA
ATOM     21  N   UNL A   1      31.245  27.394  25.214  1.00  0.00    -0.339 N 
ATOM     22  C   UNL A   1      31.314  27.563  23.763  1.00  0.00     0.141 C 
ATOM     23  C   UNL A   1      31.012  26.010  25.623  1.00  0.00     0.141 C 
ATOM     24  C   UNL A   1      32.464  26.723  23.193  1.00  0.00     0.141 C 
ATOM     25  C   UNL A   1      32.149  25.116  25.106  1.00  0.00     0.141 C 
ATOM     26  N   UNL A   1      32.470  25.335  23.683  1.00  0.00    -0.334 N 
ATOM     27  O   UNL A   1      33.515  24.550  21.754  1.00  0.00    -0.267 OA
ENDBRANCH  11  17
ENDBRANCH   9  10
ENDBRANCH   8   9
ENDBRANCH   5   8
ENDBRANCH   3   4
ENDBRANCH   2   3
ENDBRANCH   1   2
BRANCH   1  28
ATOM     28  C   UNL A   1      41.973  19.733  27.450  1.00  0.00     0.002 C 
BRANCH  28  29
ATOM     29  C   UNL A   1      42.299  18.858  26.237  1.00  0.00     0.021 C 
BRANCH  29  30
ATOM     30  C   UNL A   1      43.774  18.517  26.024  1.00  0.00     0.116 C 
BRANCH  30  31
ATOM     31  N   UNL A   1      44.198  18.629  24.639  1.00  0.00    -0.352 N 
ATOM     32  C   UNL A   1      44.621  19.697  23.890  1.00  0.00     0.251 C 
ATOM     33  H   UNL A   1      44.177  17.779  24.145  1.00  0.00     0.163 HD
ATOM     34  O   UNL A   1      44.797  19.543  22.683  1.00  0.00    -0.269 OA
BRANCH  32  35
ATOM     35  C   UNL A   1      44.854  21.034  24.483  1.00  0.00     0.039 A 
ATOM     36  C   UNL A   1      45.493  21.208  25.713  1.00  0.00     0.014 A 
ATOM     37  C   UNL A   1      44.492  22.158  23.729  1.00  0.00     0.014 A 
ATOM     38  C   UNL A   1      45.663  22.492  26.238  1.00  0.00     0.010 A 
ATOM     39  C   UNL A   1      44.704  23.445  24.232  1.00  0.00     0.010 A 
ATOM     40  C   UNL A   1      45.260  23.621  25.506  1.00  0.00    -0.014 A 
BRANCH  40  41
ATOM     41  C   UNL A   1      45.404  24.977  26.089  1.00  0.00     0.031 A 
ATOM     42  C   UNL A   1      46.717  25.706  26.003  1.00  0.00     0.074 A 
ATOM     43  C   UNL A   1      44.351  25.576  26.676  1.00  0.00     0.049 A 
ATOM     44  N   UNL A   1      47.030  26.895  26.454  1.00  0.00    -0.248 NA
ATOM     45  C   UNL A   1      47.821  25.006  25.328  1.00  0.00     0.031 C 
ATOM     46  C   UNL A   1      43.021  24.987  26.842  1.00  0.00     0.029 A 
ATOM     47  N   UNL A   1      44.235  26.827  27.227  1.00  0.00    -0.354 N 
ATOM     48  C   UNL A   1      48.373  27.071  26.149  1.00  0.00     0.074 A 
ATOM     49  C   UNL A   1      48.815  25.872  25.467  1.00  0.00     0.031 C 
ATOM     50  C   UNL A   1      42.211  25.894  27.411  1.00  0.00     0.029 A 
ATOM     51  C   UNL A   1      42.968  27.116  27.666  1.00  0.00     0.049 A 
ATOM     52  H   UNL A   1      44.989  27.456  27.300  1.00  0.00     0.167 HD
ATOM     53  C   UNL A   1      49.173  28.131  26.413  1.00  0.00     0.031 A 
ATOM     54  C   UNL A   1      42.467  28.244  28.203  1.00  0.00     0.031 A 
ATOM     55  C   UNL A   1      48.748  29.347  27.047  1.00  0.00     0.049 A 
ATOM     56  C   UNL A   1      43.356  29.430  28.426  1.00  0.00     0.074 A 
ATOM     57  C   UNL A   1      49.495  30.474  27.346  1.00  0.00     0.029 A 
ATOM     58  N   UNL A   1      47.453  29.604  27.461  1.00  0.00    -0.354 N 
ATOM     59  N   UNL A   1      44.631  29.565  28.158  1.00  0.00    -0.248 NA
ATOM     60  C   UNL A   1      42.733  30.617  29.031  1.00  0.00     0.031 C 
ATOM     61  C   UNL A   1      48.645  31.419  27.936  1.00  0.00     0.029 A 
ATOM     62  C   UNL A   1      47.374  30.874  28.002  1.00  0.00     0.049 A 
ATOM     63  H   UNL A   1      46.699  28.974  27.383  1.00  0.00     0.167 HD
ATOM     64  C   UNL A   1      44.965  30.848  28.566  1.00  0.00     0.074 A 
ATOM     65  C   UNL A   1      43.759  31.456  29.093  1.00  0.00     0.031 C 
ATOM     66  C   UNL A   1      46.169  31.466  28.514  1.00  0.00     0.031 A 
BRANCH  53  67
ATOM     67  C   UNL A   1      50.609  28.008  26.010  1.00  0.00    -0.014 A 
ATOM     68  C   UNL A   1      51.025  28.467  24.752  1.00  0.00     0.009 A 
ATOM     69  C   UNL A   1      51.547  27.423  26.874  1.00  0.00     0.009 A 
ATOM     70  C   UNL A   1      52.363  28.356  24.370  1.00  0.00     0.001 A 
ATOM     71  C   UNL A   1      52.884  27.318  26.489  1.00  0.00     0.001 A 
ATOM     72  C   UNL A   1      53.291  27.785  25.239  1.00  0.00     0.000 A 
ENDBRANCH  53  67
BRANCH  54  73
ATOM     73  C   UNL A   1      41.031  28.315  28.547  1.00  0.00    -0.014 A 
ATOM     74  C   UNL A   1      40.567  27.838  29.780  1.00  0.00     0.009 A 
ATOM     75  C   UNL A   1      40.119  28.866  27.634  1.00  0.00     0.009 A 
ATOM     76  C   UNL A   1      39.210  27.917  30.097  1.00  0.00     0.001 A 
ATOM     77  C   UNL A   1      38.763  28.944  27.956  1.00  0.00     0.001 A 
ATOM     78  C   UNL A   1      38.310  28.471  29.187  1.00  0.00     0.000 A 
ENDBRANCH  54  73
BRANCH  66  79
ATOM     79  C   UNL A   1      46.234  32.867  29.037  1.00  0.00    -0.014 A 
ATOM     80  C   UNL A   1      45.939  33.950  28.197  1.00  0.00     0.009 A 
ATOM     81  C   UNL A   1      46.608  33.107  30.367  1.00  0.00     0.009 A 
ATOM     82  C   UNL A   1      46.005  35.255  28.686  1.00  0.00     0.001 A 
ATOM     83  C   UNL A   1      46.673  34.415  30.852  1.00  0.00     0.001 A 
ATOM     84  C   UNL A   1      46.370  35.487  30.012  1.00  0.00     0.000 A 
ENDBRANCH  66  79
ENDBRANCH  40  41
ENDBRANCH  32  35
ENDBRANCH  30  31
ENDBRANCH  29  30
ENDBRANCH  28  29
ENDBRANCH   1  28
TORSDOF 16
ENDMDL
MODEL 2
REMARK VINA RESULT:     -11.1      6.337     11.859
REMARK SMILES CC(=O)N1CCN(C(=O)c2ccc(=O)n(CCC(=O)NCCCCCCNC(=O)c3ccc(-c4c5nc(c(-c6ccccc6)c6ccc([nH]6)c(-c6ccccc6)c6nc(c(-c7ccccc7)c7ccc4[nH]7)C=C6)C=C5)cc3)n2)CC1
REMARK SMILES IDX 23 1 22 2 21 3 20 4 18 5 19 6 17 8 16 9 15 10 10 11 11 12
REMARK SMILES IDX 78 13 12 14 13 15 14 16 8 17 1 18 2 19 3 20 4 21 5 22 80 23
REMARK SMILES IDX 6 24 79 25 7 26 9 27 24 28 25 29 26 30 27 31 28 32 29 34
REMARK SMILES IDX 30 35 31 36 77 37 32 38 76 39 33 40 34 41 35 42 70 43 36 44
REMARK SMILES IDX 75 45 69 46 71 47 37 48 74 49 68 50 67 51 38 53 60 54 45 55
REMARK SMILES IDX 59 56 46 57 49 58 58 59 72 60 47 61 48 62 57 64 73 65 50 66
REMARK SMILES IDX 39 67 40 68 44 69 41 70 43 71 42 72 61 73 62 74 66 75 63 76
REMARK SMILES IDX 65 77 64 78 51 79 52 80 56 81 53 82 55 83 54 84
REMARK H PARENT 20 7 27 33 71 52 49 63
REMARK Flexibility Score: inf
ROOT
ATOM      1  C   UNL A   1      35.174  33.284  27.861  1.00  0.00     0.002 C 
ENDROOT
BRANCH   1   2
ATOM      2  C   UNL A   1      35.943  31.977  28.058  1.00  0.00     0.021 C 
BRANCH   2   3
ATOM      3  C   UNL A   1      35.049  30.744  28.184  1.00  0.00     0.116 C 
BRANCH   3   4
ATOM      4  N   UNL A   1      33.667  31.050  27.853  1.00  0.00    -0.356 N 
ATOM      5  C   UNL A   1      32.833  30.477  26.942  1.00  0.00     0.221 C 
ATOM      6  O   UNL A   1      31.686  30.915  26.833  1.00  0.00    -0.275 OA
ATOM      7  H   UNL A   1      33.271  31.789  28.370  1.00  0.00     0.163 HD
BRANCH   5   8
ATOM      8  C   UNL A   1      33.304  29.301  26.123  1.00  0.00     0.124 C 
BRANCH   8   9
ATOM      9  C   UNL A   1      32.632  29.311  24.749  1.00  0.00     0.158 C 
BRANCH   9  10
ATOM     10  N   UNL A   1      31.639  28.241  24.644  1.00  0.00    -0.229 N 
ATOM     11  C   UNL A   1      31.125  26.070  25.109  1.00  0.00     0.149 A 
ATOM     12  C   UNL A   1      29.907  26.100  24.278  1.00  0.00     0.042 A 
ATOM     13  N   UNL A   1      31.949  27.054  25.279  1.00  0.00    -0.164 NA
ATOM     14  C   UNL A   1      29.608  27.270  23.713  1.00  0.00     0.076 A 
ATOM     15  C   UNL A   1      30.493  28.443  23.882  1.00  0.00     0.266 A 
ATOM     16  O   UNL A   1      30.193  29.491  23.319  1.00  0.00    -0.268 OA
BRANCH  11  17
ATOM     17  C   UNL A   1      31.380  24.761  25.828  1.00  0.00     0.274 C 
ATOM     18  C   UNL A   1      36.654  22.576  23.508  1.00  0.00     0.114 C 
ATOM     19  C   UNL A   1      35.706  21.931  24.486  1.00  0.00     0.219 C 
ATOM     20  O   UNL A   1      36.142  21.249  25.413  1.00  0.00    -0.275 OA
ATOM     21  N   UNL A   1      34.354  22.159  24.303  1.00  0.00    -0.339 N 
ATOM     22  C   UNL A   1      33.393  21.641  25.275  1.00  0.00     0.141 C 
ATOM     23  C   UNL A   1      33.767  23.116  23.366  1.00  0.00     0.141 C 
ATOM     24  C   UNL A   1      32.818  22.795  26.108  1.00  0.00     0.141 C 
ATOM     25  C   UNL A   1      33.196  24.315  24.137  1.00  0.00     0.141 C 
ATOM     26  N   UNL A   1      32.362  23.931  25.291  1.00  0.00    -0.334 N 
ATOM     27  O   UNL A   1      30.774  24.564  26.874  1.00  0.00    -0.267 OA
ENDBRANCH  11  17
ENDBRANCH   9  10
ENDBRANCH   8   9
ENDBRANCH   5   8
ENDBRANCH   3   4
ENDBRANCH   2   3
ENDBRANCH   1   2
BRANCH   1  28
ATOM     28  C   UNL A   1      34.671  33.967  29.135  1.00  0.00     0.002 C 
BRANCH  28  29
ATOM     29  C   UNL A   1      33.286  34.615  29.058  1.00  0.00     0.021 C 
BRANCH  29  30
ATOM     30  C   UNL A   1      33.182  36.054  29.562  1.00  0.00     0.116 C 
BRANCH  30  31
ATOM     31  N   UNL A   1      32.372  36.190  30.760  1.00  0.00    -0.352 N 
ATOM     32  C   UNL A   1      32.542  35.734  32.042  1.00  0.00     0.251 C 
ATOM     33  H   UNL A   1      31.544  36.705  30.626  1.00  0.00     0.163 HD
ATOM     34  O   UNL A   1      31.625  35.877  32.849  1.00  0.00    -0.269 OA
BRANCH  32  35
ATOM     35  C   UNL A   1      33.784  35.058  32.482  1.00  0.00     0.039 A 
ATOM     36  C   UNL A   1      35.020  35.706  32.508  1.00  0.00     0.014 A 
ATOM     37  C   UNL A   1      33.680  33.748  32.968  1.00  0.00     0.014 A 
ATOM     38  C   UNL A   1      36.166  35.012  32.907  1.00  0.00     0.010 A 
ATOM     39  C   UNL A   1      34.818  33.068  33.412  1.00  0.00     0.010 A 
ATOM     40  C   UNL A   1      36.076  33.684  33.353  1.00  0.00    -0.014 A 
BRANCH  40  41
ATOM     41  C   UNL A   1      37.301  32.939  33.733  1.00  0.00     0.031 A 
ATOM     42  C   UNL A   1      37.929  31.969  32.771  1.00  0.00     0.074 A 
ATOM     43  C   UNL A   1      37.873  33.147  34.934  1.00  0.00     0.049 A 
ATOM     44  N   UNL A   1      38.998  31.228  32.928  1.00  0.00    -0.248 NA
ATOM     45  C   UNL A   1      37.267  31.805  31.467  1.00  0.00     0.031 C 
ATOM     46  C   UNL A   1      37.371  34.048  35.971  1.00  0.00     0.029 A 
ATOM     47  N   UNL A   1      39.021  32.622  35.472  1.00  0.00    -0.354 N 
ATOM     48  C   UNL A   1      39.117  30.487  31.760  1.00  0.00     0.074 A 
ATOM     49  C   UNL A   1      38.018  30.872  30.899  1.00  0.00     0.031 C 
ATOM     50  C   UNL A   1      38.231  34.048  37.003  1.00  0.00     0.029 A 
ATOM     51  C   UNL A   1      39.331  33.135  36.706  1.00  0.00     0.049 A 
ATOM     52  H   UNL A   1      39.568  31.942  35.017  1.00  0.00     0.167 HD
ATOM     53  C   UNL A   1      40.053  29.566  31.428  1.00  0.00     0.031 A 
ATOM     54  C   UNL A   1      40.389  32.906  37.505  1.00  0.00     0.031 A 
ATOM     55  C   UNL A   1      41.176  29.202  32.245  1.00  0.00     0.049 A 
ATOM     56  C   UNL A   1      41.449  31.931  37.089  1.00  0.00     0.074 A 
ATOM     57  C   UNL A   1      42.176  28.281  31.981  1.00  0.00     0.029 A 
ATOM     58  N   UNL A   1      41.460  29.758  33.480  1.00  0.00    -0.354 N 
ATOM     59  N   UNL A   1      41.527  31.217  35.993  1.00  0.00    -0.248 NA
ATOM     60  C   UNL A   1      42.563  31.728  38.027  1.00  0.00     0.031 C 
ATOM     61  C   UNL A   1      43.073  28.287  33.057  1.00  0.00     0.029 A 
ATOM     62  C   UNL A   1      42.626  29.210  33.987  1.00  0.00     0.049 A 
ATOM     63  H   UNL A   1      40.914  30.442  33.932  1.00  0.00     0.167 HD
ATOM     64  C   UNL A   1      42.694  30.477  36.111  1.00  0.00     0.074 A 
ATOM     65  C   UNL A   1      43.298  30.832  37.380  1.00  0.00     0.031 C 
ATOM     66  C   UNL A   1      43.216  29.577  35.244  1.00  0.00     0.031 A 
BRANCH  53  67
ATOM     67  C   UNL A   1      39.887  28.882  30.108  1.00  0.00    -0.014 A 
ATOM     68  C   UNL A   1      40.453  29.442  28.953  1.00  0.00     0.009 A 
ATOM     69  C   UNL A   1      39.157  27.689  30.008  1.00  0.00     0.009 A 
ATOM     70  C   UNL A   1      40.302  28.810  27.718  1.00  0.00     0.001 A 
ATOM     71  C   UNL A   1      39.013  27.058  28.772  1.00  0.00     0.001 A 
ATOM     72  C   UNL A   1      39.586  27.618  27.629  1.00  0.00     0.000 A 
ENDBRANCH  53  67
BRANCH  54  73
ATOM     73  C   UNL A   1      40.514  33.641  38.782  1.00  0.00    -0.014 A 
ATOM     74  C   UNL A   1      39.961  33.123  39.961  1.00  0.00     0.009 A 
ATOM     75  C   UNL A   1      41.192  34.869  38.820  1.00  0.00     0.009 A 
ATOM     76  C   UNL A   1      40.092  33.822  41.162  1.00  0.00     0.001 A 
ATOM     77  C   UNL A   1      41.321  35.563  40.024  1.00  0.00     0.001 A 
ATOM     78  C   UNL A   1      40.772  35.039  41.193  1.00  0.00     0.000 A 
ENDBRANCH  54  73
BRANCH  66  79
ATOM     79  C   UNL A   1      44.501  28.921  35.642  1.00  0.00    -0.014 A 
ATOM     80  C   UNL A   1      45.729  29.511  35.310  1.00  0.00     0.009 A 
ATOM     81  C   UNL A   1      44.486  27.702  36.335  1.00  0.00     0.009 A 
ATOM     82  C   UNL A   1      46.925  28.894  35.678  1.00  0.00     0.001 A 
ATOM     83  C   UNL A   1      45.685  27.088  36.701  1.00  0.00     0.001 A 
ATOM     84  C   UNL A   1      46.903  27.685  36.374  1.00  0.00     0.000 A 
ENDBRANCH  66  79
ENDBRANCH  40  41
ENDBRANCH  32  35
ENDBRANCH  30  31
ENDBRANCH  29  30
ENDBRANCH  28  29
ENDBRANCH   1  28
TORSDOF 16
ENDMDL
MODEL 3
REMARK VINA RESULT:     -11.0      0.437      5.698
REMARK SMILES CC(=O)N1CCN(C(=O)c2ccc(=O)n(CCC(=O)NCCCCCCNC(=O)c3ccc(-c4c5nc(c(-c6ccccc6)c6ccc([nH]6)c(-c6ccccc6)c6nc(c(-c7ccccc7)c7ccc4[nH]7)C=C6)C=C5)cc3)n2)CC1
REMARK SMILES IDX 23 1 22 2 21 3 20 4 18 5 19 6 17 8 16 9 15 10 10 11 11 12
REMARK SMILES IDX 78 13 12 14 13 15 14 16 8 17 1 18 2 19 3 20 4 21 5 22 80 23
REMARK SMILES IDX 6 24 79 25 7 26 9 27 24 28 25 29 26 30 27 31 28 32 29 34
REMARK SMILES IDX 30 35 31 36 77 37 32 38 76 39 33 40 34 41 35 42 70 43 36 44
REMARK SMILES IDX 75 45 69 46 71 47 37 48 74 49 68 50 67 51 38 53 60 54 45 55
REMARK SMILES IDX 59 56 46 57 49 58 58 59 72 60 47 61 48 62 57 64 73 65 50 66
REMARK SMILES IDX 39 67 40 68 44 69 41 70 43 71 42 72 61 73 62 74 66 75 63 76
REMARK SMILES IDX 65 77 64 78 51 79 52 80 56 81 53 82 55 83 54 84
REMARK H PARENT 20 7 27 33 71 52 49 63
REMARK Flexibility Score: inf
ROOT
ATOM      1  C   UNL A   1      42.116  21.566  27.265  1.00  0.00     0.002 C 
ENDROOT
BRANCH   1   2
ATOM      2  C   UNL A   1      41.204  22.201  26.212  1.00  0.00     0.021 C 
BRANCH   2   3
ATOM      3  C   UNL A   1      39.761  21.702  26.260  1.00  0.00     0.116 C 
BRANCH   3   4
ATOM      4  N   UNL A   1      38.818  22.802  26.376  1.00  0.00    -0.356 N 
ATOM      5  C   UNL A   1      37.626  23.008  25.753  1.00  0.00     0.221 C 
ATOM      6  O   UNL A   1      36.993  24.034  26.011  1.00  0.00    -0.275 OA
ATOM      7  H   UNL A   1      39.084  23.510  27.007  1.00  0.00     0.163 HD
BRANCH   5   8
ATOM      8  C   UNL A   1      37.082  21.970  24.803  1.00  0.00     0.124 C 
BRANCH   8   9
ATOM      9  C   UNL A   1      35.891  21.247  25.436  1.00  0.00     0.158 C 
BRANCH   9  10
ATOM     10  N   UNL A   1      34.685  21.413  24.622  1.00  0.00    -0.229 N 
ATOM     11  C   UNL A   1      33.355  22.856  23.463  1.00  0.00     0.149 A 
ATOM     12  C   UNL A   1      32.296  21.848  23.274  1.00  0.00     0.042 A 
ATOM     13  N   UNL A   1      34.468  22.673  24.100  1.00  0.00    -0.164 NA
ATOM     14  C   UNL A   1      32.551  20.629  23.749  1.00  0.00     0.076 A 
ATOM     15  C   UNL A   1      33.811  20.342  24.469  1.00  0.00     0.266 A 
ATOM     16  O   UNL A   1      33.989  19.214  24.915  1.00  0.00    -0.268 OA
BRANCH  11  17
ATOM     17  C   UNL A   1      33.087  24.199  22.817  1.00  0.00     0.274 C 
ATOM     18  C   UNL A   1      31.677  28.028  27.435  1.00  0.00     0.114 C 
ATOM     19  C   UNL A   1      31.649  28.279  25.949  1.00  0.00     0.219 C 
ATOM     20  O   UNL A   1      31.987  29.373  25.500  1.00  0.00    -0.275 OA
ATOM     21  N   UNL A   1      31.253  27.232  25.137  1.00  0.00    -0.339 N 
ATOM     22  C   UNL A   1      31.300  27.385  23.683  1.00  0.00     0.141 C 
ATOM     23  C   UNL A   1      31.040  25.851  25.564  1.00  0.00     0.141 C 
ATOM     24  C   UNL A   1      32.451  26.550  23.106  1.00  0.00     0.141 C 
ATOM     25  C   UNL A   1      32.178  24.962  25.041  1.00  0.00     0.141 C 
ATOM     26  N   UNL A   1      32.477  25.167  23.612  1.00  0.00    -0.334 N 
ATOM     27  O   UNL A   1      33.502  24.371  21.677  1.00  0.00    -0.267 OA
ENDBRANCH  11  17
ENDBRANCH   9  10
ENDBRANCH   8   9
ENDBRANCH   5   8
ENDBRANCH   3   4
ENDBRANCH   2   3
ENDBRANCH   1   2
BRANCH   1  28
ATOM     28  C   UNL A   1      41.836  20.100  27.600  1.00  0.00     0.002 C 
BRANCH  28  29
ATOM     29  C   UNL A   1      42.648  19.058  26.826  1.00  0.00     0.021 C 
BRANCH  29  30
ATOM     30  C   UNL A   1      42.659  19.201  25.305  1.00  0.00     0.116 C 
BRANCH  30  31
ATOM     31  N   UNL A   1      43.936  18.858  24.702  1.00  0.00    -0.352 N 
ATOM     32  C   UNL A   1      45.039  19.611  24.391  1.00  0.00     0.251 C 
ATOM     33  H   UNL A   1      44.026  17.906  24.472  1.00  0.00     0.163 HD
ATOM     34  O   UNL A   1      45.952  19.092  23.753  1.00  0.00    -0.269 OA
BRANCH  32  35
ATOM     35  C   UNL A   1      45.157  21.036  24.781  1.00  0.00     0.039 A 
ATOM     36  C   UNL A   1      44.838  22.079  23.909  1.00  0.00     0.014 A 
ATOM     37  C   UNL A   1      45.519  21.327  26.102  1.00  0.00     0.014 A 
ATOM     38  C   UNL A   1      44.993  23.406  24.320  1.00  0.00     0.010 A 
ATOM     39  C   UNL A   1      45.629  22.653  26.529  1.00  0.00     0.010 A 
ATOM     40  C   UNL A   1      45.400  23.704  25.630  1.00  0.00    -0.014 A 
BRANCH  40  41
ATOM     41  C   UNL A   1      45.605  25.113  26.046  1.00  0.00     0.031 A 
ATOM     42  C   UNL A   1      44.482  25.889  26.679  1.00  0.00     0.074 A 
ATOM     43  C   UNL A   1      46.806  25.699  25.882  1.00  0.00     0.049 A 
ATOM     44  N   UNL A   1      44.475  27.128  27.104  1.00  0.00    -0.248 NA
ATOM     45  C   UNL A   1      43.202  25.184  26.850  1.00  0.00     0.031 C 
ATOM     46  C   UNL A   1      47.981  25.074  25.274  1.00  0.00     0.029 A 
ATOM     47  N   UNL A   1      47.237  26.953  26.234  1.00  0.00    -0.354 N 
ATOM     48  C   UNL A   1      43.184  27.361  27.561  1.00  0.00     0.074 A 
ATOM     49  C   UNL A   1      42.438  26.135  27.370  1.00  0.00     0.031 C 
ATOM     50  C   UNL A   1      49.013  25.931  25.339  1.00  0.00     0.029 A 
ATOM     51  C   UNL A   1      48.566  27.167  25.973  1.00  0.00     0.049 A 
ATOM     52  H   UNL A   1      46.648  27.632  26.636  1.00  0.00     0.167 HD
ATOM     53  C   UNL A   1      42.661  28.492  28.090  1.00  0.00     0.031 A 
ATOM     54  C   UNL A   1      49.343  28.236  26.227  1.00  0.00     0.031 A 
ATOM     55  C   UNL A   1      43.391  29.705  28.331  1.00  0.00     0.049 A 
ATOM     56  C   UNL A   1      48.758  29.456  26.874  1.00  0.00     0.074 A 
ATOM     57  C   UNL A   1      42.937  30.896  28.870  1.00  0.00     0.029 A 
ATOM     58  N   UNL A   1      44.739  29.873  28.065  1.00  0.00    -0.354 N 
ATOM     59  N   UNL A   1      47.527  29.666  27.271  1.00  0.00    -0.248 NA
ATOM     60  C   UNL A   1      49.672  30.584  27.102  1.00  0.00     0.031 C 
ATOM     61  C   UNL A   1      44.017  31.786  28.939  1.00  0.00     0.029 A 
ATOM     62  C   UNL A   1      45.138  31.144  28.441  1.00  0.00     0.049 A 
ATOM     63  H   UNL A   1      45.327  29.190  27.668  1.00  0.00     0.167 HD
ATOM     64  C   UNL A   1      47.517  30.952  27.790  1.00  0.00     0.074 A 
ATOM     65  C   UNL A   1      48.864  31.473  27.667  1.00  0.00     0.031 C 
ATOM     66  C   UNL A   1      46.479  31.643  28.318  1.00  0.00     0.031 A 
BRANCH  53  67
ATOM     67  C   UNL A   1      41.206  28.460  28.441  1.00  0.00    -0.014 A 
ATOM     68  C   UNL A   1      40.255  28.929  27.523  1.00  0.00     0.009 A 
ATOM     69  C   UNL A   1      40.782  27.978  29.687  1.00  0.00     0.009 A 
ATOM     70  C   UNL A   1      38.896  28.903  27.843  1.00  0.00     0.001 A 
ATOM     71  C   UNL A   1      39.423  27.950  30.001  1.00  0.00     0.001 A 
ATOM     72  C   UNL A   1      38.482  28.411  29.080  1.00  0.00     0.000 A 
ENDBRANCH  53  67
BRANCH  54  73
ATOM     73  C   UNL A   1      50.782  28.192  25.888  1.00  0.00    -0.014 A 
ATOM     74  C   UNL A   1      51.724  27.761  26.832  1.00  0.00     0.009 A 
ATOM     75  C   UNL A   1      51.213  28.583  24.612  1.00  0.00     0.009 A 
ATOM     76  C   UNL A   1      53.079  27.715  26.499  1.00  0.00     0.001 A 
ATOM     77  C   UNL A   1      52.569  28.535  24.283  1.00  0.00     0.001 A 
ATOM     78  C   UNL A   1      53.500  28.100  25.226  1.00  0.00     0.000 A 
ENDBRANCH  54  73
BRANCH  66  79
ATOM     79  C   UNL A   1      46.765  33.030  28.801  1.00  0.00    -0.014 A 
ATOM     80  C   UNL A   1      46.555  34.131  27.959  1.00  0.00     0.009 A 
ATOM     81  C   UNL A   1      47.264  33.238  30.096  1.00  0.00     0.009 A 
ATOM     82  C   UNL A   1      46.829  35.423  28.410  1.00  0.00     0.001 A 
ATOM     83  C   UNL A   1      47.536  34.532  30.544  1.00  0.00     0.001 A 
ATOM     84  C   UNL A   1      47.317  35.623  29.702  1.00  0.00     0.000 A 
ENDBRANCH  66  79
ENDBRANCH  40  41
ENDBRANCH  32  35
ENDBRANCH  30  31
ENDBRANCH  29  30
ENDBRANCH  28  29
ENDBRANCH   1  28
TORSDOF 16
ENDMDL
