MODEL 1
REMARK VINA RESULT:     -12.2      0.000      0.000
REMARK SMILES Cc1ccc(S(=O)(=O)Nc2ccc(C(=O)CCC(=O)NCCCCCCNC(=O)c3ccc(-c4c5nc(c(-c6ccccc6)c6ccc([nH]6)c(-c6ccccc6)c6nc(c(-c7ccccc7)c7ccc4[nH]7)C=C6)C=C5)cc3)cc2)c(C)c1
REMARK SMILES IDX 21 1 20 2 18 3 19 4 17 6 16 7 14 8 15 9 13 10 10 11 11 12
REMARK SMILES IDX 79 13 12 14 78 15 9 16 6 18 7 19 8 20 5 21 1 22 2 23 3 24
REMARK SMILES IDX 82 25 4 26 80 27 81 28 22 29 23 30 24 31 25 32 26 33 27 34
REMARK SMILES IDX 28 35 29 37 30 38 31 39 77 40 32 41 76 42 33 43 34 44 35 45
REMARK SMILES IDX 70 46 36 47 75 48 69 49 71 50 37 51 74 52 68 53 67 54 38 56
REMARK SMILES IDX 60 57 45 58 59 59 46 60 49 61 58 62 72 63 47 64 48 65 57 67
REMARK SMILES IDX 73 68 50 69 39 70 40 71 44 72 41 73 43 74 42 75 61 76 62 77
REMARK SMILES IDX 66 78 63 79 65 80 64 81 51 82 52 83 56 84 53 85 55 86 54 87
REMARK H PARENT 20 5 9 17 27 36 71 55 49 66
REMARK Flexibility Score: inf
ROOT
ATOM      1  C   UNL A   1      33.116  29.847  27.251  1.00  0.00     0.116 C 
ENDROOT
BRANCH   1   2
ATOM      2  N   UNL A   1      33.854  29.481  26.021  1.00  0.00    -0.356 N 
ATOM      3  C   UNL A   1      33.319  29.083  24.813  1.00  0.00     0.220 C 
ATOM      4  O   UNL A   1      34.017  28.397  24.065  1.00  0.00    -0.275 OA
ATOM      5  H   UNL A   1      34.837  29.528  26.070  1.00  0.00     0.163 HD
BRANCH   3   6
ATOM      6  C   UNL A   1      31.882  29.471  24.421  1.00  0.00     0.108 C 
BRANCH   6   7
ATOM      7  C   UNL A   1      30.874  28.296  24.275  1.00  0.00     0.091 C 
BRANCH   7   8
ATOM      8  C   UNL A   1      30.580  27.799  22.829  1.00  0.00     0.163 C 
ATOM      9  O   UNL A   1      29.904  28.437  22.029  1.00  0.00    -0.294 OA
BRANCH   8  10
ATOM     10  C   UNL A   1      30.966  26.384  22.471  1.00  0.00     0.018 A 
ATOM     11  C   UNL A   1      32.885  23.531  23.690  1.00  0.00     0.049 A 
ATOM     12  C   UNL A   1      31.142  23.753  24.196  1.00  0.00     0.027 A 
ATOM     13  C   UNL A   1      33.627  24.700  22.560  1.00  0.00     0.027 A 
ATOM     14  C   UNL A   1      30.176  25.158  23.571  1.00  0.00     0.014 A 
ATOM     15  C   UNL A   1      32.662  26.119  21.946  1.00  0.00     0.014 A 
BRANCH  11  16
ATOM     16  N   UNL A   1      33.435  22.217  23.910  1.00  0.00    -0.280 N 
ATOM     17  H   UNL A   1      33.396  21.591  23.151  1.00  0.00     0.180 HD
BRANCH  16  18
ATOM     18  S   UNL A   1      34.132  21.643  25.317  1.00  0.00     0.262 S 
ATOM     19  O   UNL A   1      33.848  20.228  25.404  1.00  0.00    -0.201 OA
ATOM     20  O   UNL A   1      33.687  22.562  26.342  1.00  0.00    -0.201 OA
BRANCH  18  21
ATOM     21  C   UNL A   1      35.867  21.876  25.129  1.00  0.00     0.090 A 
ATOM     22  C   UNL A   1      39.915  21.794  26.414  1.00  0.00     0.044 C 
ATOM     23  C   UNL A   1      38.539  21.881  25.835  1.00  0.00    -0.051 A 
ATOM     24  C   UNL A   1      38.002  20.780  25.167  1.00  0.00     0.005 A 
ATOM     25  C   UNL A   1      37.784  23.060  25.929  1.00  0.00     0.008 A 
ATOM     26  C   UNL A   1      36.666  20.790  24.786  1.00  0.00     0.023 A 
ATOM     27  C   UNL A   1      36.435  23.076  25.563  1.00  0.00    -0.030 A 
ATOM     28  C   UNL A   1      35.680  24.376  25.501  1.00  0.00     0.046 C 
ENDBRANCH  18  21
ENDBRANCH  16  18
ENDBRANCH  11  16
ENDBRANCH   8  10
ENDBRANCH   7   8
ENDBRANCH   6   7
ENDBRANCH   3   6
ENDBRANCH   1   2
BRANCH   1  29
ATOM     29  C   UNL A   1      33.543  31.392  27.598  1.00  0.00     0.021 C 
BRANCH  29  30
ATOM     30  C   UNL A   1      35.266  32.621  28.075  1.00  0.00     0.002 C 
BRANCH  30  31
ATOM     31  C   UNL A   1      35.520  34.127  28.859  1.00  0.00     0.002 C 
BRANCH  31  32
ATOM     32  C   UNL A   1      34.419  35.178  28.900  1.00  0.00     0.021 C 
BRANCH  32  33
ATOM     33  C   UNL A   1      33.245  34.674  29.697  1.00  0.00     0.116 C 
BRANCH  33  34
ATOM     34  N   UNL A   1      32.710  35.711  30.587  1.00  0.00    -0.352 N 
ATOM     35  C   UNL A   1      32.942  35.879  31.930  1.00  0.00     0.251 C 
ATOM     36  H   UNL A   1      32.110  36.369  30.168  1.00  0.00     0.163 HD
ATOM     37  O   UNL A   1      32.261  36.631  32.615  1.00  0.00    -0.269 OA
BRANCH  35  38
ATOM     38  C   UNL A   1      34.036  35.097  32.519  1.00  0.00     0.039 A 
ATOM     39  C   UNL A   1      33.806  33.797  32.966  1.00  0.00     0.014 A 
ATOM     40  C   UNL A   1      35.326  35.629  32.459  1.00  0.00     0.014 A 
ATOM     41  C   UNL A   1      34.900  32.995  33.283  1.00  0.00     0.010 A 
ATOM     42  C   UNL A   1      36.404  34.786  32.620  1.00  0.00     0.010 A 
ATOM     43  C   UNL A   1      36.203  33.474  33.068  1.00  0.00    -0.014 A 
BRANCH  43  44
ATOM     44  C   UNL A   1      37.399  32.661  33.360  1.00  0.00     0.031 A 
ATOM     45  C   UNL A   1      38.152  32.925  34.633  1.00  0.00     0.074 A 
ATOM     46  C   UNL A   1      37.858  31.787  32.446  1.00  0.00     0.049 A 
ATOM     47  N   UNL A   1      39.288  32.424  35.040  1.00  0.00    -0.248 NA
ATOM     48  C   UNL A   1      37.576  33.927  35.550  1.00  0.00     0.031 C 
ATOM     49  C   UNL A   1      37.239  31.509  31.148  1.00  0.00     0.029 A 
ATOM     50  N   UNL A   1      38.967  30.984  32.465  1.00  0.00    -0.354 N 
ATOM     51  C   UNL A   1      39.574  33.078  36.232  1.00  0.00     0.074 A 
ATOM     52  C   UNL A   1      38.538  34.058  36.447  1.00  0.00     0.031 C 
ATOM     53  C   UNL A   1      37.964  30.577  30.507  1.00  0.00     0.029 A 
ATOM     54  C   UNL A   1      39.120  30.230  31.328  1.00  0.00     0.049 A 
ATOM     55  H   UNL A   1      39.595  30.950  33.223  1.00  0.00     0.167 HD
ATOM     56  C   UNL A   1      40.596  32.857  37.088  1.00  0.00     0.031 A 
ATOM     57  C   UNL A   1      40.094  29.369  30.983  1.00  0.00     0.031 A 
ATOM     58  C   UNL A   1      41.603  31.859  36.869  1.00  0.00     0.049 A 
ATOM     59  C   UNL A   1      41.219  29.131  31.951  1.00  0.00     0.074 A 
ATOM     60  C   UNL A   1      42.633  31.477  37.707  1.00  0.00     0.029 A 
ATOM     61  N   UNL A   1      41.708  31.092  35.718  1.00  0.00    -0.354 N 
ATOM     62  N   UNL A   1      41.420  29.674  33.130  1.00  0.00    -0.248 NA
ATOM     63  C   UNL A   1      42.246  28.162  31.549  1.00  0.00     0.031 C 
ATOM     64  C   UNL A   1      43.405  30.526  37.031  1.00  0.00     0.029 A 
ATOM     65  C   UNL A   1      42.817  30.270  35.801  1.00  0.00     0.049 A 
ATOM     66  H   UNL A   1      41.086  31.128  34.957  1.00  0.00     0.167 HD
ATOM     67  C   UNL A   1      42.591  29.108  33.613  1.00  0.00     0.074 A 
ATOM     68  C   UNL A   1      43.040  28.159  32.611  1.00  0.00     0.031 C 
ATOM     69  C   UNL A   1      43.245  29.352  34.777  1.00  0.00     0.031 A 
BRANCH  56  70
ATOM     70  C   UNL A   1      40.671  33.725  38.313  1.00  0.00    -0.014 A 
ATOM     71  C   UNL A   1      40.024  33.369  39.509  1.00  0.00     0.009 A 
ATOM     72  C   UNL A   1      41.395  34.926  38.267  1.00  0.00     0.009 A 
ATOM     73  C   UNL A   1      40.059  34.222  40.615  1.00  0.00     0.001 A 
ATOM     74  C   UNL A   1      41.460  35.758  39.387  1.00  0.00     0.001 A 
ATOM     75  C   UNL A   1      40.782  35.412  40.554  1.00  0.00     0.000 A 
ENDBRANCH  56  70
BRANCH  57  76
ATOM     76  C   UNL A   1      40.038  28.679  29.668  1.00  0.00    -0.014 A 
ATOM     77  C   UNL A   1      39.443  27.414  29.547  1.00  0.00     0.009 A 
ATOM     78  C   UNL A   1      40.549  29.300  28.517  1.00  0.00     0.009 A 
ATOM     79  C   UNL A   1      39.374  26.780  28.303  1.00  0.00     0.001 A 
ATOM     80  C   UNL A   1      40.452  28.677  27.270  1.00  0.00     0.001 A 
ATOM     81  C   UNL A   1      39.871  27.415  27.166  1.00  0.00     0.000 A 
ENDBRANCH  57  76
BRANCH  69  82
ATOM     82  C   UNL A   1      44.513  28.587  35.023  1.00  0.00    -0.014 A 
ATOM     83  C   UNL A   1      44.487  27.330  35.648  1.00  0.00     0.009 A 
ATOM     84  C   UNL A   1      45.736  29.096  34.560  1.00  0.00     0.009 A 
ATOM     85  C   UNL A   1      45.669  26.609  35.825  1.00  0.00     0.001 A 
ATOM     86  C   UNL A   1      46.910  28.358  34.710  1.00  0.00     0.001 A 
ATOM     87  C   UNL A   1      46.876  27.120  35.349  1.00  0.00     0.000 A 
ENDBRANCH  69  82
ENDBRANCH  43  44
ENDBRANCH  35  38
ENDBRANCH  33  34
ENDBRANCH  32  33
ENDBRANCH  31  32
ENDBRANCH  30  31
ENDBRANCH  29  30
ENDBRANCH   1  29
TORSDOF 19
ENDMDL
MODEL 2
REMARK VINA RESULT:     -12.1      6.148     11.569
REMARK SMILES Cc1ccc(S(=O)(=O)Nc2ccc(C(=O)CCC(=O)NCCCCCCNC(=O)c3ccc(-c4c5nc(c(-c6ccccc6)c6ccc([nH]6)c(-c6ccccc6)c6nc(c(-c7ccccc7)c7ccc4[nH]7)C=C6)C=C5)cc3)cc2)c(C)c1
REMARK SMILES IDX 21 1 20 2 18 3 19 4 17 6 16 7 14 8 15 9 13 10 10 11 11 12
REMARK SMILES IDX 79 13 12 14 78 15 9 16 6 18 7 19 8 20 5 21 1 22 2 23 3 24
REMARK SMILES IDX 82 25 4 26 80 27 81 28 22 29 23 30 24 31 25 32 26 33 27 34
REMARK SMILES IDX 28 35 29 37 30 38 31 39 77 40 32 41 76 42 33 43 34 44 35 45
REMARK SMILES IDX 70 46 36 47 75 48 69 49 71 50 37 51 74 52 68 53 67 54 38 56
REMARK SMILES IDX 60 57 45 58 59 59 46 60 49 61 58 62 72 63 47 64 48 65 57 67
REMARK SMILES IDX 73 68 50 69 39 70 40 71 44 72 41 73 43 74 42 75 61 76 62 77
REMARK SMILES IDX 66 78 63 79 65 80 64 81 51 82 52 83 56 84 53 85 55 86 54 87
REMARK H PARENT 20 5 9 17 27 36 71 55 49 66
REMARK Flexibility Score: inf
ROOT
ATOM      1  C   UNL A   1      36.844  23.520  25.611  1.00  0.00     0.116 C 
ENDROOT
BRANCH   1   2
ATOM      2  N   UNL A   1      36.190  22.686  26.646  1.00  0.00    -0.356 N 
ATOM      3  C   UNL A   1      35.189  21.756  26.459  1.00  0.00     0.220 C 
ATOM      4  O   UNL A   1      34.456  21.491  27.413  1.00  0.00    -0.275 OA
ATOM      5  H   UNL A   1      36.507  22.809  27.571  1.00  0.00     0.163 HD
BRANCH   3   6
ATOM      6  C   UNL A   1      34.985  21.081  25.090  1.00  0.00     0.108 C 
BRANCH   6   7
ATOM      7  C   UNL A   1      34.552  19.587  25.124  1.00  0.00     0.091 C 
BRANCH   7   8
ATOM      8  C   UNL A   1      33.037  19.301  25.340  1.00  0.00     0.163 C 
ATOM      9  O   UNL A   1      32.619  18.272  25.861  1.00  0.00    -0.294 OA
BRANCH   8  10
ATOM     10  C   UNL A   1      32.039  20.232  24.695  1.00  0.00     0.018 A 
ATOM     11  C   UNL A   1      31.759  23.525  23.151  1.00  0.00     0.049 A 
ATOM     12  C   UNL A   1      32.225  22.073  22.144  1.00  0.00     0.027 A 
ATOM     13  C   UNL A   1      31.399  23.311  24.888  1.00  0.00     0.027 A 
ATOM     14  C   UNL A   1      32.340  20.427  22.904  1.00  0.00     0.014 A 
ATOM     15  C   UNL A   1      31.532  21.662  25.654  1.00  0.00     0.014 A 
BRANCH  11  16
ATOM     16  N   UNL A   1      31.317  24.681  22.411  1.00  0.00    -0.280 N 
ATOM     17  H   UNL A   1      30.361  24.720  22.183  1.00  0.00     0.180 HD
BRANCH  16  18
ATOM     18  S   UNL A   1      32.260  25.964  21.898  1.00  0.00     0.262 S 
ATOM     19  O   UNL A   1      31.577  26.598  20.793  1.00  0.00    -0.201 OA
ATOM     20  O   UNL A   1      33.583  25.400  21.739  1.00  0.00    -0.201 OA
BRANCH  18  21
ATOM     21  C   UNL A   1      32.334  27.083  23.255  1.00  0.00     0.090 A 
ATOM     22  C   UNL A   1      32.445  28.130  27.371  1.00  0.00     0.044 C 
ATOM     23  C   UNL A   1      32.405  27.906  25.892  1.00  0.00    -0.051 A 
ATOM     24  C   UNL A   1      33.598  27.728  25.191  1.00  0.00     0.005 A 
ATOM     25  C   UNL A   1      31.191  27.896  25.191  1.00  0.00     0.008 A 
ATOM     26  C   UNL A   1      33.561  27.343  23.856  1.00  0.00     0.023 A 
ATOM     27  C   UNL A   1      31.140  27.495  23.853  1.00  0.00    -0.030 A 
ATOM     28  C   UNL A   1      29.872  27.651  23.060  1.00  0.00     0.046 C 
ENDBRANCH  18  21
ENDBRANCH  16  18
ENDBRANCH  11  16
ENDBRANCH   8  10
ENDBRANCH   7   8
ENDBRANCH   6   7
ENDBRANCH   3   6
ENDBRANCH   1   2
BRANCH   1  29
ATOM     29  C   UNL A   1      38.434  23.579  26.010  1.00  0.00     0.021 C 
BRANCH  29  30
ATOM     30  C   UNL A   1      39.975  22.465  27.055  1.00  0.00     0.002 C 
BRANCH  30  31
ATOM     31  C   UNL A   1      41.531  21.858  26.661  1.00  0.00     0.002 C 
BRANCH  31  32
ATOM     32  C   UNL A   1      41.686  20.547  25.902  1.00  0.00     0.021 C 
BRANCH  32  33
ATOM     33  C   UNL A   1      42.811  19.735  26.487  1.00  0.00     0.116 C 
BRANCH  33  34
ATOM     34  N   UNL A   1      43.610  19.086  25.441  1.00  0.00    -0.352 N 
ATOM     35  C   UNL A   1      44.452  19.672  24.528  1.00  0.00     0.251 C 
ATOM     36  H   UNL A   1      43.532  18.105  25.388  1.00  0.00     0.163 HD
ATOM     37  O   UNL A   1      44.880  19.061  23.558  1.00  0.00    -0.269 OA
BRANCH  35  38
ATOM     38  C   UNL A   1      44.804  21.079  24.757  1.00  0.00     0.039 A 
ATOM     39  C   UNL A   1      44.353  22.065  23.880  1.00  0.00     0.014 A 
ATOM     40  C   UNL A   1      45.448  21.407  25.952  1.00  0.00     0.014 A 
ATOM     41  C   UNL A   1      44.483  23.401  24.251  1.00  0.00     0.010 A 
ATOM     42  C   UNL A   1      45.430  22.715  26.383  1.00  0.00     0.010 A 
ATOM     43  C   UNL A   1      44.982  23.727  25.524  1.00  0.00    -0.014 A 
BRANCH  43  44
ATOM     44  C   UNL A   1      45.118  25.123  25.982  1.00  0.00     0.031 A 
ATOM     45  C   UNL A   1      46.479  25.759  25.947  1.00  0.00     0.074 A 
ATOM     46  C   UNL A   1      44.064  25.759  26.522  1.00  0.00     0.049 A 
ATOM     47  N   UNL A   1      46.859  26.921  26.408  1.00  0.00    -0.248 NA
ATOM     48  C   UNL A   1      47.572  24.959  25.362  1.00  0.00     0.031 C 
ATOM     49  C   UNL A   1      42.716  25.203  26.668  1.00  0.00     0.029 A 
ATOM     50  N   UNL A   1      43.967  27.011  27.068  1.00  0.00    -0.354 N 
ATOM     51  C   UNL A   1      48.232  26.968  26.201  1.00  0.00     0.074 A 
ATOM     52  C   UNL A   1      48.630  25.698  25.644  1.00  0.00     0.031 C 
ATOM     53  C   UNL A   1      41.921  26.123  27.239  1.00  0.00     0.029 A 
ATOM     54  C   UNL A   1      42.714  27.310  27.542  1.00  0.00     0.049 A 
ATOM     55  H   UNL A   1      44.726  27.638  27.116  1.00  0.00     0.167 HD
ATOM     56  C   UNL A   1      49.082  27.995  26.427  1.00  0.00     0.031 A 
ATOM     57  C   UNL A   1      42.263  28.414  28.164  1.00  0.00     0.031 A 
ATOM     58  C   UNL A   1      48.663  29.260  26.958  1.00  0.00     0.049 A 
ATOM     59  C   UNL A   1      43.221  29.548  28.401  1.00  0.00     0.074 A 
ATOM     60  C   UNL A   1      49.410  30.407  27.143  1.00  0.00     0.029 A 
ATOM     61  N   UNL A   1      47.377  29.537  27.398  1.00  0.00    -0.354 N 
ATOM     62  N   UNL A   1      44.496  29.626  28.099  1.00  0.00    -0.248 NA
ATOM     63  C   UNL A   1      42.682  30.746  29.057  1.00  0.00     0.031 C 
ATOM     64  C   UNL A   1      48.592  31.357  27.762  1.00  0.00     0.029 A 
ATOM     65  C   UNL A   1      47.319  30.823  27.902  1.00  0.00     0.049 A 
ATOM     66  H   UNL A   1      46.618  28.911  27.357  1.00  0.00     0.167 HD
ATOM     67  C   UNL A   1      44.911  30.881  28.521  1.00  0.00     0.074 A 
ATOM     68  C   UNL A   1      43.743  31.540  29.075  1.00  0.00     0.031 C 
ATOM     69  C   UNL A   1      46.145  31.441  28.463  1.00  0.00     0.031 A 
BRANCH  56  70
ATOM     70  C   UNL A   1      50.535  27.769  26.119  1.00  0.00    -0.014 A 
ATOM     71  C   UNL A   1      51.439  27.332  27.102  1.00  0.00     0.009 A 
ATOM     72  C   UNL A   1      51.012  28.007  24.821  1.00  0.00     0.009 A 
ATOM     73  C   UNL A   1      52.796  27.186  26.805  1.00  0.00     0.001 A 
ATOM     74  C   UNL A   1      52.363  27.825  24.517  1.00  0.00     0.001 A 
ATOM     75  C   UNL A   1      53.255  27.429  25.511  1.00  0.00     0.000 A 
ENDBRANCH  56  70
BRANCH  57  76
ATOM     76  C   UNL A   1      40.844  28.489  28.600  1.00  0.00    -0.014 A 
ATOM     77  C   UNL A   1      39.862  29.023  27.753  1.00  0.00     0.009 A 
ATOM     78  C   UNL A   1      40.458  27.991  29.855  1.00  0.00     0.009 A 
ATOM     79  C   UNL A   1      38.525  29.070  28.160  1.00  0.00     0.001 A 
ATOM     80  C   UNL A   1      39.118  28.012  30.247  1.00  0.00     0.001 A 
ATOM     81  C   UNL A   1      38.154  28.557  29.402  1.00  0.00     0.000 A 
ENDBRANCH  57  76
BRANCH  69  82
ATOM     82  C   UNL A   1      46.295  32.828  29.018  1.00  0.00    -0.014 A 
ATOM     83  C   UNL A   1      46.035  33.954  28.223  1.00  0.00     0.009 A 
ATOM     84  C   UNL A   1      46.627  33.006  30.370  1.00  0.00     0.009 A 
ATOM     85  C   UNL A   1      46.130  35.236  28.767  1.00  0.00     0.001 A 
ATOM     86  C   UNL A   1      46.689  34.286  30.918  1.00  0.00     0.001 A 
ATOM     87  C   UNL A   1      46.448  35.400  30.115  1.00  0.00     0.000 A 
ENDBRANCH  69  82
ENDBRANCH  43  44
ENDBRANCH  35  38
ENDBRANCH  33  34
ENDBRANCH  32  33
ENDBRANCH  31  32
ENDBRANCH  30  31
ENDBRANCH  29  30
ENDBRANCH   1  29
TORSDOF 19
ENDMDL
MODEL 3
REMARK VINA RESULT:     -11.9      5.391     11.422
REMARK SMILES Cc1ccc(S(=O)(=O)Nc2ccc(C(=O)CCC(=O)NCCCCCCNC(=O)c3ccc(-c4c5nc(c(-c6ccccc6)c6ccc([nH]6)c(-c6ccccc6)c6nc(c(-c7ccccc7)c7ccc4[nH]7)C=C6)C=C5)cc3)cc2)c(C)c1
REMARK SMILES IDX 21 1 20 2 18 3 19 4 17 6 16 7 14 8 15 9 13 10 10 11 11 12
REMARK SMILES IDX 79 13 12 14 78 15 9 16 6 18 7 19 8 20 5 21 1 22 2 23 3 24
REMARK SMILES IDX 82 25 4 26 80 27 81 28 22 29 23 30 24 31 25 32 26 33 27 34
REMARK SMILES IDX 28 35 29 37 30 38 31 39 77 40 32 41 76 42 33 43 34 44 35 45
REMARK SMILES IDX 70 46 36 47 75 48 69 49 71 50 37 51 74 52 68 53 67 54 38 56
REMARK SMILES IDX 60 57 45 58 59 59 46 60 49 61 58 62 72 63 47 64 48 65 57 67
REMARK SMILES IDX 73 68 50 69 39 70 40 71 44 72 41 73 43 74 42 75 61 76 62 77
REMARK SMILES IDX 66 78 63 79 65 80 64 81 51 82 52 83 56 84 53 85 55 86 54 87
REMARK H PARENT 20 5 9 17 27 36 71 55 49 66
REMARK Flexibility Score: inf
ROOT
ATOM      1  C   UNL A   1      36.921  23.062  25.383  1.00  0.00     0.116 C 
ENDROOT
BRANCH   1   2
ATOM      2  N   UNL A   1      36.178  22.367  26.460  1.00  0.00    -0.356 N 
ATOM      3  C   UNL A   1      35.151  21.458  26.313  1.00  0.00     0.220 C 
ATOM      4  O   UNL A   1      34.356  21.323  27.244  1.00  0.00    -0.275 OA
ATOM      5  H   UNL A   1      36.448  22.577  27.383  1.00  0.00     0.163 HD
BRANCH   3   6
ATOM      6  C   UNL A   1      34.994  20.648  25.013  1.00  0.00     0.108 C 
BRANCH   6   7
ATOM      7  C   UNL A   1      33.702  19.790  24.896  1.00  0.00     0.091 C 
BRANCH   7   8
ATOM      8  C   UNL A   1      32.583  20.331  23.959  1.00  0.00     0.163 C 
ATOM      9  O   UNL A   1      32.157  19.703  22.996  1.00  0.00    -0.294 OA
BRANCH   8  10
ATOM     10  C   UNL A   1      32.154  21.770  24.121  1.00  0.00     0.018 A 
ATOM     11  C   UNL A   1      33.120  24.893  25.739  1.00  0.00     0.049 A 
ATOM     12  C   UNL A   1      33.786  24.465  24.092  1.00  0.00     0.027 A 
ATOM     13  C   UNL A   1      31.959  23.790  26.531  1.00  0.00     0.027 A 
ATOM     14  C   UNL A   1      33.288  22.923  23.272  1.00  0.00     0.014 A 
ATOM     15  C   UNL A   1      31.472  22.234  25.716  1.00  0.00     0.014 A 
BRANCH  11  16
ATOM     16  N   UNL A   1      33.254  26.276  26.126  1.00  0.00    -0.280 N 
ATOM     17  H   UNL A   1      34.101  26.532  26.557  1.00  0.00     0.180 HD
BRANCH  16  18
ATOM     18  S   UNL A   1      32.123  27.489  25.919  1.00  0.00     0.262 S 
ATOM     19  O   UNL A   1      31.097  27.310  26.923  1.00  0.00    -0.201 OA
ATOM     20  O   UNL A   1      31.806  27.453  24.508  1.00  0.00    -0.201 OA
BRANCH  18  21
ATOM     21  C   UNL A   1      32.972  29.001  26.222  1.00  0.00     0.090 A 
ATOM     22  C   UNL A   1      34.427  32.172  28.646  1.00  0.00     0.044 C 
ATOM     23  C   UNL A   1      33.971  31.128  27.677  1.00  0.00    -0.051 A 
ATOM     24  C   UNL A   1      34.781  30.020  27.428  1.00  0.00     0.005 A 
ATOM     25  C   UNL A   1      32.753  31.253  26.993  1.00  0.00     0.008 A 
ATOM     26  C   UNL A   1      34.289  28.963  26.671  1.00  0.00     0.023 A 
ATOM     27  C   UNL A   1      32.242  30.191  26.242  1.00  0.00    -0.030 A 
ATOM     28  C   UNL A   1      31.029  30.388  25.374  1.00  0.00     0.046 C 
ENDBRANCH  18  21
ENDBRANCH  16  18
ENDBRANCH  11  16
ENDBRANCH   8  10
ENDBRANCH   7   8
ENDBRANCH   6   7
ENDBRANCH   3   6
ENDBRANCH   1   2
BRANCH   1  29
ATOM     29  C   UNL A   1      38.450  22.469  25.427  1.00  0.00     0.021 C 
BRANCH  29  30
ATOM     30  C   UNL A   1      40.063  22.008  26.802  1.00  0.00     0.002 C 
BRANCH  30  31
ATOM     31  C   UNL A   1      40.966  20.606  27.210  1.00  0.00     0.002 C 
BRANCH  31  32
ATOM     32  C   UNL A   1      41.320  19.573  26.148  1.00  0.00     0.021 C 
BRANCH  32  33
ATOM     33  C   UNL A   1      42.629  18.907  26.483  1.00  0.00     0.116 C 
BRANCH  33  34
ATOM     34  N   UNL A   1      43.513  18.832  25.314  1.00  0.00    -0.352 N 
ATOM     35  C   UNL A   1      44.094  19.866  24.622  1.00  0.00     0.251 C 
ATOM     36  H   UNL A   1      43.714  17.926  24.986  1.00  0.00     0.163 HD
ATOM     37  O   UNL A   1      44.617  19.698  23.528  1.00  0.00    -0.269 OA
BRANCH  35  38
ATOM     38  C   UNL A   1      44.044  21.195  25.244  1.00  0.00     0.039 A 
ATOM     39  C   UNL A   1      44.743  21.442  26.425  1.00  0.00     0.014 A 
ATOM     40  C   UNL A   1      43.423  22.226  24.535  1.00  0.00     0.014 A 
ATOM     41  C   UNL A   1      44.885  22.760  26.854  1.00  0.00     0.010 A 
ATOM     42  C   UNL A   1      43.701  23.532  24.876  1.00  0.00     0.010 A 
ATOM     43  C   UNL A   1      44.402  23.810  26.057  1.00  0.00    -0.014 A 
BRANCH  43  44
ATOM     44  C   UNL A   1      44.547  25.226  26.447  1.00  0.00     0.031 A 
ATOM     45  C   UNL A   1      45.904  25.862  26.347  1.00  0.00     0.074 A 
ATOM     46  C   UNL A   1      43.504  25.885  26.984  1.00  0.00     0.049 A 
ATOM     47  N   UNL A   1      46.292  27.045  26.744  1.00  0.00    -0.248 NA
ATOM     48  C   UNL A   1      46.984  25.038  25.772  1.00  0.00     0.031 C 
ATOM     49  C   UNL A   1      42.162  25.334  27.189  1.00  0.00     0.029 A 
ATOM     50  N   UNL A   1      43.418  27.161  27.474  1.00  0.00    -0.354 N 
ATOM     51  C   UNL A   1      47.659  27.086  26.500  1.00  0.00     0.074 A 
ATOM     52  C   UNL A   1      48.047  25.792  25.993  1.00  0.00     0.031 C 
ATOM     53  C   UNL A   1      41.379  26.278  27.738  1.00  0.00     0.029 A 
ATOM     54  C   UNL A   1      42.176  27.479  27.965  1.00  0.00     0.049 A 
ATOM     55  H   UNL A   1      44.175  27.790  27.473  1.00  0.00     0.167 HD
ATOM     56  C   UNL A   1      48.511  28.123  26.658  1.00  0.00     0.031 A 
ATOM     57  C   UNL A   1      41.738  28.610  28.547  1.00  0.00     0.031 A 
ATOM     58  C   UNL A   1      48.102  29.411  27.140  1.00  0.00     0.049 A 
ATOM     59  C   UNL A   1      42.699  29.755  28.707  1.00  0.00     0.074 A 
ATOM     60  C   UNL A   1      48.851  30.566  27.252  1.00  0.00     0.029 A 
ATOM     61  N   UNL A   1      46.827  29.705  27.599  1.00  0.00    -0.354 N 
ATOM     62  N   UNL A   1      43.965  29.821  28.369  1.00  0.00    -0.248 NA
ATOM     63  C   UNL A   1      42.173  30.981  29.321  1.00  0.00     0.031 C 
ATOM     64  C   UNL A   1      48.046  31.542  27.848  1.00  0.00     0.029 A 
ATOM     65  C   UNL A   1      46.778  31.013  28.044  1.00  0.00     0.049 A 
ATOM     66  H   UNL A   1      46.070  29.077  27.607  1.00  0.00     0.167 HD
ATOM     67  C   UNL A   1      44.387  31.095  28.722  1.00  0.00     0.074 A 
ATOM     68  C   UNL A   1      43.232  31.777  29.274  1.00  0.00     0.031 C 
ATOM     69  C   UNL A   1      45.618  31.654  28.607  1.00  0.00     0.031 A 
BRANCH  56  70
ATOM     70  C   UNL A   1      49.957  27.886  26.322  1.00  0.00    -0.014 A 
ATOM     71  C   UNL A   1      50.504  28.288  25.092  1.00  0.00     0.009 A 
ATOM     72  C   UNL A   1      50.786  27.239  27.251  1.00  0.00     0.009 A 
ATOM     73  C   UNL A   1      51.836  28.004  24.781  1.00  0.00     0.001 A 
ATOM     74  C   UNL A   1      52.127  26.989  26.952  1.00  0.00     0.001 A 
ATOM     75  C   UNL A   1      52.647  27.359  25.713  1.00  0.00     0.000 A 
ENDBRANCH  56  70
BRANCH  57  76
ATOM     76  C   UNL A   1      40.331  28.702  29.015  1.00  0.00    -0.014 A 
ATOM     77  C   UNL A   1      39.979  28.303  30.314  1.00  0.00     0.009 A 
ATOM     78  C   UNL A   1      39.334  29.228  28.176  1.00  0.00     0.009 A 
ATOM     79  C   UNL A   1      38.658  28.414  30.756  1.00  0.00     0.001 A 
ATOM     80  C   UNL A   1      38.021  29.365  28.631  1.00  0.00     0.001 A 
ATOM     81  C   UNL A   1      37.683  28.952  29.917  1.00  0.00     0.000 A 
ENDBRANCH  57  76
BRANCH  69  82
ATOM     82  C   UNL A   1      45.777  33.065  29.093  1.00  0.00    -0.014 A 
ATOM     83  C   UNL A   1      46.213  33.332  30.400  1.00  0.00     0.009 A 
ATOM     84  C   UNL A   1      45.559  34.136  28.212  1.00  0.00     0.009 A 
ATOM     85  C   UNL A   1      46.404  34.649  30.822  1.00  0.00     0.001 A 
ATOM     86  C   UNL A   1      45.782  35.448  28.627  1.00  0.00     0.001 A 
ATOM     87  C   UNL A   1      46.197  35.704  29.934  1.00  0.00     0.000 A 
ENDBRANCH  69  82
ENDBRANCH  43  44
ENDBRANCH  35  38
ENDBRANCH  33  34
ENDBRANCH  32  33
ENDBRANCH  31  32
ENDBRANCH  30  31
ENDBRANCH  29  30
ENDBRANCH   1  29
TORSDOF 19
ENDMDL
