MODEL 1
REMARK VINA RESULT:     -10.4      0.000      0.000
REMARK SMILES C[C@@H](C(=O)NCCCCCCNC(=O)c1ccc(-c2c3nc(c(-c4ccccc4)c4ccc([nH]4)c(-c4ccccc4)c4nc(c(-c5ccccc5)c5ccc2[nH]5)C=C4)C=C3)cc1)c1ccc(=O)n(C(F)F)c1
REMARK SMILES IDX 8 1 7 2 6 3 5 4 3 5 4 6 2 8 1 9 63 10 64 11 72 12 65 13
REMARK SMILES IDX 68 14 66 15 67 16 69 17 70 18 71 19 9 20 10 21 11 22 12 23
REMARK SMILES IDX 13 24 14 26 15 27 16 28 62 29 17 30 61 31 18 32 19 33 20 34
REMARK SMILES IDX 55 35 21 36 60 37 54 38 56 39 22 40 59 41 53 42 52 43 23 45
REMARK SMILES IDX 45 46 30 47 44 48 31 49 34 50 43 51 57 52 32 53 33 54 42 56
REMARK SMILES IDX 58 57 35 58 24 59 25 60 29 61 26 62 28 63 27 64 46 65 47 66
REMARK SMILES IDX 51 67 48 68 50 69 49 70 36 71 37 72 41 73 38 74 40 75 39 76
REMARK H PARENT 5 7 12 25 56 44 34 55
REMARK Flexibility Score: inf
ROOT
ATOM      1  C   UNL A   1      34.459  32.821  28.821  1.00  0.00     0.002 C 
ENDROOT
BRANCH   1   2
ATOM      2  C   UNL A   1      34.846  31.771  27.770  1.00  0.00     0.021 C 
BRANCH   2   3
ATOM      3  C   UNL A   1      33.726  30.799  27.391  1.00  0.00     0.116 C 
BRANCH   3   4
ATOM      4  N   UNL A   1      34.061  30.058  26.194  1.00  0.00    -0.356 N 
ATOM      5  C   UNL A   1      33.343  29.147  25.478  1.00  0.00     0.227 C 
ATOM      6  O   UNL A   1      33.931  28.600  24.543  1.00  0.00    -0.274 OA
ATOM      7  H   UNL A   1      34.959  30.243  25.836  1.00  0.00     0.163 HD
BRANCH   5   8
ATOM      8  C   UNL A   1      31.867  28.867  25.833  1.00  0.00     0.107 C 
ATOM      9  C   UNL A   1      31.654  27.455  26.386  1.00  0.00     0.023 C 
BRANCH   8  10
ATOM     10  C   UNL A   1      30.939  29.119  24.649  1.00  0.00    -0.019 A 
ATOM     11  C   UNL A   1      30.734  28.065  23.670  1.00  0.00     0.012 A 
ATOM     12  C   UNL A   1      30.286  30.281  24.475  1.00  0.00     0.099 A 
ATOM     13  C   UNL A   1      29.934  28.243  22.613  1.00  0.00     0.072 A 
ATOM     14  N   UNL A   1      29.434  30.487  23.400  1.00  0.00    -0.258 N 
ATOM     15  C   UNL A   1      29.215  29.528  22.424  1.00  0.00     0.254 A 
ATOM     16  O   UNL A   1      28.484  29.654  21.445  1.00  0.00    -0.269 OA
BRANCH  14  17
ATOM     17  C   UNL A   1      28.736  31.735  23.246  1.00  0.00     0.451 C 
ATOM     18  F   UNL A   1      27.467  31.648  23.712  1.00  0.00    -0.185 F 
ATOM     19  F   UNL A   1      29.363  32.732  23.918  1.00  0.00    -0.185 F 
ENDBRANCH  14  17
ENDBRANCH   8  10
ENDBRANCH   5   8
ENDBRANCH   3   4
ENDBRANCH   2   3
ENDBRANCH   1   2
BRANCH   1  20
ATOM     20  C   UNL A   1      34.286  34.249  28.296  1.00  0.00     0.002 C 
BRANCH  20  21
ATOM     21  C   UNL A   1      33.026  34.975  28.771  1.00  0.00     0.021 C 
BRANCH  21  22
ATOM     22  C   UNL A   1      33.278  36.240  29.586  1.00  0.00     0.116 C 
BRANCH  22  23
ATOM     23  N   UNL A   1      32.422  36.328  30.756  1.00  0.00    -0.352 N 
ATOM     24  C   UNL A   1      32.557  35.719  31.977  1.00  0.00     0.251 C 
ATOM     25  H   UNL A   1      31.632  36.906  30.658  1.00  0.00     0.163 HD
ATOM     26  O   UNL A   1      31.643  35.786  32.799  1.00  0.00    -0.269 OA
BRANCH  24  27
ATOM     27  C   UNL A   1      33.787  34.967  32.311  1.00  0.00     0.039 A 
ATOM     28  C   UNL A   1      35.022  35.610  32.183  1.00  0.00     0.014 A 
ATOM     29  C   UNL A   1      33.736  33.625  32.703  1.00  0.00     0.014 A 
ATOM     30  C   UNL A   1      36.201  34.919  32.473  1.00  0.00     0.010 A 
ATOM     31  C   UNL A   1      34.907  32.957  33.054  1.00  0.00     0.010 A 
ATOM     32  C   UNL A   1      36.152  33.591  32.923  1.00  0.00    -0.014 A 
BRANCH  32  33
ATOM     33  C   UNL A   1      37.398  32.835  33.207  1.00  0.00     0.031 A 
ATOM     34  C   UNL A   1      38.137  33.061  34.499  1.00  0.00     0.074 A 
ATOM     35  C   UNL A   1      37.889  31.978  32.292  1.00  0.00     0.049 A 
ATOM     36  N   UNL A   1      39.252  32.518  34.918  1.00  0.00    -0.248 NA
ATOM     37  C   UNL A   1      37.559  34.043  35.430  1.00  0.00     0.031 C 
ATOM     38  C   UNL A   1      37.291  31.694  30.987  1.00  0.00     0.029 A 
ATOM     39  N   UNL A   1      39.009  31.185  32.325  1.00  0.00    -0.354 N 
ATOM     40  C   UNL A   1      39.521  33.112  36.146  1.00  0.00     0.074 A 
ATOM     41  C   UNL A   1      38.478  34.085  36.383  1.00  0.00     0.031 C 
ATOM     42  C   UNL A   1      38.033  30.767  30.357  1.00  0.00     0.029 A 
ATOM     43  C   UNL A   1      39.170  30.414  31.201  1.00  0.00     0.049 A 
ATOM     44  H   UNL A   1      39.636  31.170  33.084  1.00  0.00     0.167 HD
ATOM     45  C   UNL A   1      40.535  32.859  37.008  1.00  0.00     0.031 A 
ATOM     46  C   UNL A   1      40.124  29.517  30.888  1.00  0.00     0.031 A 
ATOM     47  C   UNL A   1      41.556  31.871  36.790  1.00  0.00     0.049 A 
ATOM     48  C   UNL A   1      41.224  29.235  31.873  1.00  0.00     0.074 A 
ATOM     49  C   UNL A   1      42.588  31.496  37.634  1.00  0.00     0.029 A 
ATOM     50  N   UNL A   1      41.669  31.096  35.648  1.00  0.00    -0.354 N 
ATOM     51  N   UNL A   1      41.429  29.759  33.056  1.00  0.00    -0.248 NA
ATOM     52  C   UNL A   1      42.215  28.222  31.482  1.00  0.00     0.031 C 
ATOM     53  C   UNL A   1      43.347  30.517  36.985  1.00  0.00     0.029 A 
ATOM     54  C   UNL A   1      42.762  30.252  35.758  1.00  0.00     0.049 A 
ATOM     55  H   UNL A   1      41.064  31.138  34.873  1.00  0.00     0.167 HD
ATOM     56  C   UNL A   1      42.549  29.116  33.566  1.00  0.00     0.074 A 
ATOM     57  C   UNL A   1      42.974  28.158  32.567  1.00  0.00     0.031 C 
ATOM     58  C   UNL A   1      43.166  29.299  34.758  1.00  0.00     0.031 A 
BRANCH  45  59
ATOM     59  C   UNL A   1      40.586  33.676  38.269  1.00  0.00    -0.014 A 
ATOM     60  C   UNL A   1      39.890  33.280  39.421  1.00  0.00     0.009 A 
ATOM     61  C   UNL A   1      41.357  34.848  38.309  1.00  0.00     0.009 A 
ATOM     62  C   UNL A   1      39.932  34.063  40.577  1.00  0.00     0.001 A 
ATOM     63  C   UNL A   1      41.421  35.614  39.474  1.00  0.00     0.001 A 
ATOM     64  C   UNL A   1      40.699  35.227  40.603  1.00  0.00     0.000 A 
ENDBRANCH  45  59
BRANCH  46  65
ATOM     65  C   UNL A   1      40.060  28.781  29.600  1.00  0.00    -0.014 A 
ATOM     66  C   UNL A   1      39.420  27.534  29.530  1.00  0.00     0.009 A 
ATOM     67  C   UNL A   1      40.640  29.314  28.440  1.00  0.00     0.009 A 
ATOM     68  C   UNL A   1      39.388  26.822  28.328  1.00  0.00     0.001 A 
ATOM     69  C   UNL A   1      40.585  28.611  27.235  1.00  0.00     0.001 A 
ATOM     70  C   UNL A   1      39.967  27.363  27.182  1.00  0.00     0.000 A 
ENDBRANCH  46  65
BRANCH  58  71
ATOM     71  C   UNL A   1      44.339  28.413  35.065  1.00  0.00    -0.014 A 
ATOM     72  C   UNL A   1      44.198  27.261  35.853  1.00  0.00     0.009 A 
ATOM     73  C   UNL A   1      45.599  28.723  34.529  1.00  0.00     0.009 A 
ATOM     74  C   UNL A   1      45.305  26.454  36.125  1.00  0.00     0.001 A 
ATOM     75  C   UNL A   1      46.697  27.900  34.781  1.00  0.00     0.001 A 
ATOM     76  C   UNL A   1      46.551  26.773  35.586  1.00  0.00     0.000 A 
ENDBRANCH  58  71
ENDBRANCH  32  33
ENDBRANCH  24  27
ENDBRANCH  22  23
ENDBRANCH  21  22
ENDBRANCH  20  21
ENDBRANCH   1  20
TORSDOF 15
ENDMDL
MODEL 2
REMARK VINA RESULT:     -10.3      6.362     10.990
REMARK SMILES C[C@@H](C(=O)NCCCCCCNC(=O)c1ccc(-c2c3nc(c(-c4ccccc4)c4ccc([nH]4)c(-c4ccccc4)c4nc(c(-c5ccccc5)c5ccc2[nH]5)C=C4)C=C3)cc1)c1ccc(=O)n(C(F)F)c1
REMARK SMILES IDX 8 1 7 2 6 3 5 4 3 5 4 6 2 8 1 9 63 10 64 11 72 12 65 13
REMARK SMILES IDX 68 14 66 15 67 16 69 17 70 18 71 19 9 20 10 21 11 22 12 23
REMARK SMILES IDX 13 24 14 26 15 27 16 28 62 29 17 30 61 31 18 32 19 33 20 34
REMARK SMILES IDX 55 35 21 36 60 37 54 38 56 39 22 40 59 41 53 42 52 43 23 45
REMARK SMILES IDX 45 46 30 47 44 48 31 49 34 50 43 51 57 52 32 53 33 54 42 56
REMARK SMILES IDX 58 57 35 58 24 59 25 60 29 61 26 62 28 63 27 64 46 65 47 66
REMARK SMILES IDX 51 67 48 68 50 69 49 70 36 71 37 72 41 73 38 74 40 75 39 76
REMARK H PARENT 5 7 12 25 56 44 34 55
REMARK Flexibility Score: inf
ROOT
ATOM      1  C   UNL A   1      36.254  21.662  24.382  1.00  0.00     0.002 C 
ENDROOT
BRANCH   1   2
ATOM      2  C   UNL A   1      35.863  22.950  23.643  1.00  0.00     0.021 C 
BRANCH   2   3
ATOM      3  C   UNL A   1      35.076  23.959  24.485  1.00  0.00     0.116 C 
BRANCH   3   4
ATOM      4  N   UNL A   1      34.813  23.438  25.810  1.00  0.00    -0.356 N 
ATOM      5  C   UNL A   1      33.653  23.019  26.390  1.00  0.00     0.227 C 
ATOM      6  O   UNL A   1      33.717  22.714  27.582  1.00  0.00    -0.274 OA
ATOM      7  H   UNL A   1      35.605  23.377  26.391  1.00  0.00     0.163 HD
BRANCH   5   8
ATOM      8  C   UNL A   1      32.358  22.919  25.555  1.00  0.00     0.107 C 
ATOM      9  C   UNL A   1      31.096  22.986  26.419  1.00  0.00     0.023 C 
BRANCH   8  10
ATOM     10  C   UNL A   1      32.339  21.668  24.683  1.00  0.00    -0.019 A 
ATOM     11  C   UNL A   1      32.149  21.802  23.249  1.00  0.00     0.012 A 
ATOM     12  C   UNL A   1      32.504  20.432  25.187  1.00  0.00     0.099 A 
ATOM     13  C   UNL A   1      32.119  20.732  22.447  1.00  0.00     0.072 A 
ATOM     14  N   UNL A   1      32.499  19.306  24.377  1.00  0.00    -0.258 N 
ATOM     15  C   UNL A   1      32.301  19.370  23.007  1.00  0.00     0.254 A 
ATOM     16  O   UNL A   1      32.275  18.410  22.240  1.00  0.00    -0.269 OA
BRANCH  14  17
ATOM     17  C   UNL A   1      32.693  17.997  24.941  1.00  0.00     0.451 C 
ATOM     18  F   UNL A   1      33.953  17.551  24.724  1.00  0.00    -0.185 F 
ATOM     19  F   UNL A   1      32.473  18.002  26.279  1.00  0.00    -0.185 F 
ENDBRANCH  14  17
ENDBRANCH   8  10
ENDBRANCH   5   8
ENDBRANCH   3   4
ENDBRANCH   2   3
ENDBRANCH   1   2
BRANCH   1  20
ATOM     20  C   UNL A   1      37.728  21.549  24.780  1.00  0.00     0.002 C 
BRANCH  20  21
ATOM     21  C   UNL A   1      38.307  20.133  24.758  1.00  0.00     0.021 C 
BRANCH  21  22
ATOM     22  C   UNL A   1      38.966  19.686  26.059  1.00  0.00     0.116 C 
BRANCH  22  23
ATOM     23  N   UNL A   1      40.234  19.012  25.836  1.00  0.00    -0.352 N 
ATOM     24  C   UNL A   1      41.508  19.502  25.950  1.00  0.00     0.251 C 
ATOM     25  H   UNL A   1      40.167  18.068  25.563  1.00  0.00     0.163 HD
ATOM     26  O   UNL A   1      42.462  18.825  25.565  1.00  0.00    -0.269 OA
BRANCH  24  27
ATOM     27  C   UNL A   1      41.750  20.847  26.519  1.00  0.00     0.039 A 
ATOM     28  C   UNL A   1      42.015  21.907  25.645  1.00  0.00     0.014 A 
ATOM     29  C   UNL A   1      41.764  21.062  27.900  1.00  0.00     0.014 A 
ATOM     30  C   UNL A   1      42.265  23.183  26.153  1.00  0.00     0.010 A 
ATOM     31  C   UNL A   1      41.949  22.348  28.403  1.00  0.00     0.010 A 
ATOM     32  C   UNL A   1      42.222  23.417  27.536  1.00  0.00    -0.014 A 
BRANCH  32  33
ATOM     33  C   UNL A   1      42.515  24.762  28.092  1.00  0.00     0.031 A 
ATOM     34  C   UNL A   1      43.921  25.119  28.495  1.00  0.00     0.074 A 
ATOM     35  C   UNL A   1      41.518  25.648  28.273  1.00  0.00     0.049 A 
ATOM     36  N   UNL A   1      44.373  26.230  29.021  1.00  0.00    -0.248 NA
ATOM     37  C   UNL A   1      44.949  24.083  28.303  1.00  0.00     0.031 C 
ATOM     38  C   UNL A   1      40.108  25.416  27.958  1.00  0.00     0.029 A 
ATOM     39  N   UNL A   1      41.543  26.928  28.768  1.00  0.00    -0.354 N 
ATOM     40  C   UNL A   1      45.727  26.015  29.247  1.00  0.00     0.074 A 
ATOM     41  C   UNL A   1      46.015  24.657  28.842  1.00  0.00     0.031 C 
ATOM     42  C   UNL A   1      39.408  26.528  28.238  1.00  0.00     0.029 A 
ATOM     43  C   UNL A   1      40.313  27.538  28.776  1.00  0.00     0.049 A 
ATOM     44  H   UNL A   1      42.365  27.367  29.086  1.00  0.00     0.167 HD
ATOM     45  C   UNL A   1      46.654  26.876  29.731  1.00  0.00     0.031 A 
ATOM     46  C   UNL A   1      39.957  28.776  29.167  1.00  0.00     0.031 A 
ATOM     47  C   UNL A   1      46.380  28.236  30.107  1.00  0.00     0.049 A 
ATOM     48  C   UNL A   1      41.009  29.721  29.677  1.00  0.00     0.074 A 
ATOM     49  C   UNL A   1      47.265  29.205  30.548  1.00  0.00     0.029 A 
ATOM     50  N   UNL A   1      45.125  28.821  30.078  1.00  0.00    -0.354 N 
ATOM     51  N   UNL A   1      42.296  29.524  29.825  1.00  0.00    -0.248 NA
ATOM     52  C   UNL A   1      40.557  31.067  30.057  1.00  0.00     0.031 C 
ATOM     53  C   UNL A   1      46.537  30.368  30.819  1.00  0.00     0.029 A 
ATOM     54  C   UNL A   1      45.208  30.135  30.505  1.00  0.00     0.049 A 
ATOM     55  H   UNL A   1      44.297  28.370  29.796  1.00  0.00     0.167 HD
ATOM     56  C   UNL A   1      42.813  30.729  30.281  1.00  0.00     0.074 A 
ATOM     57  C   UNL A   1      41.703  31.654  30.377  1.00  0.00     0.031 C 
ATOM     58  C   UNL A   1      44.095  31.044  30.587  1.00  0.00     0.031 A 
BRANCH  45  59
ATOM     59  C   UNL A   1      48.058  26.359  29.887  1.00  0.00    -0.014 A 
ATOM     60  C   UNL A   1      48.987  26.449  28.839  1.00  0.00     0.009 A 
ATOM     61  C   UNL A   1      48.460  25.792  31.106  1.00  0.00     0.009 A 
ATOM     62  C   UNL A   1      50.280  25.945  28.995  1.00  0.00     0.001 A 
ATOM     63  C   UNL A   1      49.762  25.314  31.269  1.00  0.00     0.001 A 
ATOM     64  C   UNL A   1      50.667  25.381  30.210  1.00  0.00     0.000 A 
ENDBRANCH  45  59
BRANCH  46  65
ATOM     65  C   UNL A   1      38.544  29.215  29.049  1.00  0.00    -0.014 A 
ATOM     66  C   UNL A   1      38.054  29.701  27.827  1.00  0.00     0.009 A 
ATOM     67  C   UNL A   1      37.681  29.159  30.154  1.00  0.00     0.009 A 
ATOM     68  C   UNL A   1      36.735  30.148  27.721  1.00  0.00     0.001 A 
ATOM     69  C   UNL A   1      36.356  29.585  30.038  1.00  0.00     0.001 A 
ATOM     70  C   UNL A   1      35.886  30.086  28.825  1.00  0.00     0.000 A 
ENDBRANCH  46  65
BRANCH  58  71
ATOM     71  C   UNL A   1      44.371  32.457  31.009  1.00  0.00    -0.014 A 
ATOM     72  C   UNL A   1      44.485  32.807  32.364  1.00  0.00     0.009 A 
ATOM     73  C   UNL A   1      44.552  33.449  30.031  1.00  0.00     0.009 A 
ATOM     74  C   UNL A   1      44.741  34.129  32.731  1.00  0.00     0.001 A 
ATOM     75  C   UNL A   1      44.834  34.764  30.402  1.00  0.00     0.001 A 
ATOM     76  C   UNL A   1      44.919  35.105  31.750  1.00  0.00     0.000 A 
ENDBRANCH  58  71
ENDBRANCH  32  33
ENDBRANCH  24  27
ENDBRANCH  22  23
ENDBRANCH  21  22
ENDBRANCH  20  21
ENDBRANCH   1  20
TORSDOF 15
ENDMDL
MODEL 3
REMARK VINA RESULT:     -10.1      1.750      2.811
REMARK SMILES C[C@@H](C(=O)NCCCCCCNC(=O)c1ccc(-c2c3nc(c(-c4ccccc4)c4ccc([nH]4)c(-c4ccccc4)c4nc(c(-c5ccccc5)c5ccc2[nH]5)C=C4)C=C3)cc1)c1ccc(=O)n(C(F)F)c1
REMARK SMILES IDX 8 1 7 2 6 3 5 4 3 5 4 6 2 8 1 9 63 10 64 11 72 12 65 13
REMARK SMILES IDX 68 14 66 15 67 16 69 17 70 18 71 19 9 20 10 21 11 22 12 23
REMARK SMILES IDX 13 24 14 26 15 27 16 28 62 29 17 30 61 31 18 32 19 33 20 34
REMARK SMILES IDX 55 35 21 36 60 37 54 38 56 39 22 40 59 41 53 42 52 43 23 45
REMARK SMILES IDX 45 46 30 47 44 48 31 49 34 50 43 51 57 52 32 53 33 54 42 56
REMARK SMILES IDX 58 57 35 58 24 59 25 60 29 61 26 62 28 63 27 64 46 65 47 66
REMARK SMILES IDX 51 67 48 68 50 69 49 70 36 71 37 72 41 73 38 74 40 75 39 76
REMARK H PARENT 5 7 12 25 56 44 34 55
REMARK Flexibility Score: inf
ROOT
ATOM      1  C   UNL A   1      32.388  30.022  26.287  1.00  0.00     0.002 C 
ENDROOT
BRANCH   1   2
ATOM      2  C   UNL A   1      32.024  28.582  26.676  1.00  0.00     0.021 C 
BRANCH   2   3
ATOM      3  C   UNL A   1      32.855  27.500  25.981  1.00  0.00     0.116 C 
BRANCH   3   4
ATOM      4  N   UNL A   1      33.417  27.991  24.740  1.00  0.00    -0.356 N 
ATOM      5  C   UNL A   1      33.143  27.664  23.446  1.00  0.00     0.227 C 
ATOM      6  O   UNL A   1      33.859  28.184  22.588  1.00  0.00    -0.274 OA
ATOM      7  H   UNL A   1      34.114  28.678  24.850  1.00  0.00     0.163 HD
BRANCH   5   8
ATOM      8  C   UNL A   1      31.973  26.713  23.115  1.00  0.00     0.107 C 
ATOM      9  C   UNL A   1      32.191  25.948  21.806  1.00  0.00     0.023 C 
BRANCH   8  10
ATOM     10  C   UNL A   1      30.636  27.445  23.085  1.00  0.00    -0.019 A 
ATOM     11  C   UNL A   1      29.459  26.799  23.640  1.00  0.00     0.012 A 
ATOM     12  C   UNL A   1      30.498  28.681  22.574  1.00  0.00     0.099 A 
ATOM     13  C   UNL A   1      28.264  27.402  23.631  1.00  0.00     0.072 A 
ATOM     14  N   UNL A   1      29.277  29.339  22.570  1.00  0.00    -0.258 N 
ATOM     15  C   UNL A   1      28.116  28.766  23.065  1.00  0.00     0.254 A 
ATOM     16  O   UNL A   1      27.006  29.291  23.079  1.00  0.00    -0.269 OA
BRANCH  14  17
ATOM     17  C   UNL A   1      29.161  30.667  22.029  1.00  0.00     0.451 C 
ATOM     18  F   UNL A   1      28.361  30.683  20.936  1.00  0.00    -0.185 F 
ATOM     19  F   UNL A   1      28.643  31.524  22.943  1.00  0.00    -0.185 F 
ENDBRANCH  14  17
ENDBRANCH   8  10
ENDBRANCH   5   8
ENDBRANCH   3   4
ENDBRANCH   2   3
ENDBRANCH   1   2
BRANCH   1  20
ATOM     20  C   UNL A   1      31.217  30.906  25.851  1.00  0.00     0.002 C 
BRANCH  20  21
ATOM     21  C   UNL A   1      31.222  32.328  26.417  1.00  0.00     0.021 C 
BRANCH  21  22
ATOM     22  C   UNL A   1      32.532  32.756  27.072  1.00  0.00     0.116 C 
BRANCH  22  23
ATOM     23  N   UNL A   1      32.439  34.063  27.698  1.00  0.00    -0.352 N 
ATOM     24  C   UNL A   1      33.198  34.598  28.707  1.00  0.00     0.251 C 
ATOM     25  H   UNL A   1      31.728  34.648  27.349  1.00  0.00     0.163 HD
ATOM     26  O   UNL A   1      32.869  35.668  29.219  1.00  0.00    -0.269 OA
BRANCH  24  27
ATOM     27  C   UNL A   1      34.403  33.893  29.197  1.00  0.00     0.039 A 
ATOM     28  C   UNL A   1      34.243  32.844  30.108  1.00  0.00     0.014 A 
ATOM     29  C   UNL A   1      35.687  34.285  28.804  1.00  0.00     0.014 A 
ATOM     30  C   UNL A   1      35.362  32.173  30.602  1.00  0.00     0.010 A 
ATOM     31  C   UNL A   1      36.799  33.573  29.248  1.00  0.00     0.010 A 
ATOM     32  C   UNL A   1      36.650  32.523  30.167  1.00  0.00    -0.014 A 
BRANCH  32  33
ATOM     33  C   UNL A   1      37.851  31.838  30.706  1.00  0.00     0.031 A 
ATOM     34  C   UNL A   1      38.392  32.222  32.058  1.00  0.00     0.074 A 
ATOM     35  C   UNL A   1      38.481  30.903  29.970  1.00  0.00     0.049 A 
ATOM     36  N   UNL A   1      39.442  31.759  32.689  1.00  0.00    -0.248 NA
ATOM     37  C   UNL A   1      37.673  33.281  32.784  1.00  0.00     0.031 C 
ATOM     38  C   UNL A   1      38.081  30.464  28.633  1.00  0.00     0.029 A 
ATOM     39  N   UNL A   1      39.594  30.151  30.250  1.00  0.00    -0.354 N 
ATOM     40  C   UNL A   1      39.522  32.488  33.869  1.00  0.00     0.074 A 
ATOM     41  C   UNL A   1      38.443  33.451  33.848  1.00  0.00     0.031 C 
ATOM     42  C   UNL A   1      38.918  29.497  28.221  1.00  0.00     0.029 A 
ATOM     43  C   UNL A   1      39.926  29.269  29.251  1.00  0.00     0.049 A 
ATOM     44  H   UNL A   1      40.105  30.234  31.087  1.00  0.00     0.167 HD
ATOM     45  C   UNL A   1      40.403  32.358  34.890  1.00  0.00     0.031 A 
ATOM     46  C   UNL A   1      40.927  28.372  29.178  1.00  0.00     0.031 A 
ATOM     47  C   UNL A   1      41.459  31.382  34.930  1.00  0.00     0.049 A 
ATOM     48  C   UNL A   1      41.877  28.228  30.336  1.00  0.00     0.074 A 
ATOM     49  C   UNL A   1      42.362  31.130  35.948  1.00  0.00     0.029 A 
ATOM     50  N   UNL A   1      41.746  30.493  33.908  1.00  0.00    -0.354 N 
ATOM     51  N   UNL A   1      41.901  28.881  31.471  1.00  0.00    -0.248 NA
ATOM     52  C   UNL A   1      42.927  27.208  30.203  1.00  0.00     0.031 C 
ATOM     53  C   UNL A   1      43.220  30.109  35.526  1.00  0.00     0.029 A 
ATOM     54  C   UNL A   1      42.822  29.698  34.264  1.00  0.00     0.049 A 
ATOM     55  H   UNL A   1      41.259  30.435  33.055  1.00  0.00     0.167 HD
ATOM     56  C   UNL A   1      42.944  28.329  32.202  1.00  0.00     0.074 A 
ATOM     57  C   UNL A   1      43.522  27.282  31.386  1.00  0.00     0.031 C 
ATOM     58  C   UNL A   1      43.379  28.655  33.443  1.00  0.00     0.031 A 
BRANCH  45  59
ATOM     59  C   UNL A   1      40.261  33.307  36.048  1.00  0.00    -0.014 A 
ATOM     60  C   UNL A   1      40.970  34.517  36.088  1.00  0.00     0.009 A 
ATOM     61  C   UNL A   1      39.389  32.993  37.102  1.00  0.00     0.009 A 
ATOM     62  C   UNL A   1      40.840  35.376  37.182  1.00  0.00     0.001 A 
ATOM     63  C   UNL A   1      39.240  33.867  38.181  1.00  0.00     0.001 A 
ATOM     64  C   UNL A   1      39.974  35.052  38.225  1.00  0.00     0.000 A 
ENDBRANCH  45  59
BRANCH  46  65
ATOM     65  C   UNL A   1      41.059  27.501  27.983  1.00  0.00    -0.014 A 
ATOM     66  C   UNL A   1      41.815  27.925  26.879  1.00  0.00     0.009 A 
ATOM     67  C   UNL A   1      40.427  26.249  27.935  1.00  0.00     0.009 A 
ATOM     68  C   UNL A   1      41.914  27.124  25.739  1.00  0.00     0.001 A 
ATOM     69  C   UNL A   1      40.547  25.440  26.803  1.00  0.00     0.001 A 
ATOM     70  C   UNL A   1      41.282  25.882  25.703  1.00  0.00     0.000 A 
ENDBRANCH  46  65
BRANCH  58  71
ATOM     71  C   UNL A   1      44.506  27.842  34.009  1.00  0.00    -0.014 A 
ATOM     72  C   UNL A   1      44.267  26.659  34.726  1.00  0.00     0.009 A 
ATOM     73  C   UNL A   1      45.832  28.251  33.793  1.00  0.00     0.009 A 
ATOM     74  C   UNL A   1      45.333  25.921  35.244  1.00  0.00     0.001 A 
ATOM     75  C   UNL A   1      46.896  27.497  34.289  1.00  0.00     0.001 A 
ATOM     76  C   UNL A   1      46.645  26.339  35.022  1.00  0.00     0.000 A 
ENDBRANCH  58  71
ENDBRANCH  32  33
ENDBRANCH  24  27
ENDBRANCH  22  23
ENDBRANCH  21  22
ENDBRANCH  20  21
ENDBRANCH   1  20
TORSDOF 15
ENDMDL
