MODEL 1
REMARK VINA RESULT:     -11.5      0.000      0.000
REMARK SMILES C[C@@H](NC(=O)CNC(=O)N1CC(=O)Nc2ccccc21)C(=O)NCCCCCCNC(=O)c1ccc(-c2c3nc(c(-c4ccccc4)c4ccc([nH]4)c(-c4ccccc4)c4nc(c(-c5ccccc5)c5ccc2[nH]5)C=C4)C=C3)cc1
REMARK SMILES IDX 25 1 24 2 23 3 21 4 22 5 2 7 1 8 3 9 4 10 5 12 6 13 7 14
REMARK SMILES IDX 8 15 9 17 10 18 11 19 20 20 12 21 15 22 19 23 13 24 14 25
REMARK SMILES IDX 16 26 18 27 17 29 26 30 27 31 28 32 29 33 30 34 31 35 32 37
REMARK SMILES IDX 33 38 34 39 80 40 35 41 79 42 36 43 37 44 38 45 73 46 39 47
REMARK SMILES IDX 78 48 72 49 74 50 40 51 77 52 71 53 70 54 41 56 63 57 48 58
REMARK SMILES IDX 62 59 49 60 52 61 61 62 75 63 50 64 51 65 60 67 76 68 53 69
REMARK SMILES IDX 42 70 43 71 47 72 44 73 46 74 45 75 64 76 65 77 69 78 66 79
REMARK SMILES IDX 68 80 67 81 54 82 55 83 59 84 56 85 58 86 57 87
REMARK H PARENT 23 6 3 11 7 16 14 28 30 36 74 55 52 66
REMARK Flexibility Score: inf
ROOT
ATOM      1  C   UNL A   1      33.837  28.635  25.716  1.00  0.00     0.021 C 
ENDROOT
BRANCH   1   2
ATOM      2  C   UNL A   1      33.877  28.623  24.193  1.00  0.00     0.116 C 
BRANCH   2   3
ATOM      3  N   UNL A   1      32.743  29.324  23.625  1.00  0.00    -0.354 N 
ATOM      4  C   UNL A   1      31.698  28.828  22.907  1.00  0.00     0.242 C 
ATOM      5  O   UNL A   1      30.988  29.614  22.277  1.00  0.00    -0.273 OA
ATOM      6  H   UNL A   1      32.725  30.296  23.782  1.00  0.00     0.163 HD
BRANCH   4   7
ATOM      7  C   UNL A   1      31.504  27.322  22.707  1.00  0.00     0.168 C 
ATOM      8  C   UNL A   1      30.001  27.066  22.845  1.00  0.00     0.041 C 
BRANCH   7   9
ATOM      9  N   UNL A   1      32.030  26.782  21.455  1.00  0.00    -0.343 N 
ATOM     10  C   UNL A   1      32.611  25.567  21.223  1.00  0.00     0.240 C 
ATOM     11  H   UNL A   1      31.956  27.375  20.673  1.00  0.00     0.164 HD
ATOM     12  O   UNL A   1      32.958  25.313  20.065  1.00  0.00    -0.273 OA
BRANCH  10  13
ATOM     13  C   UNL A   1      32.958  24.617  22.381  1.00  0.00     0.218 C 
BRANCH  13  14
ATOM     14  N   UNL A   1      32.310  23.311  22.271  1.00  0.00    -0.329 N 
ATOM     15  C   UNL A   1      32.446  22.216  23.085  1.00  0.00     0.322 C 
ATOM     16  H   UNL A   1      31.694  23.203  21.510  1.00  0.00     0.165 HD
ATOM     17  O   UNL A   1      32.120  21.116  22.649  1.00  0.00    -0.248 OA
BRANCH  15  18
ATOM     18  N   UNL A   1      32.989  22.433  24.326  1.00  0.00    -0.283 N 
ATOM     19  C   UNL A   1      32.142  22.386  25.511  1.00  0.00     0.227 C 
ATOM     20  C   UNL A   1      34.379  22.657  24.553  1.00  0.00     0.070 A 
ATOM     21  C   UNL A   1      32.431  23.522  26.472  1.00  0.00     0.244 C 
ATOM     22  C   UNL A   1      34.730  23.449  25.666  1.00  0.00     0.065 A 
ATOM     23  C   UNL A   1      35.383  22.278  23.655  1.00  0.00     0.028 A 
ATOM     24  O   UNL A   1      31.589  23.958  27.254  1.00  0.00    -0.273 OA
ATOM     25  N   UNL A   1      33.741  23.916  26.548  1.00  0.00    -0.323 N 
ATOM     26  C   UNL A   1      36.045  23.881  25.853  1.00  0.00     0.028 A 
ATOM     27  C   UNL A   1      36.704  22.702  23.853  1.00  0.00     0.002 A 
ATOM     28  H   UNL A   1      34.000  24.555  27.251  1.00  0.00     0.170 HD
ATOM     29  C   UNL A   1      37.030  23.512  24.940  1.00  0.00     0.002 A 
ENDBRANCH  15  18
ENDBRANCH  13  14
ENDBRANCH  10  13
ENDBRANCH   7   9
ENDBRANCH   4   7
ENDBRANCH   2   3
ENDBRANCH   1   2
BRANCH   1  30
ATOM     30  C   UNL A   1      32.447  28.357  26.298  1.00  0.00     0.002 C 
BRANCH  30  31
ATOM     31  C   UNL A   1      31.886  29.452  27.213  1.00  0.00     0.002 C 
BRANCH  31  32
ATOM     32  C   UNL A   1      31.947  30.867  26.643  1.00  0.00     0.021 C 
BRANCH  32  33
ATOM     33  C   UNL A   1      33.037  31.737  27.246  1.00  0.00     0.116 C 
BRANCH  33  34
ATOM     34  N   UNL A   1      32.581  33.080  27.566  1.00  0.00    -0.352 N 
ATOM     35  C   UNL A   1      33.185  33.995  28.394  1.00  0.00     0.251 C 
ATOM     36  H   UNL A   1      31.741  33.368  27.141  1.00  0.00     0.163 HD
ATOM     37  O   UNL A   1      32.643  35.057  28.679  1.00  0.00    -0.269 OA
BRANCH  35  38
ATOM     38  C   UNL A   1      34.499  33.648  28.969  1.00  0.00     0.039 A 
ATOM     39  C   UNL A   1      34.549  32.894  30.141  1.00  0.00     0.014 A 
ATOM     40  C   UNL A   1      35.671  33.991  28.287  1.00  0.00     0.014 A 
ATOM     41  C   UNL A   1      35.780  32.428  30.601  1.00  0.00     0.010 A 
ATOM     42  C   UNL A   1      36.882  33.450  28.697  1.00  0.00     0.010 A 
ATOM     43  C   UNL A   1      36.951  32.673  29.863  1.00  0.00    -0.014 A 
BRANCH  43  44
ATOM     44  C   UNL A   1      38.265  32.146  30.304  1.00  0.00     0.031 A 
ATOM     45  C   UNL A   1      38.774  30.849  29.737  1.00  0.00     0.074 A 
ATOM     46  C   UNL A   1      38.967  32.794  31.254  1.00  0.00     0.049 A 
ATOM     47  N   UNL A   1      39.857  30.183  30.044  1.00  0.00    -0.248 NA
ATOM     48  C   UNL A   1      37.939  30.199  28.712  1.00  0.00     0.031 C 
ATOM     49  C   UNL A   1      38.562  34.040  31.912  1.00  0.00     0.029 A 
ATOM     50  N   UNL A   1      40.171  32.488  31.839  1.00  0.00    -0.354 N 
ATOM     51  C   UNL A   1      39.821  29.032  29.267  1.00  0.00     0.074 A 
ATOM     52  C   UNL A   1      38.585  29.060  28.520  1.00  0.00     0.031 C 
ATOM     53  C   UNL A   1      39.516  34.405  32.785  1.00  0.00     0.029 A 
ATOM     54  C   UNL A   1      40.575  33.402  32.782  1.00  0.00     0.049 A 
ATOM     55  H   UNL A   1      40.696  31.689  31.604  1.00  0.00     0.167 HD
ATOM     56  C   UNL A   1      40.747  28.049  29.166  1.00  0.00     0.031 A 
ATOM     57  C   UNL A   1      41.673  33.423  33.562  1.00  0.00     0.031 A 
ATOM     58  C   UNL A   1      41.986  28.033  29.894  1.00  0.00     0.049 A 
ATOM     59  C   UNL A   1      42.679  32.311  33.438  1.00  0.00     0.074 A 
ATOM     60  C   UNL A   1      43.016  27.112  29.818  1.00  0.00     0.029 A 
ATOM     61  N   UNL A   1      42.362  28.984  30.829  1.00  0.00    -0.354 N 
ATOM     62  N   UNL A   1      42.662  31.264  32.649  1.00  0.00    -0.248 NA
ATOM     63  C   UNL A   1      43.863  32.391  34.306  1.00  0.00     0.031 C 
ATOM     64  C   UNL A   1      43.993  27.477  30.749  1.00  0.00     0.029 A 
ATOM     65  C   UNL A   1      43.600  28.659  31.355  1.00  0.00     0.049 A 
ATOM     66  H   UNL A   1      41.828  29.771  31.081  1.00  0.00     0.167 HD
ATOM     67  C   UNL A   1      43.847  30.583  32.899  1.00  0.00     0.074 A 
ATOM     68  C   UNL A   1      44.563  31.341  33.903  1.00  0.00     0.031 C 
ATOM     69  C   UNL A   1      44.302  29.433  32.347  1.00  0.00     0.031 A 
BRANCH  56  70
ATOM     70  C   UNL A   1      40.449  26.909  28.233  1.00  0.00    -0.014 A 
ATOM     71  C   UNL A   1      40.988  26.868  26.936  1.00  0.00     0.009 A 
ATOM     72  C   UNL A   1      39.649  25.841  28.668  1.00  0.00     0.009 A 
ATOM     73  C   UNL A   1      40.703  25.799  26.085  1.00  0.00     0.001 A 
ATOM     74  C   UNL A   1      39.391  24.758  27.827  1.00  0.00     0.001 A 
ATOM     75  C   UNL A   1      39.911  24.742  26.533  1.00  0.00     0.000 A 
ENDBRANCH  56  70
BRANCH  57  76
ATOM     76  C   UNL A   1      41.891  34.537  34.523  1.00  0.00    -0.014 A 
ATOM     77  C   UNL A   1      41.437  34.437  35.848  1.00  0.00     0.009 A 
ATOM     78  C   UNL A   1      42.530  35.719  34.115  1.00  0.00     0.009 A 
ATOM     79  C   UNL A   1      41.586  35.508  36.733  1.00  0.00     0.001 A 
ATOM     80  C   UNL A   1      42.706  36.776  35.011  1.00  0.00     0.001 A 
ATOM     81  C   UNL A   1      42.224  36.675  36.315  1.00  0.00     0.000 A 
ENDBRANCH  57  76
BRANCH  69  82
ATOM     82  C   UNL A   1      45.659  28.950  32.774  1.00  0.00    -0.014 A 
ATOM     83  C   UNL A   1      46.827  29.373  32.122  1.00  0.00     0.009 A 
ATOM     84  C   UNL A   1      45.770  28.096  33.884  1.00  0.00     0.009 A 
ATOM     85  C   UNL A   1      48.076  28.924  32.553  1.00  0.00     0.001 A 
ATOM     86  C   UNL A   1      47.022  27.675  34.332  1.00  0.00     0.001 A 
ATOM     87  C   UNL A   1      48.173  28.082  33.660  1.00  0.00     0.000 A 
ENDBRANCH  69  82
ENDBRANCH  43  44
ENDBRANCH  35  38
ENDBRANCH  33  34
ENDBRANCH  32  33
ENDBRANCH  31  32
ENDBRANCH  30  31
ENDBRANCH   1  30
TORSDOF 17
ENDMDL
MODEL 2
REMARK VINA RESULT:     -11.5      3.097      8.476
REMARK SMILES C[C@@H](NC(=O)CNC(=O)N1CC(=O)Nc2ccccc21)C(=O)NCCCCCCNC(=O)c1ccc(-c2c3nc(c(-c4ccccc4)c4ccc([nH]4)c(-c4ccccc4)c4nc(c(-c5ccccc5)c5ccc2[nH]5)C=C4)C=C3)cc1
REMARK SMILES IDX 25 1 24 2 23 3 21 4 22 5 2 7 1 8 3 9 4 10 5 12 6 13 7 14
REMARK SMILES IDX 8 15 9 17 10 18 11 19 20 20 12 21 15 22 19 23 13 24 14 25
REMARK SMILES IDX 16 26 18 27 17 29 26 30 27 31 28 32 29 33 30 34 31 35 32 37
REMARK SMILES IDX 33 38 34 39 80 40 35 41 79 42 36 43 37 44 38 45 73 46 39 47
REMARK SMILES IDX 78 48 72 49 74 50 40 51 77 52 71 53 70 54 41 56 63 57 48 58
REMARK SMILES IDX 62 59 49 60 52 61 61 62 75 63 50 64 51 65 60 67 76 68 53 69
REMARK SMILES IDX 42 70 43 71 47 72 44 73 46 74 45 75 64 76 65 77 69 78 66 79
REMARK SMILES IDX 68 80 67 81 54 82 55 83 59 84 56 85 58 86 57 87
REMARK H PARENT 23 6 3 11 7 16 14 28 30 36 74 55 52 66
REMARK Flexibility Score: inf
ROOT
ATOM      1  C   UNL A   1      35.247  23.302  25.910  1.00  0.00     0.021 C 
ENDROOT
BRANCH   1   2
ATOM      2  C   UNL A   1      34.964  22.163  26.881  1.00  0.00     0.116 C 
BRANCH   2   3
ATOM      3  N   UNL A   1      34.398  21.015  26.202  1.00  0.00    -0.354 N 
ATOM      4  C   UNL A   1      33.177  20.879  25.616  1.00  0.00     0.242 C 
ATOM      5  O   UNL A   1      32.775  19.747  25.342  1.00  0.00    -0.273 OA
ATOM      6  H   UNL A   1      34.979  20.221  26.158  1.00  0.00     0.163 HD
BRANCH   4   7
ATOM      7  C   UNL A   1      32.220  22.066  25.470  1.00  0.00     0.168 C 
ATOM      8  C   UNL A   1      31.732  22.041  24.019  1.00  0.00     0.041 C 
BRANCH   7   9
ATOM      9  N   UNL A   1      31.105  22.093  26.413  1.00  0.00    -0.343 N 
ATOM     10  C   UNL A   1      30.321  23.150  26.784  1.00  0.00     0.240 C 
ATOM     11  H   UNL A   1      30.890  21.233  26.841  1.00  0.00     0.164 HD
ATOM     12  O   UNL A   1      29.409  22.929  27.585  1.00  0.00    -0.273 OA
BRANCH  10  13
ATOM     13  C   UNL A   1      30.657  24.583  26.339  1.00  0.00     0.218 C 
BRANCH  13  14
ATOM     14  N   UNL A   1      29.761  25.091  25.303  1.00  0.00    -0.329 N 
ATOM     15  C   UNL A   1      29.979  26.103  24.403  1.00  0.00     0.322 C 
ATOM     16  H   UNL A   1      28.884  24.649  25.242  1.00  0.00     0.165 HD
ATOM     17  O   UNL A   1      29.009  26.627  23.862  1.00  0.00    -0.248 OA
BRANCH  15  18
ATOM     18  N   UNL A   1      31.281  26.489  24.210  1.00  0.00    -0.283 N 
ATOM     19  C   UNL A   1      32.025  25.997  23.058  1.00  0.00     0.227 C 
ATOM     20  C   UNL A   1      31.967  27.408  25.057  1.00  0.00     0.070 A 
ATOM     21  C   UNL A   1      33.431  25.565  23.420  1.00  0.00     0.244 C 
ATOM     22  C   UNL A   1      33.365  27.262  25.168  1.00  0.00     0.065 A 
ATOM     23  C   UNL A   1      31.319  28.324  25.894  1.00  0.00     0.028 A 
ATOM     24  O   UNL A   1      34.052  24.723  22.775  1.00  0.00    -0.273 OA
ATOM     25  N   UNL A   1      34.043  26.299  24.402  1.00  0.00    -0.323 N 
ATOM     26  C   UNL A   1      34.090  27.986  26.118  1.00  0.00     0.028 A 
ATOM     27  C   UNL A   1      32.051  29.059  26.838  1.00  0.00     0.002 A 
ATOM     28  H   UNL A   1      34.999  26.144  24.579  1.00  0.00     0.170 HD
ATOM     29  C   UNL A   1      33.429  28.880  26.957  1.00  0.00     0.002 A 
ENDBRANCH  15  18
ENDBRANCH  13  14
ENDBRANCH  10  13
ENDBRANCH   7   9
ENDBRANCH   4   7
ENDBRANCH   2   3
ENDBRANCH   1   2
BRANCH   1  30
ATOM     30  C   UNL A   1      36.705  23.367  25.444  1.00  0.00     0.002 C 
BRANCH  30  31
ATOM     31  C   UNL A   1      37.058  22.458  24.260  1.00  0.00     0.002 C 
BRANCH  31  32
ATOM     32  C   UNL A   1      37.581  21.075  24.639  1.00  0.00     0.021 C 
BRANCH  32  33
ATOM     33  C   UNL A   1      38.637  21.084  25.732  1.00  0.00     0.116 C 
BRANCH  33  34
ATOM     34  N   UNL A   1      39.517  19.928  25.683  1.00  0.00    -0.352 N 
ATOM     35  C   UNL A   1      40.848  19.873  26.017  1.00  0.00     0.251 C 
ATOM     36  H   UNL A   1      39.112  19.085  25.375  1.00  0.00     0.163 HD
ATOM     37  O   UNL A   1      41.517  18.864  25.822  1.00  0.00    -0.269 OA
BRANCH  35  38
ATOM     38  C   UNL A   1      41.472  21.084  26.583  1.00  0.00     0.039 A 
ATOM     39  C   UNL A   1      42.014  22.035  25.720  1.00  0.00     0.014 A 
ATOM     40  C   UNL A   1      41.425  21.312  27.962  1.00  0.00     0.014 A 
ATOM     41  C   UNL A   1      42.460  23.252  26.237  1.00  0.00     0.010 A 
ATOM     42  C   UNL A   1      41.784  22.557  28.461  1.00  0.00     0.010 A 
ATOM     43  C   UNL A   1      42.314  23.535  27.606  1.00  0.00    -0.014 A 
BRANCH  43  44
ATOM     44  C   UNL A   1      42.734  24.840  28.173  1.00  0.00     0.031 A 
ATOM     45  C   UNL A   1      41.706  25.914  28.405  1.00  0.00     0.074 A 
ATOM     46  C   UNL A   1      44.037  25.083  28.416  1.00  0.00     0.049 A 
ATOM     47  N   UNL A   1      41.876  27.143  28.819  1.00  0.00    -0.248 NA
ATOM     48  C   UNL A   1      40.306  25.571  28.101  1.00  0.00     0.031 C 
ATOM     49  C   UNL A   1      45.135  24.138  28.195  1.00  0.00     0.029 A 
ATOM     50  N   UNL A   1      44.660  26.206  28.899  1.00  0.00    -0.354 N 
ATOM     51  C   UNL A   1      40.612  27.721  28.806  1.00  0.00     0.074 A 
ATOM     52  C   UNL A   1      39.696  26.730  28.288  1.00  0.00     0.031 C 
ATOM     53  C   UNL A   1      46.290  24.711  28.570  1.00  0.00     0.029 A 
ATOM     54  C   UNL A   1      46.023  26.074  29.016  1.00  0.00     0.049 A 
ATOM     55  H   UNL A   1      44.176  27.029  29.140  1.00  0.00     0.167 HD
ATOM     56  C   UNL A   1      40.243  28.958  29.212  1.00  0.00     0.031 A 
ATOM     57  C   UNL A   1      46.952  26.957  29.428  1.00  0.00     0.031 A 
ATOM     58  C   UNL A   1      41.151  29.934  29.747  1.00  0.00     0.049 A 
ATOM     59  C   UNL A   1      46.514  28.331  29.861  1.00  0.00     0.074 A 
ATOM     60  C   UNL A   1      40.867  31.196  30.240  1.00  0.00     0.029 A 
ATOM     61  N   UNL A   1      42.521  29.757  29.860  1.00  0.00    -0.354 N 
ATOM     62  N   UNL A   1      45.307  28.838  29.906  1.00  0.00    -0.248 NA
ATOM     63  C   UNL A   1      47.570  29.249  30.312  1.00  0.00     0.031 C 
ATOM     64  C   UNL A   1      42.073  31.803  30.602  1.00  0.00     0.029 A 
ATOM     65  C   UNL A   1      43.099  30.894  30.394  1.00  0.00     0.049 A 
ATOM     66  H   UNL A   1      43.009  28.943  29.599  1.00  0.00     0.167 HD
ATOM     67  C   UNL A   1      45.453  30.119  30.424  1.00  0.00     0.074 A 
ATOM     68  C   UNL A   1      46.864  30.306  30.689  1.00  0.00     0.031 C 
ATOM     69  C   UNL A   1      44.505  31.058  30.660  1.00  0.00     0.031 A 
BRANCH  56  70
ATOM     70  C   UNL A   1      38.790  29.323  29.089  1.00  0.00    -0.014 A 
ATOM     71  C   UNL A   1      38.263  29.827  27.888  1.00  0.00     0.009 A 
ATOM     72  C   UNL A   1      37.926  29.124  30.177  1.00  0.00     0.009 A 
ATOM     73  C   UNL A   1      36.910  30.157  27.792  1.00  0.00     0.001 A 
ATOM     74  C   UNL A   1      36.567  29.426  30.069  1.00  0.00     0.001 A 
ATOM     75  C   UNL A   1      36.063  29.950  28.880  1.00  0.00     0.000 A 
ENDBRANCH  56  70
BRANCH  57  76
ATOM     76  C   UNL A   1      48.389  26.575  29.466  1.00  0.00    -0.014 A 
ATOM     77  C   UNL A   1      48.936  25.966  30.607  1.00  0.00     0.009 A 
ATOM     78  C   UNL A   1      49.229  26.841  28.373  1.00  0.00     0.009 A 
ATOM     79  C   UNL A   1      50.299  25.665  30.666  1.00  0.00     0.001 A 
ATOM     80  C   UNL A   1      50.585  26.510  28.423  1.00  0.00     0.001 A 
ATOM     81  C   UNL A   1      51.122  25.934  29.573  1.00  0.00     0.000 A 
ENDBRANCH  57  76
BRANCH  69  82
ATOM     82  C   UNL A   1      44.951  32.350  31.282  1.00  0.00    -0.014 A 
ATOM     83  C   UNL A   1      45.020  32.509  32.674  1.00  0.00     0.009 A 
ATOM     84  C   UNL A   1      45.358  33.410  30.455  1.00  0.00     0.009 A 
ATOM     85  C   UNL A   1      45.457  33.715  33.225  1.00  0.00     0.001 A 
ATOM     86  C   UNL A   1      45.825  34.602  31.008  1.00  0.00     0.001 A 
ATOM     87  C   UNL A   1      45.865  34.757  32.392  1.00  0.00     0.000 A 
ENDBRANCH  69  82
ENDBRANCH  43  44
ENDBRANCH  35  38
ENDBRANCH  33  34
ENDBRANCH  32  33
ENDBRANCH  31  32
ENDBRANCH  30  31
ENDBRANCH   1  30
TORSDOF 17
ENDMDL
MODEL 3
REMARK VINA RESULT:     -11.3      0.891      5.825
REMARK SMILES C[C@@H](NC(=O)CNC(=O)N1CC(=O)Nc2ccccc21)C(=O)NCCCCCCNC(=O)c1ccc(-c2c3nc(c(-c4ccccc4)c4ccc([nH]4)c(-c4ccccc4)c4nc(c(-c5ccccc5)c5ccc2[nH]5)C=C4)C=C3)cc1
REMARK SMILES IDX 25 1 24 2 23 3 21 4 22 5 2 7 1 8 3 9 4 10 5 12 6 13 7 14
REMARK SMILES IDX 8 15 9 17 10 18 11 19 20 20 12 21 15 22 19 23 13 24 14 25
REMARK SMILES IDX 16 26 18 27 17 29 26 30 27 31 28 32 29 33 30 34 31 35 32 37
REMARK SMILES IDX 33 38 34 39 80 40 35 41 79 42 36 43 37 44 38 45 73 46 39 47
REMARK SMILES IDX 78 48 72 49 74 50 40 51 77 52 71 53 70 54 41 56 63 57 48 58
REMARK SMILES IDX 62 59 49 60 52 61 61 62 75 63 50 64 51 65 60 67 76 68 53 69
REMARK SMILES IDX 42 70 43 71 47 72 44 73 46 74 45 75 64 76 65 77 69 78 66 79
REMARK SMILES IDX 68 80 67 81 54 82 55 83 59 84 56 85 58 86 57 87
REMARK H PARENT 23 6 3 11 7 16 14 28 30 36 74 55 52 66
REMARK Flexibility Score: inf
ROOT
ATOM      1  C   UNL A   1      32.324  27.872  27.071  1.00  0.00     0.021 C 
ENDROOT
BRANCH   1   2
ATOM      2  C   UNL A   1      32.819  27.193  25.800  1.00  0.00     0.116 C 
BRANCH   2   3
ATOM      3  N   UNL A   1      33.497  28.128  24.926  1.00  0.00    -0.354 N 
ATOM      4  C   UNL A   1      33.277  28.388  23.608  1.00  0.00     0.242 C 
ATOM      5  O   UNL A   1      34.135  29.006  22.976  1.00  0.00    -0.273 OA
ATOM      6  H   UNL A   1      34.219  28.651  25.345  1.00  0.00     0.163 HD
BRANCH   4   7
ATOM      7  C   UNL A   1      32.096  27.768  22.854  1.00  0.00     0.168 C 
ATOM      8  C   UNL A   1      31.077  28.894  22.665  1.00  0.00     0.041 C 
BRANCH   7   9
ATOM      9  N   UNL A   1      32.430  27.124  21.586  1.00  0.00    -0.343 N 
ATOM     10  C   UNL A   1      32.755  25.818  21.348  1.00  0.00     0.240 C 
ATOM     11  H   UNL A   1      32.420  27.711  20.796  1.00  0.00     0.164 HD
ATOM     12  O   UNL A   1      32.973  25.489  20.178  1.00  0.00    -0.273 OA
BRANCH  10  13
ATOM     13  C   UNL A   1      32.989  24.833  22.505  1.00  0.00     0.218 C 
BRANCH  13  14
ATOM     14  N   UNL A   1      32.402  23.515  22.270  1.00  0.00    -0.329 N 
ATOM     15  C   UNL A   1      32.562  22.364  22.998  1.00  0.00     0.322 C 
ATOM     16  H   UNL A   1      31.812  23.445  21.485  1.00  0.00     0.165 HD
ATOM     17  O   UNL A   1      32.295  21.291  22.465  1.00  0.00    -0.248 OA
BRANCH  15  18
ATOM     18  N   UNL A   1      33.060  22.500  24.268  1.00  0.00    -0.283 N 
ATOM     19  C   UNL A   1      32.165  22.422  25.416  1.00  0.00     0.227 C 
ATOM     20  C   UNL A   1      34.446  22.668  24.561  1.00  0.00     0.070 A 
ATOM     21  C   UNL A   1      32.449  23.498  26.444  1.00  0.00     0.244 C 
ATOM     22  C   UNL A   1      34.776  23.391  25.726  1.00  0.00     0.065 A 
ATOM     23  C   UNL A   1      35.474  22.301  23.684  1.00  0.00     0.028 A 
ATOM     24  O   UNL A   1      31.590  23.922  27.214  1.00  0.00    -0.273 OA
ATOM     25  N   UNL A   1      33.766  23.845  26.591  1.00  0.00    -0.323 N 
ATOM     26  C   UNL A   1      36.094  23.770  25.986  1.00  0.00     0.028 A 
ATOM     27  C   UNL A   1      36.798  22.671  23.955  1.00  0.00     0.002 A 
ATOM     28  H   UNL A   1      34.016  24.440  27.335  1.00  0.00     0.170 HD
ATOM     29  C   UNL A   1      37.105  23.414  25.094  1.00  0.00     0.002 A 
ENDBRANCH  15  18
ENDBRANCH  13  14
ENDBRANCH  10  13
ENDBRANCH   7   9
ENDBRANCH   4   7
ENDBRANCH   2   3
ENDBRANCH   1   2
BRANCH   1  30
ATOM     30  C   UNL A   1      31.795  29.292  26.845  1.00  0.00     0.002 C 
BRANCH  30  31
ATOM     31  C   UNL A   1      32.734  30.422  27.288  1.00  0.00     0.002 C 
BRANCH  31  32
ATOM     32  C   UNL A   1      32.118  31.819  27.275  1.00  0.00     0.021 C 
BRANCH  32  33
ATOM     33  C   UNL A   1      33.130  32.946  27.151  1.00  0.00     0.116 C 
BRANCH  33  34
ATOM     34  N   UNL A   1      32.670  34.192  27.741  1.00  0.00    -0.352 N 
ATOM     35  C   UNL A   1      33.193  34.847  28.829  1.00  0.00     0.251 C 
ATOM     36  H   UNL A   1      31.892  34.616  27.312  1.00  0.00     0.163 HD
ATOM     37  O   UNL A   1      32.644  35.834  29.307  1.00  0.00    -0.269 OA
BRANCH  35  38
ATOM     38  C   UNL A   1      34.422  34.306  29.440  1.00  0.00     0.039 A 
ATOM     39  C   UNL A   1      34.316  33.486  30.563  1.00  0.00     0.014 A 
ATOM     40  C   UNL A   1      35.661  34.536  28.835  1.00  0.00     0.014 A 
ATOM     41  C   UNL A   1      35.455  32.844  31.049  1.00  0.00     0.010 A 
ATOM     42  C   UNL A   1      36.773  33.825  29.264  1.00  0.00     0.010 A 
ATOM     43  C   UNL A   1      36.684  32.980  30.381  1.00  0.00    -0.014 A 
BRANCH  43  44
ATOM     44  C   UNL A   1      37.899  32.268  30.847  1.00  0.00     0.031 A 
ATOM     45  C   UNL A   1      38.705  32.840  31.982  1.00  0.00     0.074 A 
ATOM     46  C   UNL A   1      38.313  31.153  30.214  1.00  0.00     0.049 A 
ATOM     47  N   UNL A   1      39.834  32.415  32.488  1.00  0.00    -0.248 NA
ATOM     48  C   UNL A   1      38.190  34.069  32.610  1.00  0.00     0.031 C 
ATOM     49  C   UNL A   1      37.641  30.521  29.075  1.00  0.00     0.029 A 
ATOM     50  N   UNL A   1      39.406  30.353  30.438  1.00  0.00    -0.354 N 
ATOM     51  C   UNL A   1      40.170  33.332  33.476  1.00  0.00     0.074 A 
ATOM     52  C   UNL A   1      39.161  34.366  33.459  1.00  0.00     0.031 C 
ATOM     53  C   UNL A   1      38.320  29.418  28.722  1.00  0.00     0.029 A 
ATOM     54  C   UNL A   1      39.495  29.287  29.577  1.00  0.00     0.049 A 
ATOM     55  H   UNL A   1      40.064  30.528  31.149  1.00  0.00     0.167 HD
ATOM     56  C   UNL A   1      41.214  33.305  34.337  1.00  0.00     0.031 A 
ATOM     57  C   UNL A   1      40.425  28.317  29.482  1.00  0.00     0.031 A 
ATOM     58  C   UNL A   1      42.205  32.265  34.367  1.00  0.00     0.049 A 
ATOM     59  C   UNL A   1      41.583  28.319  30.445  1.00  0.00     0.074 A 
ATOM     60  C   UNL A   1      43.269  32.116  35.239  1.00  0.00     0.029 A 
ATOM     61  N   UNL A   1      42.252  31.196  33.486  1.00  0.00    -0.354 N 
ATOM     62  N   UNL A   1      41.849  29.157  31.417  1.00  0.00    -0.248 NA
ATOM     63  C   UNL A   1      42.561  27.231  30.303  1.00  0.00     0.031 C 
ATOM     64  C   UNL A   1      43.993  30.984  34.851  1.00  0.00     0.029 A 
ATOM     65  C   UNL A   1      43.341  30.394  33.779  1.00  0.00     0.049 A 
ATOM     66  H   UNL A   1      41.608  31.033  32.761  1.00  0.00     0.167 HD
ATOM     67  C   UNL A   1      43.004  28.677  32.024  1.00  0.00     0.074 A 
ATOM     68  C   UNL A   1      43.377  27.470  31.319  1.00  0.00     0.031 C 
ATOM     69  C   UNL A   1      43.692  29.190  33.072  1.00  0.00     0.031 A 
BRANCH  56  70
ATOM     70  C   UNL A   1      41.334  34.438  35.317  1.00  0.00    -0.014 A 
ATOM     71  C   UNL A   1      40.650  34.417  36.544  1.00  0.00     0.009 A 
ATOM     72  C   UNL A   1      42.173  35.525  35.028  1.00  0.00     0.009 A 
ATOM     73  C   UNL A   1      40.777  35.477  37.444  1.00  0.00     0.001 A 
ATOM     74  C   UNL A   1      42.323  36.569  35.942  1.00  0.00     0.001 A 
ATOM     75  C   UNL A   1      41.618  36.548  37.145  1.00  0.00     0.000 A 
ENDBRANCH  56  70
BRANCH  57  76
ATOM     76  C   UNL A   1      40.302  27.254  28.449  1.00  0.00    -0.014 A 
ATOM     77  C   UNL A   1      40.909  27.407  27.192  1.00  0.00     0.009 A 
ATOM     78  C   UNL A   1      39.554  26.094  28.703  1.00  0.00     0.009 A 
ATOM     79  C   UNL A   1      40.740  26.437  26.200  1.00  0.00     0.001 A 
ATOM     80  C   UNL A   1      39.414  25.111  27.720  1.00  0.00     0.001 A 
ATOM     81  C   UNL A   1      39.996  25.289  26.466  1.00  0.00     0.000 A 
ENDBRANCH  57  76
BRANCH  69  82
ATOM     82  C   UNL A   1      44.889  28.422  33.556  1.00  0.00    -0.014 A 
ATOM     83  C   UNL A   1      46.179  28.697  33.078  1.00  0.00     0.009 A 
ATOM     84  C   UNL A   1      44.724  27.440  34.547  1.00  0.00     0.009 A 
ATOM     85  C   UNL A   1      47.276  27.981  33.560  1.00  0.00     0.001 A 
ATOM     86  C   UNL A   1      45.827  26.749  35.050  1.00  0.00     0.001 A 
ATOM     87  C   UNL A   1      47.100  27.014  34.549  1.00  0.00     0.000 A 
ENDBRANCH  69  82
ENDBRANCH  43  44
ENDBRANCH  35  38
ENDBRANCH  33  34
ENDBRANCH  32  33
ENDBRANCH  31  32
ENDBRANCH  30  31
ENDBRANCH   1  30
TORSDOF 17
ENDMDL
