MODEL 1
REMARK VINA RESULT:     -10.4      0.000      0.000
REMARK SMILES COc1cc(Br)c([C@@H]2CC[NH2+][C@H]2C(=O)NCCCCCCNC(=O)c2ccc(-c3c4nc(c(-c5ccccc5)c5ccc([nH]5)c(-c5ccccc5)c5nc(c(-c6ccccc6)c6ccc3[nH]6)C=C5)C=C4)cc2)cc1OC
REMARK SMILES IDX 18 1 17 2 16 3 15 4 13 5 14 6 12 8 8 9 9 10 10 11 11 12 7 15
REMARK SMILES IDX 3 16 4 17 74 18 5 19 73 20 6 21 2 22 1 23 75 24 76 25 19 26
REMARK SMILES IDX 20 27 21 28 22 29 23 30 24 32 25 33 26 34 72 35 27 36 71 37
REMARK SMILES IDX 28 38 29 39 30 40 65 41 31 42 70 43 64 44 66 45 32 46 69 47
REMARK SMILES IDX 63 48 62 49 33 51 55 52 40 53 54 54 41 55 44 56 53 57 67 58
REMARK SMILES IDX 42 59 43 60 52 62 68 63 45 64 34 65 35 66 39 67 36 68 38 69
REMARK SMILES IDX 37 70 56 71 57 72 61 73 58 74 60 75 59 76 46 77 47 78 51 79
REMARK SMILES IDX 48 80 50 81 49 82
REMARK H PARENT 15 7 11 13 11 14 22 31 66 50 44 61
REMARK Flexibility Score: inf
ROOT
ATOM      1  C   UNL A   1      34.106  25.516  25.779  1.00  0.00     0.002 C 
ENDROOT
BRANCH   1   2
ATOM      2  C   UNL A   1      35.167  24.532  25.279  1.00  0.00     0.021 C 
BRANCH   2   3
ATOM      3  C   UNL A   1      35.688  23.569  26.341  1.00  0.00     0.116 C 
BRANCH   3   4
ATOM      4  N   UNL A   1      36.154  22.324  25.767  1.00  0.00    -0.351 N 
ATOM      5  C   UNL A   1      35.497  21.182  25.411  1.00  0.00     0.278 C 
ATOM      6  O   UNL A   1      36.197  20.249  25.004  1.00  0.00    -0.268 OA
ATOM      7  H   UNL A   1      37.125  22.296  25.603  1.00  0.00     0.163 HD
BRANCH   5   8
ATOM      8  C   UNL A   1      33.960  21.023  25.520  1.00  0.00     0.280 C 
ATOM      9  C   UNL A   1      33.220  21.373  24.223  1.00  0.00     0.094 C 
ATOM     10  C   UNL A   1      32.484  20.099  23.811  1.00  0.00     0.076 C 
ATOM     11  C   UNL A   1      32.591  19.136  24.983  1.00  0.00     0.262 C 
ATOM     12  N   UNL A   1      33.584  19.647  25.922  1.00  0.00    -0.335 N 
ATOM     13  H   UNL A   1      34.410  19.049  25.905  1.00  0.00     0.346 HD
ATOM     14  H   UNL A   1      33.197  19.656  26.864  1.00  0.00     0.346 HD
BRANCH   9  15
ATOM     15  C   UNL A   1      32.292  22.588  24.254  1.00  0.00    -0.020 A 
ATOM     16  C   UNL A   1      30.578  24.837  24.618  1.00  0.00     0.161 A 
ATOM     17  C   UNL A   1      31.312  24.667  23.440  1.00  0.00     0.066 A 
ATOM     18  C   UNL A   1      30.717  23.905  25.647  1.00  0.00     0.161 A 
ATOM     19  C   UNL A   1      32.150  23.558  23.250  1.00  0.00     0.025 A 
ATOM     20  C   UNL A   1      31.558  22.795  25.446  1.00  0.00     0.055 A 
ATOM     21  Br  UNL A   1      33.052  23.539  21.579  1.00  0.00    -0.050 Br
BRANCH  16  22
ATOM     22  O   UNL A   1      29.803  25.955  24.775  1.00  0.00    -0.493 OA
ATOM     23  C   UNL A   1      30.036  26.946  23.773  1.00  0.00     0.278 C 
ENDBRANCH  16  22
BRANCH  18  24
ATOM     24  O   UNL A   1      30.126  23.904  26.883  1.00  0.00    -0.493 OA
ATOM     25  C   UNL A   1      29.479  22.720  27.325  1.00  0.00     0.278 C 
ENDBRANCH  18  24
ENDBRANCH   9  15
ENDBRANCH   5   8
ENDBRANCH   3   4
ENDBRANCH   2   3
ENDBRANCH   1   2
BRANCH   1  26
ATOM     26  C   UNL A   1      33.913  26.771  24.920  1.00  0.00     0.002 C 
BRANCH  26  27
ATOM     27  C   UNL A   1      33.185  27.937  25.596  1.00  0.00     0.021 C 
BRANCH  27  28
ATOM     28  C   UNL A   1      33.602  28.223  27.038  1.00  0.00     0.116 C 
BRANCH  28  29
ATOM     29  N   UNL A   1      33.471  29.628  27.380  1.00  0.00    -0.352 N 
ATOM     30  C   UNL A   1      34.360  30.476  27.986  1.00  0.00     0.251 C 
ATOM     31  H   UNL A   1      32.609  30.036  27.136  1.00  0.00     0.163 HD
ATOM     32  O   UNL A   1      33.982  31.592  28.341  1.00  0.00    -0.269 OA
BRANCH  30  33
ATOM     33  C   UNL A   1      35.761  30.069  28.236  1.00  0.00     0.039 A 
ATOM     34  C   UNL A   1      36.093  29.589  29.506  1.00  0.00     0.014 A 
ATOM     35  C   UNL A   1      36.757  30.214  27.265  1.00  0.00     0.014 A 
ATOM     36  C   UNL A   1      37.408  29.220  29.791  1.00  0.00     0.010 A 
ATOM     37  C   UNL A   1      38.059  29.789  27.531  1.00  0.00     0.010 A 
ATOM     38  C   UNL A   1      38.401  29.300  28.801  1.00  0.00    -0.014 A 
BRANCH  38  39
ATOM     39  C   UNL A   1      39.788  28.868  29.101  1.00  0.00     0.031 A 
ATOM     40  C   UNL A   1      40.722  29.757  29.873  1.00  0.00     0.074 A 
ATOM     41  C   UNL A   1      40.214  27.666  28.664  1.00  0.00     0.049 A 
ATOM     42  N   UNL A   1      41.942  29.510  30.286  1.00  0.00    -0.248 NA
ATOM     43  C   UNL A   1      40.237  31.103  30.210  1.00  0.00     0.031 C 
ATOM     44  C   UNL A   1      39.425  26.731  27.859  1.00  0.00     0.029 A 
ATOM     45  N   UNL A   1      41.409  27.020  28.850  1.00  0.00    -0.354 N 
ATOM     46  C   UNL A   1      42.367  30.668  30.924  1.00  0.00     0.074 A 
ATOM     47  C   UNL A   1      41.297  31.635  30.801  1.00  0.00     0.031 C 
ATOM     48  C   UNL A   1      40.143  25.616  27.655  1.00  0.00     0.029 A 
ATOM     49  C   UNL A   1      41.445  25.763  28.297  1.00  0.00     0.049 A 
ATOM     50  H   UNL A   1      42.169  27.419  29.332  1.00  0.00     0.167 HD
ATOM     51  C   UNL A   1      43.535  30.903  31.570  1.00  0.00     0.031 A 
ATOM     52  C   UNL A   1      42.410  24.826  28.321  1.00  0.00     0.031 A 
ATOM     53  C   UNL A   1      44.598  29.942  31.701  1.00  0.00     0.049 A 
ATOM     54  C   UNL A   1      43.684  25.099  29.069  1.00  0.00     0.074 A 
ATOM     55  C   UNL A   1      45.797  30.067  32.385  1.00  0.00     0.029 A 
ATOM     56  N   UNL A   1      44.592  28.678  31.135  1.00  0.00    -0.354 N 
ATOM     57  N   UNL A   1      44.037  26.171  29.734  1.00  0.00    -0.248 NA
ATOM     58  C   UNL A   1      44.681  24.019  29.084  1.00  0.00     0.031 C 
ATOM     59  C   UNL A   1      46.532  28.891  32.198  1.00  0.00     0.029 A 
ATOM     60  C   UNL A   1      45.772  28.018  31.437  1.00  0.00     0.049 A 
ATOM     61  H   UNL A   1      43.858  28.303  30.596  1.00  0.00     0.167 HD
ATOM     62  C   UNL A   1      45.289  25.889  30.266  1.00  0.00     0.074 A 
ATOM     63  C   UNL A   1      45.621  24.537  29.862  1.00  0.00     0.031 C 
ATOM     64  C   UNL A   1      46.093  26.678  31.019  1.00  0.00     0.031 A 
BRANCH  51  65
ATOM     65  C   UNL A   1      43.720  32.261  32.187  1.00  0.00    -0.014 A 
ATOM     66  C   UNL A   1      43.343  32.512  33.515  1.00  0.00     0.009 A 
ATOM     67  C   UNL A   1      44.305  33.296  31.440  1.00  0.00     0.009 A 
ATOM     68  C   UNL A   1      43.515  33.780  34.073  1.00  0.00     0.001 A 
ATOM     69  C   UNL A   1      44.500  34.556  32.008  1.00  0.00     0.001 A 
ATOM     70  C   UNL A   1      44.096  34.801  33.321  1.00  0.00     0.000 A 
ENDBRANCH  51  65
BRANCH  52  71
ATOM     71  C   UNL A   1      42.190  23.520  27.652  1.00  0.00    -0.014 A 
ATOM     72  C   UNL A   1      41.558  22.470  28.336  1.00  0.00     0.009 A 
ATOM     73  C   UNL A   1      42.607  23.316  26.329  1.00  0.00     0.009 A 
ATOM     74  C   UNL A   1      41.372  21.233  27.716  1.00  0.00     0.001 A 
ATOM     75  C   UNL A   1      42.397  22.086  25.703  1.00  0.00     0.001 A 
ATOM     76  C   UNL A   1      41.787  21.043  26.399  1.00  0.00     0.000 A 
ENDBRANCH  52  71
BRANCH  64  77
ATOM     77  C   UNL A   1      47.398  26.086  31.467  1.00  0.00    -0.014 A 
ATOM     78  C   UNL A   1      48.521  26.084  30.625  1.00  0.00     0.009 A 
ATOM     79  C   UNL A   1      47.506  25.529  32.750  1.00  0.00     0.009 A 
ATOM     80  C   UNL A   1      49.717  25.498  31.046  1.00  0.00     0.001 A 
ATOM     81  C   UNL A   1      48.710  24.966  33.177  1.00  0.00     0.001 A 
ATOM     82  C   UNL A   1      49.810  24.940  32.320  1.00  0.00     0.000 A 
ENDBRANCH  64  77
ENDBRANCH  38  39
ENDBRANCH  30  33
ENDBRANCH  28  29
ENDBRANCH  27  28
ENDBRANCH  26  27
ENDBRANCH   1  26
TORSDOF 16
ENDMDL
MODEL 2
REMARK VINA RESULT:     -10.1      0.833      6.001
REMARK SMILES COc1cc(Br)c([C@@H]2CC[NH2+][C@H]2C(=O)NCCCCCCNC(=O)c2ccc(-c3c4nc(c(-c5ccccc5)c5ccc([nH]5)c(-c5ccccc5)c5nc(c(-c6ccccc6)c6ccc3[nH]6)C=C5)C=C4)cc2)cc1OC
REMARK SMILES IDX 18 1 17 2 16 3 15 4 13 5 14 6 12 8 8 9 9 10 10 11 11 12 7 15
REMARK SMILES IDX 3 16 4 17 74 18 5 19 73 20 6 21 2 22 1 23 75 24 76 25 19 26
REMARK SMILES IDX 20 27 21 28 22 29 23 30 24 32 25 33 26 34 72 35 27 36 71 37
REMARK SMILES IDX 28 38 29 39 30 40 65 41 31 42 70 43 64 44 66 45 32 46 69 47
REMARK SMILES IDX 63 48 62 49 33 51 55 52 40 53 54 54 41 55 44 56 53 57 67 58
REMARK SMILES IDX 42 59 43 60 52 62 68 63 45 64 34 65 35 66 39 67 36 68 38 69
REMARK SMILES IDX 37 70 56 71 57 72 61 73 58 74 60 75 59 76 46 77 47 78 51 79
REMARK SMILES IDX 48 80 50 81 49 82
REMARK H PARENT 15 7 11 13 11 14 22 31 66 50 44 61
REMARK Flexibility Score: inf
ROOT
ATOM      1  C   UNL A   1      34.025  25.535  25.885  1.00  0.00     0.002 C 
ENDROOT
BRANCH   1   2
ATOM      2  C   UNL A   1      35.224  24.583  25.886  1.00  0.00     0.021 C 
BRANCH   2   3
ATOM      3  C   UNL A   1      35.533  23.952  24.533  1.00  0.00     0.116 C 
BRANCH   3   4
ATOM      4  N   UNL A   1      36.122  22.637  24.665  1.00  0.00    -0.351 N 
ATOM      5  C   UNL A   1      35.598  21.439  25.057  1.00  0.00     0.278 C 
ATOM      6  O   UNL A   1      36.388  20.491  25.135  1.00  0.00    -0.268 OA
ATOM      7  H   UNL A   1      37.078  22.598  24.429  1.00  0.00     0.163 HD
BRANCH   5   8
ATOM      8  C   UNL A   1      34.103  21.247  25.413  1.00  0.00     0.280 C 
ATOM      9  C   UNL A   1      33.161  21.491  24.229  1.00  0.00     0.094 C 
ATOM     10  C   UNL A   1      32.416  20.173  24.015  1.00  0.00     0.076 C 
ATOM     11  C   UNL A   1      32.737  19.293  25.213  1.00  0.00     0.262 C 
ATOM     12  N   UNL A   1      33.843  19.892  25.952  1.00  0.00    -0.335 N 
ATOM     13  H   UNL A   1      34.678  19.315  25.844  1.00  0.00     0.346 HD
ATOM     14  H   UNL A   1      33.605  19.953  26.942  1.00  0.00     0.346 HD
BRANCH   9  15
ATOM     15  C   UNL A   1      32.205  22.680  24.329  1.00  0.00    -0.020 A 
ATOM     16  C   UNL A   1      30.446  24.870  24.821  1.00  0.00     0.161 A 
ATOM     17  C   UNL A   1      31.159  24.766  23.622  1.00  0.00     0.066 A 
ATOM     18  C   UNL A   1      30.629  23.900  25.807  1.00  0.00     0.161 A 
ATOM     19  C   UNL A   1      32.018  23.687  23.369  1.00  0.00     0.025 A 
ATOM     20  C   UNL A   1      31.491  22.820  25.543  1.00  0.00     0.055 A 
ATOM     21  Br  UNL A   1      32.885  23.759  21.681  1.00  0.00    -0.050 Br
BRANCH  16  22
ATOM     22  O   UNL A   1      29.649  25.961  25.040  1.00  0.00    -0.493 OA
ATOM     23  C   UNL A   1      30.352  27.201  24.941  1.00  0.00     0.278 C 
ENDBRANCH  16  22
BRANCH  18  24
ATOM     24  O   UNL A   1      30.065  23.834  27.053  1.00  0.00    -0.493 OA
ATOM     25  C   UNL A   1      29.307  22.683  27.395  1.00  0.00     0.278 C 
ENDBRANCH  18  24
ENDBRANCH   9  15
ENDBRANCH   5   8
ENDBRANCH   3   4
ENDBRANCH   2   3
ENDBRANCH   1   2
BRANCH   1  26
ATOM     26  C   UNL A   1      34.060  26.639  24.821  1.00  0.00     0.002 C 
BRANCH  26  27
ATOM     27  C   UNL A   1      33.977  28.076  25.347  1.00  0.00     0.021 C 
BRANCH  27  28
ATOM     28  C   UNL A   1      33.789  28.211  26.857  1.00  0.00     0.116 C 
BRANCH  28  29
ATOM     29  N   UNL A   1      33.657  29.596  27.273  1.00  0.00    -0.352 N 
ATOM     30  C   UNL A   1      34.522  30.394  27.973  1.00  0.00     0.251 C 
ATOM     31  H   UNL A   1      32.814  30.030  27.009  1.00  0.00     0.163 HD
ATOM     32  O   UNL A   1      34.140  31.494  28.372  1.00  0.00    -0.269 OA
BRANCH  30  33
ATOM     33  C   UNL A   1      35.904  29.953  28.271  1.00  0.00     0.039 A 
ATOM     34  C   UNL A   1      36.863  30.055  27.260  1.00  0.00     0.014 A 
ATOM     35  C   UNL A   1      36.249  29.385  29.502  1.00  0.00     0.014 A 
ATOM     36  C   UNL A   1      38.170  29.624  27.492  1.00  0.00     0.010 A 
ATOM     37  C   UNL A   1      37.569  29.011  29.754  1.00  0.00     0.010 A 
ATOM     38  C   UNL A   1      38.540  29.115  28.747  1.00  0.00    -0.014 A 
BRANCH  38  39
ATOM     39  C   UNL A   1      39.942  28.697  28.997  1.00  0.00     0.031 A 
ATOM     40  C   UNL A   1      40.418  27.325  28.609  1.00  0.00     0.074 A 
ATOM     41  C   UNL A   1      40.791  29.560  29.588  1.00  0.00     0.049 A 
ATOM     42  N   UNL A   1      41.625  26.818  28.687  1.00  0.00    -0.248 NA
ATOM     43  C   UNL A   1      39.410  26.392  28.085  1.00  0.00     0.031 C 
ATOM     44  C   UNL A   1      40.442  30.901  30.061  1.00  0.00     0.029 A 
ATOM     45  N   UNL A   1      42.127  29.441  29.877  1.00  0.00    -0.354 N 
ATOM     46  C   UNL A   1      41.517  25.512  28.229  1.00  0.00     0.074 A 
ATOM     47  C   UNL A   1      40.121  25.286  27.921  1.00  0.00     0.031 C 
ATOM     48  C   UNL A   1      41.544  31.496  30.543  1.00  0.00     0.029 A 
ATOM     49  C   UNL A   1      42.670  30.575  30.431  1.00  0.00     0.049 A 
ATOM     50  H   UNL A   1      42.647  28.623  29.704  1.00  0.00     0.167 HD
ATOM     51  C   UNL A   1      42.494  24.588  28.061  1.00  0.00     0.031 A 
ATOM     52  C   UNL A   1      43.937  30.850  30.790  1.00  0.00     0.031 A 
ATOM     53  C   UNL A   1      43.884  24.811  28.358  1.00  0.00     0.049 A 
ATOM     54  C   UNL A   1      45.007  29.819  30.566  1.00  0.00     0.074 A 
ATOM     55  C   UNL A   1      44.956  23.954  28.169  1.00  0.00     0.029 A 
ATOM     56  N   UNL A   1      44.395  25.974  28.909  1.00  0.00    -0.354 N 
ATOM     57  N   UNL A   1      44.901  28.616  30.058  1.00  0.00    -0.248 NA
ATOM     58  C   UNL A   1      46.375  30.197  30.949  1.00  0.00     0.031 C 
ATOM     59  C   UNL A   1      46.111  24.588  28.643  1.00  0.00     0.029 A 
ATOM     60  C   UNL A   1      45.764  25.854  29.084  1.00  0.00     0.049 A 
ATOM     61  H   UNL A   1      43.864  26.770  29.143  1.00  0.00     0.167 HD
ATOM     62  C   UNL A   1      46.191  28.100  30.038  1.00  0.00     0.074 A 
ATOM     63  C   UNL A   1      47.062  29.130  30.567  1.00  0.00     0.031 C 
ATOM     64  C   UNL A   1      46.615  26.882  29.622  1.00  0.00     0.031 A 
BRANCH  51  65
ATOM     65  C   UNL A   1      42.085  23.243  27.527  1.00  0.00    -0.014 A 
ATOM     66  C   UNL A   1      42.205  22.937  26.163  1.00  0.00     0.009 A 
ATOM     67  C   UNL A   1      41.601  22.259  28.404  1.00  0.00     0.009 A 
ATOM     68  C   UNL A   1      41.814  21.686  25.680  1.00  0.00     0.001 A 
ATOM     69  C   UNL A   1      41.236  21.000  27.923  1.00  0.00     0.001 A 
ATOM     70  C   UNL A   1      41.334  20.717  26.561  1.00  0.00     0.000 A 
ENDBRANCH  51  65
BRANCH  52  71
ATOM     71  C   UNL A   1      44.274  32.179  31.357  1.00  0.00    -0.014 A 
ATOM     72  C   UNL A   1      44.636  33.240  30.513  1.00  0.00     0.009 A 
ATOM     73  C   UNL A   1      44.235  32.395  32.743  1.00  0.00     0.009 A 
ATOM     74  C   UNL A   1      44.976  34.485  31.047  1.00  0.00     0.001 A 
ATOM     75  C   UNL A   1      44.551  33.648  33.272  1.00  0.00     0.001 A 
ATOM     76  C   UNL A   1      44.929  34.689  32.426  1.00  0.00     0.000 A 
ENDBRANCH  52  71
BRANCH  64  77
ATOM     77  C   UNL A   1      48.090  26.613  29.707  1.00  0.00    -0.014 A 
ATOM     78  C   UNL A   1      48.646  25.957  30.818  1.00  0.00     0.009 A 
ATOM     79  C   UNL A   1      48.933  27.014  28.661  1.00  0.00     0.009 A 
ATOM     80  C   UNL A   1      50.023  25.746  30.896  1.00  0.00     0.001 A 
ATOM     81  C   UNL A   1      50.308  26.779  28.730  1.00  0.00     0.001 A 
ATOM     82  C   UNL A   1      50.852  26.157  29.853  1.00  0.00     0.000 A 
ENDBRANCH  64  77
ENDBRANCH  38  39
ENDBRANCH  30  33
ENDBRANCH  28  29
ENDBRANCH  27  28
ENDBRANCH  26  27
ENDBRANCH   1  26
TORSDOF 16
ENDMDL
MODEL 3
REMARK VINA RESULT:      -9.8      1.775      6.929
REMARK SMILES COc1cc(Br)c([C@@H]2CC[NH2+][C@H]2C(=O)NCCCCCCNC(=O)c2ccc(-c3c4nc(c(-c5ccccc5)c5ccc([nH]5)c(-c5ccccc5)c5nc(c(-c6ccccc6)c6ccc3[nH]6)C=C5)C=C4)cc2)cc1OC
REMARK SMILES IDX 18 1 17 2 16 3 15 4 13 5 14 6 12 8 8 9 9 10 10 11 11 12 7 15
REMARK SMILES IDX 3 16 4 17 74 18 5 19 73 20 6 21 2 22 1 23 75 24 76 25 19 26
REMARK SMILES IDX 20 27 21 28 22 29 23 30 24 32 25 33 26 34 72 35 27 36 71 37
REMARK SMILES IDX 28 38 29 39 30 40 65 41 31 42 70 43 64 44 66 45 32 46 69 47
REMARK SMILES IDX 63 48 62 49 33 51 55 52 40 53 54 54 41 55 44 56 53 57 67 58
REMARK SMILES IDX 42 59 43 60 52 62 68 63 45 64 34 65 35 66 39 67 36 68 38 69
REMARK SMILES IDX 37 70 56 71 57 72 61 73 58 74 60 75 59 76 46 77 47 78 51 79
REMARK SMILES IDX 48 80 50 81 49 82
REMARK H PARENT 15 7 11 13 11 14 22 31 66 50 44 61
REMARK Flexibility Score: inf
ROOT
ATOM      1  C   UNL A   1      37.485  23.612  25.676  1.00  0.00     0.002 C 
ENDROOT
BRANCH   1   2
ATOM      2  C   UNL A   1      36.211  23.074  25.021  1.00  0.00     0.021 C 
BRANCH   2   3
ATOM      3  C   UNL A   1      35.291  22.303  25.962  1.00  0.00     0.116 C 
BRANCH   3   4
ATOM      4  N   UNL A   1      35.140  20.919  25.567  1.00  0.00    -0.351 N 
ATOM      5  C   UNL A   1      34.128  20.258  24.933  1.00  0.00     0.278 C 
ATOM      6  O   UNL A   1      34.269  19.038  24.795  1.00  0.00    -0.268 OA
ATOM      7  H   UNL A   1      35.909  20.349  25.798  1.00  0.00     0.163 HD
BRANCH   5   8
ATOM      8  C   UNL A   1      32.849  20.965  24.419  1.00  0.00     0.280 C 
ATOM      9  C   UNL A   1      33.119  22.351  23.822  1.00  0.00     0.094 C 
ATOM     10  C   UNL A   1      32.651  22.272  22.369  1.00  0.00     0.076 C 
ATOM     11  C   UNL A   1      31.893  20.961  22.226  1.00  0.00     0.262 C 
ATOM     12  N   UNL A   1      32.145  20.143  23.407  1.00  0.00    -0.335 N 
ATOM     13  H   UNL A   1      32.724  19.343  23.152  1.00  0.00     0.346 HD
ATOM     14  H   UNL A   1      31.261  19.807  23.789  1.00  0.00     0.346 HD
BRANCH   9  15
ATOM     15  C   UNL A   1      32.525  23.555  24.552  1.00  0.00    -0.020 A 
ATOM     16  C   UNL A   1      31.347  25.608  26.143  1.00  0.00     0.161 A 
ATOM     17  C   UNL A   1      32.304  25.904  25.168  1.00  0.00     0.066 A 
ATOM     18  C   UNL A   1      30.990  24.277  26.363  1.00  0.00     0.161 A 
ATOM     19  C   UNL A   1      32.881  24.901  24.375  1.00  0.00     0.025 A 
ATOM     20  C   UNL A   1      31.572  23.278  25.561  1.00  0.00     0.055 A 
ATOM     21  Br  UNL A   1      34.161  25.535  23.123  1.00  0.00    -0.050 Br
BRANCH  16  22
ATOM     22  O   UNL A   1      30.840  26.614  26.920  1.00  0.00    -0.493 OA
ATOM     23  C   UNL A   1      31.670  27.776  26.947  1.00  0.00     0.278 C 
ENDBRANCH  16  22
BRANCH  18  24
ATOM     24  O   UNL A   1      30.111  23.770  27.284  1.00  0.00    -0.493 OA
ATOM     25  C   UNL A   1      29.597  22.462  27.084  1.00  0.00     0.278 C 
ENDBRANCH  18  24
ENDBRANCH   9  15
ENDBRANCH   5   8
ENDBRANCH   3   4
ENDBRANCH   2   3
ENDBRANCH   1   2
BRANCH   1  26
ATOM     26  C   UNL A   1      38.441  22.549  26.231  1.00  0.00     0.002 C 
BRANCH  26  27
ATOM     27  C   UNL A   1      38.753  21.377  25.295  1.00  0.00     0.021 C 
BRANCH  27  28
ATOM     28  C   UNL A   1      38.750  19.997  25.950  1.00  0.00     0.116 C 
BRANCH  28  29
ATOM     29  N   UNL A   1      39.996  19.285  25.738  1.00  0.00    -0.352 N 
ATOM     30  C   UNL A   1      41.291  19.701  25.901  1.00  0.00     0.251 C 
ATOM     31  H   UNL A   1      39.896  18.355  25.430  1.00  0.00     0.163 HD
ATOM     32  O   UNL A   1      42.210  18.989  25.498  1.00  0.00    -0.269 OA
BRANCH  30  33
ATOM     33  C   UNL A   1      41.604  21.000  26.541  1.00  0.00     0.039 A 
ATOM     34  C   UNL A   1      42.083  22.035  25.733  1.00  0.00     0.014 A 
ATOM     35  C   UNL A   1      41.494  21.189  27.922  1.00  0.00     0.014 A 
ATOM     36  C   UNL A   1      42.416  23.266  26.301  1.00  0.00     0.010 A 
ATOM     37  C   UNL A   1      41.769  22.438  28.481  1.00  0.00     0.010 A 
ATOM     38  C   UNL A   1      42.245  23.485  27.678  1.00  0.00    -0.014 A 
BRANCH  38  39
ATOM     39  C   UNL A   1      42.564  24.809  28.266  1.00  0.00     0.031 A 
ATOM     40  C   UNL A   1      43.973  25.163  28.651  1.00  0.00     0.074 A 
ATOM     41  C   UNL A   1      41.571  25.698  28.464  1.00  0.00     0.049 A 
ATOM     42  N   UNL A   1      44.442  26.298  29.110  1.00  0.00    -0.248 NA
ATOM     43  C   UNL A   1      44.985  24.104  28.526  1.00  0.00     0.031 C 
ATOM     44  C   UNL A   1      40.154  25.460  28.183  1.00  0.00     0.029 A 
ATOM     45  N   UNL A   1      41.606  26.987  28.933  1.00  0.00    -0.354 N 
ATOM     46  C   UNL A   1      45.796  26.086  29.331  1.00  0.00     0.074 A 
ATOM     47  C   UNL A   1      46.066  24.702  29.005  1.00  0.00     0.031 C 
ATOM     48  C   UNL A   1      39.461  26.579  28.447  1.00  0.00     0.029 A 
ATOM     49  C   UNL A   1      40.379  27.604  28.931  1.00  0.00     0.049 A 
ATOM     50  H   UNL A   1      42.432  27.427  29.242  1.00  0.00     0.167 HD
ATOM     51  C   UNL A   1      46.737  26.967  29.750  1.00  0.00     0.031 A 
ATOM     52  C   UNL A   1      40.035  28.862  29.264  1.00  0.00     0.031 A 
ATOM     53  C   UNL A   1      46.475  28.346  30.068  1.00  0.00     0.049 A 
ATOM     54  C   UNL A   1      41.100  29.828  29.697  1.00  0.00     0.074 A 
ATOM     55  C   UNL A   1      47.371  29.331  30.449  1.00  0.00     0.029 A 
ATOM     56  N   UNL A   1      45.221  28.935  30.046  1.00  0.00    -0.354 N 
ATOM     57  N   UNL A   1      42.389  29.633  29.825  1.00  0.00    -0.248 NA
ATOM     58  C   UNL A   1      40.660  31.195  30.011  1.00  0.00     0.031 C 
ATOM     59  C   UNL A   1      46.652  30.507  30.693  1.00  0.00     0.029 A 
ATOM     60  C   UNL A   1      45.316  30.265  30.421  1.00  0.00     0.049 A 
ATOM     61  H   UNL A   1      44.385  28.476  29.799  1.00  0.00     0.167 HD
ATOM     62  C   UNL A   1      42.919  30.857  30.214  1.00  0.00     0.074 A 
ATOM     63  C   UNL A   1      41.813  31.790  30.279  1.00  0.00     0.031 C 
ATOM     64  C   UNL A   1      44.206  31.178  30.494  1.00  0.00     0.031 A 
BRANCH  51  65
ATOM     65  C   UNL A   1      48.145  26.458  29.889  1.00  0.00    -0.014 A 
ATOM     66  C   UNL A   1      48.593  25.883  31.088  1.00  0.00     0.009 A 
ATOM     67  C   UNL A   1      49.026  26.527  28.798  1.00  0.00     0.009 A 
ATOM     68  C   UNL A   1      49.905  25.421  31.206  1.00  0.00     0.001 A 
ATOM     69  C   UNL A   1      50.330  26.041  28.909  1.00  0.00     0.001 A 
ATOM     70  C   UNL A   1      50.772  25.496  30.115  1.00  0.00     0.000 A 
ENDBRANCH  51  65
BRANCH  52  71
ATOM     71  C   UNL A   1      38.620  29.295  29.153  1.00  0.00    -0.014 A 
ATOM     72  C   UNL A   1      38.112  29.756  27.929  1.00  0.00     0.009 A 
ATOM     73  C   UNL A   1      37.770  29.249  30.268  1.00  0.00     0.009 A 
ATOM     74  C   UNL A   1      36.787  30.186  27.830  1.00  0.00     0.001 A 
ATOM     75  C   UNL A   1      36.439  29.656  30.160  1.00  0.00     0.001 A 
ATOM     76  C   UNL A   1      35.950  30.132  28.944  1.00  0.00     0.000 A 
ENDBRANCH  52  71
BRANCH  64  77
ATOM     77  C   UNL A   1      44.480  32.604  30.876  1.00  0.00    -0.014 A 
ATOM     78  C   UNL A   1      44.446  33.015  32.218  1.00  0.00     0.009 A 
ATOM     79  C   UNL A   1      44.783  33.546  29.882  1.00  0.00     0.009 A 
ATOM     80  C   UNL A   1      44.670  34.352  32.552  1.00  0.00     0.001 A 
ATOM     81  C   UNL A   1      45.031  34.877  30.222  1.00  0.00     0.001 A 
ATOM     82  C   UNL A   1      44.962  35.281  31.555  1.00  0.00     0.000 A 
ENDBRANCH  64  77
ENDBRANCH  38  39
ENDBRANCH  30  33
ENDBRANCH  28  29
ENDBRANCH  27  28
ENDBRANCH  26  27
ENDBRANCH   1  26
TORSDOF 16
ENDMDL
