MODEL 1
REMARK VINA RESULT:     -11.4      0.000      0.000
REMARK SMILES Cc1coc2c(C)c3oc(=O)c(CC(=O)NCC(=O)N[C@H](C(=O)NCCCCCCNC(=O)c4ccc(-c5c6nc(c(-c7ccccc7)c7ccc([nH]7)c(-c7ccccc7)c7nc(c(-c8ccccc8)c8ccc5[nH]8)C=C7)C=C6)cc4)C(C)C)c(C)c3cc12
REMARK SMILES IDX 26 1 25 2 24 3 22 4 23 5 21 7 20 8 18 9 19 10 17 12 16 13
REMARK SMILES IDX 14 14 15 15 13 17 12 18 1 19 2 20 3 21 89 22 4 23 5 24 88 25
REMARK SMILES IDX 6 26 87 27 7 28 8 29 85 30 9 31 86 32 10 33 11 34 82 35
REMARK SMILES IDX 83 36 84 37 27 38 28 39 29 40 30 41 31 42 32 43 33 45 34 46
REMARK SMILES IDX 35 47 81 48 36 49 80 50 37 51 38 52 39 53 74 54 40 55 79 56
REMARK SMILES IDX 73 57 75 58 41 59 78 60 72 61 71 62 42 64 64 65 49 66 63 67
REMARK SMILES IDX 50 68 53 69 62 70 76 71 51 72 52 73 61 75 77 76 54 77 43 78
REMARK SMILES IDX 44 79 48 80 45 81 47 82 46 83 65 84 66 85 70 86 67 87 69 88
REMARK SMILES IDX 68 89 55 90 56 91 60 92 57 93 59 94 58 95
REMARK H PARENT 24 6 20 11 16 16 31 44 75 63 53 74
REMARK Flexibility Score: inf
ROOT
ATOM      1  C   UNL A   1      39.754  28.444  29.530  1.00  0.00     0.021 C 
ENDROOT
BRANCH   1   2
ATOM      2  C   UNL A   1      38.668  29.474  28.739  1.00  0.00     0.116 C 
BRANCH   2   3
ATOM      3  N   UNL A   1      36.890  29.188  27.657  1.00  0.00    -0.354 N 
ATOM      4  C   UNL A   1      35.585  29.494  27.220  1.00  0.00     0.242 C 
ATOM      5  O   UNL A   1      35.162  28.635  26.417  1.00  0.00    -0.273 OA
ATOM      6  H   UNL A   1      37.079  28.353  27.171  1.00  0.00     0.163 HD
BRANCH   4   7
ATOM      7  C   UNL A   1      34.655  30.744  27.465  1.00  0.00     0.173 C 
BRANCH   7   8
ATOM      8  N   UNL A   1      33.349  30.185  27.828  1.00  0.00    -0.343 N 
ATOM      9  C   UNL A   1      32.246  29.871  27.098  1.00  0.00     0.240 C 
ATOM     10  O   UNL A   1      31.341  29.291  27.711  1.00  0.00    -0.273 OA
ATOM     11  H   UNL A   1      33.252  29.999  28.790  1.00  0.00     0.164 HD
BRANCH   9  12
ATOM     12  C   UNL A   1      32.125  30.025  25.557  1.00  0.00     0.216 C 
BRANCH  12  13
ATOM     13  N   UNL A   1      30.850  30.363  24.933  1.00  0.00    -0.347 N 
ATOM     14  C   UNL A   1      30.206  30.028  23.784  1.00  0.00     0.225 C 
ATOM     15  O   UNL A   1      29.095  30.545  23.612  1.00  0.00    -0.275 OA
ATOM     16  H   UNL A   1      30.326  30.991  25.481  1.00  0.00     0.164 HD
BRANCH  14  17
ATOM     17  C   UNL A   1      30.740  29.051  22.736  1.00  0.00     0.143 C 
BRANCH  17  18
ATOM     18  C   UNL A   1      31.058  27.708  23.336  1.00  0.00     0.051 A 
ATOM     19  C   UNL A   1      36.696  23.167  25.945  1.00  0.00     0.048 C 
ATOM     20  C   UNL A   1      35.247  23.079  26.254  1.00  0.00    -0.005 A 
ATOM     21  C   UNL A   1      34.590  22.096  27.007  1.00  0.00     0.199 A 
ATOM     22  C   UNL A   1      34.269  23.983  25.786  1.00  0.00     0.024 A 
ATOM     23  O   UNL A   1      33.242  22.252  27.227  1.00  0.00    -0.464 OA
ATOM     24  C   UNL A   1      32.842  23.393  26.606  1.00  0.00     0.140 A 
ATOM     25  C   UNL A   1      34.162  25.432  24.704  1.00  0.00     0.024 A 
ATOM     26  C   UNL A   1      31.237  24.214  26.426  1.00  0.00     0.036 A 
ATOM     27  C   UNL A   1      32.559  26.211  24.392  1.00  0.00     0.022 A 
ATOM     28  C   UNL A   1      29.988  23.463  26.789  1.00  0.00     0.052 C 
ATOM     29  C   UNL A   1      31.119  25.649  25.322  1.00  0.00     0.145 A 
ATOM     30  C   UNL A   1      32.311  27.203  23.364  1.00  0.00    -0.029 A 
ATOM     31  O   UNL A   1      29.882  26.124  24.915  1.00  0.00    -0.422 OA
ATOM     32  C   UNL A   1      33.517  27.629  22.577  1.00  0.00     0.046 C 
ATOM     33  C   UNL A   1      29.827  27.013  23.856  1.00  0.00     0.340 A 
ATOM     34  O   UNL A   1      28.732  27.289  23.369  1.00  0.00    -0.246 OA
ENDBRANCH  17  18
ENDBRANCH  14  17
ENDBRANCH  12  13
ENDBRANCH   9  12
ENDBRANCH   7   8
BRANCH   7  35
ATOM     35  C   UNL A   1      35.243  31.627  28.614  1.00  0.00     0.015 C 
ATOM     36  C   UNL A   1      36.375  32.515  28.091  1.00  0.00     0.010 C 
ATOM     37  C   UNL A   1      34.218  32.552  29.274  1.00  0.00     0.010 C 
ENDBRANCH   7  35
ENDBRANCH   4   7
ENDBRANCH   2   3
ENDBRANCH   1   2
BRANCH   1  38
ATOM     38  C   UNL A   1      39.739  26.974  29.088  1.00  0.00     0.002 C 
BRANCH  38  39
ATOM     39  C   UNL A   1      39.842  26.690  27.582  1.00  0.00     0.002 C 
BRANCH  39  40
ATOM     40  C   UNL A   1      39.369  25.309  27.105  1.00  0.00     0.021 C 
BRANCH  40  41
ATOM     41  C   UNL A   1      39.619  24.237  28.140  1.00  0.00     0.116 C 
BRANCH  41  42
ATOM     42  N   UNL A   1      39.995  22.974  27.500  1.00  0.00    -0.352 N 
ATOM     43  C   UNL A   1      40.998  22.727  26.596  1.00  0.00     0.251 C 
ATOM     44  H   UNL A   1      39.452  22.193  27.753  1.00  0.00     0.163 HD
ATOM     45  O   UNL A   1      41.021  21.708  25.921  1.00  0.00    -0.269 OA
BRANCH  43  46
ATOM     46  C   UNL A   1      42.070  23.720  26.499  1.00  0.00     0.039 A 
ATOM     47  C   UNL A   1      42.219  24.540  25.383  1.00  0.00     0.014 A 
ATOM     48  C   UNL A   1      42.878  23.861  27.625  1.00  0.00     0.014 A 
ATOM     49  C   UNL A   1      43.202  25.520  25.430  1.00  0.00     0.010 A 
ATOM     50  C   UNL A   1      43.634  24.983  27.765  1.00  0.00     0.010 A 
ATOM     51  C   UNL A   1      43.903  25.727  26.634  1.00  0.00    -0.014 A 
BRANCH  51  52
ATOM     52  C   UNL A   1      44.819  26.835  26.817  1.00  0.00     0.031 A 
ATOM     53  C   UNL A   1      46.189  26.480  26.391  1.00  0.00     0.074 A 
ATOM     54  C   UNL A   1      44.415  28.081  27.155  1.00  0.00     0.049 A 
ATOM     55  N   UNL A   1      47.166  26.182  27.175  1.00  0.00    -0.248 NA
ATOM     56  C   UNL A   1      46.449  26.176  24.970  1.00  0.00     0.031 C 
ATOM     57  C   UNL A   1      43.053  28.605  27.339  1.00  0.00     0.029 A 
ATOM     58  N   UNL A   1      45.170  29.191  27.357  1.00  0.00    -0.354 N 
ATOM     59  C   UNL A   1      48.240  25.905  26.347  1.00  0.00     0.074 A 
ATOM     60  C   UNL A   1      47.694  25.699  25.029  1.00  0.00     0.031 C 
ATOM     61  C   UNL A   1      43.082  29.960  27.400  1.00  0.00     0.029 A 
ATOM     62  C   UNL A   1      44.466  30.393  27.436  1.00  0.00     0.049 A 
ATOM     63  H   UNL A   1      46.150  29.151  27.442  1.00  0.00     0.167 HD
ATOM     64  C   UNL A   1      49.505  26.176  26.762  1.00  0.00     0.031 A 
ATOM     65  C   UNL A   1      45.001  31.639  27.553  1.00  0.00     0.031 A 
ATOM     66  C   UNL A   1      49.544  26.419  28.185  1.00  0.00     0.049 A 
ATOM     67  C   UNL A   1      46.372  31.458  28.083  1.00  0.00     0.074 A 
ATOM     68  C   UNL A   1      49.257  25.662  29.303  1.00  0.00     0.029 A 
ATOM     69  N   UNL A   1      49.450  27.734  28.575  1.00  0.00    -0.354 N 
ATOM     70  N   UNL A   1      46.611  30.997  29.277  1.00  0.00    -0.248 NA
ATOM     71  C   UNL A   1      47.445  31.301  27.116  1.00  0.00     0.031 C 
ATOM     72  C   UNL A   1      48.567  26.549  30.184  1.00  0.00     0.029 A 
ATOM     73  C   UNL A   1      48.562  27.826  29.617  1.00  0.00     0.049 A 
ATOM     74  H   UNL A   1      49.939  28.487  28.172  1.00  0.00     0.167 HD
ATOM     75  C   UNL A   1      47.647  30.093  29.097  1.00  0.00     0.074 A 
ATOM     76  C   UNL A   1      48.167  30.375  27.755  1.00  0.00     0.031 C 
ATOM     77  C   UNL A   1      47.778  29.008  29.915  1.00  0.00     0.031 A 
BRANCH  64  78
ATOM     78  C   UNL A   1      50.576  26.671  25.831  1.00  0.00    -0.014 A 
ATOM     79  C   UNL A   1      50.338  27.829  25.075  1.00  0.00     0.009 A 
ATOM     80  C   UNL A   1      51.702  25.900  25.477  1.00  0.00     0.009 A 
ATOM     81  C   UNL A   1      51.169  28.178  24.004  1.00  0.00     0.001 A 
ATOM     82  C   UNL A   1      52.554  26.263  24.434  1.00  0.00     0.001 A 
ATOM     83  C   UNL A   1      52.277  27.396  23.685  1.00  0.00     0.000 A 
ENDBRANCH  64  78
BRANCH  65  84
ATOM     84  C   UNL A   1      44.606  32.917  26.901  1.00  0.00    -0.014 A 
ATOM     85  C   UNL A   1      44.387  32.972  25.510  1.00  0.00     0.009 A 
ATOM     86  C   UNL A   1      44.112  33.981  27.674  1.00  0.00     0.009 A 
ATOM     87  C   UNL A   1      43.656  34.022  24.927  1.00  0.00     0.001 A 
ATOM     88  C   UNL A   1      43.381  35.028  27.092  1.00  0.00     0.001 A 
ATOM     89  C   UNL A   1      43.137  35.039  25.722  1.00  0.00     0.000 A 
ENDBRANCH  65  84
BRANCH  77  90
ATOM     90  C   UNL A   1      46.903  28.943  31.150  1.00  0.00    -0.014 A 
ATOM     91  C   UNL A   1      47.249  29.498  32.397  1.00  0.00     0.009 A 
ATOM     92  C   UNL A   1      45.607  28.432  30.993  1.00  0.00     0.009 A 
ATOM     93  C   UNL A   1      46.325  29.527  33.452  1.00  0.00     0.001 A 
ATOM     94  C   UNL A   1      44.681  28.478  32.038  1.00  0.00     0.001 A 
ATOM     95  C   UNL A   1      45.039  29.022  33.267  1.00  0.00     0.000 A 
ENDBRANCH  77  90
ENDBRANCH  51  52
ENDBRANCH  43  46
ENDBRANCH  41  42
ENDBRANCH  40  41
ENDBRANCH  39  40
ENDBRANCH  38  39
ENDBRANCH   1  38
TORSDOF 19
ENDMDL
MODEL 2
REMARK VINA RESULT:     -11.2      3.013      7.306
REMARK SMILES Cc1coc2c(C)c3oc(=O)c(CC(=O)NCC(=O)N[C@H](C(=O)NCCCCCCNC(=O)c4ccc(-c5c6nc(c(-c7ccccc7)c7ccc([nH]7)c(-c7ccccc7)c7nc(c(-c8ccccc8)c8ccc5[nH]8)C=C7)C=C6)cc4)C(C)C)c(C)c3cc12
REMARK SMILES IDX 26 1 25 2 24 3 22 4 23 5 21 7 20 8 18 9 19 10 17 12 16 13
REMARK SMILES IDX 14 14 15 15 13 17 12 18 1 19 2 20 3 21 89 22 4 23 5 24 88 25
REMARK SMILES IDX 6 26 87 27 7 28 8 29 85 30 9 31 86 32 10 33 11 34 82 35
REMARK SMILES IDX 83 36 84 37 27 38 28 39 29 40 30 41 31 42 32 43 33 45 34 46
REMARK SMILES IDX 35 47 81 48 36 49 80 50 37 51 38 52 39 53 74 54 40 55 79 56
REMARK SMILES IDX 73 57 75 58 41 59 78 60 72 61 71 62 42 64 64 65 49 66 63 67
REMARK SMILES IDX 50 68 53 69 62 70 76 71 51 72 52 73 61 75 77 76 54 77 43 78
REMARK SMILES IDX 44 79 48 80 45 81 47 82 46 83 65 84 66 85 70 86 67 87 69 88
REMARK SMILES IDX 68 89 55 90 56 91 60 92 57 93 59 94 58 95
REMARK H PARENT 24 6 20 11 16 16 31 44 75 63 53 74
REMARK Flexibility Score: inf
ROOT
ATOM      1  C   UNL A   1      36.863  30.679  32.499  1.00  0.00     0.021 C 
ENDROOT
BRANCH   1   2
ATOM      2  C   UNL A   1      36.604  29.576  31.242  1.00  0.00     0.116 C 
BRANCH   2   3
ATOM      3  N   UNL A   1      36.480  29.730  29.150  1.00  0.00    -0.354 N 
ATOM      4  C   UNL A   1      35.889  30.073  27.916  1.00  0.00     0.242 C 
ATOM      5  O   UNL A   1      36.626  29.756  26.957  1.00  0.00    -0.273 OA
ATOM      6  H   UNL A   1      37.333  29.328  28.865  1.00  0.00     0.163 HD
BRANCH   4   7
ATOM      7  C   UNL A   1      34.573  30.864  27.560  1.00  0.00     0.173 C 
BRANCH   7   8
ATOM      8  N   UNL A   1      33.477  29.935  27.850  1.00  0.00    -0.343 N 
ATOM      9  C   UNL A   1      32.264  29.732  27.270  1.00  0.00     0.240 C 
ATOM     10  O   UNL A   1      31.619  28.765  27.695  1.00  0.00    -0.273 OA
ATOM     11  H   UNL A   1      33.654  29.340  28.614  1.00  0.00     0.164 HD
BRANCH   9  12
ATOM     12  C   UNL A   1      31.730  30.499  26.029  1.00  0.00     0.216 C 
BRANCH  12  13
ATOM     13  N   UNL A   1      31.694  29.869  24.714  1.00  0.00    -0.347 N 
ATOM     14  C   UNL A   1      31.429  28.627  24.232  1.00  0.00     0.225 C 
ATOM     15  O   UNL A   1      31.506  28.489  23.005  1.00  0.00    -0.275 OA
ATOM     16  H   UNL A   1      31.922  30.503  23.995  1.00  0.00     0.164 HD
BRANCH  14  17
ATOM     17  C   UNL A   1      31.016  27.428  25.089  1.00  0.00     0.143 C 
BRANCH  17  18
ATOM     18  C   UNL A   1      31.825  26.203  24.762  1.00  0.00     0.051 A 
ATOM     19  C   UNL A   1      38.487  22.557  26.003  1.00  0.00     0.048 C 
ATOM     20  C   UNL A   1      37.212  21.972  25.519  1.00  0.00    -0.005 A 
ATOM     21  C   UNL A   1      36.979  20.656  25.097  1.00  0.00     0.199 A 
ATOM     22  C   UNL A   1      36.006  22.689  25.367  1.00  0.00     0.024 A 
ATOM     23  O   UNL A   1      35.694  20.311  24.753  1.00  0.00    -0.464 OA
ATOM     24  C   UNL A   1      34.907  21.410  24.904  1.00  0.00     0.140 A 
ATOM     25  C   UNL A   1      35.400  24.388  25.543  1.00  0.00     0.024 A 
ATOM     26  C   UNL A   1      33.148  21.729  24.613  1.00  0.00     0.036 A 
ATOM     27  C   UNL A   1      33.680  24.779  25.142  1.00  0.00     0.022 A 
ATOM     28  C   UNL A   1      32.344  20.730  23.831  1.00  0.00     0.052 C 
ATOM     29  C   UNL A   1      32.543  23.432  24.762  1.00  0.00     0.145 A 
ATOM     30  C   UNL A   1      33.152  26.123  25.002  1.00  0.00    -0.029 A 
ATOM     31  O   UNL A   1      31.296  23.782  24.265  1.00  0.00    -0.422 OA
ATOM     32  C   UNL A   1      34.126  27.230  25.287  1.00  0.00     0.046 C 
ATOM     33  C   UNL A   1      30.989  25.124  24.124  1.00  0.00     0.340 A 
ATOM     34  O   UNL A   1      29.970  25.438  23.512  1.00  0.00    -0.246 OA
ENDBRANCH  17  18
ENDBRANCH  14  17
ENDBRANCH  12  13
ENDBRANCH   9  12
ENDBRANCH   7   8
BRANCH   7  35
ATOM     35  C   UNL A   1      34.478  32.158  28.432  1.00  0.00     0.015 C 
ATOM     36  C   UNL A   1      35.826  32.881  28.480  1.00  0.00     0.010 C 
ATOM     37  C   UNL A   1      33.445  33.171  27.933  1.00  0.00     0.010 C 
ENDBRANCH   7  35
ENDBRANCH   4   7
ENDBRANCH   2   3
ENDBRANCH   1   2
BRANCH   1  38
ATOM     38  C   UNL A   1      35.970  31.928  32.500  1.00  0.00     0.002 C 
BRANCH  38  39
ATOM     39  C   UNL A   1      36.654  33.282  32.738  1.00  0.00     0.002 C 
BRANCH  39  40
ATOM     40  C   UNL A   1      38.007  33.256  33.463  1.00  0.00     0.021 C 
BRANCH  40  41
ATOM     41  C   UNL A   1      39.006  34.197  32.831  1.00  0.00     0.116 C 
BRANCH  41  42
ATOM     42  N   UNL A   1      38.544  34.638  31.513  1.00  0.00    -0.352 N 
ATOM     43  C   UNL A   1      39.038  34.322  30.272  1.00  0.00     0.251 C 
ATOM     44  H   UNL A   1      37.770  35.246  31.518  1.00  0.00     0.163 HD
ATOM     45  O   UNL A   1      38.755  34.979  29.280  1.00  0.00    -0.269 OA
BRANCH  43  46
ATOM     46  C   UNL A   1      39.890  33.136  30.174  1.00  0.00     0.039 A 
ATOM     47  C   UNL A   1      41.263  33.191  30.406  1.00  0.00     0.014 A 
ATOM     48  C   UNL A   1      39.237  31.932  29.923  1.00  0.00     0.014 A 
ATOM     49  C   UNL A   1      41.968  31.995  30.391  1.00  0.00     0.010 A 
ATOM     50  C   UNL A   1      39.879  30.761  30.182  1.00  0.00     0.010 A 
ATOM     51  C   UNL A   1      41.256  30.784  30.276  1.00  0.00    -0.014 A 
BRANCH  51  52
ATOM     52  C   UNL A   1      41.896  29.492  30.421  1.00  0.00     0.031 A 
ATOM     53  C   UNL A   1      41.870  29.030  31.825  1.00  0.00     0.074 A 
ATOM     54  C   UNL A   1      42.289  28.739  29.368  1.00  0.00     0.049 A 
ATOM     55  N   UNL A   1      42.862  29.067  32.646  1.00  0.00    -0.248 NA
ATOM     56  C   UNL A   1      40.574  28.738  32.467  1.00  0.00     0.031 C 
ATOM     57  C   UNL A   1      42.119  28.982  27.928  1.00  0.00     0.029 A 
ATOM     58  N   UNL A   1      42.898  27.525  29.375  1.00  0.00    -0.354 N 
ATOM     59  C   UNL A   1      42.380  28.555  33.839  1.00  0.00     0.074 A 
ATOM     60  C   UNL A   1      40.942  28.582  33.740  1.00  0.00     0.031 C 
ATOM     61  C   UNL A   1      42.407  27.855  27.230  1.00  0.00     0.029 A 
ATOM     62  C   UNL A   1      42.947  26.868  28.146  1.00  0.00     0.049 A 
ATOM     63  H   UNL A   1      43.278  27.134  30.194  1.00  0.00     0.167 HD
ATOM     64  C   UNL A   1      43.211  27.872  34.669  1.00  0.00     0.031 A 
ATOM     65  C   UNL A   1      43.428  25.616  27.914  1.00  0.00     0.031 A 
ATOM     66  C   UNL A   1      44.593  28.080  34.308  1.00  0.00     0.049 A 
ATOM     67  C   UNL A   1      44.326  25.297  29.049  1.00  0.00     0.074 A 
ATOM     68  C   UNL A   1      45.424  29.181  34.257  1.00  0.00     0.029 A 
ATOM     69  N   UNL A   1      45.143  27.142  33.466  1.00  0.00    -0.354 N 
ATOM     70  N   UNL A   1      45.442  25.932  29.266  1.00  0.00    -0.248 NA
ATOM     71  C   UNL A   1      43.733  24.644  30.204  1.00  0.00     0.031 C 
ATOM     72  C   UNL A   1      46.175  29.022  33.053  1.00  0.00     0.029 A 
ATOM     73  C   UNL A   1      45.854  27.786  32.485  1.00  0.00     0.049 A 
ATOM     74  H   UNL A   1      45.044  26.166  33.553  1.00  0.00     0.167 HD
ATOM     75  C   UNL A   1      45.451  26.157  30.634  1.00  0.00     0.074 A 
ATOM     76  C   UNL A   1      44.406  25.278  31.169  1.00  0.00     0.031 C 
ATOM     77  C   UNL A   1      46.079  27.249  31.159  1.00  0.00     0.031 A 
BRANCH  64  78
ATOM     78  C   UNL A   1      42.758  26.686  35.473  1.00  0.00    -0.014 A 
ATOM     79  C   UNL A   1      42.724  25.423  34.863  1.00  0.00     0.009 A 
ATOM     80  C   UNL A   1      42.118  26.806  36.724  1.00  0.00     0.009 A 
ATOM     81  C   UNL A   1      42.060  24.347  35.463  1.00  0.00     0.001 A 
ATOM     82  C   UNL A   1      41.486  25.727  37.342  1.00  0.00     0.001 A 
ATOM     83  C   UNL A   1      41.443  24.498  36.702  1.00  0.00     0.000 A 
ENDBRANCH  64  78
BRANCH  65  84
ATOM     84  C   UNL A   1      42.904  24.534  27.039  1.00  0.00    -0.014 A 
ATOM     85  C   UNL A   1      43.334  24.424  25.702  1.00  0.00     0.009 A 
ATOM     86  C   UNL A   1      42.260  23.420  27.603  1.00  0.00     0.009 A 
ATOM     87  C   UNL A   1      43.175  23.229  24.979  1.00  0.00     0.001 A 
ATOM     88  C   UNL A   1      42.102  22.226  26.882  1.00  0.00     0.001 A 
ATOM     89  C   UNL A   1      42.576  22.124  25.577  1.00  0.00     0.000 A 
ENDBRANCH  65  84
BRANCH  77  90
ATOM     90  C   UNL A   1      46.948  28.077  30.234  1.00  0.00    -0.014 A 
ATOM     91  C   UNL A   1      46.450  28.973  29.268  1.00  0.00     0.009 A 
ATOM     92  C   UNL A   1      48.331  28.059  30.464  1.00  0.00     0.009 A 
ATOM     93  C   UNL A   1      47.316  29.812  28.552  1.00  0.00     0.001 A 
ATOM     94  C   UNL A   1      49.191  28.908  29.765  1.00  0.00     0.001 A 
ATOM     95  C   UNL A   1      48.686  29.782  28.807  1.00  0.00     0.000 A 
ENDBRANCH  77  90
ENDBRANCH  51  52
ENDBRANCH  43  46
ENDBRANCH  41  42
ENDBRANCH  40  41
ENDBRANCH  39  40
ENDBRANCH  38  39
ENDBRANCH   1  38
TORSDOF 19
ENDMDL
MODEL 3
REMARK VINA RESULT:     -11.2      4.509      9.114
REMARK SMILES Cc1coc2c(C)c3oc(=O)c(CC(=O)NCC(=O)N[C@H](C(=O)NCCCCCCNC(=O)c4ccc(-c5c6nc(c(-c7ccccc7)c7ccc([nH]7)c(-c7ccccc7)c7nc(c(-c8ccccc8)c8ccc5[nH]8)C=C7)C=C6)cc4)C(C)C)c(C)c3cc12
REMARK SMILES IDX 26 1 25 2 24 3 22 4 23 5 21 7 20 8 18 9 19 10 17 12 16 13
REMARK SMILES IDX 14 14 15 15 13 17 12 18 1 19 2 20 3 21 89 22 4 23 5 24 88 25
REMARK SMILES IDX 6 26 87 27 7 28 8 29 85 30 9 31 86 32 10 33 11 34 82 35
REMARK SMILES IDX 83 36 84 37 27 38 28 39 29 40 30 41 31 42 32 43 33 45 34 46
REMARK SMILES IDX 35 47 81 48 36 49 80 50 37 51 38 52 39 53 74 54 40 55 79 56
REMARK SMILES IDX 73 57 75 58 41 59 78 60 72 61 71 62 42 64 64 65 49 66 63 67
REMARK SMILES IDX 50 68 53 69 62 70 76 71 51 72 52 73 61 75 77 76 54 77 43 78
REMARK SMILES IDX 44 79 48 80 45 81 47 82 46 83 65 84 66 85 70 86 67 87 69 88
REMARK SMILES IDX 68 89 55 90 56 91 60 92 57 93 59 94 58 95
REMARK H PARENT 24 6 20 11 16 16 31 44 75 63 53 74
REMARK Flexibility Score: inf
ROOT
ATOM      1  C   UNL A   1      46.128  28.157  37.440  1.00  0.00     0.021 C 
ENDROOT
BRANCH   1   2
ATOM      2  C   UNL A   1      44.986  28.645  36.291  1.00  0.00     0.116 C 
BRANCH   2   3
ATOM      3  N   UNL A   1      42.887  28.674  36.222  1.00  0.00    -0.354 N 
ATOM      4  C   UNL A   1      41.619  28.939  35.663  1.00  0.00     0.242 C 
ATOM      5  O   UNL A   1      40.701  28.572  36.427  1.00  0.00    -0.273 OA
ATOM      6  H   UNL A   1      42.648  28.259  37.083  1.00  0.00     0.163 HD
BRANCH   4   7
ATOM      7  C   UNL A   1      41.182  29.483  34.249  1.00  0.00     0.173 C 
BRANCH   7   8
ATOM      8  N   UNL A   1      39.977  28.722  33.903  1.00  0.00    -0.343 N 
ATOM      9  C   UNL A   1      39.516  28.211  32.731  1.00  0.00     0.240 C 
ATOM     10  O   UNL A   1      38.504  27.504  32.812  1.00  0.00    -0.273 OA
ATOM     11  H   UNL A   1      39.386  28.546  34.670  1.00  0.00     0.164 HD
BRANCH   9  12
ATOM     12  C   UNL A   1      40.253  28.306  31.366  1.00  0.00     0.216 C 
BRANCH  12  13
ATOM     13  N   UNL A   1      39.940  29.367  30.415  1.00  0.00    -0.347 N 
ATOM     14  C   UNL A   1      38.829  29.798  29.762  1.00  0.00     0.225 C 
ATOM     15  O   UNL A   1      38.979  30.769  29.011  1.00  0.00    -0.275 OA
ATOM     16  H   UNL A   1      40.733  29.904  30.187  1.00  0.00     0.164 HD
BRANCH  14  17
ATOM     17  C   UNL A   1      37.433  29.193  29.923  1.00  0.00     0.143 C 
BRANCH  17  18
ATOM     18  C   UNL A   1      36.370  30.255  29.999  1.00  0.00     0.051 A 
ATOM     19  C   UNL A   1      33.996  36.508  33.803  1.00  0.00     0.048 C 
ATOM     20  C   UNL A   1      33.632  36.095  32.424  1.00  0.00    -0.005 A 
ATOM     21  C   UNL A   1      32.709  36.705  31.563  1.00  0.00     0.199 A 
ATOM     22  C   UNL A   1      34.151  34.962  31.762  1.00  0.00     0.024 A 
ATOM     23  O   UNL A   1      32.581  36.191  30.294  1.00  0.00    -0.464 OA
ATOM     24  C   UNL A   1      33.430  35.135  30.179  1.00  0.00     0.140 A 
ATOM     25  C   UNL A   1      35.260  33.572  32.109  1.00  0.00     0.024 A 
ATOM     26  C   UNL A   1      33.782  33.964  28.842  1.00  0.00     0.036 A 
ATOM     27  C   UNL A   1      35.544  32.306  30.847  1.00  0.00     0.022 A 
ATOM     28  C   UNL A   1      32.851  33.897  27.666  1.00  0.00     0.052 C 
ATOM     29  C   UNL A   1      34.870  32.555  29.193  1.00  0.00     0.145 A 
ATOM     30  C   UNL A   1      36.199  31.035  31.088  1.00  0.00    -0.029 A 
ATOM     31  O   UNL A   1      34.934  31.481  28.319  1.00  0.00    -0.422 OA
ATOM     32  C   UNL A   1      36.719  30.834  32.483  1.00  0.00     0.046 C 
ATOM     33  C   UNL A   1      35.531  30.308  28.748  1.00  0.00     0.340 A 
ATOM     34  O   UNL A   1      35.423  29.299  28.055  1.00  0.00    -0.246 OA
ENDBRANCH  17  18
ENDBRANCH  14  17
ENDBRANCH  12  13
ENDBRANCH   9  12
ENDBRANCH   7   8
BRANCH   7  35
ATOM     35  C   UNL A   1      40.890  31.016  34.336  1.00  0.00     0.015 C 
ATOM     36  C   UNL A   1      42.081  31.762  34.944  1.00  0.00     0.010 C 
ATOM     37  C   UNL A   1      40.595  31.671  32.984  1.00  0.00     0.010 C 
ENDBRANCH   7  35
ENDBRANCH   4   7
ENDBRANCH   2   3
ENDBRANCH   1   2
BRANCH   1  38
ATOM     38  C   UNL A   1      46.435  26.654  37.497  1.00  0.00     0.002 C 
BRANCH  38  39
ATOM     39  C   UNL A   1      45.793  25.847  38.635  1.00  0.00     0.002 C 
BRANCH  39  40
ATOM     40  C   UNL A   1      45.744  24.322  38.459  1.00  0.00     0.021 C 
BRANCH  40  41
ATOM     41  C   UNL A   1      45.173  23.925  37.117  1.00  0.00     0.116 C 
BRANCH  41  42
ATOM     42  N   UNL A   1      43.766  24.319  37.014  1.00  0.00    -0.352 N 
ATOM     43  C   UNL A   1      43.110  24.921  35.970  1.00  0.00     0.251 C 
ATOM     44  H   UNL A   1      43.214  24.124  37.805  1.00  0.00     0.163 HD
ATOM     45  O   UNL A   1      42.022  25.460  36.117  1.00  0.00    -0.269 OA
BRANCH  43  46
ATOM     46  C   UNL A   1      43.748  24.858  34.654  1.00  0.00     0.039 A 
ATOM     47  C   UNL A   1      44.057  23.647  34.039  1.00  0.00     0.014 A 
ATOM     48  C   UNL A   1      43.947  26.078  34.011  1.00  0.00     0.014 A 
ATOM     49  C   UNL A   1      44.565  23.691  32.747  1.00  0.00     0.010 A 
ATOM     50  C   UNL A   1      44.179  26.094  32.671  1.00  0.00     0.010 A 
ATOM     51  C   UNL A   1      44.620  24.929  32.076  1.00  0.00    -0.014 A 
BRANCH  51  52
ATOM     52  C   UNL A   1      44.976  25.037  30.676  1.00  0.00     0.031 A 
ATOM     53  C   UNL A   1      46.153  25.910  30.482  1.00  0.00     0.074 A 
ATOM     54  C   UNL A   1      44.411  24.278  29.709  1.00  0.00     0.049 A 
ATOM     55  N   UNL A   1      46.123  27.127  30.063  1.00  0.00    -0.248 NA
ATOM     56  C   UNL A   1      47.457  25.501  31.038  1.00  0.00     0.031 C 
ATOM     57  C   UNL A   1      43.426  23.193  29.827  1.00  0.00     0.029 A 
ATOM     58  N   UNL A   1      44.654  24.288  28.373  1.00  0.00    -0.354 N 
ATOM     59  C   UNL A   1      47.441  27.553  30.054  1.00  0.00     0.074 A 
ATOM     60  C   UNL A   1      48.176  26.611  30.861  1.00  0.00     0.031 C 
ATOM     61  C   UNL A   1      43.337  22.516  28.654  1.00  0.00     0.029 A 
ATOM     62  C   UNL A   1      44.119  23.219  27.655  1.00  0.00     0.049 A 
ATOM     63  H   UNL A   1      45.176  25.002  27.940  1.00  0.00     0.167 HD
ATOM     64  C   UNL A   1      47.855  28.462  29.134  1.00  0.00     0.031 A 
ATOM     65  C   UNL A   1      44.294  22.965  26.328  1.00  0.00     0.031 A 
ATOM     66  C   UNL A   1      46.730  29.103  28.494  1.00  0.00     0.049 A 
ATOM     67  C   UNL A   1      44.699  24.248  25.707  1.00  0.00     0.074 A 
ATOM     68  C   UNL A   1      45.696  29.905  28.934  1.00  0.00     0.029 A 
ATOM     69  N   UNL A   1      46.307  28.540  27.314  1.00  0.00    -0.354 N 
ATOM     70  N   UNL A   1      43.907  25.279  25.638  1.00  0.00    -0.248 NA
ATOM     71  C   UNL A   1      46.121  24.535  25.639  1.00  0.00     0.031 C 
ATOM     72  C   UNL A   1      44.541  29.434  28.239  1.00  0.00     0.029 A 
ATOM     73  C   UNL A   1      44.937  28.449  27.331  1.00  0.00     0.049 A 
ATOM     74  H   UNL A   1      46.890  28.248  26.576  1.00  0.00     0.167 HD
ATOM     75  C   UNL A   1      44.709  26.355  25.986  1.00  0.00     0.074 A 
ATOM     76  C   UNL A   1      46.082  25.845  25.906  1.00  0.00     0.031 C 
ATOM     77  C   UNL A   1      44.180  27.453  26.601  1.00  0.00     0.031 A 
BRANCH  64  78
ATOM     78  C   UNL A   1      49.220  28.417  28.507  1.00  0.00    -0.014 A 
ATOM     79  C   UNL A   1      50.235  29.233  29.028  1.00  0.00     0.009 A 
ATOM     80  C   UNL A   1      49.474  27.799  27.265  1.00  0.00     0.009 A 
ATOM     81  C   UNL A   1      51.429  29.440  28.327  1.00  0.00     0.001 A 
ATOM     82  C   UNL A   1      50.677  27.974  26.581  1.00  0.00     0.001 A 
ATOM     83  C   UNL A   1      51.651  28.809  27.105  1.00  0.00     0.000 A 
ENDBRANCH  64  78
BRANCH  65  84
ATOM     84  C   UNL A   1      44.525  21.678  25.621  1.00  0.00    -0.014 A 
ATOM     85  C   UNL A   1      45.833  21.259  25.306  1.00  0.00     0.009 A 
ATOM     86  C   UNL A   1      43.507  20.710  25.566  1.00  0.00     0.009 A 
ATOM     87  C   UNL A   1      46.117  19.916  25.003  1.00  0.00     0.001 A 
ATOM     88  C   UNL A   1      43.791  19.369  25.265  1.00  0.00     0.001 A 
ATOM     89  C   UNL A   1      45.098  18.968  25.002  1.00  0.00     0.000 A 
ENDBRANCH  65  84
BRANCH  77  90
ATOM     90  C   UNL A   1      42.670  27.555  26.688  1.00  0.00    -0.014 A 
ATOM     91  C   UNL A   1      41.864  26.726  27.491  1.00  0.00     0.009 A 
ATOM     92  C   UNL A   1      42.062  28.642  26.045  1.00  0.00     0.009 A 
ATOM     93  C   UNL A   1      40.491  26.977  27.631  1.00  0.00     0.001 A 
ATOM     94  C   UNL A   1      40.699  28.903  26.201  1.00  0.00     0.001 A 
ATOM     95  C   UNL A   1      39.913  28.071  26.991  1.00  0.00     0.000 A 
ENDBRANCH  77  90
ENDBRANCH  51  52
ENDBRANCH  43  46
ENDBRANCH  41  42
ENDBRANCH  40  41
ENDBRANCH  39  40
ENDBRANCH  38  39
ENDBRANCH   1  38
TORSDOF 19
ENDMDL
