MODEL 1
REMARK VINA RESULT:      -9.9      0.000      0.000
REMARK SMILES CN(CC(N)=O)C(=O)c1csc(/C=C/C(=O)NCCCCCCNC(=O)c2ccc(-c3c4nc(c(-c5ccccc5)c5ccc([nH]5)c(-c5ccccc5)c5nc(c(-c6ccccc6)c6ccc3[nH]6)C=C5)C=C4)cc2)c1
REMARK SMILES IDX 19 1 18 2 17 3 15 4 16 5 14 7 13 8 12 9 9 10 10 11 75 12
REMARK SMILES IDX 11 13 7 14 8 15 2 16 1 17 3 18 4 19 5 20 6 21 20 24 21 25
REMARK SMILES IDX 22 26 23 27 24 28 25 29 26 31 27 32 28 33 74 34 29 35 73 36
REMARK SMILES IDX 30 37 31 38 32 39 67 40 33 41 72 42 66 43 68 44 34 45 71 46
REMARK SMILES IDX 65 47 64 48 35 50 57 51 42 52 56 53 43 54 46 55 55 56 69 57
REMARK SMILES IDX 44 58 45 59 54 61 70 62 47 63 36 64 37 65 41 66 38 67 40 68
REMARK SMILES IDX 39 69 58 70 59 71 63 72 60 73 62 74 61 75 48 76 49 77 53 78
REMARK SMILES IDX 50 79 52 80 51 81
REMARK H PARENT 17 6 5 22 5 23 24 30 68 49 46 60
REMARK Flexibility Score: inf
ROOT
ATOM      1  C   UNL A   1      40.635  21.171  27.620  1.00  0.00     0.021 C 
ENDROOT
BRANCH   1   2
ATOM      2  C   UNL A   1      39.822  21.710  26.443  1.00  0.00     0.116 C 
BRANCH   2   3
ATOM      3  N   UNL A   1      39.693  23.155  26.523  1.00  0.00    -0.353 N 
ATOM      4  C   UNL A   1      38.598  23.952  26.383  1.00  0.00     0.244 C 
ATOM      5  O   UNL A   1      38.681  25.159  26.588  1.00  0.00    -0.270 OA
ATOM      6  H   UNL A   1      40.532  23.636  26.709  1.00  0.00     0.163 HD
BRANCH   4   7
ATOM      7  C   UNL A   1      37.287  23.354  26.066  1.00  0.00     0.072 C 
ATOM      8  C   UNL A   1      36.798  23.323  24.817  1.00  0.00     0.024 C 
BRANCH   8   9
ATOM      9  C   UNL A   1      35.543  22.733  24.481  1.00  0.00     0.028 A 
ATOM     10  C   UNL A   1      33.760  21.189  24.394  1.00  0.00     0.051 A 
ATOM     11  C   UNL A   1      33.287  22.203  23.587  1.00  0.00     0.079 A 
ATOM     12  C   UNL A   1      35.052  21.513  24.920  1.00  0.00     0.033 A 
ATOM     13  S   UNL A   1      34.409  23.473  23.414  1.00  0.00    -0.144 S 
BRANCH  10  14
ATOM     14  C   UNL A   1      32.992  19.985  24.686  1.00  0.00     0.254 C 
ATOM     15  O   UNL A   1      32.130  20.000  25.559  1.00  0.00    -0.269 OA
BRANCH  14  16
ATOM     16  N   UNL A   1      33.300  18.853  23.937  1.00  0.00    -0.332 N 
ATOM     17  C   UNL A   1      32.506  18.562  22.759  1.00  0.00     0.147 C 
BRANCH  16  18
ATOM     18  C   UNL A   1      34.357  17.901  24.284  1.00  0.00     0.219 C 
BRANCH  18  19
ATOM     19  C   UNL A   1      33.804  16.654  24.980  1.00  0.00     0.237 C 
ATOM     20  N   UNL A   1      33.167  16.878  26.168  1.00  0.00    -0.368 N 
ATOM     21  O   UNL A   1      33.895  15.518  24.528  1.00  0.00    -0.273 OA
ATOM     22  H   UNL A   1      33.098  17.793  26.526  1.00  0.00     0.159 HD
ATOM     23  H   UNL A   1      32.776  16.123  26.667  1.00  0.00     0.159 HD
ENDBRANCH  18  19
ENDBRANCH  16  18
ENDBRANCH  14  16
ENDBRANCH  10  14
ENDBRANCH   8   9
ENDBRANCH   4   7
ENDBRANCH   2   3
ENDBRANCH   1   2
BRANCH   1  24
ATOM     24  C   UNL A   1      42.019  20.637  27.227  1.00  0.00     0.002 C 
BRANCH  24  25
ATOM     25  C   UNL A   1      42.283  19.171  27.595  1.00  0.00     0.002 C 
BRANCH  25  26
ATOM     26  C   UNL A   1      42.841  18.295  26.469  1.00  0.00     0.021 C 
BRANCH  26  27
ATOM     27  C   UNL A   1      43.027  19.002  25.128  1.00  0.00     0.116 C 
BRANCH  27  28
ATOM     28  N   UNL A   1      44.331  18.737  24.541  1.00  0.00    -0.352 N 
ATOM     29  C   UNL A   1      45.353  19.609  24.255  1.00  0.00     0.251 C 
ATOM     30  H   UNL A   1      44.508  17.795  24.317  1.00  0.00     0.163 HD
ATOM     31  O   UNL A   1      46.320  19.234  23.599  1.00  0.00    -0.269 OA
BRANCH  29  32
ATOM     32  C   UNL A   1      45.284  21.012  24.717  1.00  0.00     0.039 A 
ATOM     33  C   UNL A   1      45.595  21.300  26.048  1.00  0.00     0.014 A 
ATOM     34  C   UNL A   1      44.897  22.038  23.848  1.00  0.00     0.014 A 
ATOM     35  C   UNL A   1      45.587  22.625  26.493  1.00  0.00     0.010 A 
ATOM     36  C   UNL A   1      44.930  23.363  24.281  1.00  0.00     0.010 A 
ATOM     37  C   UNL A   1      45.286  23.668  25.604  1.00  0.00    -0.014 A 
BRANCH  37  38
ATOM     38  C   UNL A   1      45.381  25.088  26.026  1.00  0.00     0.031 A 
ATOM     39  C   UNL A   1      46.700  25.805  26.009  1.00  0.00     0.074 A 
ATOM     40  C   UNL A   1      44.285  25.706  26.505  1.00  0.00     0.049 A 
ATOM     41  N   UNL A   1      46.983  27.014  26.424  1.00  0.00    -0.248 NA
ATOM     42  C   UNL A   1      47.853  25.063  25.477  1.00  0.00     0.031 C 
ATOM     43  C   UNL A   1      42.952  25.108  26.614  1.00  0.00     0.029 A 
ATOM     44  N   UNL A   1      44.124  26.971  27.010  1.00  0.00    -0.354 N 
ATOM     45  C   UNL A   1      48.348  27.171  26.222  1.00  0.00     0.074 A 
ATOM     46  C   UNL A   1      48.840  25.927  25.669  1.00  0.00     0.031 C 
ATOM     47  C   UNL A   1      42.110  26.007  27.149  1.00  0.00     0.029 A 
ATOM     48  C   UNL A   1      42.848  27.231  27.447  1.00  0.00     0.049 A 
ATOM     49  H   UNL A   1      44.853  27.631  27.055  1.00  0.00     0.167 HD
ATOM     50  C   UNL A   1      49.120  28.257  26.468  1.00  0.00     0.031 A 
ATOM     51  C   UNL A   1      42.331  28.324  28.035  1.00  0.00     0.031 A 
ATOM     52  C   UNL A   1      48.633  29.503  26.995  1.00  0.00     0.049 A 
ATOM     53  C   UNL A   1      43.209  29.513  28.297  1.00  0.00     0.074 A 
ATOM     54  C   UNL A   1      49.329  30.684  27.196  1.00  0.00     0.029 A 
ATOM     55  N   UNL A   1      47.332  29.729  27.410  1.00  0.00    -0.354 N 
ATOM     56  N   UNL A   1      44.483  29.669  28.033  1.00  0.00    -0.248 NA
ATOM     57  C   UNL A   1      42.575  30.677  28.933  1.00  0.00     0.031 C 
ATOM     58  C   UNL A   1      48.455  31.615  27.768  1.00  0.00     0.029 A 
ATOM     59  C   UNL A   1      47.209  31.022  27.893  1.00  0.00     0.049 A 
ATOM     60  H   UNL A   1      46.602  29.070  27.368  1.00  0.00     0.167 HD
ATOM     61  C   UNL A   1      44.801  30.950  28.460  1.00  0.00     0.074 A 
ATOM     62  C   UNL A   1      43.585  31.535  28.986  1.00  0.00     0.031 C 
ATOM     63  C   UNL A   1      45.996  31.585  28.421  1.00  0.00     0.031 A 
BRANCH  50  64
ATOM     64  C   UNL A   1      50.586  28.144  26.172  1.00  0.00    -0.014 A 
ATOM     65  C   UNL A   1      51.099  28.493  24.914  1.00  0.00     0.009 A 
ATOM     66  C   UNL A   1      51.470  27.732  27.181  1.00  0.00     0.009 A 
ATOM     67  C   UNL A   1      52.470  28.410  24.664  1.00  0.00     0.001 A 
ATOM     68  C   UNL A   1      52.842  27.667  26.934  1.00  0.00     0.001 A 
ATOM     69  C   UNL A   1      53.341  28.001  25.675  1.00  0.00     0.000 A 
ENDBRANCH  50  64
BRANCH  51  70
ATOM     70  C   UNL A   1      40.901  28.345  28.431  1.00  0.00    -0.014 A 
ATOM     71  C   UNL A   1      39.943  28.936  27.596  1.00  0.00     0.009 A 
ATOM     72  C   UNL A   1      40.492  27.778  29.648  1.00  0.00     0.009 A 
ATOM     73  C   UNL A   1      38.602  28.978  27.982  1.00  0.00     0.001 A 
ATOM     74  C   UNL A   1      39.147  27.804  30.021  1.00  0.00     0.001 A 
ATOM     75  C   UNL A   1      38.204  28.410  29.192  1.00  0.00     0.000 A 
ENDBRANCH  51  70
BRANCH  63  76
ATOM     76  C   UNL A   1      46.041  32.986  28.955  1.00  0.00    -0.014 A 
ATOM     77  C   UNL A   1      46.409  33.237  30.284  1.00  0.00     0.009 A 
ATOM     78  C   UNL A   1      45.740  34.066  28.111  1.00  0.00     0.009 A 
ATOM     79  C   UNL A   1      46.453  34.546  30.768  1.00  0.00     0.001 A 
ATOM     80  C   UNL A   1      45.802  35.374  28.591  1.00  0.00     0.001 A 
ATOM     81  C   UNL A   1      46.152  35.612  29.921  1.00  0.00     0.000 A 
ENDBRANCH  63  76
ENDBRANCH  37  38
ENDBRANCH  29  32
ENDBRANCH  27  28
ENDBRANCH  26  27
ENDBRANCH  25  26
ENDBRANCH  24  25
ENDBRANCH   1  24
TORSDOF 18
ENDMDL
MODEL 2
REMARK VINA RESULT:      -9.6      4.614      6.236
REMARK SMILES CN(CC(N)=O)C(=O)c1csc(/C=C/C(=O)NCCCCCCNC(=O)c2ccc(-c3c4nc(c(-c5ccccc5)c5ccc([nH]5)c(-c5ccccc5)c5nc(c(-c6ccccc6)c6ccc3[nH]6)C=C5)C=C4)cc2)c1
REMARK SMILES IDX 19 1 18 2 17 3 15 4 16 5 14 7 13 8 12 9 9 10 10 11 75 12
REMARK SMILES IDX 11 13 7 14 8 15 2 16 1 17 3 18 4 19 5 20 6 21 20 24 21 25
REMARK SMILES IDX 22 26 23 27 24 28 25 29 26 31 27 32 28 33 74 34 29 35 73 36
REMARK SMILES IDX 30 37 31 38 32 39 67 40 33 41 72 42 66 43 68 44 34 45 71 46
REMARK SMILES IDX 65 47 64 48 35 50 57 51 42 52 56 53 43 54 46 55 55 56 69 57
REMARK SMILES IDX 44 58 45 59 54 61 70 62 47 63 36 64 37 65 41 66 38 67 40 68
REMARK SMILES IDX 39 69 58 70 59 71 63 72 60 73 62 74 61 75 48 76 49 77 53 78
REMARK SMILES IDX 50 79 52 80 51 81
REMARK H PARENT 17 6 5 22 5 23 24 30 68 49 46 60
REMARK Flexibility Score: inf
ROOT
ATOM      1  C   UNL A   1      35.098  22.251  24.474  1.00  0.00     0.021 C 
ENDROOT
BRANCH   1   2
ATOM      2  C   UNL A   1      35.342  22.985  25.792  1.00  0.00     0.116 C 
BRANCH   2   3
ATOM      3  N   UNL A   1      34.242  22.765  26.717  1.00  0.00    -0.353 N 
ATOM      4  C   UNL A   1      33.015  23.348  26.781  1.00  0.00     0.244 C 
ATOM      5  O   UNL A   1      32.181  22.947  27.587  1.00  0.00    -0.270 OA
ATOM      6  H   UNL A   1      34.412  22.084  27.408  1.00  0.00     0.163 HD
BRANCH   4   7
ATOM      7  C   UNL A   1      32.652  24.411  25.824  1.00  0.00     0.072 C 
ATOM      8  C   UNL A   1      32.795  25.713  26.113  1.00  0.00     0.024 C 
BRANCH   8   9
ATOM      9  C   UNL A   1      32.471  26.759  25.198  1.00  0.00     0.028 A 
ATOM     10  C   UNL A   1      31.408  28.644  24.256  1.00  0.00     0.051 A 
ATOM     11  C   UNL A   1      32.343  28.343  23.288  1.00  0.00     0.079 A 
ATOM     12  C   UNL A   1      31.503  27.739  25.361  1.00  0.00     0.033 A 
ATOM     13  S   UNL A   1      33.256  26.958  23.676  1.00  0.00    -0.144 S 
BRANCH  10  14
ATOM     14  C   UNL A   1      30.495  29.775  24.150  1.00  0.00     0.254 C 
ATOM     15  O   UNL A   1      30.627  30.746  24.888  1.00  0.00    -0.269 OA
BRANCH  14  16
ATOM     16  N   UNL A   1      29.491  29.678  23.191  1.00  0.00    -0.332 N 
ATOM     17  C   UNL A   1      28.752  28.433  23.084  1.00  0.00     0.147 C 
BRANCH  16  18
ATOM     18  C   UNL A   1      29.153  30.741  22.244  1.00  0.00     0.219 C 
BRANCH  18  19
ATOM     19  C   UNL A   1      28.427  31.908  22.921  1.00  0.00     0.237 C 
ATOM     20  N   UNL A   1      29.169  33.044  23.086  1.00  0.00    -0.368 N 
ATOM     21  O   UNL A   1      27.258  31.868  23.289  1.00  0.00    -0.273 OA
ATOM     22  H   UNL A   1      30.107  33.068  22.789  1.00  0.00     0.159 HD
ATOM     23  H   UNL A   1      28.763  33.838  23.505  1.00  0.00     0.159 HD
ENDBRANCH  18  19
ENDBRANCH  16  18
ENDBRANCH  14  16
ENDBRANCH  10  14
ENDBRANCH   8   9
ENDBRANCH   4   7
ENDBRANCH   2   3
ENDBRANCH   1   2
BRANCH   1  24
ATOM     24  C   UNL A   1      34.826  20.749  24.640  1.00  0.00     0.002 C 
BRANCH  24  25
ATOM     25  C   UNL A   1      36.018  19.920  25.137  1.00  0.00     0.002 C 
BRANCH  25  26
ATOM     26  C   UNL A   1      37.380  20.295  24.543  1.00  0.00     0.021 C 
BRANCH  26  27
ATOM     27  C   UNL A   1      38.457  20.656  25.564  1.00  0.00     0.116 C 
BRANCH  27  28
ATOM     28  N   UNL A   1      39.501  19.647  25.643  1.00  0.00    -0.352 N 
ATOM     29  C   UNL A   1      40.820  19.782  26.002  1.00  0.00     0.251 C 
ATOM     30  H   UNL A   1      39.222  18.733  25.405  1.00  0.00     0.163 HD
ATOM     31  O   UNL A   1      41.602  18.849  25.845  1.00  0.00    -0.269 OA
BRANCH  29  32
ATOM     32  C   UNL A   1      41.312  21.060  26.559  1.00  0.00     0.039 A 
ATOM     33  C   UNL A   1      41.919  21.980  25.701  1.00  0.00     0.014 A 
ATOM     34  C   UNL A   1      41.192  21.345  27.923  1.00  0.00     0.014 A 
ATOM     35  C   UNL A   1      42.344  23.217  26.195  1.00  0.00     0.010 A 
ATOM     36  C   UNL A   1      41.578  22.594  28.408  1.00  0.00     0.010 A 
ATOM     37  C   UNL A   1      42.146  23.544  27.545  1.00  0.00    -0.014 A 
BRANCH  37  38
ATOM     38  C   UNL A   1      42.487  24.892  28.066  1.00  0.00     0.031 A 
ATOM     39  C   UNL A   1      43.881  25.205  28.527  1.00  0.00     0.074 A 
ATOM     40  C   UNL A   1      41.512  25.812  28.198  1.00  0.00     0.049 A 
ATOM     41  N   UNL A   1      44.335  26.297  29.088  1.00  0.00    -0.248 NA
ATOM     42  C   UNL A   1      44.890  24.149  28.355  1.00  0.00     0.031 C 
ATOM     43  C   UNL A   1      40.108  25.621  27.827  1.00  0.00     0.029 A 
ATOM     44  N   UNL A   1      41.552  27.087  28.703  1.00  0.00    -0.354 N 
ATOM     45  C   UNL A   1      45.677  26.053  29.354  1.00  0.00     0.074 A 
ATOM     46  C   UNL A   1      45.957  24.703  28.914  1.00  0.00     0.031 C 
ATOM     47  C   UNL A   1      39.423  26.739  28.114  1.00  0.00     0.029 A 
ATOM     48  C   UNL A   1      40.330  27.712  28.714  1.00  0.00     0.049 A 
ATOM     49  H   UNL A   1      42.379  27.514  29.026  1.00  0.00     0.167 HD
ATOM     50  C   UNL A   1      46.594  26.882  29.908  1.00  0.00     0.031 A 
ATOM     51  C   UNL A   1      39.973  28.927  29.170  1.00  0.00     0.031 A 
ATOM     52  C   UNL A   1      46.327  28.232  30.325  1.00  0.00     0.049 A 
ATOM     53  C   UNL A   1      41.010  29.825  29.780  1.00  0.00     0.074 A 
ATOM     54  C   UNL A   1      47.217  29.172  30.819  1.00  0.00     0.029 A 
ATOM     55  N   UNL A   1      45.080  28.832  30.306  1.00  0.00    -0.354 N 
ATOM     56  N   UNL A   1      42.288  29.604  29.957  1.00  0.00    -0.248 NA
ATOM     57  C   UNL A   1      40.552  31.142  30.247  1.00  0.00     0.031 C 
ATOM     58  C   UNL A   1      46.499  30.332  31.131  1.00  0.00     0.029 A 
ATOM     59  C   UNL A   1      45.169  30.122  30.804  1.00  0.00     0.049 A 
ATOM     60  H   UNL A   1      44.252  28.407  29.985  1.00  0.00     0.167 HD
ATOM     61  C   UNL A   1      42.791  30.756  30.546  1.00  0.00     0.074 A 
ATOM     62  C   UNL A   1      41.683  31.680  30.682  1.00  0.00     0.031 C 
ATOM     63  C   UNL A   1      44.058  31.024  30.941  1.00  0.00     0.031 A 
BRANCH  50  64
ATOM     64  C   UNL A   1      47.982  26.347  30.102  1.00  0.00    -0.014 A 
ATOM     65  C   UNL A   1      48.371  25.771  31.321  1.00  0.00     0.009 A 
ATOM     66  C   UNL A   1      48.894  26.373  29.036  1.00  0.00     0.009 A 
ATOM     67  C   UNL A   1      49.657  25.251  31.475  1.00  0.00     0.001 A 
ATOM     68  C   UNL A   1      50.173  25.837  29.187  1.00  0.00     0.001 A 
ATOM     69  C   UNL A   1      50.555  25.280  30.408  1.00  0.00     0.000 A 
ENDBRANCH  50  64
BRANCH  51  70
ATOM     70  C   UNL A   1      38.560  29.366  29.077  1.00  0.00    -0.014 A 
ATOM     71  C   UNL A   1      38.071  29.938  27.893  1.00  0.00     0.009 A 
ATOM     72  C   UNL A   1      37.696  29.220  30.173  1.00  0.00     0.009 A 
ATOM     73  C   UNL A   1      36.747  30.375  27.817  1.00  0.00     0.001 A 
ATOM     74  C   UNL A   1      36.367  29.639  30.085  1.00  0.00     0.001 A 
ATOM     75  C   UNL A   1      35.896  30.223  28.910  1.00  0.00     0.000 A 
ENDBRANCH  51  70
BRANCH  63  76
ATOM     76  C   UNL A   1      44.312  32.371  31.549  1.00  0.00    -0.014 A 
ATOM     77  C   UNL A   1      44.331  32.539  32.941  1.00  0.00     0.009 A 
ATOM     78  C   UNL A   1      44.562  33.475  30.720  1.00  0.00     0.009 A 
ATOM     79  C   UNL A   1      44.574  33.798  33.494  1.00  0.00     0.001 A 
ATOM     80  C   UNL A   1      44.824  34.728  31.277  1.00  0.00     0.001 A 
ATOM     81  C   UNL A   1      44.822  34.889  32.662  1.00  0.00     0.000 A 
ENDBRANCH  63  76
ENDBRANCH  37  38
ENDBRANCH  29  32
ENDBRANCH  27  28
ENDBRANCH  26  27
ENDBRANCH  25  26
ENDBRANCH  24  25
ENDBRANCH   1  24
TORSDOF 18
ENDMDL
MODEL 3
REMARK VINA RESULT:      -9.5      2.889      7.088
REMARK SMILES CN(CC(N)=O)C(=O)c1csc(/C=C/C(=O)NCCCCCCNC(=O)c2ccc(-c3c4nc(c(-c5ccccc5)c5ccc([nH]5)c(-c5ccccc5)c5nc(c(-c6ccccc6)c6ccc3[nH]6)C=C5)C=C4)cc2)c1
REMARK SMILES IDX 19 1 18 2 17 3 15 4 16 5 14 7 13 8 12 9 9 10 10 11 75 12
REMARK SMILES IDX 11 13 7 14 8 15 2 16 1 17 3 18 4 19 5 20 6 21 20 24 21 25
REMARK SMILES IDX 22 26 23 27 24 28 25 29 26 31 27 32 28 33 74 34 29 35 73 36
REMARK SMILES IDX 30 37 31 38 32 39 67 40 33 41 72 42 66 43 68 44 34 45 71 46
REMARK SMILES IDX 65 47 64 48 35 50 57 51 42 52 56 53 43 54 46 55 55 56 69 57
REMARK SMILES IDX 44 58 45 59 54 61 70 62 47 63 36 64 37 65 41 66 38 67 40 68
REMARK SMILES IDX 39 69 58 70 59 71 63 72 60 73 62 74 61 75 48 76 49 77 53 78
REMARK SMILES IDX 50 79 52 80 51 81
REMARK H PARENT 17 6 5 22 5 23 24 30 68 49 46 60
REMARK Flexibility Score: inf
ROOT
ATOM      1  C   UNL A   1      40.001  23.505  27.575  1.00  0.00     0.021 C 
ENDROOT
BRANCH   1   2
ATOM      2  C   UNL A   1      39.034  23.606  26.395  1.00  0.00     0.116 C 
BRANCH   2   3
ATOM      3  N   UNL A   1      38.280  22.373  26.239  1.00  0.00    -0.353 N 
ATOM      4  C   UNL A   1      37.103  22.135  25.599  1.00  0.00     0.244 C 
ATOM      5  O   UNL A   1      36.676  20.989  25.496  1.00  0.00    -0.270 OA
ATOM      6  H   UNL A   1      38.686  21.583  26.664  1.00  0.00     0.163 HD
BRANCH   4   7
ATOM      7  C   UNL A   1      36.377  23.245  24.953  1.00  0.00     0.072 C 
ATOM      8  C   UNL A   1      35.038  23.283  24.890  1.00  0.00     0.024 C 
BRANCH   8   9
ATOM      9  C   UNL A   1      34.311  24.355  24.289  1.00  0.00     0.028 A 
ATOM     10  C   UNL A   1      33.338  26.480  23.970  1.00  0.00     0.051 A 
ATOM     11  C   UNL A   1      32.964  25.829  22.813  1.00  0.00     0.079 A 
ATOM     12  C   UNL A   1      34.130  25.629  24.805  1.00  0.00     0.033 A 
ATOM     13  S   UNL A   1      33.496  24.211  22.778  1.00  0.00    -0.144 S 
BRANCH  10  14
ATOM     14  C   UNL A   1      32.991  27.870  24.244  1.00  0.00     0.254 C 
ATOM     15  O   UNL A   1      33.852  28.742  24.193  1.00  0.00    -0.269 OA
BRANCH  14  16
ATOM     16  N   UNL A   1      31.662  28.128  24.566  1.00  0.00    -0.332 N 
ATOM     17  C   UNL A   1      30.999  27.264  25.525  1.00  0.00     0.147 C 
BRANCH  16  18
ATOM     18  C   UNL A   1      30.864  29.198  23.966  1.00  0.00     0.219 C 
BRANCH  18  19
ATOM     19  C   UNL A   1      30.623  28.971  22.471  1.00  0.00     0.237 C 
ATOM     20  N   UNL A   1      30.877  30.045  21.665  1.00  0.00    -0.368 N 
ATOM     21  O   UNL A   1      30.244  27.908  21.991  1.00  0.00    -0.273 OA
ATOM     22  H   UNL A   1      31.181  30.895  22.057  1.00  0.00     0.159 HD
ATOM     23  H   UNL A   1      30.755  29.967  20.690  1.00  0.00     0.159 HD
ENDBRANCH  18  19
ENDBRANCH  16  18
ENDBRANCH  14  16
ENDBRANCH  10  14
ENDBRANCH   8   9
ENDBRANCH   4   7
ENDBRANCH   2   3
ENDBRANCH   1   2
BRANCH   1  24
ATOM     24  C   UNL A   1      40.688  22.138  27.701  1.00  0.00     0.002 C 
BRANCH  24  25
ATOM     25  C   UNL A   1      41.720  21.823  26.610  1.00  0.00     0.002 C 
BRANCH  25  26
ATOM     26  C   UNL A   1      41.607  20.434  25.972  1.00  0.00     0.021 C 
BRANCH  26  27
ATOM     27  C   UNL A   1      42.789  19.501  26.232  1.00  0.00     0.116 C 
BRANCH  27  28
ATOM     28  N   UNL A   1      43.520  19.186  25.015  1.00  0.00    -0.352 N 
ATOM     29  C   UNL A   1      44.338  19.987  24.256  1.00  0.00     0.251 C 
ATOM     30  H   UNL A   1      43.412  18.264  24.687  1.00  0.00     0.163 HD
ATOM     31  O   UNL A   1      44.736  19.602  23.161  1.00  0.00    -0.269 OA
BRANCH  29  32
ATOM     32  C   UNL A   1      44.727  21.327  24.745  1.00  0.00     0.039 A 
ATOM     33  C   UNL A   1      44.445  22.442  23.951  1.00  0.00     0.014 A 
ATOM     34  C   UNL A   1      45.383  21.485  25.970  1.00  0.00     0.014 A 
ATOM     35  C   UNL A   1      44.756  23.723  24.416  1.00  0.00     0.010 A 
ATOM     36  C   UNL A   1      45.655  22.765  26.452  1.00  0.00     0.010 A 
ATOM     37  C   UNL A   1      45.333  23.894  25.683  1.00  0.00    -0.014 A 
BRANCH  37  38
ATOM     38  C   UNL A   1      45.569  25.249  26.242  1.00  0.00     0.031 A 
ATOM     39  C   UNL A   1      44.433  26.052  26.808  1.00  0.00     0.074 A 
ATOM     40  C   UNL A   1      46.800  25.789  26.162  1.00  0.00     0.049 A 
ATOM     41  N   UNL A   1      44.440  27.282  27.257  1.00  0.00    -0.248 NA
ATOM     42  C   UNL A   1      43.117  25.398  26.857  1.00  0.00     0.031 C 
ATOM     43  C   UNL A   1      47.981  25.131  25.597  1.00  0.00     0.029 A 
ATOM     44  N   UNL A   1      47.258  27.026  26.539  1.00  0.00    -0.354 N 
ATOM     45  C   UNL A   1      43.129  27.555  27.624  1.00  0.00     0.074 A 
ATOM     46  C   UNL A   1      42.349  26.373  27.324  1.00  0.00     0.031 C 
ATOM     47  C   UNL A   1      49.026  25.970  25.668  1.00  0.00     0.029 A 
ATOM     48  C   UNL A   1      48.585  27.231  26.256  1.00  0.00     0.049 A 
ATOM     49  H   UNL A   1      46.688  27.702  26.973  1.00  0.00     0.167 HD
ATOM     50  C   UNL A   1      42.621  28.687  28.169  1.00  0.00     0.031 A 
ATOM     51  C   UNL A   1      49.360  28.317  26.432  1.00  0.00     0.031 A 
ATOM     52  C   UNL A   1      43.394  29.856  28.491  1.00  0.00     0.049 A 
ATOM     53  C   UNL A   1      48.771  29.558  27.037  1.00  0.00     0.074 A 
ATOM     54  C   UNL A   1      42.978  31.017  29.122  1.00  0.00     0.029 A 
ATOM     55  N   UNL A   1      44.738  30.018  28.201  1.00  0.00    -0.354 N 
ATOM     56  N   UNL A   1      47.545  29.774  27.444  1.00  0.00    -0.248 NA
ATOM     57  C   UNL A   1      49.677  30.703  27.211  1.00  0.00     0.031 C 
ATOM     58  C   UNL A   1      44.065  31.896  29.182  1.00  0.00     0.029 A 
ATOM     59  C   UNL A   1      45.163  31.270  28.615  1.00  0.00     0.049 A 
ATOM     60  H   UNL A   1      45.308  29.343  27.765  1.00  0.00     0.167 HD
ATOM     61  C   UNL A   1      47.534  31.073  27.932  1.00  0.00     0.074 A 
ATOM     62  C   UNL A   1      48.878  31.592  27.785  1.00  0.00     0.031 C 
ATOM     63  C   UNL A   1      46.499  31.774  28.453  1.00  0.00     0.031 A 
BRANCH  50  64
ATOM     64  C   UNL A   1      41.148  28.719  28.449  1.00  0.00    -0.014 A 
ATOM     65  C   UNL A   1      40.236  29.154  27.474  1.00  0.00     0.009 A 
ATOM     66  C   UNL A   1      40.663  28.261  29.682  1.00  0.00     0.009 A 
ATOM     67  C   UNL A   1      38.866  29.150  27.740  1.00  0.00     0.001 A 
ATOM     68  C   UNL A   1      39.292  28.241  29.939  1.00  0.00     0.001 A 
ATOM     69  C   UNL A   1      38.394  28.690  28.970  1.00  0.00     0.000 A 
ENDBRANCH  50  64
BRANCH  51  70
ATOM     70  C   UNL A   1      50.784  28.285  26.020  1.00  0.00    -0.014 A 
ATOM     71  C   UNL A   1      51.151  28.629  24.711  1.00  0.00     0.009 A 
ATOM     72  C   UNL A   1      51.780  27.905  26.932  1.00  0.00     0.009 A 
ATOM     73  C   UNL A   1      52.490  28.573  24.317  1.00  0.00     0.001 A 
ATOM     74  C   UNL A   1      53.120  27.871  26.541  1.00  0.00     0.001 A 
ATOM     75  C   UNL A   1      53.472  28.198  25.232  1.00  0.00     0.000 A 
ENDBRANCH  51  70
BRANCH  63  76
ATOM     76  C   UNL A   1      46.787  33.174  28.909  1.00  0.00    -0.014 A 
ATOM     77  C   UNL A   1      46.615  34.262  28.042  1.00  0.00     0.009 A 
ATOM     78  C   UNL A   1      47.206  33.407  30.228  1.00  0.00     0.009 A 
ATOM     79  C   UNL A   1      46.880  35.560  28.480  1.00  0.00     0.001 A 
ATOM     80  C   UNL A   1      47.452  34.708  30.669  1.00  0.00     0.001 A 
ATOM     81  C   UNL A   1      47.296  35.782  29.793  1.00  0.00     0.000 A 
ENDBRANCH  63  76
ENDBRANCH  37  38
ENDBRANCH  29  32
ENDBRANCH  27  28
ENDBRANCH  26  27
ENDBRANCH  25  26
ENDBRANCH  24  25
ENDBRANCH   1  24
TORSDOF 18
ENDMDL
