MODEL 1
REMARK VINA RESULT:     -10.6      0.000      0.000
REMARK SMILES Cc1noc(C)c1[C@H](C)NC(=O)NC[C@@](C)(O)C(=O)NCCCCCCNC(=O)c1ccc(-c2c3nc(c(-c4ccccc4)c4ccc([nH]4)c(-c4ccccc4)c4nc(c(-c5ccccc5)c5ccc2[nH]5)C=C4)C=C3)cc1
REMARK SMILES IDX 22 1 21 2 20 3 18 4 19 5 15 7 16 8 14 9 13 10 10 11 11 12
REMARK SMILES IDX 12 14 8 16 9 17 7 18 1 19 2 20 3 21 4 22 5 23 6 24 17 25
REMARK SMILES IDX 23 27 24 28 25 29 26 30 27 31 28 32 29 34 30 35 31 36 77 37
REMARK SMILES IDX 32 38 76 39 33 40 34 41 35 42 70 43 36 44 75 45 69 46 71 47
REMARK SMILES IDX 37 48 74 49 68 50 67 51 38 53 60 54 45 55 59 56 46 57 49 58
REMARK SMILES IDX 58 59 72 60 47 61 48 62 57 64 73 65 50 66 39 67 40 68 44 69
REMARK SMILES IDX 41 70 43 71 42 72 61 73 62 74 66 75 63 76 65 77 64 78 51 79
REMARK SMILES IDX 52 80 56 81 53 82 55 83 54 84
REMARK H PARENT 20 6 10 13 13 15 17 26 27 33 71 52 49 63
REMARK Flexibility Score: inf
ROOT
ATOM      1  C   UNL A   1      36.764  22.633  23.546  1.00  0.00     0.021 C 
ENDROOT
BRANCH   1   2
ATOM      2  C   UNL A   1      35.398  23.088  23.032  1.00  0.00     0.116 C 
BRANCH   2   3
ATOM      3  N   UNL A   1      34.722  23.979  23.950  1.00  0.00    -0.354 N 
ATOM      4  C   UNL A   1      33.396  24.132  24.250  1.00  0.00     0.253 C 
ATOM      5  O   UNL A   1      33.160  24.875  25.203  1.00  0.00    -0.272 OA
ATOM      6  H   UNL A   1      35.321  24.583  24.445  1.00  0.00     0.163 HD
BRANCH   4   7
ATOM      7  C   UNL A   1      32.295  23.318  23.505  1.00  0.00     0.157 C 
ATOM      8  C   UNL A   1      32.344  21.895  24.090  1.00  0.00     0.055 C 
BRANCH   7   9
ATOM      9  C   UNL A   1      30.834  23.867  23.613  1.00  0.00     0.162 C 
BRANCH   9  10
ATOM     10  N   UNL A   1      30.313  24.249  24.909  1.00  0.00    -0.335 N 
ATOM     11  N   UNL A   1      30.318  26.619  25.006  1.00  0.00    -0.331 N 
ATOM     12  C   UNL A   1      30.106  25.411  25.543  1.00  0.00     0.315 C 
ATOM     13  H   UNL A   1      30.254  27.351  25.661  1.00  0.00     0.165 HD
ATOM     14  O   UNL A   1      29.676  25.362  26.698  1.00  0.00    -0.249 OA
ATOM     15  H   UNL A   1      30.048  23.472  25.451  1.00  0.00     0.165 HD
BRANCH  11  16
ATOM     16  C   UNL A   1      30.621  27.081  23.662  1.00  0.00     0.116 C 
ATOM     17  C   UNL A   1      29.401  27.813  23.108  1.00  0.00     0.036 C 
BRANCH  16  18
ATOM     18  C   UNL A   1      31.892  27.888  23.697  1.00  0.00     0.040 A 
ATOM     19  C   UNL A   1      33.227  26.671  21.797  1.00  0.00     0.071 C 
ATOM     20  C   UNL A   1      33.032  27.688  22.854  1.00  0.00     0.086 A 
ATOM     21  N   UNL A   1      33.987  28.594  23.081  1.00  0.00    -0.085 NA
ATOM     22  O   UNL A   1      33.495  29.412  24.068  1.00  0.00    -0.361 OA
ATOM     23  C   UNL A   1      32.249  29.008  24.428  1.00  0.00     0.139 A 
ATOM     24  C   UNL A   1      31.605  29.854  25.454  1.00  0.00     0.091 C 
ENDBRANCH  16  18
ENDBRANCH  11  16
ENDBRANCH   9  10
ENDBRANCH   7   9
BRANCH   7  25
ATOM     25  O   UNL A   1      32.581  23.247  22.096  1.00  0.00    -0.378 OA
ATOM     26  H   UNL A   1      33.343  23.812  21.892  1.00  0.00     0.212 HD
ENDBRANCH   7  25
ENDBRANCH   4   7
ENDBRANCH   2   3
ENDBRANCH   1   2
BRANCH   1  27
ATOM     27  C   UNL A   1      36.772  21.990  24.939  1.00  0.00     0.002 C 
BRANCH  27  28
ATOM     28  C   UNL A   1      36.534  20.476  24.988  1.00  0.00     0.002 C 
BRANCH  28  29
ATOM     29  C   UNL A   1      37.788  19.603  24.971  1.00  0.00     0.021 C 
BRANCH  29  30
ATOM     30  C   UNL A   1      38.982  20.167  25.730  1.00  0.00     0.116 C 
BRANCH  30  31
ATOM     31  N   UNL A   1      40.102  19.241  25.774  1.00  0.00    -0.352 N 
ATOM     32  C   UNL A   1      41.421  19.479  26.071  1.00  0.00     0.251 C 
ATOM     33  H   UNL A   1      39.883  18.306  25.557  1.00  0.00     0.163 HD
ATOM     34  O   UNL A   1      42.262  18.603  25.887  1.00  0.00    -0.269 OA
BRANCH  32  35
ATOM     35  C   UNL A   1      41.843  20.799  26.592  1.00  0.00     0.039 A 
ATOM     36  C   UNL A   1      42.316  21.758  25.693  1.00  0.00     0.014 A 
ATOM     37  C   UNL A   1      41.782  21.092  27.957  1.00  0.00     0.014 A 
ATOM     38  C   UNL A   1      42.667  23.030  26.153  1.00  0.00     0.010 A 
ATOM     39  C   UNL A   1      42.057  22.384  28.403  1.00  0.00     0.010 A 
ATOM     40  C   UNL A   1      42.504  23.366  27.507  1.00  0.00    -0.014 A 
BRANCH  40  41
ATOM     41  C   UNL A   1      42.790  24.740  27.999  1.00  0.00     0.031 A 
ATOM     42  C   UNL A   1      44.193  25.135  28.378  1.00  0.00     0.074 A 
ATOM     43  C   UNL A   1      41.778  25.616  28.160  1.00  0.00     0.049 A 
ATOM     44  N   UNL A   1      44.624  26.267  28.876  1.00  0.00    -0.248 NA
ATOM     45  C   UNL A   1      45.245  24.122  28.195  1.00  0.00     0.031 C 
ATOM     46  C   UNL A   1      40.368  25.350  27.861  1.00  0.00     0.029 A 
ATOM     47  N   UNL A   1      41.778  26.910  28.619  1.00  0.00    -0.354 N 
ATOM     48  C   UNL A   1      45.988  26.096  29.080  1.00  0.00     0.074 A 
ATOM     49  C   UNL A   1      46.306  24.738  28.697  1.00  0.00     0.031 C 
ATOM     50  C   UNL A   1      39.648  26.455  28.116  1.00  0.00     0.029 A 
ATOM     51  C   UNL A   1      40.532  27.489  28.640  1.00  0.00     0.049 A 
ATOM     52  H   UNL A   1      42.595  27.379  28.907  1.00  0.00     0.167 HD
ATOM     53  C   UNL A   1      46.898  26.993  29.529  1.00  0.00     0.031 A 
ATOM     54  C   UNL A   1      40.141  28.713  29.046  1.00  0.00     0.031 A 
ATOM     55  C   UNL A   1      46.587  28.348  29.897  1.00  0.00     0.049 A 
ATOM     56  C   UNL A   1      41.173  29.677  29.569  1.00  0.00     0.074 A 
ATOM     57  C   UNL A   1      47.453  29.349  30.305  1.00  0.00     0.029 A 
ATOM     58  N   UNL A   1      45.313  28.893  29.905  1.00  0.00    -0.354 N 
ATOM     59  N   UNL A   1      42.468  29.522  29.683  1.00  0.00    -0.248 NA
ATOM     60  C   UNL A   1      40.684  30.992  30.009  1.00  0.00     0.031 C 
ATOM     61  C   UNL A   1      46.695  30.479  30.622  1.00  0.00     0.029 A 
ATOM     62  C   UNL A   1      45.366  30.206  30.344  1.00  0.00     0.049 A 
ATOM     63  H   UNL A   1      44.493  28.418  29.639  1.00  0.00     0.167 HD
ATOM     64  C   UNL A   1      42.953  30.729  30.172  1.00  0.00     0.074 A 
ATOM     65  C   UNL A   1      41.814  31.611  30.315  1.00  0.00     0.031 C 
ATOM     66  C   UNL A   1      44.227  31.075  30.474  1.00  0.00     0.031 A 
BRANCH  53  67
ATOM     67  C   UNL A   1      48.326  26.539  29.659  1.00  0.00    -0.014 A 
ATOM     68  C   UNL A   1      49.251  26.733  28.621  1.00  0.00     0.009 A 
ATOM     69  C   UNL A   1      48.769  25.972  30.864  1.00  0.00     0.009 A 
ATOM     70  C   UNL A   1      50.584  26.344  28.779  1.00  0.00     0.001 A 
ATOM     71  C   UNL A   1      50.108  25.611  31.030  1.00  0.00     0.001 A 
ATOM     72  C   UNL A   1      51.012  25.791  29.985  1.00  0.00     0.000 A 
ENDBRANCH  53  67
BRANCH  54  73
ATOM     73  C   UNL A   1      38.709  29.109  28.983  1.00  0.00    -0.014 A 
ATOM     74  C   UNL A   1      38.179  29.692  27.820  1.00  0.00     0.009 A 
ATOM     75  C   UNL A   1      37.871  28.948  30.098  1.00  0.00     0.009 A 
ATOM     76  C   UNL A   1      36.857  30.143  27.791  1.00  0.00     0.001 A 
ATOM     77  C   UNL A   1      36.540  29.368  30.054  1.00  0.00     0.001 A 
ATOM     78  C   UNL A   1      36.038  29.979  28.906  1.00  0.00     0.000 A 
ENDBRANCH  54  73
BRANCH  66  79
ATOM     79  C   UNL A   1      44.467  32.484  30.943  1.00  0.00    -0.014 A 
ATOM     80  C   UNL A   1      44.461  32.814  32.308  1.00  0.00     0.009 A 
ATOM     81  C   UNL A   1      44.744  33.488  30.003  1.00  0.00     0.009 A 
ATOM     82  C   UNL A   1      44.690  34.130  32.716  1.00  0.00     0.001 A 
ATOM     83  C   UNL A   1      45.007  34.794  30.415  1.00  0.00     0.001 A 
ATOM     84  C   UNL A   1      44.968  35.117  31.771  1.00  0.00     0.000 A 
ENDBRANCH  66  79
ENDBRANCH  40  41
ENDBRANCH  32  35
ENDBRANCH  30  31
ENDBRANCH  29  30
ENDBRANCH  28  29
ENDBRANCH  27  28
ENDBRANCH   1  27
TORSDOF 18
ENDMDL
MODEL 2
REMARK VINA RESULT:     -10.2      1.892      7.459
REMARK SMILES Cc1noc(C)c1[C@H](C)NC(=O)NC[C@@](C)(O)C(=O)NCCCCCCNC(=O)c1ccc(-c2c3nc(c(-c4ccccc4)c4ccc([nH]4)c(-c4ccccc4)c4nc(c(-c5ccccc5)c5ccc2[nH]5)C=C4)C=C3)cc1
REMARK SMILES IDX 22 1 21 2 20 3 18 4 19 5 15 7 16 8 14 9 13 10 10 11 11 12
REMARK SMILES IDX 12 14 8 16 9 17 7 18 1 19 2 20 3 21 4 22 5 23 6 24 17 25
REMARK SMILES IDX 23 27 24 28 25 29 26 30 27 31 28 32 29 34 30 35 31 36 77 37
REMARK SMILES IDX 32 38 76 39 33 40 34 41 35 42 70 43 36 44 75 45 69 46 71 47
REMARK SMILES IDX 37 48 74 49 68 50 67 51 38 53 60 54 45 55 59 56 46 57 49 58
REMARK SMILES IDX 58 59 72 60 47 61 48 62 57 64 73 65 50 66 39 67 40 68 44 69
REMARK SMILES IDX 41 70 43 71 42 72 61 73 62 74 66 75 63 76 65 77 64 78 51 79
REMARK SMILES IDX 52 80 56 81 53 82 55 83 54 84
REMARK H PARENT 20 6 10 13 13 15 17 26 27 33 71 52 49 63
REMARK Flexibility Score: inf
ROOT
ATOM      1  C   UNL A   1      35.064  24.852  25.617  1.00  0.00     0.021 C 
ENDROOT
BRANCH   1   2
ATOM      2  C   UNL A   1      36.132  24.242  24.708  1.00  0.00     0.116 C 
BRANCH   2   3
ATOM      3  N   UNL A   1      37.236  23.668  25.448  1.00  0.00    -0.354 N 
ATOM      4  C   UNL A   1      37.639  22.370  25.607  1.00  0.00     0.253 C 
ATOM      5  O   UNL A   1      38.725  22.228  26.173  1.00  0.00    -0.272 OA
ATOM      6  H   UNL A   1      37.794  24.327  25.919  1.00  0.00     0.163 HD
BRANCH   4   7
ATOM      7  C   UNL A   1      36.828  21.186  25.000  1.00  0.00     0.157 C 
ATOM      8  C   UNL A   1      37.774  19.971  25.007  1.00  0.00     0.055 C 
BRANCH   7   9
ATOM      9  C   UNL A   1      35.501  20.806  25.734  1.00  0.00     0.162 C 
BRANCH   9  10
ATOM     10  N   UNL A   1      34.645  19.784  25.170  1.00  0.00    -0.335 N 
ATOM     11  N   UNL A   1      32.746  20.873  24.253  1.00  0.00    -0.331 N 
ATOM     12  C   UNL A   1      33.452  19.777  24.558  1.00  0.00     0.315 C 
ATOM     13  H   UNL A   1      31.834  20.672  23.941  1.00  0.00     0.165 HD
ATOM     14  O   UNL A   1      32.982  18.682  24.239  1.00  0.00    -0.249 OA
ATOM     15  H   UNL A   1      35.029  18.883  25.257  1.00  0.00     0.165 HD
BRANCH  11  16
ATOM     16  C   UNL A   1      33.039  22.296  24.285  1.00  0.00     0.116 C 
ATOM     17  C   UNL A   1      33.167  22.802  22.850  1.00  0.00     0.036 C 
BRANCH  16  18
ATOM     18  C   UNL A   1      31.995  22.991  25.119  1.00  0.00     0.040 A 
ATOM     19  C   UNL A   1      32.879  22.381  27.511  1.00  0.00     0.071 C 
ATOM     20  C   UNL A   1      31.951  23.017  26.550  1.00  0.00     0.086 A 
ATOM     21  N   UNL A   1      30.938  23.760  27.005  1.00  0.00    -0.085 NA
ATOM     22  O   UNL A   1      30.302  24.244  25.889  1.00  0.00    -0.361 OA
ATOM     23  C   UNL A   1      30.931  23.803  24.768  1.00  0.00     0.139 A 
ATOM     24  C   UNL A   1      30.354  24.308  23.506  1.00  0.00     0.091 C 
ENDBRANCH  16  18
ENDBRANCH  11  16
ENDBRANCH   9  10
ENDBRANCH   7   9
BRANCH   7  25
ATOM     25  O   UNL A   1      36.454  21.471  23.640  1.00  0.00    -0.378 OA
ATOM     26  H   UNL A   1      35.509  21.284  23.519  1.00  0.00     0.212 HD
ENDBRANCH   7  25
ENDBRANCH   4   7
ENDBRANCH   2   3
ENDBRANCH   1   2
BRANCH   1  27
ATOM     27  C   UNL A   1      34.076  25.809  24.936  1.00  0.00     0.002 C 
BRANCH  27  28
ATOM     28  C   UNL A   1      33.231  26.685  25.867  1.00  0.00     0.002 C 
BRANCH  28  29
ATOM     29  C   UNL A   1      33.831  28.043  26.231  1.00  0.00     0.021 C 
BRANCH  29  30
ATOM     30  C   UNL A   1      33.451  28.573  27.608  1.00  0.00     0.116 C 
BRANCH  30  31
ATOM     31  N   UNL A   1      33.527  30.022  27.686  1.00  0.00    -0.352 N 
ATOM     32  C   UNL A   1      34.568  30.821  28.091  1.00  0.00     0.251 C 
ATOM     33  H   UNL A   1      32.713  30.502  27.409  1.00  0.00     0.163 HD
ATOM     34  O   UNL A   1      34.390  32.026  28.258  1.00  0.00    -0.269 OA
BRANCH  32  35
ATOM     35  C   UNL A   1      35.901  30.235  28.354  1.00  0.00     0.039 A 
ATOM     36  C   UNL A   1      36.846  30.223  27.325  1.00  0.00     0.014 A 
ATOM     37  C   UNL A   1      36.219  29.691  29.601  1.00  0.00     0.014 A 
ATOM     38  C   UNL A   1      38.130  29.725  27.566  1.00  0.00     0.010 A 
ATOM     39  C   UNL A   1      37.522  29.268  29.862  1.00  0.00     0.010 A 
ATOM     40  C   UNL A   1      38.490  29.279  28.848  1.00  0.00    -0.014 A 
BRANCH  40  41
ATOM     41  C   UNL A   1      39.876  28.827  29.144  1.00  0.00     0.031 A 
ATOM     42  C   UNL A   1      40.851  29.757  29.816  1.00  0.00     0.074 A 
ATOM     43  C   UNL A   1      40.276  27.600  28.756  1.00  0.00     0.049 A 
ATOM     44  N   UNL A   1      42.113  29.559  30.105  1.00  0.00    -0.248 NA
ATOM     45  C   UNL A   1      40.352  31.089  30.195  1.00  0.00     0.031 C 
ATOM     46  C   UNL A   1      39.441  26.612  28.067  1.00  0.00     0.029 A 
ATOM     47  N   UNL A   1      41.491  26.972  28.882  1.00  0.00    -0.354 N 
ATOM     48  C   UNL A   1      42.559  30.742  30.681  1.00  0.00     0.074 A 
ATOM     49  C   UNL A   1      41.450  31.669  30.659  1.00  0.00     0.031 C 
ATOM     50  C   UNL A   1      40.158  25.496  27.859  1.00  0.00     0.029 A 
ATOM     51  C   UNL A   1      41.514  25.702  28.355  1.00  0.00     0.049 A 
ATOM     52  H   UNL A   1      42.271  27.392  29.310  1.00  0.00     0.167 HD
ATOM     53  C   UNL A   1      43.779  31.027  31.197  1.00  0.00     0.031 A 
ATOM     54  C   UNL A   1      42.517  24.808  28.269  1.00  0.00     0.031 A 
ATOM     55  C   UNL A   1      44.880  30.103  31.233  1.00  0.00     0.049 A 
ATOM     56  C   UNL A   1      43.870  25.166  28.826  1.00  0.00     0.074 A 
ATOM     57  C   UNL A   1      46.135  30.281  31.792  1.00  0.00     0.029 A 
ATOM     58  N   UNL A   1      44.862  28.830  30.687  1.00  0.00    -0.354 N 
ATOM     59  N   UNL A   1      44.251  26.261  29.434  1.00  0.00    -0.248 NA
ATOM     60  C   UNL A   1      44.928  24.154  28.691  1.00  0.00     0.031 C 
ATOM     61  C   UNL A   1      46.896  29.140  31.526  1.00  0.00     0.029 A 
ATOM     62  C   UNL A   1      46.095  28.224  30.865  1.00  0.00     0.049 A 
ATOM     63  H   UNL A   1      44.089  28.417  30.239  1.00  0.00     0.167 HD
ATOM     64  C   UNL A   1      45.579  26.057  29.787  1.00  0.00     0.074 A 
ATOM     65  C   UNL A   1      45.931  24.726  29.341  1.00  0.00     0.031 C 
ATOM     66  C   UNL A   1      46.430  26.896  30.424  1.00  0.00     0.031 A 
BRANCH  53  67
ATOM     67  C   UNL A   1      43.997  32.404  31.764  1.00  0.00    -0.014 A 
ATOM     68  C   UNL A   1      43.769  32.679  33.121  1.00  0.00     0.009 A 
ATOM     69  C   UNL A   1      44.504  33.422  30.942  1.00  0.00     0.009 A 
ATOM     70  C   UNL A   1      44.021  33.954  33.636  1.00  0.00     0.001 A 
ATOM     71  C   UNL A   1      44.783  34.686  31.466  1.00  0.00     0.001 A 
ATOM     72  C   UNL A   1      44.534  34.952  32.811  1.00  0.00     0.000 A 
ENDBRANCH  53  67
BRANCH  54  73
ATOM     73  C   UNL A   1      42.297  23.482  27.631  1.00  0.00    -0.014 A 
ATOM     74  C   UNL A   1      42.545  23.299  26.261  1.00  0.00     0.009 A 
ATOM     75  C   UNL A   1      41.795  22.403  28.377  1.00  0.00     0.009 A 
ATOM     76  C   UNL A   1      42.255  22.079  25.645  1.00  0.00     0.001 A 
ATOM     77  C   UNL A   1      41.540  21.174  27.765  1.00  0.00     0.001 A 
ATOM     78  C   UNL A   1      41.755  21.018  26.397  1.00  0.00     0.000 A 
ENDBRANCH  54  73
BRANCH  66  79
ATOM     79  C   UNL A   1      47.813  26.383  30.723  1.00  0.00    -0.014 A 
ATOM     80  C   UNL A   1      48.869  26.550  29.814  1.00  0.00     0.009 A 
ATOM     81  C   UNL A   1      48.067  25.758  31.953  1.00  0.00     0.009 A 
ATOM     82  C   UNL A   1      50.143  26.066  30.118  1.00  0.00     0.001 A 
ATOM     83  C   UNL A   1      49.349  25.307  32.269  1.00  0.00     0.001 A 
ATOM     84  C   UNL A   1      50.383  25.451  31.346  1.00  0.00     0.000 A 
ENDBRANCH  66  79
ENDBRANCH  40  41
ENDBRANCH  32  35
ENDBRANCH  30  31
ENDBRANCH  29  30
ENDBRANCH  28  29
ENDBRANCH  27  28
ENDBRANCH   1  27
TORSDOF 18
ENDMDL
MODEL 3
REMARK VINA RESULT:     -10.2      1.775      6.214
REMARK SMILES Cc1noc(C)c1[C@H](C)NC(=O)NC[C@@](C)(O)C(=O)NCCCCCCNC(=O)c1ccc(-c2c3nc(c(-c4ccccc4)c4ccc([nH]4)c(-c4ccccc4)c4nc(c(-c5ccccc5)c5ccc2[nH]5)C=C4)C=C3)cc1
REMARK SMILES IDX 22 1 21 2 20 3 18 4 19 5 15 7 16 8 14 9 13 10 10 11 11 12
REMARK SMILES IDX 12 14 8 16 9 17 7 18 1 19 2 20 3 21 4 22 5 23 6 24 17 25
REMARK SMILES IDX 23 27 24 28 25 29 26 30 27 31 28 32 29 34 30 35 31 36 77 37
REMARK SMILES IDX 32 38 76 39 33 40 34 41 35 42 70 43 36 44 75 45 69 46 71 47
REMARK SMILES IDX 37 48 74 49 68 50 67 51 38 53 60 54 45 55 59 56 46 57 49 58
REMARK SMILES IDX 58 59 72 60 47 61 48 62 57 64 73 65 50 66 39 67 40 68 44 69
REMARK SMILES IDX 41 70 43 71 42 72 61 73 62 74 66 75 63 76 65 77 64 78 51 79
REMARK SMILES IDX 52 80 56 81 53 82 55 83 54 84
REMARK H PARENT 20 6 10 13 13 15 17 26 27 33 71 52 49 63
REMARK Flexibility Score: inf
ROOT
ATOM      1  C   UNL A   1      35.551  22.655  25.667  1.00  0.00     0.021 C 
ENDROOT
BRANCH   1   2
ATOM      2  C   UNL A   1      34.501  22.191  26.677  1.00  0.00     0.116 C 
BRANCH   2   3
ATOM      3  N   UNL A   1      33.728  21.062  26.203  1.00  0.00    -0.354 N 
ATOM      4  C   UNL A   1      32.439  20.975  25.753  1.00  0.00     0.253 C 
ATOM      5  O   UNL A   1      32.131  19.885  25.266  1.00  0.00    -0.272 OA
ATOM      6  H   UNL A   1      34.215  20.207  26.207  1.00  0.00     0.163 HD
BRANCH   4   7
ATOM      7  C   UNL A   1      31.491  22.212  25.754  1.00  0.00     0.157 C 
ATOM      8  C   UNL A   1      32.041  23.172  26.824  1.00  0.00     0.055 C 
BRANCH   7   9
ATOM      9  C   UNL A   1      31.352  22.980  24.399  1.00  0.00     0.162 C 
BRANCH   9  10
ATOM     10  N   UNL A   1      32.415  22.892  23.420  1.00  0.00    -0.335 N 
ATOM     11  N   UNL A   1      33.446  25.025  23.295  1.00  0.00    -0.331 N 
ATOM     12  C   UNL A   1      33.306  23.751  22.906  1.00  0.00     0.315 C 
ATOM     13  H   UNL A   1      34.044  25.545  22.712  1.00  0.00     0.165 HD
ATOM     14  O   UNL A   1      34.060  23.333  22.025  1.00  0.00    -0.249 OA
ATOM     15  H   UNL A   1      32.503  21.988  23.042  1.00  0.00     0.165 HD
BRANCH  11  16
ATOM     16  C   UNL A   1      32.903  25.804  24.395  1.00  0.00     0.116 C 
ATOM     17  C   UNL A   1      34.036  26.147  25.359  1.00  0.00     0.036 C 
BRANCH  16  18
ATOM     18  C   UNL A   1      32.158  26.987  23.835  1.00  0.00     0.040 A 
ATOM     19  C   UNL A   1      29.731  26.379  24.621  1.00  0.00     0.071 C 
ATOM     20  C   UNL A   1      30.749  27.220  23.955  1.00  0.00     0.086 A 
ATOM     21  N   UNL A   1      30.387  28.382  23.404  1.00  0.00    -0.085 NA
ATOM     22  O   UNL A   1      31.544  28.940  22.919  1.00  0.00    -0.361 OA
ATOM     23  C   UNL A   1      32.599  28.126  23.183  1.00  0.00     0.139 A 
ATOM     24  C   UNL A   1      33.905  28.658  22.746  1.00  0.00     0.091 C 
ENDBRANCH  16  18
ENDBRANCH  11  16
ENDBRANCH   9  10
ENDBRANCH   7   9
BRANCH   7  25
ATOM     25  O   UNL A   1      30.154  21.827  26.122  1.00  0.00    -0.378 OA
ATOM     26  H   UNL A   1      29.752  22.529  26.659  1.00  0.00     0.212 HD
ENDBRANCH   7  25
ENDBRANCH   4   7
ENDBRANCH   2   3
ENDBRANCH   1   2
BRANCH   1  27
ATOM     27  C   UNL A   1      35.909  21.647  24.567  1.00  0.00     0.002 C 
BRANCH  27  28
ATOM     28  C   UNL A   1      37.404  21.383  24.351  1.00  0.00     0.002 C 
BRANCH  28  29
ATOM     29  C   UNL A   1      37.939  20.072  24.927  1.00  0.00     0.021 C 
BRANCH  29  30
ATOM     30  C   UNL A   1      38.976  20.223  26.032  1.00  0.00     0.116 C 
BRANCH  30  31
ATOM     31  N   UNL A   1      40.011  19.205  25.968  1.00  0.00    -0.352 N 
ATOM     32  C   UNL A   1      41.375  19.341  26.044  1.00  0.00     0.251 C 
ATOM     33  H   UNL A   1      39.687  18.283  25.851  1.00  0.00     0.163 HD
ATOM     34  O   UNL A   1      42.104  18.384  25.794  1.00  0.00    -0.269 OA
BRANCH  32  35
ATOM     35  C   UNL A   1      41.977  20.644  26.403  1.00  0.00     0.039 A 
ATOM     36  C   UNL A   1      42.318  21.533  25.381  1.00  0.00     0.014 A 
ATOM     37  C   UNL A   1      42.215  20.989  27.736  1.00  0.00     0.014 A 
ATOM     38  C   UNL A   1      42.836  22.792  25.697  1.00  0.00     0.010 A 
ATOM     39  C   UNL A   1      42.657  22.273  28.054  1.00  0.00     0.010 A 
ATOM     40  C   UNL A   1      42.974  23.187  27.039  1.00  0.00    -0.014 A 
BRANCH  40  41
ATOM     41  C   UNL A   1      43.441  24.553  27.394  1.00  0.00     0.031 A 
ATOM     42  C   UNL A   1      42.454  25.608  27.820  1.00  0.00     0.074 A 
ATOM     43  C   UNL A   1      44.748  24.864  27.278  1.00  0.00     0.049 A 
ATOM     44  N   UNL A   1      42.668  26.866  28.115  1.00  0.00    -0.248 NA
ATOM     45  C   UNL A   1      41.041  25.204  27.905  1.00  0.00     0.031 C 
ATOM     46  C   UNL A   1      45.804  23.945  26.845  1.00  0.00     0.029 A 
ATOM     47  N   UNL A   1      45.412  26.043  27.511  1.00  0.00    -0.354 N 
ATOM     48  C   UNL A   1      41.419  27.404  28.403  1.00  0.00     0.074 A 
ATOM     49  C   UNL A   1      40.448  26.352  28.203  1.00  0.00     0.031 C 
ATOM     50  C   UNL A   1      46.984  24.586  26.873  1.00  0.00     0.029 A 
ATOM     51  C   UNL A   1      46.765  25.970  27.278  1.00  0.00     0.049 A 
ATOM     52  H   UNL A   1      44.962  26.863  27.816  1.00  0.00     0.167 HD
ATOM     53  C   UNL A   1      41.110  28.657  28.813  1.00  0.00     0.031 A 
ATOM     54  C   UNL A   1      47.722  26.914  27.369  1.00  0.00     0.031 A 
ATOM     55  C   UNL A   1      42.076  29.702  29.027  1.00  0.00     0.049 A 
ATOM     56  C   UNL A   1      47.342  28.305  27.799  1.00  0.00     0.074 A 
ATOM     57  C   UNL A   1      41.863  30.985  29.502  1.00  0.00     0.029 A 
ATOM     58  N   UNL A   1      43.434  29.586  28.778  1.00  0.00    -0.354 N 
ATOM     59  N   UNL A   1      46.167  28.774  28.140  1.00  0.00    -0.248 NA
ATOM     60  C   UNL A   1      48.427  29.295  27.867  1.00  0.00     0.031 C 
ATOM     61  C   UNL A   1      43.083  31.666  29.477  1.00  0.00     0.029 A 
ATOM     62  C   UNL A   1      44.066  30.787  29.056  1.00  0.00     0.049 A 
ATOM     63  H   UNL A   1      43.881  28.773  28.451  1.00  0.00     0.167 HD
ATOM     64  C   UNL A   1      46.378  30.101  28.497  1.00  0.00     0.074 A 
ATOM     65  C   UNL A   1      47.795  30.355  28.349  1.00  0.00     0.031 C 
ATOM     66  C   UNL A   1      45.478  31.025  28.912  1.00  0.00     0.031 A 
BRANCH  53  67
ATOM     67  C   UNL A   1      39.661  28.979  29.056  1.00  0.00    -0.014 A 
ATOM     68  C   UNL A   1      38.836  29.455  28.025  1.00  0.00     0.009 A 
ATOM     69  C   UNL A   1      39.096  28.735  30.318  1.00  0.00     0.009 A 
ATOM     70  C   UNL A   1      37.481  29.706  28.261  1.00  0.00     0.001 A 
ATOM     71  C   UNL A   1      37.736  28.957  30.543  1.00  0.00     0.001 A 
ATOM     72  C   UNL A   1      36.932  29.449  29.516  1.00  0.00     0.000 A 
ENDBRANCH  53  67
BRANCH  54  73
ATOM     73  C   UNL A   1      49.137  26.589  27.046  1.00  0.00    -0.014 A 
ATOM     74  C   UNL A   1      49.621  26.729  25.735  1.00  0.00     0.009 A 
ATOM     75  C   UNL A   1      50.003  26.096  28.036  1.00  0.00     0.009 A 
ATOM     76  C   UNL A   1      50.925  26.342  25.415  1.00  0.00     0.001 A 
ATOM     77  C   UNL A   1      51.316  25.744  27.720  1.00  0.00     0.001 A 
ATOM     78  C   UNL A   1      51.772  25.852  26.407  1.00  0.00     0.000 A 
ENDBRANCH  54  73
BRANCH  66  79
ATOM     79  C   UNL A   1      46.005  32.384  29.284  1.00  0.00    -0.014 A 
ATOM     80  C   UNL A   1      46.446  32.668  30.586  1.00  0.00     0.009 A 
ATOM     81  C   UNL A   1      46.096  33.381  28.301  1.00  0.00     0.009 A 
ATOM     82  C   UNL A   1      46.933  33.938  30.903  1.00  0.00     0.001 A 
ATOM     83  C   UNL A   1      46.616  34.638  28.613  1.00  0.00     0.001 A 
ATOM     84  C   UNL A   1      47.023  34.919  29.916  1.00  0.00     0.000 A 
ENDBRANCH  66  79
ENDBRANCH  40  41
ENDBRANCH  32  35
ENDBRANCH  30  31
ENDBRANCH  29  30
ENDBRANCH  28  29
ENDBRANCH  27  28
ENDBRANCH   1  27
TORSDOF 18
ENDMDL
