MODEL 1
REMARK VINA RESULT:     -11.5      0.000      0.000
REMARK SMILES O=C(NCCCCCCNC(=O)c1cccc(OS(=O)(=O)c2cccc([N+](=O)[O-])c2)c1)c1ccc(-c2c3nc(c(-c4ccccc4)c4ccc([nH]4)c(-c4ccccc4)c4nc(c(-c5ccccc5)c5ccc2[nH]5)C=C4)C=C3)cc1
REMARK SMILES IDX 7 1 6 2 5 3 4 4 3 5 1 6 2 7 32 9 33 10 79 11 34 12 78 13
REMARK SMILES IDX 35 14 36 15 37 16 72 17 38 18 77 19 71 20 73 21 39 22 76 23
REMARK SMILES IDX 70 24 69 25 40 27 62 28 47 29 61 30 48 31 51 32 60 33 74 34
REMARK SMILES IDX 49 35 50 36 59 38 75 39 52 40 41 41 42 42 46 43 43 44 45 45
REMARK SMILES IDX 44 46 63 47 64 48 68 49 65 50 67 51 66 52 53 53 54 54 58 55
REMARK SMILES IDX 55 56 57 57 56 58 8 59 9 60 10 61 11 62 12 64 13 65 14 66
REMARK SMILES IDX 31 67 15 68 17 69 16 70 18 71 19 72 20 73 21 74 22 75 23 76
REMARK SMILES IDX 30 77 24 78 26 79 25 80 27 81 28 82 29 83
REMARK H PARENT 3 8 73 26 51 37 10 63
REMARK Flexibility Score: inf
ROOT
ATOM      1  C   UNL A   1      36.775  21.705  24.497  1.00  0.00     0.002 C 
ENDROOT
BRANCH   1   2
ATOM      2  C   UNL A   1      36.684  20.262  25.001  1.00  0.00     0.002 C 
BRANCH   2   3
ATOM      3  C   UNL A   1      37.971  19.441  24.898  1.00  0.00     0.021 C 
BRANCH   3   4
ATOM      4  C   UNL A   1      39.120  19.908  25.789  1.00  0.00     0.116 C 
BRANCH   4   5
ATOM      5  N   UNL A   1      40.249  18.994  25.768  1.00  0.00    -0.352 N 
ATOM      6  O   UNL A   1      42.412  18.366  25.749  1.00  0.00    -0.269 OA
ATOM      7  C   UNL A   1      41.583  19.248  25.955  1.00  0.00     0.251 C 
ATOM      8  H   UNL A   1      40.022  18.052  25.592  1.00  0.00     0.163 HD
BRANCH   7   9
ATOM      9  C   UNL A   1      42.034  20.589  26.386  1.00  0.00     0.039 A 
ATOM     10  C   UNL A   1      42.217  20.895  27.737  1.00  0.00     0.014 A 
ATOM     11  C   UNL A   1      42.324  21.541  25.404  1.00  0.00     0.014 A 
ATOM     12  C   UNL A   1      42.598  22.181  28.114  1.00  0.00     0.010 A 
ATOM     13  C   UNL A   1      42.756  22.814  25.779  1.00  0.00     0.010 A 
ATOM     14  C   UNL A   1      42.878  23.150  27.137  1.00  0.00    -0.014 A 
BRANCH  14  15
ATOM     15  C   UNL A   1      43.348  24.500  27.528  1.00  0.00     0.031 A 
ATOM     16  C   UNL A   1      42.373  25.557  27.958  1.00  0.00     0.074 A 
ATOM     17  C   UNL A   1      44.661  24.785  27.446  1.00  0.00     0.049 A 
ATOM     18  N   UNL A   1      42.598  26.813  28.252  1.00  0.00    -0.248 NA
ATOM     19  C   UNL A   1      40.964  25.153  28.064  1.00  0.00     0.031 C 
ATOM     20  C   UNL A   1      45.704  23.845  27.034  1.00  0.00     0.029 A 
ATOM     21  N   UNL A   1      45.338  25.953  27.689  1.00  0.00    -0.354 N 
ATOM     22  C   UNL A   1      41.356  27.357  28.551  1.00  0.00     0.074 A 
ATOM     23  C   UNL A   1      40.381  26.298  28.391  1.00  0.00     0.031 C 
ATOM     24  C   UNL A   1      46.891  24.472  27.055  1.00  0.00     0.029 A 
ATOM     25  C   UNL A   1      46.683  25.867  27.431  1.00  0.00     0.049 A 
ATOM     26  H   UNL A   1      44.901  26.773  28.016  1.00  0.00     0.167 HD
ATOM     27  C   UNL A   1      41.056  28.625  28.924  1.00  0.00     0.031 A 
ATOM     28  C   UNL A   1      47.642  26.810  27.462  1.00  0.00     0.031 A 
ATOM     29  C   UNL A   1      42.026  29.677  29.080  1.00  0.00     0.049 A 
ATOM     30  C   UNL A   1      47.283  28.215  27.845  1.00  0.00     0.074 A 
ATOM     31  C   UNL A   1      41.825  30.980  29.500  1.00  0.00     0.029 A 
ATOM     32  N   UNL A   1      43.380  29.548  28.808  1.00  0.00    -0.354 N 
ATOM     33  N   UNL A   1      46.111  28.704  28.171  1.00  0.00    -0.248 NA
ATOM     34  C   UNL A   1      48.376  29.196  27.868  1.00  0.00     0.031 C 
ATOM     35  C   UNL A   1      43.051  31.653  29.439  1.00  0.00     0.029 A 
ATOM     36  C   UNL A   1      44.022  30.755  29.026  1.00  0.00     0.049 A 
ATOM     37  H   UNL A   1      43.819  28.721  28.505  1.00  0.00     0.167 HD
ATOM     38  C   UNL A   1      46.328  30.045  28.453  1.00  0.00     0.074 A 
ATOM     39  C   UNL A   1      47.743  30.291  28.268  1.00  0.00     0.031 C 
ATOM     40  C   UNL A   1      45.430  30.986  28.834  1.00  0.00     0.031 A 
BRANCH  27  41
ATOM     41  C   UNL A   1      39.608  28.950  29.155  1.00  0.00    -0.014 A 
ATOM     42  C   UNL A   1      39.030  28.849  30.429  1.00  0.00     0.009 A 
ATOM     43  C   UNL A   1      38.815  29.385  28.081  1.00  0.00     0.009 A 
ATOM     44  C   UNL A   1      37.676  29.140  30.616  1.00  0.00     0.001 A 
ATOM     45  C   UNL A   1      37.468  29.698  28.275  1.00  0.00     0.001 A 
ATOM     46  C   UNL A   1      36.899  29.566  29.540  1.00  0.00     0.000 A 
ENDBRANCH  27  41
BRANCH  28  47
ATOM     47  C   UNL A   1      49.031  26.440  27.094  1.00  0.00    -0.014 A 
ATOM     48  C   UNL A   1      49.927  25.978  28.067  1.00  0.00     0.009 A 
ATOM     49  C   UNL A   1      49.444  26.492  25.753  1.00  0.00     0.009 A 
ATOM     50  C   UNL A   1      51.216  25.579  27.704  1.00  0.00     0.001 A 
ATOM     51  C   UNL A   1      50.725  26.071  25.391  1.00  0.00     0.001 A 
ATOM     52  C   UNL A   1      51.610  25.618  26.367  1.00  0.00     0.000 A 
ENDBRANCH  28  47
BRANCH  40  53
ATOM     53  C   UNL A   1      45.955  32.365  29.108  1.00  0.00    -0.014 A 
ATOM     54  C   UNL A   1      46.390  32.733  30.390  1.00  0.00     0.009 A 
ATOM     55  C   UNL A   1      46.067  33.286  28.055  1.00  0.00     0.009 A 
ATOM     56  C   UNL A   1      46.915  34.007  30.614  1.00  0.00     0.001 A 
ATOM     57  C   UNL A   1      46.611  34.552  28.279  1.00  0.00     0.001 A 
ATOM     58  C   UNL A   1      47.029  34.912  29.559  1.00  0.00     0.000 A 
ENDBRANCH  40  53
ENDBRANCH  14  15
ENDBRANCH   7   9
ENDBRANCH   4   5
ENDBRANCH   3   4
ENDBRANCH   2   3
ENDBRANCH   1   2
BRANCH   1  59
ATOM     59  C   UNL A   1      37.077  22.761  25.565  1.00  0.00     0.021 C 
BRANCH  59  60
ATOM     60  C   UNL A   1      35.874  23.579  26.027  1.00  0.00     0.116 C 
BRANCH  60  61
ATOM     61  N   UNL A   1      35.101  22.888  27.046  1.00  0.00    -0.352 N 
ATOM     62  C   UNL A   1      33.899  22.234  26.920  1.00  0.00     0.251 C 
ATOM     63  H   UNL A   1      35.492  22.888  27.950  1.00  0.00     0.163 HD
ATOM     64  O   UNL A   1      33.288  21.846  27.909  1.00  0.00    -0.269 OA
BRANCH  62  65
ATOM     65  C   UNL A   1      33.338  22.002  25.573  1.00  0.00     0.043 A 
ATOM     66  C   UNL A   1      33.133  20.697  25.125  1.00  0.00     0.014 A 
ATOM     67  C   UNL A   1      33.030  23.091  24.752  1.00  0.00     0.062 A 
ATOM     68  C   UNL A   1      32.564  20.486  23.870  1.00  0.00     0.005 A 
ATOM     69  C   UNL A   1      32.421  22.884  23.515  1.00  0.00     0.143 A 
ATOM     70  C   UNL A   1      32.200  21.578  23.072  1.00  0.00     0.048 A 
BRANCH  69  71
ATOM     71  O   UNL A   1      32.014  23.898  22.679  1.00  0.00    -0.379 OA
BRANCH  71  72
ATOM     72  S   UNL A   1      33.100  24.945  22.052  1.00  0.00     0.339 S 
ATOM     73  O   UNL A   1      34.405  24.667  22.617  1.00  0.00    -0.181 OA
ATOM     74  O   UNL A   1      32.903  25.009  20.613  1.00  0.00    -0.181 OA
BRANCH  72  75
ATOM     75  C   UNL A   1      32.642  26.551  22.656  1.00  0.00     0.112 A 
ATOM     76  C   UNL A   1      33.508  27.311  23.444  1.00  0.00     0.024 A 
ATOM     77  C   UNL A   1      31.357  27.012  22.338  1.00  0.00     0.109 A 
ATOM     78  C   UNL A   1      33.082  28.553  23.923  1.00  0.00     0.009 A 
ATOM     79  C   UNL A   1      30.943  28.255  22.825  1.00  0.00     0.270 A 
ATOM     80  C   UNL A   1      31.802  29.028  23.619  1.00  0.00     0.086 A 
BRANCH  79  81
ATOM     81  N   UNL A   1      29.599  28.748  22.503  1.00  0.00     0.062 N 
ATOM     82  O   UNL A   1      28.644  28.268  23.129  1.00  0.00    -0.258 OA
ATOM     83  O   UNL A   1      29.501  29.618  21.626  1.00  0.00    -0.258 OA
ENDBRANCH  79  81
ENDBRANCH  72  75
ENDBRANCH  71  72
ENDBRANCH  69  71
ENDBRANCH  62  65
ENDBRANCH  60  61
ENDBRANCH  59  60
ENDBRANCH   1  59
TORSDOF 17
ENDMDL
MODEL 2
REMARK VINA RESULT:     -11.3      5.299     11.157
REMARK SMILES O=C(NCCCCCCNC(=O)c1cccc(OS(=O)(=O)c2cccc([N+](=O)[O-])c2)c1)c1ccc(-c2c3nc(c(-c4ccccc4)c4ccc([nH]4)c(-c4ccccc4)c4nc(c(-c5ccccc5)c5ccc2[nH]5)C=C4)C=C3)cc1
REMARK SMILES IDX 7 1 6 2 5 3 4 4 3 5 1 6 2 7 32 9 33 10 79 11 34 12 78 13
REMARK SMILES IDX 35 14 36 15 37 16 72 17 38 18 77 19 71 20 73 21 39 22 76 23
REMARK SMILES IDX 70 24 69 25 40 27 62 28 47 29 61 30 48 31 51 32 60 33 74 34
REMARK SMILES IDX 49 35 50 36 59 38 75 39 52 40 41 41 42 42 46 43 43 44 45 45
REMARK SMILES IDX 44 46 63 47 64 48 68 49 65 50 67 51 66 52 53 53 54 54 58 55
REMARK SMILES IDX 55 56 57 57 56 58 8 59 9 60 10 61 11 62 12 64 13 65 14 66
REMARK SMILES IDX 31 67 15 68 17 69 16 70 18 71 19 72 20 73 21 74 22 75 23 76
REMARK SMILES IDX 30 77 24 78 26 79 25 80 27 81 28 82 29 83
REMARK H PARENT 3 8 73 26 51 37 10 63
REMARK Flexibility Score: inf
ROOT
ATOM      1  C   UNL A   1      36.959  33.055  30.613  1.00  0.00     0.002 C 
ENDROOT
BRANCH   1   2
ATOM      2  C   UNL A   1      35.502  32.837  31.028  1.00  0.00     0.002 C 
BRANCH   2   3
ATOM      3  C   UNL A   1      34.448  33.233  29.991  1.00  0.00     0.021 C 
BRANCH   3   4
ATOM      4  C   UNL A   1      34.855  33.031  28.533  1.00  0.00     0.116 C 
BRANCH   4   5
ATOM      5  N   UNL A   1      34.129  31.944  27.898  1.00  0.00    -0.352 N 
ATOM      6  O   UNL A   1      33.838  29.942  26.908  1.00  0.00    -0.269 OA
ATOM      7  C   UNL A   1      34.551  30.678  27.584  1.00  0.00     0.251 C 
ATOM      8  H   UNL A   1      33.197  32.147  27.658  1.00  0.00     0.163 HD
BRANCH   7   9
ATOM      9  C   UNL A   1      35.874  30.198  28.038  1.00  0.00     0.039 A 
ATOM     10  C   UNL A   1      36.047  29.637  29.307  1.00  0.00     0.014 A 
ATOM     11  C   UNL A   1      36.951  30.271  27.149  1.00  0.00     0.014 A 
ATOM     12  C   UNL A   1      37.316  29.237  29.723  1.00  0.00     0.010 A 
ATOM     13  C   UNL A   1      38.210  29.822  27.547  1.00  0.00     0.010 A 
ATOM     14  C   UNL A   1      38.407  29.319  28.844  1.00  0.00    -0.014 A 
BRANCH  14  15
ATOM     15  C   UNL A   1      39.744  28.832  29.255  1.00  0.00     0.031 A 
ATOM     16  C   UNL A   1      40.688  29.727  30.005  1.00  0.00     0.074 A 
ATOM     17  C   UNL A   1      40.126  27.590  28.905  1.00  0.00     0.049 A 
ATOM     18  N   UNL A   1      41.924  29.498  30.370  1.00  0.00    -0.248 NA
ATOM     19  C   UNL A   1      40.180  31.052  30.389  1.00  0.00     0.031 C 
ATOM     20  C   UNL A   1      39.302  26.630  28.169  1.00  0.00     0.029 A 
ATOM     21  N   UNL A   1      41.311  26.930  29.108  1.00  0.00    -0.354 N 
ATOM     22  C   UNL A   1      42.352  30.658  31.001  1.00  0.00     0.074 A 
ATOM     23  C   UNL A   1      41.247  31.594  30.959  1.00  0.00     0.031 C 
ATOM     24  C   UNL A   1      40.006  25.503  27.984  1.00  0.00     0.029 A 
ATOM     25  C   UNL A   1      41.343  25.680  28.542  1.00  0.00     0.049 A 
ATOM     26  H   UNL A   1      42.066  27.315  29.611  1.00  0.00     0.167 HD
ATOM     27  C   UNL A   1      43.557  30.920  31.564  1.00  0.00     0.031 A 
ATOM     28  C   UNL A   1      42.343  24.785  28.450  1.00  0.00     0.031 A 
ATOM     29  C   UNL A   1      44.654  29.991  31.602  1.00  0.00     0.049 A 
ATOM     30  C   UNL A   1      43.678  25.109  29.051  1.00  0.00     0.074 A 
ATOM     31  C   UNL A   1      45.897  30.148  32.192  1.00  0.00     0.029 A 
ATOM     32  N   UNL A   1      44.645  28.734  31.016  1.00  0.00    -0.354 N 
ATOM     33  N   UNL A   1      44.053  26.193  29.686  1.00  0.00    -0.248 NA
ATOM     34  C   UNL A   1      44.727  24.087  28.925  1.00  0.00     0.031 C 
ATOM     35  C   UNL A   1      46.656  29.002  31.923  1.00  0.00     0.029 A 
ATOM     36  C   UNL A   1      45.868  28.115  31.206  1.00  0.00     0.049 A 
ATOM     37  H   UNL A   1      43.881  28.341  30.536  1.00  0.00     0.167 HD
ATOM     38  C   UNL A   1      45.375  25.978  30.049  1.00  0.00     0.074 A 
ATOM     39  C   UNL A   1      45.734  24.658  29.572  1.00  0.00     0.031 C 
ATOM     40  C   UNL A   1      46.213  26.804  30.723  1.00  0.00     0.031 A 
BRANCH  27  41
ATOM     41  C   UNL A   1      43.758  32.288  32.153  1.00  0.00    -0.014 A 
ATOM     42  C   UNL A   1      43.449  32.559  33.494  1.00  0.00     0.009 A 
ATOM     43  C   UNL A   1      44.286  33.316  31.356  1.00  0.00     0.009 A 
ATOM     44  C   UNL A   1      43.629  33.842  34.015  1.00  0.00     0.001 A 
ATOM     45  C   UNL A   1      44.488  34.592  31.885  1.00  0.00     0.001 A 
ATOM     46  C   UNL A   1      44.149  34.855  33.211  1.00  0.00     0.000 A 
ENDBRANCH  27  41
BRANCH  28  47
ATOM     47  C   UNL A   1      42.105  23.506  27.738  1.00  0.00    -0.014 A 
ATOM     48  C   UNL A   1      41.457  22.442  28.379  1.00  0.00     0.009 A 
ATOM     49  C   UNL A   1      42.475  23.369  26.390  1.00  0.00     0.009 A 
ATOM     50  C   UNL A   1      41.186  21.261  27.685  1.00  0.00     0.001 A 
ATOM     51  C   UNL A   1      42.183  22.196  25.693  1.00  0.00     0.001 A 
ATOM     52  C   UNL A   1      41.542  21.142  26.342  1.00  0.00     0.000 A 
ENDBRANCH  28  47
BRANCH  40  53
ATOM     53  C   UNL A   1      47.594  26.293  31.012  1.00  0.00    -0.014 A 
ATOM     54  C   UNL A   1      47.903  25.698  32.244  1.00  0.00     0.009 A 
ATOM     55  C   UNL A   1      48.581  26.358  30.016  1.00  0.00     0.009 A 
ATOM     56  C   UNL A   1      49.183  25.191  32.478  1.00  0.00     0.001 A 
ATOM     57  C   UNL A   1      49.853  25.832  30.246  1.00  0.00     0.001 A 
ATOM     58  C   UNL A   1      50.154  25.255  31.478  1.00  0.00     0.000 A 
ENDBRANCH  40  53
ENDBRANCH  14  15
ENDBRANCH   7   9
ENDBRANCH   4   5
ENDBRANCH   3   4
ENDBRANCH   2   3
ENDBRANCH   1   2
BRANCH   1  59
ATOM     59  C   UNL A   1      37.681  34.211  31.311  1.00  0.00     0.021 C 
BRANCH  59  60
ATOM     60  C   UNL A   1      38.637  33.799  32.427  1.00  0.00     0.116 C 
BRANCH  60  61
ATOM     61  N   UNL A   1      37.964  33.695  33.713  1.00  0.00    -0.352 N 
ATOM     62  C   UNL A   1      37.638  32.567  34.425  1.00  0.00     0.251 C 
ATOM     63  H   UNL A   1      37.709  34.550  34.131  1.00  0.00     0.163 HD
ATOM     64  O   UNL A   1      36.917  32.634  35.415  1.00  0.00    -0.269 OA
BRANCH  62  65
ATOM     65  C   UNL A   1      38.159  31.255  33.985  1.00  0.00     0.043 A 
ATOM     66  C   UNL A   1      37.315  30.362  33.327  1.00  0.00     0.014 A 
ATOM     67  C   UNL A   1      39.490  30.916  34.244  1.00  0.00     0.062 A 
ATOM     68  C   UNL A   1      37.825  29.145  32.876  1.00  0.00     0.005 A 
ATOM     69  C   UNL A   1      40.014  29.719  33.758  1.00  0.00     0.143 A 
ATOM     70  C   UNL A   1      39.174  28.829  33.083  1.00  0.00     0.048 A 
BRANCH  69  71
ATOM     71  O   UNL A   1      41.329  29.341  33.898  1.00  0.00    -0.379 OA
BRANCH  71  72
ATOM     72  S   UNL A   1      41.936  28.975  35.371  1.00  0.00     0.339 S 
ATOM     73  O   UNL A   1      42.733  30.089  35.843  1.00  0.00    -0.181 OA
ATOM     74  O   UNL A   1      40.870  28.415  36.184  1.00  0.00    -0.181 OA
BRANCH  72  75
ATOM     75  C   UNL A   1      43.076  27.637  35.115  1.00  0.00     0.112 A 
ATOM     76  C   UNL A   1      44.441  27.864  34.934  1.00  0.00     0.024 A 
ATOM     77  C   UNL A   1      42.543  26.342  35.066  1.00  0.00     0.109 A 
ATOM     78  C   UNL A   1      45.288  26.777  34.699  1.00  0.00     0.009 A 
ATOM     79  C   UNL A   1      43.400  25.265  34.829  1.00  0.00     0.270 A 
ATOM     80  C   UNL A   1      44.774  25.477  34.644  1.00  0.00     0.086 A 
BRANCH  79  81
ATOM     81  N   UNL A   1      42.855  23.903  34.772  1.00  0.00     0.062 N 
ATOM     82  O   UNL A   1      43.492  23.054  34.134  1.00  0.00    -0.258 OA
ATOM     83  O   UNL A   1      41.791  23.685  35.367  1.00  0.00    -0.258 OA
ENDBRANCH  79  81
ENDBRANCH  72  75
ENDBRANCH  71  72
ENDBRANCH  69  71
ENDBRANCH  62  65
ENDBRANCH  60  61
ENDBRANCH  59  60
ENDBRANCH   1  59
TORSDOF 17
ENDMDL
MODEL 3
REMARK VINA RESULT:     -11.3      2.243      6.784
REMARK SMILES O=C(NCCCCCCNC(=O)c1cccc(OS(=O)(=O)c2cccc([N+](=O)[O-])c2)c1)c1ccc(-c2c3nc(c(-c4ccccc4)c4ccc([nH]4)c(-c4ccccc4)c4nc(c(-c5ccccc5)c5ccc2[nH]5)C=C4)C=C3)cc1
REMARK SMILES IDX 7 1 6 2 5 3 4 4 3 5 1 6 2 7 32 9 33 10 79 11 34 12 78 13
REMARK SMILES IDX 35 14 36 15 37 16 72 17 38 18 77 19 71 20 73 21 39 22 76 23
REMARK SMILES IDX 70 24 69 25 40 27 62 28 47 29 61 30 48 31 51 32 60 33 74 34
REMARK SMILES IDX 49 35 50 36 59 38 75 39 52 40 41 41 42 42 46 43 43 44 45 45
REMARK SMILES IDX 44 46 63 47 64 48 68 49 65 50 67 51 66 52 53 53 54 54 58 55
REMARK SMILES IDX 55 56 57 57 56 58 8 59 9 60 10 61 11 62 12 64 13 65 14 66
REMARK SMILES IDX 31 67 15 68 17 69 16 70 18 71 19 72 20 73 21 74 22 75 23 76
REMARK SMILES IDX 30 77 24 78 26 79 25 80 27 81 28 82 29 83
REMARK H PARENT 3 8 73 26 51 37 10 63
REMARK Flexibility Score: inf
ROOT
ATOM      1  C   UNL A   1      33.157  25.534  26.126  1.00  0.00     0.002 C 
ENDROOT
BRANCH   1   2
ATOM      2  C   UNL A   1      32.238  26.756  26.045  1.00  0.00     0.002 C 
BRANCH   2   3
ATOM      3  C   UNL A   1      32.432  27.808  27.139  1.00  0.00     0.021 C 
BRANCH   3   4
ATOM      4  C   UNL A   1      33.776  28.533  27.121  1.00  0.00     0.116 C 
BRANCH   4   5
ATOM      5  N   UNL A   1      33.669  29.916  27.550  1.00  0.00    -0.352 N 
ATOM      6  O   UNL A   1      34.257  31.809  28.620  1.00  0.00    -0.269 OA
ATOM      7  C   UNL A   1      34.584  30.701  28.203  1.00  0.00     0.251 C 
ATOM      8  H   UNL A   1      32.813  30.355  27.342  1.00  0.00     0.163 HD
BRANCH   7   9
ATOM      9  C   UNL A   1      35.962  30.214  28.427  1.00  0.00     0.039 A 
ATOM     10  C   UNL A   1      36.927  30.274  27.418  1.00  0.00     0.014 A 
ATOM     11  C   UNL A   1      36.299  29.731  29.695  1.00  0.00     0.014 A 
ATOM     12  C   UNL A   1      38.204  29.764  27.645  1.00  0.00     0.010 A 
ATOM     13  C   UNL A   1      37.593  29.268  29.938  1.00  0.00     0.010 A 
ATOM     14  C   UNL A   1      38.549  29.263  28.910  1.00  0.00    -0.014 A 
BRANCH  14  15
ATOM     15  C   UNL A   1      39.925  28.781  29.179  1.00  0.00     0.031 A 
ATOM     16  C   UNL A   1      40.958  29.699  29.765  1.00  0.00     0.074 A 
ATOM     17  C   UNL A   1      40.254  27.519  28.846  1.00  0.00     0.049 A 
ATOM     18  N   UNL A   1      42.228  29.473  29.987  1.00  0.00    -0.248 NA
ATOM     19  C   UNL A   1      40.508  31.046  30.143  1.00  0.00     0.031 C 
ATOM     20  C   UNL A   1      39.341  26.535  28.262  1.00  0.00     0.029 A 
ATOM     21  N   UNL A   1      41.451  26.855  28.934  1.00  0.00    -0.354 N 
ATOM     22  C   UNL A   1      42.736  30.657  30.504  1.00  0.00     0.074 A 
ATOM     23  C   UNL A   1      41.640  31.602  30.552  1.00  0.00     0.031 C 
ATOM     24  C   UNL A   1      40.010  25.392  28.047  1.00  0.00     0.029 A 
ATOM     25  C   UNL A   1      41.406  25.580  28.429  1.00  0.00     0.049 A 
ATOM     26  H   UNL A   1      42.263  27.256  29.322  1.00  0.00     0.167 HD
ATOM     27  C   UNL A   1      44.002  30.931  30.903  1.00  0.00     0.031 A 
ATOM     28  C   UNL A   1      42.382  24.671  28.260  1.00  0.00     0.031 A 
ATOM     29  C   UNL A   1      45.091  29.992  30.852  1.00  0.00     0.049 A 
ATOM     30  C   UNL A   1      43.783  25.007  28.677  1.00  0.00     0.074 A 
ATOM     31  C   UNL A   1      46.397  30.162  31.278  1.00  0.00     0.029 A 
ATOM     32  N   UNL A   1      45.003  28.709  30.333  1.00  0.00    -0.354 N 
ATOM     33  N   UNL A   1      44.239  26.115  29.209  1.00  0.00    -0.248 NA
ATOM     34  C   UNL A   1      44.802  23.968  28.474  1.00  0.00     0.031 C 
ATOM     35  C   UNL A   1      47.111  28.996  30.974  1.00  0.00     0.029 A 
ATOM     36  C   UNL A   1      46.237  28.086  30.402  1.00  0.00     0.049 A 
ATOM     37  H   UNL A   1      44.184  28.302  29.969  1.00  0.00     0.167 HD
ATOM     38  C   UNL A   1      45.594  25.902  29.419  1.00  0.00     0.074 A 
ATOM     39  C   UNL A   1      45.884  24.557  28.966  1.00  0.00     0.031 C 
ATOM     40  C   UNL A   1      46.512  26.749  29.945  1.00  0.00     0.031 A 
BRANCH  27  41
ATOM     41  C   UNL A   1      44.282  32.322  31.396  1.00  0.00    -0.014 A 
ATOM     42  C   UNL A   1      44.181  32.650  32.757  1.00  0.00     0.009 A 
ATOM     43  C   UNL A   1      44.675  33.316  30.485  1.00  0.00     0.009 A 
ATOM     44  C   UNL A   1      44.429  33.954  33.190  1.00  0.00     0.001 A 
ATOM     45  C   UNL A   1      44.946  34.613  30.924  1.00  0.00     0.001 A 
ATOM     46  C   UNL A   1      44.813  34.933  32.274  1.00  0.00     0.000 A 
ENDBRANCH  27  41
BRANCH  28  47
ATOM     47  C   UNL A   1      42.051  23.362  27.644  1.00  0.00    -0.014 A 
ATOM     48  C   UNL A   1      41.564  22.308  28.428  1.00  0.00     0.009 A 
ATOM     49  C   UNL A   1      42.168  23.185  26.256  1.00  0.00     0.009 A 
ATOM     50  C   UNL A   1      41.202  21.097  27.833  1.00  0.00     0.001 A 
ATOM     51  C   UNL A   1      41.784  21.982  25.662  1.00  0.00     0.001 A 
ATOM     52  C   UNL A   1      41.305  20.938  26.452  1.00  0.00     0.000 A 
ENDBRANCH  28  47
BRANCH  40  53
ATOM     53  C   UNL A   1      47.915  26.237  30.087  1.00  0.00    -0.014 A 
ATOM     54  C   UNL A   1      48.823  26.304  29.020  1.00  0.00     0.009 A 
ATOM     55  C   UNL A   1      48.348  25.734  31.324  1.00  0.00     0.009 A 
ATOM     56  C   UNL A   1      50.137  25.860  29.186  1.00  0.00     0.001 A 
ATOM     57  C   UNL A   1      49.668  25.310  31.492  1.00  0.00     0.001 A 
ATOM     58  C   UNL A   1      50.558  25.369  30.421  1.00  0.00     0.000 A 
ENDBRANCH  40  53
ENDBRANCH  14  15
ENDBRANCH   7   9
ENDBRANCH   4   5
ENDBRANCH   3   4
ENDBRANCH   2   3
ENDBRANCH   1   2
BRANCH   1  59
ATOM     59  C   UNL A   1      32.451  24.185  26.290  1.00  0.00     0.021 C 
BRANCH  59  60
ATOM     60  C   UNL A   1      33.124  23.215  27.257  1.00  0.00     0.116 C 
BRANCH  60  61
ATOM     61  N   UNL A   1      34.504  22.940  26.886  1.00  0.00    -0.352 N 
ATOM     62  C   UNL A   1      34.984  22.306  25.766  1.00  0.00     0.251 C 
ATOM     63  H   UNL A   1      35.186  23.252  27.523  1.00  0.00     0.163 HD
ATOM     64  O   UNL A   1      36.167  21.998  25.677  1.00  0.00    -0.269 OA
BRANCH  62  65
ATOM     65  C   UNL A   1      34.057  21.988  24.659  1.00  0.00     0.043 A 
ATOM     66  C   UNL A   1      33.285  20.828  24.715  1.00  0.00     0.014 A 
ATOM     67  C   UNL A   1      33.971  22.846  23.558  1.00  0.00     0.062 A 
ATOM     68  C   UNL A   1      32.382  20.557  23.688  1.00  0.00     0.005 A 
ATOM     69  C   UNL A   1      33.039  22.600  22.551  1.00  0.00     0.143 A 
ATOM     70  C   UNL A   1      32.253  21.447  22.614  1.00  0.00     0.048 A 
BRANCH  69  71
ATOM     71  O   UNL A   1      32.833  23.430  21.474  1.00  0.00    -0.379 OA
BRANCH  71  72
ATOM     72  S   UNL A   1      33.070  25.042  21.609  1.00  0.00     0.339 S 
ATOM     73  O   UNL A   1      34.188  25.282  22.499  1.00  0.00    -0.181 OA
ATOM     74  O   UNL A   1      33.029  25.628  20.280  1.00  0.00    -0.181 OA
BRANCH  72  75
ATOM     75  C   UNL A   1      31.639  25.682  22.444  1.00  0.00     0.112 A 
ATOM     76  C   UNL A   1      30.791  24.854  23.182  1.00  0.00     0.024 A 
ATOM     77  C   UNL A   1      31.374  27.050  22.303  1.00  0.00     0.109 A 
ATOM     78  C   UNL A   1      29.659  25.403  23.788  1.00  0.00     0.009 A 
ATOM     79  C   UNL A   1      30.237  27.587  22.913  1.00  0.00     0.270 A 
ATOM     80  C   UNL A   1      29.375  26.767  23.656  1.00  0.00     0.086 A 
BRANCH  79  81
ATOM     81  N   UNL A   1      29.944  29.018  22.770  1.00  0.00     0.062 N 
ATOM     82  O   UNL A   1      30.128  29.745  23.756  1.00  0.00    -0.258 OA
ATOM     83  O   UNL A   1      29.536  29.413  21.670  1.00  0.00    -0.258 OA
ENDBRANCH  79  81
ENDBRANCH  72  75
ENDBRANCH  71  72
ENDBRANCH  69  71
ENDBRANCH  62  65
ENDBRANCH  60  61
ENDBRANCH  59  60
ENDBRANCH   1  59
TORSDOF 17
ENDMDL
