MODEL 1
REMARK VINA RESULT:      -9.7      0.000      0.000
REMARK SMILES CCCCCC[C@@H](C(=O)NCCCCCCNC(=O)c1ccc(-c2c3nc(c(-c4ccccc4)c4ccc([nH]4)c(-c4ccccc4)c4nc(c(-c5ccccc5)c5ccc2[nH]5)C=C4)C=C3)cc1)c1ccccc1C
REMARK SMILES IDX 12 1 11 2 10 3 8 4 9 5 7 7 6 8 5 9 4 10 3 11 2 12 1 13 68 14
REMARK SMILES IDX 69 15 73 16 70 17 72 18 74 19 71 20 13 21 14 22 15 23 16 24
REMARK SMILES IDX 17 25 18 26 19 28 20 29 21 30 67 31 22 32 66 33 23 34 24 35
REMARK SMILES IDX 25 36 60 37 26 38 65 39 59 40 61 41 27 42 64 43 58 44 57 45
REMARK SMILES IDX 28 47 50 48 35 49 49 50 36 51 39 52 48 53 62 54 37 55 38 56
REMARK SMILES IDX 47 58 63 59 40 60 29 61 30 62 34 63 31 64 33 65 32 66 51 67
REMARK SMILES IDX 52 68 56 69 53 70 55 71 54 72 41 73 42 74 46 75 43 76 45 77
REMARK SMILES IDX 44 78
REMARK H PARENT 10 6 17 27 61 46 39 57
REMARK Flexibility Score: inf
ROOT
ATOM      1  C   UNL A   1      30.804  24.648  25.838  1.00  0.00     0.021 C 
ENDROOT
BRANCH   1   2
ATOM      2  C   UNL A   1      31.180  23.159  25.787  1.00  0.00     0.116 C 
BRANCH   2   3
ATOM      3  N   UNL A   1      32.201  22.891  26.782  1.00  0.00    -0.356 N 
ATOM      4  C   UNL A   1      33.261  22.030  26.671  1.00  0.00     0.227 C 
ATOM      5  O   UNL A   1      33.547  21.371  27.674  1.00  0.00    -0.274 OA
ATOM      6  H   UNL A   1      32.123  23.381  27.633  1.00  0.00     0.163 HD
BRANCH   4   7
ATOM      7  C   UNL A   1      34.047  21.927  25.351  1.00  0.00     0.109 C 
BRANCH   7   8
ATOM      8  C   UNL A   1      33.940  20.433  24.886  1.00  0.00     0.018 C 
BRANCH   8   9
ATOM      9  C   UNL A   1      32.616  20.003  24.247  1.00  0.00     0.001 C 
BRANCH   9  10
ATOM     10  C   UNL A   1      32.544  18.540  23.793  1.00  0.00     0.000 C 
BRANCH  10  11
ATOM     11  C   UNL A   1      33.810  17.719  24.053  1.00  0.00    -0.000 C 
BRANCH  11  12
ATOM     12  C   UNL A   1      33.658  16.201  23.921  1.00  0.00    -0.003 C 
ATOM     13  C   UNL A   1      33.025  15.534  25.134  1.00  0.00     0.004 C 
ENDBRANCH  11  12
ENDBRANCH  10  11
ENDBRANCH   9  10
ENDBRANCH   8   9
ENDBRANCH   7   8
BRANCH   7  14
ATOM     14  C   UNL A   1      35.538  22.372  25.435  1.00  0.00    -0.033 A 
ATOM     15  C   UNL A   1      36.514  21.347  25.338  1.00  0.00     0.005 A 
ATOM     16  C   UNL A   1      36.029  23.694  25.555  1.00  0.00    -0.047 A 
ATOM     17  C   UNL A   1      37.873  21.575  25.559  1.00  0.00     0.000 A 
ATOM     18  C   UNL A   1      37.404  23.904  25.814  1.00  0.00     0.004 A 
ATOM     19  C   UNL A   1      35.205  24.948  25.430  1.00  0.00     0.044 C 
ATOM     20  C   UNL A   1      38.313  22.854  25.841  1.00  0.00     0.000 A 
ENDBRANCH   7  14
ENDBRANCH   4   7
ENDBRANCH   2   3
ENDBRANCH   1   2
BRANCH   1  21
ATOM     21  C   UNL A   1      31.867  25.534  26.488  1.00  0.00     0.002 C 
BRANCH  21  22
ATOM     22  C   UNL A   1      31.534  27.027  26.481  1.00  0.00     0.002 C 
BRANCH  22  23
ATOM     23  C   UNL A   1      32.682  27.955  26.067  1.00  0.00     0.021 C 
BRANCH  23  24
ATOM     24  C   UNL A   1      33.616  28.378  27.199  1.00  0.00     0.116 C 
BRANCH  24  25
ATOM     25  N   UNL A   1      33.493  29.792  27.504  1.00  0.00    -0.352 N 
ATOM     26  C   UNL A   1      34.366  30.630  28.149  1.00  0.00     0.251 C 
ATOM     27  H   UNL A   1      32.656  30.214  27.201  1.00  0.00     0.163 HD
ATOM     28  O   UNL A   1      33.996  31.740  28.513  1.00  0.00    -0.269 OA
BRANCH  26  29
ATOM     29  C   UNL A   1      35.758  30.201  28.411  1.00  0.00     0.039 A 
ATOM     30  C   UNL A   1      36.680  30.232  27.361  1.00  0.00     0.014 A 
ATOM     31  C   UNL A   1      36.139  29.714  29.665  1.00  0.00     0.014 A 
ATOM     32  C   UNL A   1      37.991  29.803  27.576  1.00  0.00     0.010 A 
ATOM     33  C   UNL A   1      37.463  29.348  29.896  1.00  0.00     0.010 A 
ATOM     34  C   UNL A   1      38.397  29.370  28.848  1.00  0.00    -0.014 A 
BRANCH  34  35
ATOM     35  C   UNL A   1      39.784  28.900  29.086  1.00  0.00     0.031 A 
ATOM     36  C   UNL A   1      40.789  29.815  29.732  1.00  0.00     0.074 A 
ATOM     37  C   UNL A   1      40.152  27.668  28.689  1.00  0.00     0.049 A 
ATOM     38  N   UNL A   1      42.051  29.596  30.003  1.00  0.00    -0.248 NA
ATOM     39  C   UNL A   1      40.322  31.162  30.099  1.00  0.00     0.031 C 
ATOM     40  C   UNL A   1      39.283  26.699  28.018  1.00  0.00     0.029 A 
ATOM     41  N   UNL A   1      41.356  27.020  28.792  1.00  0.00    -0.354 N 
ATOM     42  C   UNL A   1      42.530  30.779  30.553  1.00  0.00     0.074 A 
ATOM     43  C   UNL A   1      41.438  31.727  30.533  1.00  0.00     0.031 C 
ATOM     44  C   UNL A   1      39.976  25.569  27.796  1.00  0.00     0.029 A 
ATOM     45  C   UNL A   1      41.341  25.746  28.281  1.00  0.00     0.049 A 
ATOM     46  H   UNL A   1      42.156  27.430  29.196  1.00  0.00     0.167 HD
ATOM     47  C   UNL A   1      43.761  31.047  31.049  1.00  0.00     0.031 A 
ATOM     48  C   UNL A   1      42.317  24.821  28.216  1.00  0.00     0.031 A 
ATOM     49  C   UNL A   1      44.843  30.101  31.087  1.00  0.00     0.049 A 
ATOM     50  C   UNL A   1      43.672  25.139  28.785  1.00  0.00     0.074 A 
ATOM     51  C   UNL A   1      46.112  30.261  31.616  1.00  0.00     0.029 A 
ATOM     52  N   UNL A   1      44.781  28.814  30.575  1.00  0.00    -0.354 N 
ATOM     53  N   UNL A   1      44.089  26.241  29.358  1.00  0.00    -0.248 NA
ATOM     54  C   UNL A   1      44.683  24.074  28.712  1.00  0.00     0.031 C 
ATOM     55  C   UNL A   1      46.831  29.081  31.389  1.00  0.00     0.029 A 
ATOM     56  C   UNL A   1      45.993  28.172  30.764  1.00  0.00     0.049 A 
ATOM     57  H   UNL A   1      43.991  28.416  30.142  1.00  0.00     0.167 HD
ATOM     58  C   UNL A   1      45.401  25.993  29.741  1.00  0.00     0.074 A 
ATOM     59  C   UNL A   1      45.704  24.633  29.349  1.00  0.00     0.031 C 
ATOM     60  C   UNL A   1      46.276  26.818  30.366  1.00  0.00     0.031 A 
BRANCH  47  61
ATOM     61  C   UNL A   1      43.999  32.430  31.590  1.00  0.00    -0.014 A 
ATOM     62  C   UNL A   1      43.863  32.709  32.960  1.00  0.00     0.009 A 
ATOM     63  C   UNL A   1      44.388  33.464  30.723  1.00  0.00     0.009 A 
ATOM     64  C   UNL A   1      44.071  34.002  33.443  1.00  0.00     0.001 A 
ATOM     65  C   UNL A   1      44.623  34.749  31.213  1.00  0.00     0.001 A 
ATOM     66  C   UNL A   1      44.454  35.020  32.571  1.00  0.00     0.000 A 
ENDBRANCH  47  61
BRANCH  48  67
ATOM     67  C   UNL A   1      42.040  23.490  27.616  1.00  0.00    -0.014 A 
ATOM     68  C   UNL A   1      42.378  23.231  26.279  1.00  0.00     0.009 A 
ATOM     69  C   UNL A   1      41.436  22.475  28.373  1.00  0.00     0.009 A 
ATOM     70  C   UNL A   1      42.091  21.991  25.704  1.00  0.00     0.001 A 
ATOM     71  C   UNL A   1      41.174  21.228  27.804  1.00  0.00     0.001 A 
ATOM     72  C   UNL A   1      41.493  20.989  26.467  1.00  0.00     0.000 A 
ENDBRANCH  48  67
BRANCH  60  73
ATOM     73  C   UNL A   1      47.629  26.256  30.697  1.00  0.00    -0.014 A 
ATOM     74  C   UNL A   1      48.667  26.249  29.752  1.00  0.00     0.009 A 
ATOM     75  C   UNL A   1      47.875  25.754  31.984  1.00  0.00     0.009 A 
ATOM     76  C   UNL A   1      49.914  25.717  30.081  1.00  0.00     0.001 A 
ATOM     77  C   UNL A   1      49.132  25.248  32.318  1.00  0.00     0.001 A 
ATOM     78  C   UNL A   1      50.146  25.220  31.363  1.00  0.00     0.000 A 
ENDBRANCH  60  73
ENDBRANCH  34  35
ENDBRANCH  26  29
ENDBRANCH  24  25
ENDBRANCH  23  24
ENDBRANCH  22  23
ENDBRANCH  21  22
ENDBRANCH   1  21
TORSDOF 19
ENDMDL
MODEL 2
REMARK VINA RESULT:      -9.6      0.432      5.980
REMARK SMILES CCCCCC[C@@H](C(=O)NCCCCCCNC(=O)c1ccc(-c2c3nc(c(-c4ccccc4)c4ccc([nH]4)c(-c4ccccc4)c4nc(c(-c5ccccc5)c5ccc2[nH]5)C=C4)C=C3)cc1)c1ccccc1C
REMARK SMILES IDX 12 1 11 2 10 3 8 4 9 5 7 7 6 8 5 9 4 10 3 11 2 12 1 13 68 14
REMARK SMILES IDX 69 15 73 16 70 17 72 18 74 19 71 20 13 21 14 22 15 23 16 24
REMARK SMILES IDX 17 25 18 26 19 28 20 29 21 30 67 31 22 32 66 33 23 34 24 35
REMARK SMILES IDX 25 36 60 37 26 38 65 39 59 40 61 41 27 42 64 43 58 44 57 45
REMARK SMILES IDX 28 47 50 48 35 49 49 50 36 51 39 52 48 53 62 54 37 55 38 56
REMARK SMILES IDX 47 58 63 59 40 60 29 61 30 62 34 63 31 64 33 65 32 66 51 67
REMARK SMILES IDX 52 68 56 69 53 70 55 71 54 72 41 73 42 74 46 75 43 76 45 77
REMARK SMILES IDX 44 78
REMARK H PARENT 10 6 17 27 61 46 39 57
REMARK Flexibility Score: inf
ROOT
ATOM      1  C   UNL A   1      30.819  24.494  25.714  1.00  0.00     0.021 C 
ENDROOT
BRANCH   1   2
ATOM      2  C   UNL A   1      31.187  23.014  25.534  1.00  0.00     0.116 C 
BRANCH   2   3
ATOM      3  N   UNL A   1      32.182  22.647  26.524  1.00  0.00    -0.356 N 
ATOM      4  C   UNL A   1      33.196  21.737  26.380  1.00  0.00     0.227 C 
ATOM      5  O   UNL A   1      33.438  21.018  27.354  1.00  0.00    -0.274 OA
ATOM      6  H   UNL A   1      32.121  23.100  27.395  1.00  0.00     0.163 HD
BRANCH   4   7
ATOM      7  C   UNL A   1      33.990  21.654  25.063  1.00  0.00     0.109 C 
BRANCH   7   8
ATOM      8  C   UNL A   1      33.882  20.168  24.573  1.00  0.00     0.018 C 
BRANCH   8   9
ATOM      9  C   UNL A   1      32.477  19.645  24.260  1.00  0.00     0.001 C 
BRANCH   9  10
ATOM     10  C   UNL A   1      32.418  18.284  23.556  1.00  0.00     0.000 C 
BRANCH  10  11
ATOM     11  C   UNL A   1      33.780  17.670  23.222  1.00  0.00    -0.000 C 
BRANCH  11  12
ATOM     12  C   UNL A   1      34.026  16.260  23.769  1.00  0.00    -0.003 C 
ATOM     13  C   UNL A   1      34.632  16.234  25.164  1.00  0.00     0.004 C 
ENDBRANCH  11  12
ENDBRANCH  10  11
ENDBRANCH   9  10
ENDBRANCH   8   9
ENDBRANCH   7   8
BRANCH   7  14
ATOM     14  C   UNL A   1      35.481  22.094  25.163  1.00  0.00    -0.033 A 
ATOM     15  C   UNL A   1      36.456  21.071  25.035  1.00  0.00     0.005 A 
ATOM     16  C   UNL A   1      35.974  23.411  25.324  1.00  0.00    -0.047 A 
ATOM     17  C   UNL A   1      37.815  21.290  25.265  1.00  0.00     0.000 A 
ATOM     18  C   UNL A   1      37.348  23.611  25.590  1.00  0.00     0.004 A 
ATOM     19  C   UNL A   1      35.151  24.670  25.236  1.00  0.00     0.044 C 
ATOM     20  C   UNL A   1      38.257  22.560  25.586  1.00  0.00     0.000 A 
ENDBRANCH   7  14
ENDBRANCH   4   7
ENDBRANCH   2   3
ENDBRANCH   1   2
BRANCH   1  21
ATOM     21  C   UNL A   1      31.924  25.335  26.353  1.00  0.00     0.002 C 
BRANCH  21  22
ATOM     22  C   UNL A   1      31.591  26.823  26.481  1.00  0.00     0.002 C 
BRANCH  22  23
ATOM     23  C   UNL A   1      32.665  27.784  25.959  1.00  0.00     0.021 C 
BRANCH  23  24
ATOM     24  C   UNL A   1      33.710  28.212  26.988  1.00  0.00     0.116 C 
BRANCH  24  25
ATOM     25  N   UNL A   1      33.582  29.616  27.339  1.00  0.00    -0.352 N 
ATOM     26  C   UNL A   1      34.454  30.435  28.009  1.00  0.00     0.251 C 
ATOM     27  H   UNL A   1      32.744  30.044  27.051  1.00  0.00     0.163 HD
ATOM     28  O   UNL A   1      34.081  31.532  28.409  1.00  0.00    -0.269 OA
BRANCH  26  29
ATOM     29  C   UNL A   1      35.847  30.003  28.255  1.00  0.00     0.039 A 
ATOM     30  C   UNL A   1      36.180  29.493  29.514  1.00  0.00     0.014 A 
ATOM     31  C   UNL A   1      36.834  30.154  27.276  1.00  0.00     0.014 A 
ATOM     32  C   UNL A   1      37.496  29.107  29.780  1.00  0.00     0.010 A 
ATOM     33  C   UNL A   1      38.131  29.709  27.521  1.00  0.00     0.010 A 
ATOM     34  C   UNL A   1      38.479  29.200  28.782  1.00  0.00    -0.014 A 
BRANCH  34  35
ATOM     35  C   UNL A   1      39.882  28.805  29.057  1.00  0.00     0.031 A 
ATOM     36  C   UNL A   1      40.373  27.440  28.656  1.00  0.00     0.074 A 
ATOM     37  C   UNL A   1      40.705  29.655  29.699  1.00  0.00     0.049 A 
ATOM     38  N   UNL A   1      41.555  26.903  28.828  1.00  0.00    -0.248 NA
ATOM     39  C   UNL A   1      39.402  26.552  27.996  1.00  0.00     0.031 C 
ATOM     40  C   UNL A   1      40.339  30.991  30.174  1.00  0.00     0.029 A 
ATOM     41  N   UNL A   1      42.020  29.519  30.064  1.00  0.00    -0.354 N 
ATOM     42  C   UNL A   1      41.463  25.614  28.318  1.00  0.00     0.074 A 
ATOM     43  C   UNL A   1      40.098  25.433  27.872  1.00  0.00     0.031 C 
ATOM     44  C   UNL A   1      41.415  31.563  30.742  1.00  0.00     0.029 A 
ATOM     45  C   UNL A   1      42.532  30.624  30.697  1.00  0.00     0.049 A 
ATOM     46  H   UNL A   1      42.547  28.706  29.888  1.00  0.00     0.167 HD
ATOM     47  C   UNL A   1      42.430  24.673  28.209  1.00  0.00     0.031 A 
ATOM     48  C   UNL A   1      43.765  30.858  31.183  1.00  0.00     0.031 A 
ATOM     49  C   UNL A   1      43.791  24.857  28.634  1.00  0.00     0.049 A 
ATOM     50  C   UNL A   1      44.825  29.802  31.039  1.00  0.00     0.074 A 
ATOM     51  C   UNL A   1      44.858  23.983  28.520  1.00  0.00     0.029 A 
ATOM     52  N   UNL A   1      44.274  26.000  29.254  1.00  0.00    -0.354 N 
ATOM     53  N   UNL A   1      44.737  28.612  30.496  1.00  0.00    -0.248 NA
ATOM     54  C   UNL A   1      46.159  30.132  31.559  1.00  0.00     0.031 C 
ATOM     55  C   UNL A   1      45.978  24.582  29.106  1.00  0.00     0.029 A 
ATOM     56  C   UNL A   1      45.620  25.848  29.541  1.00  0.00     0.049 A 
ATOM     57  H   UNL A   1      43.738  26.800  29.459  1.00  0.00     0.167 HD
ATOM     58  C   UNL A   1      46.010  28.063  30.583  1.00  0.00     0.074 A 
ATOM     59  C   UNL A   1      46.853  29.055  31.216  1.00  0.00     0.031 C 
ATOM     60  C   UNL A   1      46.443  26.846  30.171  1.00  0.00     0.031 A 
BRANCH  47  61
ATOM     61  C   UNL A   1      42.041  23.352  27.605  1.00  0.00    -0.014 A 
ATOM     62  C   UNL A   1      41.425  22.353  28.377  1.00  0.00     0.009 A 
ATOM     63  C   UNL A   1      42.271  23.110  26.242  1.00  0.00     0.009 A 
ATOM     64  C   UNL A   1      41.086  21.125  27.806  1.00  0.00     0.001 A 
ATOM     65  C   UNL A   1      41.904  21.892  25.666  1.00  0.00     0.001 A 
ATOM     66  C   UNL A   1      41.322  20.897  26.450  1.00  0.00     0.000 A 
ENDBRANCH  47  61
BRANCH  48  67
ATOM     67  C   UNL A   1      44.077  32.162  31.823  1.00  0.00    -0.014 A 
ATOM     68  C   UNL A   1      44.551  33.235  31.053  1.00  0.00     0.009 A 
ATOM     69  C   UNL A   1      43.906  32.340  33.204  1.00  0.00     0.009 A 
ATOM     70  C   UNL A   1      44.874  34.451  31.657  1.00  0.00     0.001 A 
ATOM     71  C   UNL A   1      44.205  33.566  33.802  1.00  0.00     0.001 A 
ATOM     72  C   UNL A   1      44.697  34.618  33.030  1.00  0.00     0.000 A 
ENDBRANCH  48  67
BRANCH  60  73
ATOM     73  C   UNL A   1      47.901  26.539  30.359  1.00  0.00    -0.014 A 
ATOM     74  C   UNL A   1      48.371  25.916  31.525  1.00  0.00     0.009 A 
ATOM     75  C   UNL A   1      48.813  26.854  29.339  1.00  0.00     0.009 A 
ATOM     76  C   UNL A   1      49.731  25.645  31.680  1.00  0.00     0.001 A 
ATOM     77  C   UNL A   1      50.168  26.557  29.485  1.00  0.00     0.001 A 
ATOM     78  C   UNL A   1      50.627  25.963  30.659  1.00  0.00     0.000 A 
ENDBRANCH  60  73
ENDBRANCH  34  35
ENDBRANCH  26  29
ENDBRANCH  24  25
ENDBRANCH  23  24
ENDBRANCH  22  23
ENDBRANCH  21  22
ENDBRANCH   1  21
TORSDOF 19
ENDMDL
MODEL 3
REMARK VINA RESULT:      -9.4      3.044      8.296
REMARK SMILES CCCCCC[C@@H](C(=O)NCCCCCCNC(=O)c1ccc(-c2c3nc(c(-c4ccccc4)c4ccc([nH]4)c(-c4ccccc4)c4nc(c(-c5ccccc5)c5ccc2[nH]5)C=C4)C=C3)cc1)c1ccccc1C
REMARK SMILES IDX 12 1 11 2 10 3 8 4 9 5 7 7 6 8 5 9 4 10 3 11 2 12 1 13 68 14
REMARK SMILES IDX 69 15 73 16 70 17 72 18 74 19 71 20 13 21 14 22 15 23 16 24
REMARK SMILES IDX 17 25 18 26 19 28 20 29 21 30 67 31 22 32 66 33 23 34 24 35
REMARK SMILES IDX 25 36 60 37 26 38 65 39 59 40 61 41 27 42 64 43 58 44 57 45
REMARK SMILES IDX 28 47 50 48 35 49 49 50 36 51 39 52 48 53 62 54 37 55 38 56
REMARK SMILES IDX 47 58 63 59 40 60 29 61 30 62 34 63 31 64 33 65 32 66 51 67
REMARK SMILES IDX 52 68 56 69 53 70 55 71 54 72 41 73 42 74 46 75 43 76 45 77
REMARK SMILES IDX 44 78
REMARK H PARENT 10 6 17 27 61 46 39 57
REMARK Flexibility Score: inf
ROOT
ATOM      1  C   UNL A   1      32.145  23.686  24.615  1.00  0.00     0.021 C 
ENDROOT
BRANCH   1   2
ATOM      2  C   UNL A   1      31.063  24.164  23.635  1.00  0.00     0.116 C 
BRANCH   2   3
ATOM      3  N   UNL A   1      31.658  25.073  22.674  1.00  0.00    -0.356 N 
ATOM      4  C   UNL A   1      31.240  26.341  22.365  1.00  0.00     0.227 C 
ATOM      5  O   UNL A   1      31.289  26.666  21.176  1.00  0.00    -0.274 OA
ATOM      6  H   UNL A   1      32.449  24.743  22.190  1.00  0.00     0.163 HD
BRANCH   4   7
ATOM      7  C   UNL A   1      30.756  27.296  23.473  1.00  0.00     0.109 C 
BRANCH   7   8
ATOM      8  C   UNL A   1      30.349  28.633  22.760  1.00  0.00     0.018 C 
BRANCH   8   9
ATOM      9  C   UNL A   1      29.260  29.471  23.437  1.00  0.00     0.001 C 
BRANCH   9  10
ATOM     10  C   UNL A   1      28.191  30.048  22.501  1.00  0.00     0.000 C 
BRANCH  10  11
ATOM     11  C   UNL A   1      27.727  31.465  22.845  1.00  0.00    -0.000 C 
BRANCH  11  12
ATOM     12  C   UNL A   1      28.514  32.601  22.183  1.00  0.00    -0.003 C 
ATOM     13  C   UNL A   1      29.071  33.623  23.164  1.00  0.00     0.004 C 
ENDBRANCH  11  12
ENDBRANCH  10  11
ENDBRANCH   9  10
ENDBRANCH   8   9
ENDBRANCH   7   8
BRANCH   7  14
ATOM     14  C   UNL A   1      31.790  27.569  24.605  1.00  0.00    -0.033 A 
ATOM     15  C   UNL A   1      31.377  27.267  25.929  1.00  0.00     0.005 A 
ATOM     16  C   UNL A   1      33.115  28.045  24.456  1.00  0.00    -0.047 A 
ATOM     17  C   UNL A   1      32.132  27.610  27.052  1.00  0.00     0.000 A 
ATOM     18  C   UNL A   1      33.851  28.421  25.604  1.00  0.00     0.004 A 
ATOM     19  C   UNL A   1      33.847  28.198  23.150  1.00  0.00     0.044 C 
ATOM     20  C   UNL A   1      33.356  28.230  26.888  1.00  0.00     0.000 A 
ENDBRANCH   7  14
ENDBRANCH   4   7
ENDBRANCH   2   3
ENDBRANCH   1   2
BRANCH   1  21
ATOM     21  C   UNL A   1      33.529  24.280  24.349  1.00  0.00     0.002 C 
BRANCH  21  22
ATOM     22  C   UNL A   1      34.371  24.507  25.606  1.00  0.00     0.002 C 
BRANCH  22  23
ATOM     23  C   UNL A   1      35.474  23.471  25.854  1.00  0.00     0.021 C 
BRANCH  23  24
ATOM     24  C   UNL A   1      36.843  23.828  25.280  1.00  0.00     0.116 C 
BRANCH  24  25
ATOM     25  N   UNL A   1      37.844  22.826  25.601  1.00  0.00    -0.352 N 
ATOM     26  C   UNL A   1      39.077  22.974  26.181  1.00  0.00     0.251 C 
ATOM     27  H   UNL A   1      37.600  21.902  25.367  1.00  0.00     0.163 HD
ATOM     28  O   UNL A   1      39.876  22.044  26.170  1.00  0.00    -0.269 OA
BRANCH  26  29
ATOM     29  C   UNL A   1      39.454  24.252  26.823  1.00  0.00     0.039 A 
ATOM     30  C   UNL A   1      40.181  25.188  26.082  1.00  0.00     0.014 A 
ATOM     31  C   UNL A   1      39.148  24.504  28.164  1.00  0.00     0.014 A 
ATOM     32  C   UNL A   1      40.575  26.389  26.675  1.00  0.00     0.010 A 
ATOM     33  C   UNL A   1      39.485  25.730  28.736  1.00  0.00     0.010 A 
ATOM     34  C   UNL A   1      40.219  26.675  28.003  1.00  0.00    -0.014 A 
BRANCH  34  35
ATOM     35  C   UNL A   1      40.642  27.942  28.648  1.00  0.00     0.031 A 
ATOM     36  C   UNL A   1      39.650  29.057  28.843  1.00  0.00     0.074 A 
ATOM     37  C   UNL A   1      41.924  28.107  29.025  1.00  0.00     0.049 A 
ATOM     38  N   UNL A   1      39.832  30.244  29.365  1.00  0.00    -0.248 NA
ATOM     39  C   UNL A   1      38.278  28.816  28.367  1.00  0.00     0.031 C 
ATOM     40  C   UNL A   1      42.991  27.118  28.856  1.00  0.00     0.029 A 
ATOM     41  N   UNL A   1      42.546  29.171  29.627  1.00  0.00    -0.354 N 
ATOM     42  C   UNL A   1      38.608  30.894  29.263  1.00  0.00     0.074 A 
ATOM     43  C   UNL A   1      37.704  29.989  28.586  1.00  0.00     0.031 C 
ATOM     44  C   UNL A   1      44.129  27.612  29.371  1.00  0.00     0.029 A 
ATOM     45  C   UNL A   1      43.879  28.958  29.876  1.00  0.00     0.049 A 
ATOM     46  H   UNL A   1      42.080  30.007  29.859  1.00  0.00     0.167 HD
ATOM     47  C   UNL A   1      38.260  32.123  29.709  1.00  0.00     0.031 A 
ATOM     48  C   UNL A   1      44.797  29.757  30.452  1.00  0.00     0.031 A 
ATOM     49  C   UNL A   1      39.151  33.018  30.398  1.00  0.00     0.049 A 
ATOM     50  C   UNL A   1      44.383  31.114  30.950  1.00  0.00     0.074 A 
ATOM     51  C   UNL A   1      38.880  34.264  30.935  1.00  0.00     0.029 A 
ATOM     52  N   UNL A   1      40.490  32.756  30.647  1.00  0.00    -0.354 N 
ATOM     53  N   UNL A   1      43.205  31.688  30.902  1.00  0.00    -0.248 NA
ATOM     54  C   UNL A   1      45.424  31.923  31.600  1.00  0.00     0.031 C 
ATOM     55  C   UNL A   1      40.066  34.774  31.475  1.00  0.00     0.029 A 
ATOM     56  C   UNL A   1      41.062  33.824  31.318  1.00  0.00     0.049 A 
ATOM     57  H   UNL A   1      40.963  31.934  30.385  1.00  0.00     0.167 HD
ATOM     58  C   UNL A   1      43.356  32.912  31.540  1.00  0.00     0.074 A 
ATOM     59  C   UNL A   1      44.734  32.990  31.979  1.00  0.00     0.031 C 
ATOM     60  C   UNL A   1      42.434  33.884  31.747  1.00  0.00     0.031 A 
BRANCH  47  61
ATOM     61  C   UNL A   1      36.847  32.573  29.459  1.00  0.00    -0.014 A 
ATOM     62  C   UNL A   1      36.486  33.201  28.255  1.00  0.00     0.009 A 
ATOM     63  C   UNL A   1      35.858  32.345  30.428  1.00  0.00     0.009 A 
ATOM     64  C   UNL A   1      35.174  33.628  28.046  1.00  0.00     0.001 A 
ATOM     65  C   UNL A   1      34.540  32.746  30.203  1.00  0.00     0.001 A 
ATOM     66  C   UNL A   1      34.201  33.398  29.018  1.00  0.00     0.000 A 
ENDBRANCH  47  61
BRANCH  48  67
ATOM     67  C   UNL A   1      46.195  29.283  30.620  1.00  0.00    -0.014 A 
ATOM     68  C   UNL A   1      47.139  29.484  29.602  1.00  0.00     0.009 A 
ATOM     69  C   UNL A   1      46.591  28.625  31.795  1.00  0.00     0.009 A 
ATOM     70  C   UNL A   1      48.445  29.011  29.745  1.00  0.00     0.001 A 
ATOM     71  C   UNL A   1      47.904  28.177  31.946  1.00  0.00     0.001 A 
ATOM     72  C   UNL A   1      48.829  28.362  30.918  1.00  0.00     0.000 A 
ENDBRANCH  48  67
BRANCH  60  73
ATOM     73  C   UNL A   1      42.879  35.097  32.514  1.00  0.00    -0.014 A 
ATOM     74  C   UNL A   1      42.695  35.190  33.902  1.00  0.00     0.009 A 
ATOM     75  C   UNL A   1      43.519  36.147  31.838  1.00  0.00     0.009 A 
ATOM     76  C   UNL A   1      43.112  36.329  34.592  1.00  0.00     0.001 A 
ATOM     77  C   UNL A   1      43.959  37.273  32.535  1.00  0.00     0.001 A 
ATOM     78  C   UNL A   1      43.746  37.367  33.909  1.00  0.00     0.000 A 
ENDBRANCH  60  73
ENDBRANCH  34  35
ENDBRANCH  26  29
ENDBRANCH  24  25
ENDBRANCH  23  24
ENDBRANCH  22  23
ENDBRANCH  21  22
ENDBRANCH   1  21
TORSDOF 19
ENDMDL
