MODEL 1
REMARK VINA RESULT:     -11.5      0.000      0.000
REMARK SMILES O=C(NCCCCCCNC(=O)[C@@H]1CCC(=O)N1C(=O)/C=C/c1ccccc1)c1ccc(-c2c3nc(c(-c4ccccc4)c4ccc([nH]4)c(-c4ccccc4)c4nc(c(-c5ccccc5)c5ccc2[nH]5)C=C4)C=C3)cc1
REMARK SMILES IDX 7 1 6 2 5 3 4 4 3 5 1 6 2 7 29 9 30 10 76 11 31 12 75 13
REMARK SMILES IDX 32 14 33 15 34 16 69 17 35 18 74 19 68 20 70 21 36 22 73 23
REMARK SMILES IDX 67 24 66 25 37 27 59 28 44 29 58 30 45 31 48 32 57 33 71 34
REMARK SMILES IDX 46 35 47 36 56 38 72 39 49 40 38 41 39 42 43 43 40 44 42 45
REMARK SMILES IDX 41 46 60 47 61 48 65 49 62 50 64 51 63 52 50 53 51 54 55 55
REMARK SMILES IDX 52 56 54 57 53 58 8 59 9 60 10 61 11 62 12 64 13 65 14 66
REMARK SMILES IDX 18 67 15 68 16 69 17 70 19 71 20 72 21 73 22 74 23 75 24 76
REMARK SMILES IDX 28 77 25 78 27 79 26 80
REMARK H PARENT 3 8 70 26 48 37 10 63
REMARK Flexibility Score: inf
ROOT
ATOM      1  C   UNL A   1      37.123  22.259  24.614  1.00  0.00     0.002 C 
ENDROOT
BRANCH   1   2
ATOM      2  C   UNL A   1      36.731  20.824  24.975  1.00  0.00     0.002 C 
BRANCH   2   3
ATOM      3  C   UNL A   1      37.869  19.803  24.944  1.00  0.00     0.021 C 
BRANCH   3   4
ATOM      4  C   UNL A   1      39.100  20.180  25.759  1.00  0.00     0.116 C 
BRANCH   4   5
ATOM      5  N   UNL A   1      40.124  19.149  25.751  1.00  0.00    -0.352 N 
ATOM      6  O   UNL A   1      42.221  18.311  25.793  1.00  0.00    -0.269 OA
ATOM      7  C   UNL A   1      41.478  19.271  25.964  1.00  0.00     0.251 C 
ATOM      8  H   UNL A   1      39.805  18.236  25.569  1.00  0.00     0.163 HD
BRANCH   7   9
ATOM      9  C   UNL A   1      42.042  20.578  26.365  1.00  0.00     0.039 A 
ATOM     10  C   UNL A   1      42.220  20.897  27.714  1.00  0.00     0.014 A 
ATOM     11  C   UNL A   1      42.389  21.502  25.375  1.00  0.00     0.014 A 
ATOM     12  C   UNL A   1      42.597  22.186  28.073  1.00  0.00     0.010 A 
ATOM     13  C   UNL A   1      42.847  22.772  25.738  1.00  0.00     0.010 A 
ATOM     14  C   UNL A   1      42.915  23.139  27.091  1.00  0.00    -0.014 A 
BRANCH  14  15
ATOM     15  C   UNL A   1      43.342  24.498  27.511  1.00  0.00     0.031 A 
ATOM     16  C   UNL A   1      44.781  24.927  27.414  1.00  0.00     0.074 A 
ATOM     17  C   UNL A   1      42.409  25.370  27.937  1.00  0.00     0.049 A 
ATOM     18  N   UNL A   1      45.306  26.102  27.663  1.00  0.00    -0.248 NA
ATOM     19  C   UNL A   1      45.758  23.913  26.988  1.00  0.00     0.031 C 
ATOM     20  C   UNL A   1      40.981  25.072  28.085  1.00  0.00     0.029 A 
ATOM     21  N   UNL A   1      42.512  26.690  28.294  1.00  0.00    -0.354 N 
ATOM     22  C   UNL A   1      46.672  25.961  27.453  1.00  0.00     0.074 A 
ATOM     23  C   UNL A   1      46.899  24.583  27.071  1.00  0.00     0.031 C 
ATOM     24  C   UNL A   1      40.334  26.193  28.437  1.00  0.00     0.029 A 
ATOM     25  C   UNL A   1      41.304  27.271  28.592  1.00  0.00     0.049 A 
ATOM     26  H   UNL A   1      43.368  27.174  28.333  1.00  0.00     0.167 HD
ATOM     27  C   UNL A   1      47.649  26.893  27.565  1.00  0.00     0.031 A 
ATOM     28  C   UNL A   1      41.004  28.532  28.948  1.00  0.00     0.031 A 
ATOM     29  C   UNL A   1      47.426  28.268  27.931  1.00  0.00     0.049 A 
ATOM     30  C   UNL A   1      42.106  29.544  29.066  1.00  0.00     0.074 A 
ATOM     31  C   UNL A   1      48.348  29.296  28.026  1.00  0.00     0.029 A 
ATOM     32  N   UNL A   1      46.193  28.807  28.263  1.00  0.00    -0.354 N 
ATOM     33  N   UNL A   1      43.385  29.402  28.823  1.00  0.00    -0.248 NA
ATOM     34  C   UNL A   1      41.717  30.891  29.507  1.00  0.00     0.031 C 
ATOM     35  C   UNL A   1      47.679  30.448  28.457  1.00  0.00     0.029 A 
ATOM     36  C   UNL A   1      46.334  30.147  28.586  1.00  0.00     0.049 A 
ATOM     37  H   UNL A   1      45.343  28.310  28.270  1.00  0.00     0.167 HD
ATOM     38  C   UNL A   1      43.955  30.643  29.067  1.00  0.00     0.074 A 
ATOM     39  C   UNL A   1      42.878  31.531  29.457  1.00  0.00     0.031 C 
ATOM     40  C   UNL A   1      45.255  31.014  28.978  1.00  0.00     0.031 A 
BRANCH  27  41
ATOM     41  C   UNL A   1      49.062  26.450  27.314  1.00  0.00    -0.014 A 
ATOM     42  C   UNL A   1      49.885  26.006  28.360  1.00  0.00     0.009 A 
ATOM     43  C   UNL A   1      49.563  26.437  26.003  1.00  0.00     0.009 A 
ATOM     44  C   UNL A   1      51.193  25.585  28.100  1.00  0.00     0.001 A 
ATOM     45  C   UNL A   1      50.862  25.996  25.743  1.00  0.00     0.001 A 
ATOM     46  C   UNL A   1      51.678  25.577  26.792  1.00  0.00     0.000 A 
ENDBRANCH  27  41
BRANCH  28  47
ATOM     47  C   UNL A   1      39.592  28.910  29.207  1.00  0.00    -0.014 A 
ATOM     48  C   UNL A   1      38.828  29.527  28.205  1.00  0.00     0.009 A 
ATOM     49  C   UNL A   1      38.998  28.641  30.449  1.00  0.00     0.009 A 
ATOM     50  C   UNL A   1      37.499  29.881  28.449  1.00  0.00     0.001 A 
ATOM     51  C   UNL A   1      37.663  28.972  30.680  1.00  0.00     0.001 A 
ATOM     52  C   UNL A   1      36.917  29.598  29.683  1.00  0.00     0.000 A 
ENDBRANCH  28  47
BRANCH  40  53
ATOM     53  C   UNL A   1      45.572  32.448  29.284  1.00  0.00    -0.014 A 
ATOM     54  C   UNL A   1      45.529  33.431  28.283  1.00  0.00     0.009 A 
ATOM     55  C   UNL A   1      45.904  32.823  30.595  1.00  0.00     0.009 A 
ATOM     56  C   UNL A   1      45.849  34.756  28.582  1.00  0.00     0.001 A 
ATOM     57  C   UNL A   1      46.199  34.153  30.896  1.00  0.00     0.001 A 
ATOM     58  C   UNL A   1      46.181  35.116  29.888  1.00  0.00     0.000 A 
ENDBRANCH  40  53
ENDBRANCH  14  15
ENDBRANCH   7   9
ENDBRANCH   4   5
ENDBRANCH   3   4
ENDBRANCH   2   3
ENDBRANCH   1   2
BRANCH   1  59
ATOM     59  C   UNL A   1      36.483  22.824  23.340  1.00  0.00     0.021 C 
BRANCH  59  60
ATOM     60  C   UNL A   1      35.055  23.338  23.509  1.00  0.00     0.116 C 
BRANCH  60  61
ATOM     61  N   UNL A   1      34.985  24.381  24.511  1.00  0.00    -0.354 N 
ATOM     62  C   UNL A   1      33.891  24.940  25.105  1.00  0.00     0.243 C 
ATOM     63  H   UNL A   1      35.853  24.740  24.807  1.00  0.00     0.163 HD
ATOM     64  O   UNL A   1      34.070  25.875  25.888  1.00  0.00    -0.273 OA
BRANCH  62  65
ATOM     65  C   UNL A   1      32.490  24.456  24.700  1.00  0.00     0.183 C 
ATOM     66  C   UNL A   1      31.607  25.671  24.458  1.00  0.00     0.046 C 
ATOM     67  N   UNL A   1      31.878  23.745  25.805  1.00  0.00    -0.266 N 
ATOM     68  C   UNL A   1      30.276  25.299  25.073  1.00  0.00     0.103 C 
ATOM     69  C   UNL A   1      30.645  24.315  26.152  1.00  0.00     0.230 C 
ATOM     70  O   UNL A   1      29.917  24.058  27.097  1.00  0.00    -0.274 OA
BRANCH  67  71
ATOM     71  C   UNL A   1      32.448  22.539  26.195  1.00  0.00     0.253 C 
ATOM     72  O   UNL A   1      32.914  22.359  27.320  1.00  0.00    -0.269 OA
BRANCH  71  73
ATOM     73  C   UNL A   1      32.476  21.422  25.230  1.00  0.00     0.072 C 
ATOM     74  C   UNL A   1      33.305  20.380  25.395  1.00  0.00     0.014 C 
BRANCH  74  75
ATOM     75  C   UNL A   1      33.402  19.206  24.511  1.00  0.00    -0.025 A 
ATOM     76  C   UNL A   1      32.483  19.093  23.456  1.00  0.00     0.008 A 
ATOM     77  C   UNL A   1      34.362  18.196  24.665  1.00  0.00     0.008 A 
ATOM     78  C   UNL A   1      32.522  18.004  22.582  1.00  0.00     0.001 A 
ATOM     79  C   UNL A   1      34.399  17.104  23.790  1.00  0.00     0.001 A 
ATOM     80  C   UNL A   1      33.481  17.009  22.749  1.00  0.00     0.000 A 
ENDBRANCH  74  75
ENDBRANCH  71  73
ENDBRANCH  67  71
ENDBRANCH  62  65
ENDBRANCH  60  61
ENDBRANCH  59  60
ENDBRANCH   1  59
TORSDOF 16
ENDMDL
MODEL 2
REMARK VINA RESULT:     -11.4      4.284      9.650
REMARK SMILES O=C(NCCCCCCNC(=O)[C@@H]1CCC(=O)N1C(=O)/C=C/c1ccccc1)c1ccc(-c2c3nc(c(-c4ccccc4)c4ccc([nH]4)c(-c4ccccc4)c4nc(c(-c5ccccc5)c5ccc2[nH]5)C=C4)C=C3)cc1
REMARK SMILES IDX 7 1 6 2 5 3 4 4 3 5 1 6 2 7 29 9 30 10 76 11 31 12 75 13
REMARK SMILES IDX 32 14 33 15 34 16 69 17 35 18 74 19 68 20 70 21 36 22 73 23
REMARK SMILES IDX 67 24 66 25 37 27 59 28 44 29 58 30 45 31 48 32 57 33 71 34
REMARK SMILES IDX 46 35 47 36 56 38 72 39 49 40 38 41 39 42 43 43 40 44 42 45
REMARK SMILES IDX 41 46 60 47 61 48 65 49 62 50 64 51 63 52 50 53 51 54 55 55
REMARK SMILES IDX 52 56 54 57 53 58 8 59 9 60 10 61 11 62 12 64 13 65 14 66
REMARK SMILES IDX 18 67 15 68 16 69 17 70 19 71 20 72 21 73 22 74 23 75 24 76
REMARK SMILES IDX 28 77 25 78 27 79 26 80
REMARK H PARENT 3 8 70 26 48 37 10 63
REMARK Flexibility Score: inf
ROOT
ATOM      1  C   UNL A   1      32.610  29.138  25.891  1.00  0.00     0.002 C 
ENDROOT
BRANCH   1   2
ATOM      2  C   UNL A   1      31.634  30.255  25.510  1.00  0.00     0.002 C 
BRANCH   2   3
ATOM      3  C   UNL A   1      31.413  31.328  26.576  1.00  0.00     0.021 C 
BRANCH   3   4
ATOM      4  C   UNL A   1      32.664  32.090  26.997  1.00  0.00     0.116 C 
BRANCH   4   5
ATOM      5  N   UNL A   1      32.379  33.435  27.467  1.00  0.00    -0.352 N 
ATOM      6  O   UNL A   1      32.650  35.291  28.725  1.00  0.00    -0.269 OA
ATOM      7  C   UNL A   1      33.103  34.222  28.332  1.00  0.00     0.251 C 
ATOM      8  H   UNL A   1      31.552  33.840  27.118  1.00  0.00     0.163 HD
BRANCH   7   9
ATOM      9  C   UNL A   1      34.421  33.757  28.818  1.00  0.00     0.039 A 
ATOM     10  C   UNL A   1      35.592  34.078  28.128  1.00  0.00     0.014 A 
ATOM     11  C   UNL A   1      34.482  32.978  29.978  1.00  0.00     0.014 A 
ATOM     12  C   UNL A   1      36.797  33.498  28.508  1.00  0.00     0.010 A 
ATOM     13  C   UNL A   1      35.708  32.462  30.406  1.00  0.00     0.010 A 
ATOM     14  C   UNL A   1      36.870  32.683  29.651  1.00  0.00    -0.014 A 
BRANCH  14  15
ATOM     15  C   UNL A   1      38.179  32.103  30.045  1.00  0.00     0.031 A 
ATOM     16  C   UNL A   1      39.042  32.762  31.086  1.00  0.00     0.074 A 
ATOM     17  C   UNL A   1      38.568  30.939  29.490  1.00  0.00     0.049 A 
ATOM     18  N   UNL A   1      40.173  32.345  31.600  1.00  0.00    -0.248 NA
ATOM     19  C   UNL A   1      38.586  34.056  31.616  1.00  0.00     0.031 C 
ATOM     20  C   UNL A   1      37.824  30.205  28.462  1.00  0.00     0.029 A 
ATOM     21  N   UNL A   1      39.664  30.153  29.732  1.00  0.00    -0.354 N 
ATOM     22  C   UNL A   1      40.576  33.333  32.490  1.00  0.00     0.074 A 
ATOM     23  C   UNL A   1      39.577  34.380  32.435  1.00  0.00     0.031 C 
ATOM     24  C   UNL A   1      38.452  29.046  28.211  1.00  0.00     0.029 A 
ATOM     25  C   UNL A   1      39.665  28.980  29.017  1.00  0.00     0.049 A 
ATOM     26  H   UNL A   1      40.382  30.405  30.358  1.00  0.00     0.167 HD
ATOM     27  C   UNL A   1      41.674  33.365  33.283  1.00  0.00     0.031 A 
ATOM     28  C   UNL A   1      40.541  27.961  29.010  1.00  0.00     0.031 A 
ATOM     29  C   UNL A   1      42.662  32.320  33.351  1.00  0.00     0.049 A 
ATOM     30  C   UNL A   1      41.750  28.024  29.897  1.00  0.00     0.074 A 
ATOM     31  C   UNL A   1      43.785  32.245  34.157  1.00  0.00     0.029 A 
ATOM     32  N   UNL A   1      42.646  31.167  32.581  1.00  0.00    -0.354 N 
ATOM     33  N   UNL A   1      42.091  28.947  30.761  1.00  0.00    -0.248 NA
ATOM     34  C   UNL A   1      42.692  26.900  29.804  1.00  0.00     0.031 C 
ATOM     35  C   UNL A   1      44.471  31.065  33.846  1.00  0.00     0.029 A 
ATOM     36  C   UNL A   1      43.751  30.386  32.878  1.00  0.00     0.049 A 
ATOM     37  H   UNL A   1      41.952  30.939  31.921  1.00  0.00     0.167 HD
ATOM     38  C   UNL A   1      43.280  28.512  31.327  1.00  0.00     0.074 A 
ATOM     39  C   UNL A   1      43.589  27.231  30.723  1.00  0.00     0.031 C 
ATOM     40  C   UNL A   1      44.048  29.119  32.264  1.00  0.00     0.031 A 
BRANCH  27  41
ATOM     41  C   UNL A   1      41.883  34.590  34.127  1.00  0.00    -0.014 A 
ATOM     42  C   UNL A   1      42.544  35.721  33.623  1.00  0.00     0.009 A 
ATOM     43  C   UNL A   1      41.373  34.628  35.434  1.00  0.00     0.009 A 
ATOM     44  C   UNL A   1      42.715  36.855  34.422  1.00  0.00     0.001 A 
ATOM     45  C   UNL A   1      41.526  35.769  36.224  1.00  0.00     0.001 A 
ATOM     46  C   UNL A   1      42.203  36.879  35.720  1.00  0.00     0.000 A 
ENDBRANCH  27  41
BRANCH  28  47
ATOM     47  C   UNL A   1      40.296  26.784  28.139  1.00  0.00    -0.014 A 
ATOM     48  C   UNL A   1      40.830  26.738  26.842  1.00  0.00     0.009 A 
ATOM     49  C   UNL A   1      39.544  25.696  28.605  1.00  0.00     0.009 A 
ATOM     50  C   UNL A   1      40.601  25.630  26.024  1.00  0.00     0.001 A 
ATOM     51  C   UNL A   1      39.338  24.579  27.794  1.00  0.00     0.001 A 
ATOM     52  C   UNL A   1      39.860  24.550  26.502  1.00  0.00     0.000 A 
ENDBRANCH  28  47
BRANCH  40  53
ATOM     53  C   UNL A   1      45.282  28.388  32.705  1.00  0.00    -0.014 A 
ATOM     54  C   UNL A   1      46.515  28.596  32.067  1.00  0.00     0.009 A 
ATOM     55  C   UNL A   1      45.213  27.493  33.783  1.00  0.00     0.009 A 
ATOM     56  C   UNL A   1      47.648  27.891  32.477  1.00  0.00     0.001 A 
ATOM     57  C   UNL A   1      46.353  26.809  34.207  1.00  0.00     0.001 A 
ATOM     58  C   UNL A   1      47.566  27.001  33.548  1.00  0.00     0.000 A 
ENDBRANCH  40  53
ENDBRANCH  14  15
ENDBRANCH   7   9
ENDBRANCH   4   5
ENDBRANCH   3   4
ENDBRANCH   2   3
ENDBRANCH   1   2
BRANCH   1  59
ATOM     59  C   UNL A   1      32.027  28.008  26.748  1.00  0.00     0.021 C 
BRANCH  59  60
ATOM     60  C   UNL A   1      32.012  26.634  26.080  1.00  0.00     0.116 C 
BRANCH  60  61
ATOM     61  N   UNL A   1      33.353  26.186  25.766  1.00  0.00    -0.354 N 
ATOM     62  C   UNL A   1      33.761  25.239  24.872  1.00  0.00     0.243 C 
ATOM     63  H   UNL A   1      34.073  26.627  26.270  1.00  0.00     0.163 HD
ATOM     64  O   UNL A   1      34.963  24.968  24.824  1.00  0.00    -0.273 OA
BRANCH  62  65
ATOM     65  C   UNL A   1      32.709  24.484  24.046  1.00  0.00     0.183 C 
ATOM     66  C   UNL A   1      32.851  22.995  24.321  1.00  0.00     0.046 C 
ATOM     67  N   UNL A   1      32.986  24.647  22.632  1.00  0.00    -0.266 N 
ATOM     68  C   UNL A   1      32.675  22.343  22.967  1.00  0.00     0.103 C 
ATOM     69  C   UNL A   1      33.128  23.404  21.999  1.00  0.00     0.230 C 
ATOM     70  O   UNL A   1      33.479  23.158  20.856  1.00  0.00    -0.274 OA
BRANCH  67  71
ATOM     71  C   UNL A   1      32.855  25.918  22.088  1.00  0.00     0.253 C 
ATOM     72  O   UNL A   1      33.807  26.536  21.609  1.00  0.00    -0.269 OA
BRANCH  71  73
ATOM     73  C   UNL A   1      31.519  26.546  22.061  1.00  0.00     0.072 C 
ATOM     74  C   UNL A   1      31.300  27.742  22.628  1.00  0.00     0.014 C 
BRANCH  74  75
ATOM     75  C   UNL A   1      30.019  28.468  22.643  1.00  0.00    -0.025 A 
ATOM     76  C   UNL A   1      29.991  29.773  22.129  1.00  0.00     0.008 A 
ATOM     77  C   UNL A   1      28.826  27.927  23.142  1.00  0.00     0.008 A 
ATOM     78  C   UNL A   1      28.808  30.516  22.114  1.00  0.00     0.001 A 
ATOM     79  C   UNL A   1      27.641  28.671  23.128  1.00  0.00     0.001 A 
ATOM     80  C   UNL A   1      27.632  29.964  22.614  1.00  0.00     0.000 A 
ENDBRANCH  74  75
ENDBRANCH  71  73
ENDBRANCH  67  71
ENDBRANCH  62  65
ENDBRANCH  60  61
ENDBRANCH  59  60
ENDBRANCH   1  59
TORSDOF 16
ENDMDL
MODEL 3
REMARK VINA RESULT:     -11.2      5.929     12.785
REMARK SMILES O=C(NCCCCCCNC(=O)[C@@H]1CCC(=O)N1C(=O)/C=C/c1ccccc1)c1ccc(-c2c3nc(c(-c4ccccc4)c4ccc([nH]4)c(-c4ccccc4)c4nc(c(-c5ccccc5)c5ccc2[nH]5)C=C4)C=C3)cc1
REMARK SMILES IDX 7 1 6 2 5 3 4 4 3 5 1 6 2 7 29 9 30 10 76 11 31 12 75 13
REMARK SMILES IDX 32 14 33 15 34 16 69 17 35 18 74 19 68 20 70 21 36 22 73 23
REMARK SMILES IDX 67 24 66 25 37 27 59 28 44 29 58 30 45 31 48 32 57 33 71 34
REMARK SMILES IDX 46 35 47 36 56 38 72 39 49 40 38 41 39 42 43 43 40 44 42 45
REMARK SMILES IDX 41 46 60 47 61 48 65 49 62 50 64 51 63 52 50 53 51 54 55 55
REMARK SMILES IDX 52 56 54 57 53 58 8 59 9 60 10 61 11 62 12 64 13 65 14 66
REMARK SMILES IDX 18 67 15 68 16 69 17 70 19 71 20 72 21 73 22 74 23 75 24 76
REMARK SMILES IDX 28 77 25 78 27 79 26 80
REMARK H PARENT 3 8 70 26 48 37 10 63
REMARK Flexibility Score: inf
ROOT
ATOM      1  C   UNL A   1      34.515  33.558  33.154  1.00  0.00     0.002 C 
ENDROOT
BRANCH   1   2
ATOM      2  C   UNL A   1      34.430  35.007  32.667  1.00  0.00     0.002 C 
BRANCH   2   3
ATOM      3  C   UNL A   1      33.155  35.372  31.906  1.00  0.00     0.021 C 
BRANCH   3   4
ATOM      4  C   UNL A   1      33.376  36.010  30.540  1.00  0.00     0.116 C 
BRANCH   4   5
ATOM      5  N   UNL A   1      32.642  35.344  29.477  1.00  0.00    -0.352 N 
ATOM      6  O   UNL A   1      32.348  33.973  27.706  1.00  0.00    -0.269 OA
ATOM      7  C   UNL A   1      33.056  34.334  28.640  1.00  0.00     0.251 C 
ATOM      8  H   UNL A   1      31.720  35.659  29.336  1.00  0.00     0.163 HD
BRANCH   7   9
ATOM      9  C   UNL A   1      34.380  33.706  28.847  1.00  0.00     0.039 A 
ATOM     10  C   UNL A   1      34.540  32.659  29.757  1.00  0.00     0.014 A 
ATOM     11  C   UNL A   1      35.478  34.181  28.124  1.00  0.00     0.014 A 
ATOM     12  C   UNL A   1      35.817  32.195  30.055  1.00  0.00     0.010 A 
ATOM     13  C   UNL A   1      36.751  33.656  28.366  1.00  0.00     0.010 A 
ATOM     14  C   UNL A   1      36.937  32.687  29.364  1.00  0.00    -0.014 A 
BRANCH  14  15
ATOM     15  C   UNL A   1      38.282  32.147  29.687  1.00  0.00     0.031 A 
ATOM     16  C   UNL A   1      39.223  32.891  30.594  1.00  0.00     0.074 A 
ATOM     17  C   UNL A   1      38.635  30.945  29.194  1.00  0.00     0.049 A 
ATOM     18  N   UNL A   1      40.399  32.522  31.040  1.00  0.00    -0.248 NA
ATOM     19  C   UNL A   1      38.798  34.221  31.059  1.00  0.00     0.031 C 
ATOM     20  C   UNL A   1      37.815  30.127  28.296  1.00  0.00     0.029 A 
ATOM     21  N   UNL A   1      39.758  30.185  29.402  1.00  0.00    -0.354 N 
ATOM     22  C   UNL A   1      40.865  33.579  31.811  1.00  0.00     0.074 A 
ATOM     23  C   UNL A   1      39.853  34.614  31.760  1.00  0.00     0.031 C 
ATOM     24  C   UNL A   1      38.432  28.955  28.084  1.00  0.00     0.029 A 
ATOM     25  C   UNL A   1      39.711  28.960  28.784  1.00  0.00     0.049 A 
ATOM     26  H   UNL A   1      40.524  30.490  29.940  1.00  0.00     0.167 HD
ATOM     27  C   UNL A   1      42.027  33.681  32.500  1.00  0.00     0.031 A 
ATOM     28  C   UNL A   1      40.596  27.947  28.781  1.00  0.00     0.031 A 
ATOM     29  C   UNL A   1      43.029  32.649  32.564  1.00  0.00     0.049 A 
ATOM     30  C   UNL A   1      41.876  28.087  29.552  1.00  0.00     0.074 A 
ATOM     31  C   UNL A   1      44.219  32.645  33.273  1.00  0.00     0.029 A 
ATOM     32  N   UNL A   1      42.961  31.439  31.892  1.00  0.00    -0.354 N 
ATOM     33  N   UNL A   1      42.278  29.078  30.307  1.00  0.00    -0.248 NA
ATOM     34  C   UNL A   1      42.820  26.965  29.467  1.00  0.00     0.031 C 
ATOM     35  C   UNL A   1      44.890  31.447  32.998  1.00  0.00     0.029 A 
ATOM     36  C   UNL A   1      44.097  30.690  32.153  1.00  0.00     0.049 A 
ATOM     37  H   UNL A   1      42.216  31.155  31.315  1.00  0.00     0.167 HD
ATOM     38  C   UNL A   1      43.517  28.695  30.801  1.00  0.00     0.074 A 
ATOM     39  C   UNL A   1      43.789  27.372  30.275  1.00  0.00     0.031 C 
ATOM     40  C   UNL A   1      44.356  29.379  31.617  1.00  0.00     0.031 A 
BRANCH  27  41
ATOM     41  C   UNL A   1      42.294  34.970  33.224  1.00  0.00    -0.014 A 
ATOM     42  C   UNL A   1      41.729  35.231  34.482  1.00  0.00     0.009 A 
ATOM     43  C   UNL A   1      43.158  35.919  32.657  1.00  0.00     0.009 A 
ATOM     44  C   UNL A   1      42.003  36.432  35.144  1.00  0.00     0.001 A 
ATOM     45  C   UNL A   1      43.447  37.108  33.329  1.00  0.00     0.001 A 
ATOM     46  C   UNL A   1      42.864  37.367  34.568  1.00  0.00     0.000 A 
ENDBRANCH  27  41
BRANCH  28  47
ATOM     47  C   UNL A   1      40.291  26.704  28.030  1.00  0.00    -0.014 A 
ATOM     48  C   UNL A   1      40.791  26.519  26.732  1.00  0.00     0.009 A 
ATOM     49  C   UNL A   1      39.515  25.691  28.612  1.00  0.00     0.009 A 
ATOM     50  C   UNL A   1      40.505  25.348  26.027  1.00  0.00     0.001 A 
ATOM     51  C   UNL A   1      39.253  24.511  27.915  1.00  0.00     0.001 A 
ATOM     52  C   UNL A   1      39.742  24.344  26.620  1.00  0.00     0.000 A 
ENDBRANCH  28  47
BRANCH  40  53
ATOM     53  C   UNL A   1      45.632  28.692  32.006  1.00  0.00    -0.014 A 
ATOM     54  C   UNL A   1      46.792  28.823  31.226  1.00  0.00     0.009 A 
ATOM     55  C   UNL A   1      45.678  27.918  33.174  1.00  0.00     0.009 A 
ATOM     56  C   UNL A   1      47.964  28.160  31.592  1.00  0.00     0.001 A 
ATOM     57  C   UNL A   1      46.858  27.276  33.550  1.00  0.00     0.001 A 
ATOM     58  C   UNL A   1      47.997  27.389  32.754  1.00  0.00     0.000 A 
ENDBRANCH  40  53
ENDBRANCH  14  15
ENDBRANCH   7   9
ENDBRANCH   4   5
ENDBRANCH   3   4
ENDBRANCH   2   3
ENDBRANCH   1   2
BRANCH   1  59
ATOM     59  C   UNL A   1      35.670  33.245  34.113  1.00  0.00     0.021 C 
BRANCH  59  60
ATOM     60  C   UNL A   1      36.893  32.602  33.461  1.00  0.00     0.116 C 
BRANCH  60  61
ATOM     61  N   UNL A   1      36.742  31.165  33.360  1.00  0.00    -0.354 N 
ATOM     62  C   UNL A   1      37.677  30.184  33.512  1.00  0.00     0.243 C 
ATOM     63  H   UNL A   1      35.834  30.851  33.149  1.00  0.00     0.163 HD
ATOM     64  O   UNL A   1      37.334  29.017  33.306  1.00  0.00    -0.273 OA
BRANCH  62  65
ATOM     65  C   UNL A   1      39.129  30.575  33.829  1.00  0.00     0.183 C 
ATOM     66  C   UNL A   1      40.061  29.674  33.033  1.00  0.00     0.046 C 
ATOM     67  N   UNL A   1      39.419  30.299  35.223  1.00  0.00    -0.266 N 
ATOM     68  C   UNL A   1      41.178  29.339  33.997  1.00  0.00     0.103 C 
ATOM     69  C   UNL A   1      40.524  29.446  35.350  1.00  0.00     0.230 C 
ATOM     70  O   UNL A   1      40.973  28.913  36.351  1.00  0.00    -0.274 OA
BRANCH  67  71
ATOM     71  C   UNL A   1      38.750  31.047  36.184  1.00  0.00     0.253 C 
ATOM     72  O   UNL A   1      37.820  30.592  36.849  1.00  0.00    -0.269 OA
BRANCH  71  73
ATOM     73  C   UNL A   1      39.187  32.435  36.434  1.00  0.00     0.072 C 
ATOM     74  C   UNL A   1      39.792  32.779  37.581  1.00  0.00     0.014 C 
BRANCH  74  75
ATOM     75  C   UNL A   1      40.286  34.123  37.927  1.00  0.00    -0.025 A 
ATOM     76  C   UNL A   1      39.403  35.206  37.804  1.00  0.00     0.008 A 
ATOM     77  C   UNL A   1      41.590  34.378  38.373  1.00  0.00     0.008 A 
ATOM     78  C   UNL A   1      39.810  36.506  38.117  1.00  0.00     0.001 A 
ATOM     79  C   UNL A   1      41.999  35.680  38.684  1.00  0.00     0.001 A 
ATOM     80  C   UNL A   1      41.109  36.742  38.557  1.00  0.00     0.000 A 
ENDBRANCH  74  75
ENDBRANCH  71  73
ENDBRANCH  67  71
ENDBRANCH  62  65
ENDBRANCH  60  61
ENDBRANCH  59  60
ENDBRANCH   1  59
TORSDOF 16
ENDMDL
