MODEL 1
REMARK VINA RESULT:     -11.4      0.000      0.000
REMARK SMILES Cc1nn(C)c(=O)c(C(=O)N2CCCC[C@H]2C(=O)NCCCCCCNC(=O)c2ccc(-c3c4nc(c(-c5ccccc5)c5ccc([nH]5)c(-c5ccccc5)c5nc(c(-c6ccccc6)c6ccc3[nH]6)C=C5)C=C4)cc2)c1C
REMARK SMILES IDX 22 1 21 2 20 3 19 4 17 5 18 6 16 8 11 9 12 10 13 11 15 12
REMARK SMILES IDX 14 13 9 14 10 15 8 16 1 17 2 18 3 19 77 20 4 21 78 22 5 23
REMARK SMILES IDX 6 24 7 25 23 26 24 27 25 28 26 29 27 30 28 32 29 33 30 34
REMARK SMILES IDX 76 35 31 36 75 37 32 38 33 39 34 40 69 41 35 42 74 43 68 44
REMARK SMILES IDX 70 45 36 46 73 47 67 48 66 49 37 51 59 52 44 53 58 54 45 55
REMARK SMILES IDX 48 56 57 57 71 58 46 59 47 60 56 62 72 63 49 64 38 65 39 66
REMARK SMILES IDX 43 67 40 68 42 69 41 70 60 71 61 72 65 73 62 74 64 75 63 76
REMARK SMILES IDX 50 77 51 78 55 79 52 80 54 81 53 82
REMARK H PARENT 19 7 26 31 70 50 48 61
REMARK Flexibility Score: inf
ROOT
ATOM      1  C   UNL A   1      37.010  21.958  24.776  1.00  0.00     0.002 C 
ENDROOT
BRANCH   1   2
ATOM      2  C   UNL A   1      36.746  22.550  23.398  1.00  0.00     0.021 C 
BRANCH   2   3
ATOM      3  C   UNL A   1      35.705  23.664  23.360  1.00  0.00     0.116 C 
BRANCH   3   4
ATOM      4  N   UNL A   1      34.328  23.209  23.355  1.00  0.00    -0.354 N 
ATOM      5  C   UNL A   1      33.262  23.487  24.163  1.00  0.00     0.242 C 
ATOM      6  O   UNL A   1      32.216  22.889  23.872  1.00  0.00    -0.273 OA
ATOM      7  H   UNL A   1      34.122  22.577  22.629  1.00  0.00     0.163 HD
BRANCH   5   8
ATOM      8  C   UNL A   1      33.321  24.365  25.479  1.00  0.00     0.174 C 
ATOM      9  N   UNL A   1      32.078  24.604  26.227  1.00  0.00    -0.326 N 
ATOM     10  C   UNL A   1      31.573  23.405  26.956  1.00  0.00     0.120 C 
ATOM     11  C   UNL A   1      32.619  22.605  27.730  1.00  0.00     0.022 C 
ATOM     12  C   UNL A   1      34.384  23.717  26.396  1.00  0.00     0.035 C 
ATOM     13  C   UNL A   1      33.888  22.378  26.929  1.00  0.00     0.004 C 
BRANCH   9  14
ATOM     14  C   UNL A   1      31.214  25.712  26.171  1.00  0.00     0.260 C 
ATOM     15  O   UNL A   1      30.105  25.574  26.717  1.00  0.00    -0.269 OA
BRANCH  14  16
ATOM     16  C   UNL A   1      31.367  27.058  25.422  1.00  0.00     0.111 A 
ATOM     17  C   UNL A   1      30.025  29.544  22.825  1.00  0.00     0.069 C 
ATOM     18  C   UNL A   1      30.745  28.989  24.045  1.00  0.00     0.062 A 
ATOM     19  N   UNL A   1      31.134  29.879  24.888  1.00  0.00    -0.175 NA
ATOM     20  C   UNL A   1      30.849  27.501  24.249  1.00  0.00    -0.010 A 
ATOM     21  N   UNL A   1      31.770  29.454  26.004  1.00  0.00    -0.232 N 
ATOM     22  C   UNL A   1      30.168  26.733  23.179  1.00  0.00     0.047 C 
ATOM     23  C   UNL A   1      32.231  30.525  26.872  1.00  0.00     0.178 C 
ATOM     24  C   UNL A   1      32.066  28.123  26.270  1.00  0.00     0.279 A 
ATOM     25  O   UNL A   1      32.876  27.802  27.140  1.00  0.00    -0.267 OA
ENDBRANCH  14  16
ENDBRANCH   9  14
ENDBRANCH   5   8
ENDBRANCH   3   4
ENDBRANCH   2   3
ENDBRANCH   1   2
BRANCH   1  26
ATOM     26  C   UNL A   1      36.726  20.461  24.899  1.00  0.00     0.002 C 
BRANCH  26  27
ATOM     27  C   UNL A   1      37.961  19.557  24.970  1.00  0.00     0.021 C 
BRANCH  27  28
ATOM     28  C   UNL A   1      39.085  20.071  25.858  1.00  0.00     0.116 C 
BRANCH  28  29
ATOM     29  N   UNL A   1      40.244  19.200  25.822  1.00  0.00    -0.352 N 
ATOM     30  C   UNL A   1      41.564  19.511  26.026  1.00  0.00     0.251 C 
ATOM     31  H   UNL A   1      40.058  18.255  25.623  1.00  0.00     0.163 HD
ATOM     32  O   UNL A   1      42.442  18.706  25.750  1.00  0.00    -0.269 OA
BRANCH  30  33
ATOM     33  C   UNL A   1      41.915  20.839  26.568  1.00  0.00     0.039 A 
ATOM     34  C   UNL A   1      42.299  21.846  25.681  1.00  0.00     0.014 A 
ATOM     35  C   UNL A   1      41.859  21.086  27.943  1.00  0.00     0.014 A 
ATOM     36  C   UNL A   1      42.587  23.118  26.173  1.00  0.00     0.010 A 
ATOM     37  C   UNL A   1      42.067  22.374  28.422  1.00  0.00     0.010 A 
ATOM     38  C   UNL A   1      42.449  23.398  27.544  1.00  0.00    -0.014 A 
BRANCH  38  39
ATOM     39  C   UNL A   1      42.730  24.752  28.075  1.00  0.00     0.031 A 
ATOM     40  C   UNL A   1      44.135  25.136  28.441  1.00  0.00     0.074 A 
ATOM     41  C   UNL A   1      41.718  25.623  28.251  1.00  0.00     0.049 A 
ATOM     42  N   UNL A   1      44.579  26.266  28.928  1.00  0.00    -0.248 NA
ATOM     43  C   UNL A   1      45.178  24.114  28.251  1.00  0.00     0.031 C 
ATOM     44  C   UNL A   1      40.309  25.357  27.953  1.00  0.00     0.029 A 
ATOM     45  N   UNL A   1      41.721  26.914  28.716  1.00  0.00    -0.354 N 
ATOM     46  C   UNL A   1      45.944  26.088  29.105  1.00  0.00     0.074 A 
ATOM     47  C   UNL A   1      46.249  24.726  28.732  1.00  0.00     0.031 C 
ATOM     48  C   UNL A   1      39.591  26.463  28.204  1.00  0.00     0.029 A 
ATOM     49  C   UNL A   1      40.479  27.500  28.720  1.00  0.00     0.049 A 
ATOM     50  H   UNL A   1      42.536  27.377  29.018  1.00  0.00     0.167 HD
ATOM     51  C   UNL A   1      46.868  26.989  29.514  1.00  0.00     0.031 A 
ATOM     52  C   UNL A   1      40.097  28.736  29.097  1.00  0.00     0.031 A 
ATOM     53  C   UNL A   1      46.563  28.345  29.881  1.00  0.00     0.049 A 
ATOM     54  C   UNL A   1      41.136  29.703  29.595  1.00  0.00     0.074 A 
ATOM     55  C   UNL A   1      47.435  29.345  30.273  1.00  0.00     0.029 A 
ATOM     56  N   UNL A   1      45.288  28.889  29.903  1.00  0.00    -0.354 N 
ATOM     57  N   UNL A   1      42.432  29.538  29.700  1.00  0.00    -0.248 NA
ATOM     58  C   UNL A   1      40.660  31.026  30.019  1.00  0.00     0.031 C 
ATOM     59  C   UNL A   1      46.680  30.477  30.590  1.00  0.00     0.029 A 
ATOM     60  C   UNL A   1      45.347  30.203  30.332  1.00  0.00     0.049 A 
ATOM     61  H   UNL A   1      44.465  28.411  29.651  1.00  0.00     0.167 HD
ATOM     62  C   UNL A   1      42.930  30.742  30.181  1.00  0.00     0.074 A 
ATOM     63  C   UNL A   1      41.799  31.634  30.328  1.00  0.00     0.031 C 
ATOM     64  C   UNL A   1      44.210  31.076  30.476  1.00  0.00     0.031 A 
BRANCH  51  65
ATOM     65  C   UNL A   1      48.300  26.537  29.585  1.00  0.00    -0.014 A 
ATOM     66  C   UNL A   1      49.173  26.726  28.501  1.00  0.00     0.009 A 
ATOM     67  C   UNL A   1      48.799  25.970  30.767  1.00  0.00     0.009 A 
ATOM     68  C   UNL A   1      50.510  26.334  28.592  1.00  0.00     0.001 A 
ATOM     69  C   UNL A   1      50.144  25.607  30.866  1.00  0.00     0.001 A 
ATOM     70  C   UNL A   1      50.996  25.782  29.777  1.00  0.00     0.000 A 
ENDBRANCH  51  65
BRANCH  52  71
ATOM     71  C   UNL A   1      38.668  29.133  28.992  1.00  0.00    -0.014 A 
ATOM     72  C   UNL A   1      37.823  29.043  30.108  1.00  0.00     0.009 A 
ATOM     73  C   UNL A   1      38.147  29.626  27.786  1.00  0.00     0.009 A 
ATOM     74  C   UNL A   1      36.482  29.422  30.014  1.00  0.00     0.001 A 
ATOM     75  C   UNL A   1      36.813  30.033  27.702  1.00  0.00     0.001 A 
ATOM     76  C   UNL A   1      35.981  29.924  28.814  1.00  0.00     0.000 A 
ENDBRANCH  52  71
BRANCH  64  77
ATOM     77  C   UNL A   1      44.469  32.470  30.975  1.00  0.00    -0.014 A 
ATOM     78  C   UNL A   1      44.469  32.761  32.348  1.00  0.00     0.009 A 
ATOM     79  C   UNL A   1      44.804  33.485  30.065  1.00  0.00     0.009 A 
ATOM     80  C   UNL A   1      44.780  34.047  32.797  1.00  0.00     0.001 A 
ATOM     81  C   UNL A   1      45.147  34.760  30.518  1.00  0.00     0.001 A 
ATOM     82  C   UNL A   1      45.128  35.041  31.883  1.00  0.00     0.000 A 
ENDBRANCH  64  77
ENDBRANCH  38  39
ENDBRANCH  30  33
ENDBRANCH  28  29
ENDBRANCH  27  28
ENDBRANCH  26  27
ENDBRANCH   1  26
TORSDOF 15
ENDMDL
MODEL 2
REMARK VINA RESULT:     -11.2      1.549      6.109
REMARK SMILES Cc1nn(C)c(=O)c(C(=O)N2CCCC[C@H]2C(=O)NCCCCCCNC(=O)c2ccc(-c3c4nc(c(-c5ccccc5)c5ccc([nH]5)c(-c5ccccc5)c5nc(c(-c6ccccc6)c6ccc3[nH]6)C=C5)C=C4)cc2)c1C
REMARK SMILES IDX 22 1 21 2 20 3 19 4 17 5 18 6 16 8 11 9 12 10 13 11 15 12
REMARK SMILES IDX 14 13 9 14 10 15 8 16 1 17 2 18 3 19 77 20 4 21 78 22 5 23
REMARK SMILES IDX 6 24 7 25 23 26 24 27 25 28 26 29 27 30 28 32 29 33 30 34
REMARK SMILES IDX 76 35 31 36 75 37 32 38 33 39 34 40 69 41 35 42 74 43 68 44
REMARK SMILES IDX 70 45 36 46 73 47 67 48 66 49 37 51 59 52 44 53 58 54 45 55
REMARK SMILES IDX 48 56 57 57 71 58 46 59 47 60 56 62 72 63 49 64 38 65 39 66
REMARK SMILES IDX 43 67 40 68 42 69 41 70 60 71 61 72 65 73 62 74 64 75 63 76
REMARK SMILES IDX 50 77 51 78 55 79 52 80 54 81 53 82
REMARK H PARENT 19 7 26 31 70 50 48 61
REMARK Flexibility Score: inf
ROOT
ATOM      1  C   UNL A   1      37.346  21.979  24.454  1.00  0.00     0.002 C 
ENDROOT
BRANCH   1   2
ATOM      2  C   UNL A   1      37.602  22.963  25.587  1.00  0.00     0.021 C 
BRANCH   2   3
ATOM      3  C   UNL A   1      36.370  23.703  26.094  1.00  0.00     0.116 C 
BRANCH   3   4
ATOM      4  N   UNL A   1      35.656  24.459  25.084  1.00  0.00    -0.354 N 
ATOM      5  C   UNL A   1      34.326  24.683  24.866  1.00  0.00     0.242 C 
ATOM      6  O   UNL A   1      34.068  25.376  23.872  1.00  0.00    -0.273 OA
ATOM      7  H   UNL A   1      36.244  24.896  24.427  1.00  0.00     0.163 HD
BRANCH   5   8
ATOM      8  C   UNL A   1      33.145  24.010  25.679  1.00  0.00     0.174 C 
ATOM      9  N   UNL A   1      31.759  24.305  25.288  1.00  0.00    -0.326 N 
ATOM     10  C   UNL A   1      31.345  23.665  24.007  1.00  0.00     0.120 C 
ATOM     11  C   UNL A   1      31.740  22.199  23.835  1.00  0.00     0.022 C 
ATOM     12  C   UNL A   1      33.399  22.486  25.650  1.00  0.00     0.035 C 
ATOM     13  C   UNL A   1      33.176  21.932  24.249  1.00  0.00     0.004 C 
BRANCH   9  14
ATOM     14  C   UNL A   1      30.872  25.254  25.829  1.00  0.00     0.260 C 
ATOM     15  O   UNL A   1      29.935  24.805  26.513  1.00  0.00    -0.269 OA
BRANCH  14  16
ATOM     16  C   UNL A   1      30.795  26.783  25.608  1.00  0.00     0.111 A 
ATOM     17  C   UNL A   1      32.348  30.258  26.103  1.00  0.00     0.069 C 
ATOM     18  C   UNL A   1      31.543  29.117  25.500  1.00  0.00     0.062 A 
ATOM     19  N   UNL A   1      31.122  29.331  24.303  1.00  0.00    -0.175 NA
ATOM     20  C   UNL A   1      31.394  27.819  26.248  1.00  0.00    -0.010 A 
ATOM     21  N   UNL A   1      30.410  28.352  23.701  1.00  0.00    -0.232 N 
ATOM     22  C   UNL A   1      32.123  27.822  27.540  1.00  0.00     0.047 C 
ATOM     23  C   UNL A   1      29.920  28.699  22.377  1.00  0.00     0.178 C 
ATOM     24  C   UNL A   1      30.069  27.152  24.312  1.00  0.00     0.279 A 
ATOM     25  O   UNL A   1      29.200  26.413  23.847  1.00  0.00    -0.267 OA
ENDBRANCH  14  16
ENDBRANCH   9  14
ENDBRANCH   5   8
ENDBRANCH   3   4
ENDBRANCH   2   3
ENDBRANCH   1   2
BRANCH   1  26
ATOM     26  C   UNL A   1      36.967  20.566  24.900  1.00  0.00     0.002 C 
BRANCH  26  27
ATOM     27  C   UNL A   1      38.126  19.570  25.000  1.00  0.00     0.021 C 
BRANCH  27  28
ATOM     28  C   UNL A   1      39.252  19.985  25.937  1.00  0.00     0.116 C 
BRANCH  28  29
ATOM     29  N   UNL A   1      40.312  18.997  25.980  1.00  0.00    -0.352 N 
ATOM     30  C   UNL A   1      41.666  19.187  26.082  1.00  0.00     0.251 C 
ATOM     31  H   UNL A   1      40.019  18.059  25.928  1.00  0.00     0.163 HD
ATOM     32  O   UNL A   1      42.441  18.261  25.891  1.00  0.00    -0.269 OA
BRANCH  30  33
ATOM     33  C   UNL A   1      42.181  20.531  26.411  1.00  0.00     0.039 A 
ATOM     34  C   UNL A   1      42.573  21.374  25.370  1.00  0.00     0.014 A 
ATOM     35  C   UNL A   1      42.270  20.955  27.741  1.00  0.00     0.014 A 
ATOM     36  C   UNL A   1      43.016  22.663  25.662  1.00  0.00     0.010 A 
ATOM     37  C   UNL A   1      42.634  22.267  28.024  1.00  0.00     0.010 A 
ATOM     38  C   UNL A   1      43.026  23.127  26.989  1.00  0.00    -0.014 A 
BRANCH  38  39
ATOM     39  C   UNL A   1      43.472  24.503  27.309  1.00  0.00     0.031 A 
ATOM     40  C   UNL A   1      42.467  25.539  27.724  1.00  0.00     0.074 A 
ATOM     41  C   UNL A   1      44.776  24.823  27.203  1.00  0.00     0.049 A 
ATOM     42  N   UNL A   1      42.660  26.795  28.035  1.00  0.00    -0.248 NA
ATOM     43  C   UNL A   1      41.057  25.117  27.781  1.00  0.00     0.031 C 
ATOM     44  C   UNL A   1      45.842  23.908  26.789  1.00  0.00     0.029 A 
ATOM     45  N   UNL A   1      45.428  26.006  27.443  1.00  0.00    -0.354 N 
ATOM     46  C   UNL A   1      41.402  27.309  28.319  1.00  0.00     0.074 A 
ATOM     47  C   UNL A   1      40.446  26.251  28.087  1.00  0.00     0.031 C 
ATOM     48  C   UNL A   1      47.018  24.553  26.844  1.00  0.00     0.029 A 
ATOM     49  C   UNL A   1      46.786  25.934  27.253  1.00  0.00     0.049 A 
ATOM     50  H   UNL A   1      44.966  26.829  27.725  1.00  0.00     0.167 HD
ATOM     51  C   UNL A   1      41.075  28.545  28.763  1.00  0.00     0.031 A 
ATOM     52  C   UNL A   1      47.739  26.876  27.394  1.00  0.00     0.031 A 
ATOM     53  C   UNL A   1      42.029  29.595  28.997  1.00  0.00     0.049 A 
ATOM     54  C   UNL A   1      47.344  28.256  27.841  1.00  0.00     0.074 A 
ATOM     55  C   UNL A   1      41.800  30.870  29.483  1.00  0.00     0.029 A 
ATOM     56  N   UNL A   1      43.390  29.491  28.761  1.00  0.00    -0.354 N 
ATOM     57  N   UNL A   1      46.157  28.710  28.163  1.00  0.00    -0.248 NA
ATOM     58  C   UNL A   1      48.419  29.251  27.950  1.00  0.00     0.031 C 
ATOM     59  C   UNL A   1      43.016  31.558  29.482  1.00  0.00     0.029 A 
ATOM     60  C   UNL A   1      44.011  30.691  29.061  1.00  0.00     0.049 A 
ATOM     61  H   UNL A   1      43.847  28.685  28.429  1.00  0.00     0.167 HD
ATOM     62  C   UNL A   1      46.344  30.035  28.534  1.00  0.00     0.074 A 
ATOM     63  C   UNL A   1      47.762  30.307  28.416  1.00  0.00     0.031 C 
ATOM     64  C   UNL A   1      45.424  30.946  28.934  1.00  0.00     0.031 A 
BRANCH  51  65
ATOM     65  C   UNL A   1      39.623  28.830  29.027  1.00  0.00    -0.014 A 
ATOM     66  C   UNL A   1      39.061  28.609  30.296  1.00  0.00     0.009 A 
ATOM     67  C   UNL A   1      38.820  29.380  28.017  1.00  0.00     0.009 A 
ATOM     68  C   UNL A   1      37.720  28.911  30.539  1.00  0.00     0.001 A 
ATOM     69  C   UNL A   1      37.487  29.709  28.271  1.00  0.00     0.001 A 
ATOM     70  C   UNL A   1      36.937  29.468  29.528  1.00  0.00     0.000 A 
ENDBRANCH  51  65
BRANCH  52  71
ATOM     71  C   UNL A   1      49.162  26.534  27.131  1.00  0.00    -0.014 A 
ATOM     72  C   UNL A   1      50.004  26.141  28.183  1.00  0.00     0.009 A 
ATOM     73  C   UNL A   1      49.681  26.574  25.828  1.00  0.00     0.009 A 
ATOM     74  C   UNL A   1      51.339  25.812  27.937  1.00  0.00     0.001 A 
ATOM     75  C   UNL A   1      51.008  26.216  25.580  1.00  0.00     0.001 A 
ATOM     76  C   UNL A   1      51.837  25.842  26.636  1.00  0.00     0.000 A 
ENDBRANCH  52  71
BRANCH  64  77
ATOM     77  C   UNL A   1      45.913  32.321  29.291  1.00  0.00    -0.014 A 
ATOM     78  C   UNL A   1      45.848  33.376  28.369  1.00  0.00     0.009 A 
ATOM     79  C   UNL A   1      46.362  32.584  30.595  1.00  0.00     0.009 A 
ATOM     80  C   UNL A   1      46.242  34.663  28.740  1.00  0.00     0.001 A 
ATOM     81  C   UNL A   1      46.724  33.878  30.974  1.00  0.00     0.001 A 
ATOM     82  C   UNL A   1      46.669  34.915  30.044  1.00  0.00     0.000 A 
ENDBRANCH  64  77
ENDBRANCH  38  39
ENDBRANCH  30  33
ENDBRANCH  28  29
ENDBRANCH  27  28
ENDBRANCH  26  27
ENDBRANCH   1  26
TORSDOF 15
ENDMDL
MODEL 3
REMARK VINA RESULT:     -11.2      1.423      2.166
REMARK SMILES Cc1nn(C)c(=O)c(C(=O)N2CCCC[C@H]2C(=O)NCCCCCCNC(=O)c2ccc(-c3c4nc(c(-c5ccccc5)c5ccc([nH]5)c(-c5ccccc5)c5nc(c(-c6ccccc6)c6ccc3[nH]6)C=C5)C=C4)cc2)c1C
REMARK SMILES IDX 22 1 21 2 20 3 19 4 17 5 18 6 16 8 11 9 12 10 13 11 15 12
REMARK SMILES IDX 14 13 9 14 10 15 8 16 1 17 2 18 3 19 77 20 4 21 78 22 5 23
REMARK SMILES IDX 6 24 7 25 23 26 24 27 25 28 26 29 27 30 28 32 29 33 30 34
REMARK SMILES IDX 76 35 31 36 75 37 32 38 33 39 34 40 69 41 35 42 74 43 68 44
REMARK SMILES IDX 70 45 36 46 73 47 67 48 66 49 37 51 59 52 44 53 58 54 45 55
REMARK SMILES IDX 48 56 57 57 71 58 46 59 47 60 56 62 72 63 49 64 38 65 39 66
REMARK SMILES IDX 43 67 40 68 42 69 41 70 60 71 61 72 65 73 62 74 64 75 63 76
REMARK SMILES IDX 50 77 51 78 55 79 52 80 54 81 53 82
REMARK H PARENT 19 7 26 31 70 50 48 61
REMARK Flexibility Score: inf
ROOT
ATOM      1  C   UNL A   1      37.203  21.742  24.303  1.00  0.00     0.002 C 
ENDROOT
BRANCH   1   2
ATOM      2  C   UNL A   1      37.431  22.868  25.302  1.00  0.00     0.021 C 
BRANCH   2   3
ATOM      3  C   UNL A   1      36.164  23.521  25.843  1.00  0.00     0.116 C 
BRANCH   3   4
ATOM      4  N   UNL A   1      35.522  24.448  24.933  1.00  0.00    -0.354 N 
ATOM      5  C   UNL A   1      34.217  24.812  24.753  1.00  0.00     0.242 C 
ATOM      6  O   UNL A   1      34.023  25.635  23.848  1.00  0.00    -0.273 OA
ATOM      7  H   UNL A   1      36.148  24.905  24.325  1.00  0.00     0.163 HD
BRANCH   5   8
ATOM      8  C   UNL A   1      32.980  24.157  25.494  1.00  0.00     0.174 C 
ATOM      9  N   UNL A   1      31.623  24.571  25.107  1.00  0.00    -0.326 N 
ATOM     10  C   UNL A   1      31.195  24.060  23.773  1.00  0.00     0.120 C 
ATOM     11  C   UNL A   1      31.499  22.590  23.492  1.00  0.00     0.022 C 
ATOM     12  C   UNL A   1      33.137  22.626  25.349  1.00  0.00     0.035 C 
ATOM     13  C   UNL A   1      32.906  22.198  23.904  1.00  0.00     0.004 C 
BRANCH   9  14
ATOM     14  C   UNL A   1      30.789  25.531  25.707  1.00  0.00     0.260 C 
ATOM     15  O   UNL A   1      29.831  25.091  26.368  1.00  0.00    -0.269 OA
BRANCH  14  16
ATOM     16  C   UNL A   1      30.790  27.072  25.577  1.00  0.00     0.111 A 
ATOM     17  C   UNL A   1      32.462  30.435  26.370  1.00  0.00     0.069 C 
ATOM     18  C   UNL A   1      31.644  29.371  25.654  1.00  0.00     0.062 A 
ATOM     19  N   UNL A   1      31.301  29.675  24.452  1.00  0.00    -0.175 NA
ATOM     20  C   UNL A   1      31.396  28.039  26.312  1.00  0.00    -0.010 A 
ATOM     21  N   UNL A   1      30.583  28.767  23.752  1.00  0.00    -0.232 N 
ATOM     22  C   UNL A   1      32.050  27.931  27.639  1.00  0.00     0.047 C 
ATOM     23  C   UNL A   1      30.185  29.215  22.428  1.00  0.00     0.178 C 
ATOM     24  C   UNL A   1      30.156  27.550  24.269  1.00  0.00     0.279 A 
ATOM     25  O   UNL A   1      29.284  26.882  23.713  1.00  0.00    -0.267 OA
ENDBRANCH  14  16
ENDBRANCH   9  14
ENDBRANCH   5   8
ENDBRANCH   3   4
ENDBRANCH   2   3
ENDBRANCH   1   2
BRANCH   1  26
ATOM     26  C   UNL A   1      36.898  20.379  24.924  1.00  0.00     0.002 C 
BRANCH  26  27
ATOM     27  C   UNL A   1      38.079  19.407  25.001  1.00  0.00     0.021 C 
BRANCH  27  28
ATOM     28  C   UNL A   1      39.196  19.825  25.946  1.00  0.00     0.116 C 
BRANCH  28  29
ATOM     29  N   UNL A   1      40.305  18.891  25.921  1.00  0.00    -0.352 N 
ATOM     30  C   UNL A   1      41.650  19.146  26.003  1.00  0.00     0.251 C 
ATOM     31  H   UNL A   1      40.058  17.943  25.832  1.00  0.00     0.163 HD
ATOM     32  O   UNL A   1      42.465  18.269  25.752  1.00  0.00    -0.269 OA
BRANCH  30  33
ATOM     33  C   UNL A   1      42.105  20.498  26.383  1.00  0.00     0.039 A 
ATOM     34  C   UNL A   1      42.416  21.410  25.373  1.00  0.00     0.014 A 
ATOM     35  C   UNL A   1      42.218  20.860  27.729  1.00  0.00     0.014 A 
ATOM     36  C   UNL A   1      42.801  22.705  25.716  1.00  0.00     0.010 A 
ATOM     37  C   UNL A   1      42.522  22.174  28.066  1.00  0.00     0.010 A 
ATOM     38  C   UNL A   1      42.832  23.104  27.064  1.00  0.00    -0.014 A 
BRANCH  38  39
ATOM     39  C   UNL A   1      43.217  24.485  27.439  1.00  0.00     0.031 A 
ATOM     40  C   UNL A   1      44.662  24.893  27.408  1.00  0.00     0.074 A 
ATOM     41  C   UNL A   1      42.270  25.358  27.830  1.00  0.00     0.049 A 
ATOM     42  N   UNL A   1      45.197  26.049  27.709  1.00  0.00    -0.248 NA
ATOM     43  C   UNL A   1      45.639  23.868  27.003  1.00  0.00     0.031 C 
ATOM     44  C   UNL A   1      40.837  25.070  27.921  1.00  0.00     0.029 A 
ATOM     45  N   UNL A   1      42.371  26.671  28.216  1.00  0.00    -0.354 N 
ATOM     46  C   UNL A   1      46.565  25.886  27.533  1.00  0.00     0.074 A 
ATOM     47  C   UNL A   1      46.787  24.508  27.159  1.00  0.00     0.031 C 
ATOM     48  C   UNL A   1      40.190  26.185  28.297  1.00  0.00     0.029 A 
ATOM     49  C   UNL A   1      41.162  27.251  28.515  1.00  0.00     0.049 A 
ATOM     50  H   UNL A   1      43.229  27.152  28.273  1.00  0.00     0.167 HD
ATOM     51  C   UNL A   1      47.547  26.811  27.645  1.00  0.00     0.031 A 
ATOM     52  C   UNL A   1      40.870  28.502  28.919  1.00  0.00     0.031 A 
ATOM     53  C   UNL A   1      47.323  28.182  28.014  1.00  0.00     0.049 A 
ATOM     54  C   UNL A   1      41.985  29.498  29.083  1.00  0.00     0.074 A 
ATOM     55  C   UNL A   1      48.249  29.206  28.117  1.00  0.00     0.029 A 
ATOM     56  N   UNL A   1      46.089  28.720  28.340  1.00  0.00    -0.354 N 
ATOM     57  N   UNL A   1      43.267  29.345  28.856  1.00  0.00    -0.248 NA
ATOM     58  C   UNL A   1      41.612  30.839  29.553  1.00  0.00     0.031 C 
ATOM     59  C   UNL A   1      47.583  30.348  28.566  1.00  0.00     0.029 A 
ATOM     60  C   UNL A   1      46.233  30.055  28.677  1.00  0.00     0.049 A 
ATOM     61  H   UNL A   1      45.237  28.227  28.333  1.00  0.00     0.167 HD
ATOM     62  C   UNL A   1      43.851  30.574  29.133  1.00  0.00     0.074 A 
ATOM     63  C   UNL A   1      42.780  31.467  29.527  1.00  0.00     0.031 C 
ATOM     64  C   UNL A   1      45.157  30.929  29.070  1.00  0.00     0.031 A 
BRANCH  51  65
ATOM     65  C   UNL A   1      48.956  26.370  27.362  1.00  0.00    -0.014 A 
ATOM     66  C   UNL A   1      49.447  26.314  26.048  1.00  0.00     0.009 A 
ATOM     67  C   UNL A   1      49.821  26.064  28.424  1.00  0.00     0.009 A 
ATOM     68  C   UNL A   1      50.768  25.937  25.801  1.00  0.00     0.001 A 
ATOM     69  C   UNL A   1      51.151  25.716  28.176  1.00  0.00     0.001 A 
ATOM     70  C   UNL A   1      51.621  25.646  26.866  1.00  0.00     0.000 A 
ENDBRANCH  51  65
BRANCH  52  71
ATOM     71  C   UNL A   1      39.455  28.887  29.171  1.00  0.00    -0.014 A 
ATOM     72  C   UNL A   1      38.665  29.405  28.134  1.00  0.00     0.009 A 
ATOM     73  C   UNL A   1      38.881  28.717  30.440  1.00  0.00     0.009 A 
ATOM     74  C   UNL A   1      37.334  29.759  28.366  1.00  0.00     0.001 A 
ATOM     75  C   UNL A   1      37.541  29.044  30.663  1.00  0.00     0.001 A 
ATOM     76  C   UNL A   1      36.771  29.571  29.627  1.00  0.00     0.000 A 
ENDBRANCH  52  71
BRANCH  64  77
ATOM     77  C   UNL A   1      45.512  32.348  29.417  1.00  0.00    -0.014 A 
ATOM     78  C   UNL A   1      45.478  33.362  28.449  1.00  0.00     0.009 A 
ATOM     79  C   UNL A   1      45.798  32.688  30.749  1.00  0.00     0.009 A 
ATOM     80  C   UNL A   1      45.743  34.686  28.804  1.00  0.00     0.001 A 
ATOM     81  C   UNL A   1      46.030  34.017  31.108  1.00  0.00     0.001 A 
ATOM     82  C   UNL A   1      46.008  35.013  30.134  1.00  0.00     0.000 A 
ENDBRANCH  64  77
ENDBRANCH  38  39
ENDBRANCH  30  33
ENDBRANCH  28  29
ENDBRANCH  27  28
ENDBRANCH  26  27
ENDBRANCH   1  26
TORSDOF 15
ENDMDL
