MODEL 1
REMARK VINA RESULT:     -11.3      0.000      0.000
REMARK SMILES CC[NH+]1CCN(c2ccc(NC(=O)C3CCCC3)c(C(=O)NCCCCCCNC(=O)c3ccc(-c4c5nc(c(-c6ccccc6)c6ccc([nH]6)c(-c6ccccc6)c6nc(c(-c7ccccc7)c7ccc4[nH]7)C=C6)C=C5)cc3)c2)CC1
REMARK SMILES IDX 25 1 24 2 23 3 22 4 20 5 21 6 19 8 7 9 8 10 80 11 9 12 10 13
REMARK SMILES IDX 6 14 3 15 4 16 82 17 5 19 81 20 2 21 1 22 11 23 12 24 13 26
REMARK SMILES IDX 14 27 15 28 18 29 16 30 17 31 26 32 27 33 28 34 29 35 30 36
REMARK SMILES IDX 31 38 32 39 33 40 79 41 34 42 78 43 35 44 36 45 37 46 72 47
REMARK SMILES IDX 38 48 77 49 71 50 73 51 39 52 76 53 70 54 69 55 40 57 62 58
REMARK SMILES IDX 47 59 61 60 48 61 51 62 60 63 74 64 49 65 50 66 59 68 75 69
REMARK SMILES IDX 52 70 41 71 42 72 46 73 43 74 45 75 44 76 63 77 64 78 68 79
REMARK SMILES IDX 65 80 67 81 66 82 53 83 54 84 58 85 55 86 57 87 56 88
REMARK H PARENT 22 7 3 18 11 25 29 37 73 56 51 67
REMARK Flexibility Score: inf
ROOT
ATOM      1  C   UNL A   1      36.031  22.835  23.872  1.00  0.00     0.002 C 
ENDROOT
BRANCH   1   2
ATOM      2  C   UNL A   1      35.052  23.730  24.622  1.00  0.00     0.021 C 
BRANCH   2   3
ATOM      3  C   UNL A   1      34.840  23.422  26.098  1.00  0.00     0.116 C 
BRANCH   3   4
ATOM      4  N   UNL A   1      33.625  23.966  26.699  1.00  0.00    -0.352 N 
ATOM      5  C   UNL A   1      32.287  23.693  26.447  1.00  0.00     0.253 C 
ATOM      6  O   UNL A   1      31.423  24.278  27.097  1.00  0.00    -0.269 OA
ATOM      7  H   UNL A   1      33.781  24.640  27.400  1.00  0.00     0.163 HD
BRANCH   5   8
ATOM      8  C   UNL A   1      31.882  22.794  25.327  1.00  0.00     0.065 A 
ATOM      9  C   UNL A   1      32.379  20.651  24.292  1.00  0.00     0.038 A 
ATOM     10  C   UNL A   1      32.093  21.250  23.067  1.00  0.00     0.028 A 
ATOM     11  C   UNL A   1      32.141  21.421  25.428  1.00  0.00     0.042 A 
ATOM     12  C   UNL A   1      31.620  22.554  22.983  1.00  0.00     0.029 A 
ATOM     13  C   UNL A   1      31.409  23.315  24.114  1.00  0.00     0.054 A 
BRANCH   9  14
ATOM     14  N   UNL A   1      33.042  19.442  24.358  1.00  0.00    -0.360 N 
ATOM     15  N   UNL A   1      34.515  16.918  23.999  1.00  0.00    -0.332 N 
ATOM     16  C   UNL A   1      33.252  17.180  23.301  1.00  0.00     0.283 C 
ATOM     17  C   UNL A   1      35.189  18.188  24.312  1.00  0.00     0.283 C 
ATOM     18  H   UNL A   1      35.117  16.406  23.355  1.00  0.00     0.348 HD
ATOM     19  C   UNL A   1      32.323  18.222  23.948  1.00  0.00     0.178 C 
ATOM     20  C   UNL A   1      34.344  19.270  25.016  1.00  0.00     0.178 C 
BRANCH  15  21
ATOM     21  C   UNL A   1      34.424  15.969  25.110  1.00  0.00     0.258 C 
ATOM     22  C   UNL A   1      33.105  15.255  25.383  1.00  0.00     0.071 C 
ENDBRANCH  15  21
ENDBRANCH   9  14
BRANCH  13  23
ATOM     23  N   UNL A   1      30.742  24.551  24.057  1.00  0.00    -0.325 N 
ATOM     24  C   UNL A   1      31.168  25.831  23.851  1.00  0.00     0.227 C 
ATOM     25  H   UNL A   1      29.770  24.477  24.194  1.00  0.00     0.169 HD
ATOM     26  O   UNL A   1      30.298  26.714  23.915  1.00  0.00    -0.274 OA
BRANCH  24  27
ATOM     27  C   UNL A   1      32.608  26.280  23.534  1.00  0.00     0.079 C 
ATOM     28  C   UNL A   1      32.762  26.927  22.160  1.00  0.00     0.013 C 
ATOM     29  C   UNL A   1      33.394  27.128  24.539  1.00  0.00     0.013 C 
ATOM     30  C   UNL A   1      33.936  27.890  22.280  1.00  0.00     0.001 C 
ATOM     31  C   UNL A   1      34.050  28.263  23.750  1.00  0.00     0.001 C 
ENDBRANCH  24  27
ENDBRANCH  13  23
ENDBRANCH   5   8
ENDBRANCH   3   4
ENDBRANCH   2   3
ENDBRANCH   1   2
BRANCH   1  32
ATOM     32  C   UNL A   1      37.332  22.498  24.604  1.00  0.00     0.002 C 
BRANCH  32  33
ATOM     33  C   UNL A   1      37.764  21.029  24.585  1.00  0.00     0.021 C 
BRANCH  33  34
ATOM     34  C   UNL A   1      38.233  20.460  25.920  1.00  0.00     0.116 C 
BRANCH  34  35
ATOM     35  N   UNL A   1      39.324  19.512  25.772  1.00  0.00    -0.352 N 
ATOM     36  C   UNL A   1      40.673  19.687  25.961  1.00  0.00     0.251 C 
ATOM     37  H   UNL A   1      39.055  18.607  25.494  1.00  0.00     0.163 HD
ATOM     38  O   UNL A   1      41.459  18.812  25.621  1.00  0.00    -0.269 OA
BRANCH  36  39
ATOM     39  C   UNL A   1      41.183  20.944  26.554  1.00  0.00     0.039 A 
ATOM     40  C   UNL A   1      41.694  21.928  25.703  1.00  0.00     0.014 A 
ATOM     41  C   UNL A   1      41.176  21.148  27.936  1.00  0.00     0.014 A 
ATOM     42  C   UNL A   1      42.141  23.140  26.234  1.00  0.00     0.010 A 
ATOM     43  C   UNL A   1      41.552  22.384  28.457  1.00  0.00     0.010 A 
ATOM     44  C   UNL A   1      42.041  23.392  27.612  1.00  0.00    -0.014 A 
BRANCH  44  45
ATOM     45  C   UNL A   1      42.435  24.707  28.182  1.00  0.00     0.031 A 
ATOM     46  C   UNL A   1      41.410  25.791  28.377  1.00  0.00     0.074 A 
ATOM     47  C   UNL A   1      43.731  24.945  28.472  1.00  0.00     0.049 A 
ATOM     48  N   UNL A   1      41.576  27.014  28.812  1.00  0.00    -0.248 NA
ATOM     49  C   UNL A   1      40.020  25.467  28.015  1.00  0.00     0.031 C 
ATOM     50  C   UNL A   1      44.828  23.992  28.294  1.00  0.00     0.029 A 
ATOM     51  N   UNL A   1      44.345  26.067  28.973  1.00  0.00    -0.354 N 
ATOM     52  C   UNL A   1      40.320  27.608  28.759  1.00  0.00     0.074 A 
ATOM     53  C   UNL A   1      39.411  26.628  28.208  1.00  0.00     0.031 C 
ATOM     54  C   UNL A   1      45.975  24.560  28.702  1.00  0.00     0.029 A 
ATOM     55  C   UNL A   1      45.703  25.930  29.126  1.00  0.00     0.049 A 
ATOM     56  H   UNL A   1      43.857  26.891  29.201  1.00  0.00     0.167 HD
ATOM     57  C   UNL A   1      39.954  28.852  29.151  1.00  0.00     0.031 A 
ATOM     58  C   UNL A   1      46.630  26.811  29.547  1.00  0.00     0.031 A 
ATOM     59  C   UNL A   1      40.856  29.824  29.710  1.00  0.00     0.049 A 
ATOM     60  C   UNL A   1      46.196  28.192  29.958  1.00  0.00     0.074 A 
ATOM     61  C   UNL A   1      40.567  31.087  30.194  1.00  0.00     0.029 A 
ATOM     62  N   UNL A   1      42.222  29.642  29.855  1.00  0.00    -0.354 N 
ATOM     63  N   UNL A   1      44.992  28.709  29.976  1.00  0.00    -0.248 NA
ATOM     64  C   UNL A   1      47.250  29.107  30.419  1.00  0.00     0.031 C 
ATOM     65  C   UNL A   1      41.767  31.696  30.572  1.00  0.00     0.029 A 
ATOM     66  C   UNL A   1      42.794  30.784  30.391  1.00  0.00     0.049 A 
ATOM     67  H   UNL A   1      42.713  28.824  29.613  1.00  0.00     0.167 HD
ATOM     68  C   UNL A   1      45.140  29.995  30.480  1.00  0.00     0.074 A 
ATOM     69  C   UNL A   1      46.546  30.172  30.773  1.00  0.00     0.031 C 
ATOM     70  C   UNL A   1      44.194  30.945  30.681  1.00  0.00     0.031 A 
BRANCH  57  71
ATOM     71  C   UNL A   1      38.512  29.244  28.981  1.00  0.00    -0.014 A 
ATOM     72  C   UNL A   1      37.618  29.224  30.063  1.00  0.00     0.009 A 
ATOM     73  C   UNL A   1      38.058  29.708  27.736  1.00  0.00     0.009 A 
ATOM     74  C   UNL A   1      36.292  29.632  29.894  1.00  0.00     0.001 A 
ATOM     75  C   UNL A   1      36.742  30.143  27.577  1.00  0.00     0.001 A 
ATOM     76  C   UNL A   1      35.858  30.098  28.654  1.00  0.00     0.000 A 
ENDBRANCH  57  71
BRANCH  58  77
ATOM     77  C   UNL A   1      48.066  26.424  29.600  1.00  0.00    -0.014 A 
ATOM     78  C   UNL A   1      48.906  26.625  28.494  1.00  0.00     0.009 A 
ATOM     79  C   UNL A   1      48.598  25.818  30.750  1.00  0.00     0.009 A 
ATOM     80  C   UNL A   1      50.234  26.193  28.524  1.00  0.00     0.001 A 
ATOM     81  C   UNL A   1      49.935  25.419  30.789  1.00  0.00     0.001 A 
ATOM     82  C   UNL A   1      50.748  25.593  29.672  1.00  0.00     0.000 A 
ENDBRANCH  58  77
BRANCH  70  83
ATOM     83  C   UNL A   1      44.642  32.247  31.287  1.00  0.00    -0.014 A 
ATOM     84  C   UNL A   1      45.134  33.294  30.493  1.00  0.00     0.009 A 
ATOM     85  C   UNL A   1      44.531  32.439  32.673  1.00  0.00     0.009 A 
ATOM     86  C   UNL A   1      45.538  34.495  31.082  1.00  0.00     0.001 A 
ATOM     87  C   UNL A   1      44.903  33.651  33.254  1.00  0.00     0.001 A 
ATOM     88  C   UNL A   1      45.417  34.674  32.459  1.00  0.00     0.000 A 
ENDBRANCH  70  83
ENDBRANCH  44  45
ENDBRANCH  36  39
ENDBRANCH  34  35
ENDBRANCH  33  34
ENDBRANCH  32  33
ENDBRANCH   1  32
TORSDOF 17
ENDMDL
MODEL 2
REMARK VINA RESULT:     -11.2      1.727      6.595
REMARK SMILES CC[NH+]1CCN(c2ccc(NC(=O)C3CCCC3)c(C(=O)NCCCCCCNC(=O)c3ccc(-c4c5nc(c(-c6ccccc6)c6ccc([nH]6)c(-c6ccccc6)c6nc(c(-c7ccccc7)c7ccc4[nH]7)C=C6)C=C5)cc3)c2)CC1
REMARK SMILES IDX 25 1 24 2 23 3 22 4 20 5 21 6 19 8 7 9 8 10 80 11 9 12 10 13
REMARK SMILES IDX 6 14 3 15 4 16 82 17 5 19 81 20 2 21 1 22 11 23 12 24 13 26
REMARK SMILES IDX 14 27 15 28 18 29 16 30 17 31 26 32 27 33 28 34 29 35 30 36
REMARK SMILES IDX 31 38 32 39 33 40 79 41 34 42 78 43 35 44 36 45 37 46 72 47
REMARK SMILES IDX 38 48 77 49 71 50 73 51 39 52 76 53 70 54 69 55 40 57 62 58
REMARK SMILES IDX 47 59 61 60 48 61 51 62 60 63 74 64 49 65 50 66 59 68 75 69
REMARK SMILES IDX 52 70 41 71 42 72 46 73 43 74 45 75 44 76 63 77 64 78 68 79
REMARK SMILES IDX 65 80 67 81 66 82 53 83 54 84 58 85 55 86 57 87 56 88
REMARK H PARENT 22 7 3 18 11 25 29 37 73 56 51 67
REMARK Flexibility Score: inf
ROOT
ATOM      1  C   UNL A   1      34.040  26.323  24.844  1.00  0.00     0.002 C 
ENDROOT
BRANCH   1   2
ATOM      2  C   UNL A   1      33.825  25.309  25.961  1.00  0.00     0.021 C 
BRANCH   2   3
ATOM      3  C   UNL A   1      34.715  24.074  25.942  1.00  0.00     0.116 C 
BRANCH   3   4
ATOM      4  N   UNL A   1      35.447  23.829  24.702  1.00  0.00    -0.352 N 
ATOM      5  C   UNL A   1      35.095  23.110  23.567  1.00  0.00     0.253 C 
ATOM      6  O   UNL A   1      35.885  23.050  22.627  1.00  0.00    -0.269 OA
ATOM      7  H   UNL A   1      36.340  24.243  24.665  1.00  0.00     0.163 HD
BRANCH   5   8
ATOM      8  C   UNL A   1      33.832  22.318  23.519  1.00  0.00     0.065 A 
ATOM      9  C   UNL A   1      32.950  20.069  23.789  1.00  0.00     0.038 A 
ATOM     10  C   UNL A   1      32.049  20.369  22.770  1.00  0.00     0.028 A 
ATOM     11  C   UNL A   1      33.755  21.115  24.233  1.00  0.00     0.042 A 
ATOM     12  C   UNL A   1      31.976  21.638  22.209  1.00  0.00     0.029 A 
ATOM     13  C   UNL A   1      32.794  22.663  22.641  1.00  0.00     0.054 A 
BRANCH   9  14
ATOM     14  N   UNL A   1      33.162  18.765  24.193  1.00  0.00    -0.360 N 
ATOM     15  N   UNL A   1      33.126  15.920  24.947  1.00  0.00    -0.332 N 
ATOM     16  C   UNL A   1      32.261  16.904  25.606  1.00  0.00     0.283 C 
ATOM     17  C   UNL A   1      33.455  16.371  23.586  1.00  0.00     0.283 C 
ATOM     18  H   UNL A   1      32.591  15.056  24.859  1.00  0.00     0.348 HD
ATOM     19  C   UNL A   1      32.729  18.368  25.544  1.00  0.00     0.178 C 
ATOM     20  C   UNL A   1      33.988  17.812  23.441  1.00  0.00     0.178 C 
BRANCH  15  21
ATOM     21  C   UNL A   1      34.264  15.462  25.745  1.00  0.00     0.258 C 
ATOM     22  C   UNL A   1      35.679  15.842  25.324  1.00  0.00     0.071 C 
ENDBRANCH  15  21
ENDBRANCH   9  14
BRANCH  13  23
ATOM     23  N   UNL A   1      32.591  23.991  22.230  1.00  0.00    -0.325 N 
ATOM     24  C   UNL A   1      31.689  24.950  22.588  1.00  0.00     0.227 C 
ATOM     25  H   UNL A   1      33.231  24.290  21.544  1.00  0.00     0.169 HD
ATOM     26  O   UNL A   1      31.763  26.027  21.976  1.00  0.00    -0.274 OA
BRANCH  24  27
ATOM     27  C   UNL A   1      30.607  24.831  23.679  1.00  0.00     0.079 C 
ATOM     28  C   UNL A   1      31.003  23.925  24.843  1.00  0.00     0.013 C 
ATOM     29  C   UNL A   1      29.958  26.088  24.268  1.00  0.00     0.013 C 
ATOM     30  C   UNL A   1      30.242  24.445  26.056  1.00  0.00     0.001 C 
ATOM     31  C   UNL A   1      29.935  25.910  25.787  1.00  0.00     0.001 C 
ENDBRANCH  24  27
ENDBRANCH  13  23
ENDBRANCH   5   8
ENDBRANCH   3   4
ENDBRANCH   2   3
ENDBRANCH   1   2
BRANCH   1  32
ATOM     32  C   UNL A   1      33.315  27.661  24.999  1.00  0.00     0.002 C 
BRANCH  32  33
ATOM     33  C   UNL A   1      34.041  28.743  25.802  1.00  0.00     0.021 C 
BRANCH  33  34
ATOM     34  C   UNL A   1      33.667  28.836  27.278  1.00  0.00     0.116 C 
BRANCH  34  35
ATOM     35  N   UNL A   1      33.667  30.202  27.770  1.00  0.00    -0.352 N 
ATOM     36  C   UNL A   1      34.639  30.891  28.454  1.00  0.00     0.251 C 
ATOM     37  H   UNL A   1      32.845  30.712  27.586  1.00  0.00     0.163 HD
ATOM     38  O   UNL A   1      34.389  31.989  28.936  1.00  0.00    -0.269 OA
BRANCH  36  39
ATOM     39  C   UNL A   1      35.984  30.300  28.630  1.00  0.00     0.039 A 
ATOM     40  C   UNL A   1      36.886  30.353  27.564  1.00  0.00     0.014 A 
ATOM     41  C   UNL A   1      36.352  29.681  29.828  1.00  0.00     0.014 A 
ATOM     42  C   UNL A   1      38.175  29.841  27.720  1.00  0.00     0.010 A 
ATOM     43  C   UNL A   1      37.661  29.239  30.007  1.00  0.00     0.010 A 
ATOM     44  C   UNL A   1      38.586  29.311  28.955  1.00  0.00    -0.014 A 
BRANCH  44  45
ATOM     45  C   UNL A   1      39.980  28.838  29.161  1.00  0.00     0.031 A 
ATOM     46  C   UNL A   1      41.018  29.759  29.744  1.00  0.00     0.074 A 
ATOM     47  C   UNL A   1      40.325  27.595  28.772  1.00  0.00     0.049 A 
ATOM     48  N   UNL A   1      42.291  29.540  29.950  1.00  0.00    -0.248 NA
ATOM     49  C   UNL A   1      40.573  31.111  30.124  1.00  0.00     0.031 C 
ATOM     50  C   UNL A   1      39.423  26.617  28.159  1.00  0.00     0.029 A 
ATOM     51  N   UNL A   1      41.531  26.941  28.827  1.00  0.00    -0.354 N 
ATOM     52  C   UNL A   1      42.801  30.726  30.465  1.00  0.00     0.074 A 
ATOM     53  C   UNL A   1      41.711  31.675  30.498  1.00  0.00     0.031 C 
ATOM     54  C   UNL A   1      40.101  25.483  27.918  1.00  0.00     0.029 A 
ATOM     55  C   UNL A   1      41.493  25.667  28.315  1.00  0.00     0.049 A 
ATOM     56  H   UNL A   1      42.348  27.348  29.199  1.00  0.00     0.167 HD
ATOM     57  C   UNL A   1      44.059  30.994  30.889  1.00  0.00     0.031 A 
ATOM     58  C   UNL A   1      42.470  24.752  28.169  1.00  0.00     0.031 A 
ATOM     59  C   UNL A   1      45.141  30.045  30.868  1.00  0.00     0.049 A 
ATOM     60  C   UNL A   1      43.862  25.085  28.632  1.00  0.00     0.074 A 
ATOM     61  C   UNL A   1      46.434  30.205  31.334  1.00  0.00     0.029 A 
ATOM     62  N   UNL A   1      45.057  28.763  30.349  1.00  0.00    -0.354 N 
ATOM     63  N   UNL A   1      44.307  26.185  29.189  1.00  0.00    -0.248 NA
ATOM     64  C   UNL A   1      44.884  24.044  28.455  1.00  0.00     0.031 C 
ATOM     65  C   UNL A   1      47.151  29.042  31.039  1.00  0.00     0.029 A 
ATOM     66  C   UNL A   1      46.286  28.132  30.454  1.00  0.00     0.049 A 
ATOM     67  H   UNL A   1      44.246  28.361  29.963  1.00  0.00     0.167 HD
ATOM     68  C   UNL A   1      45.650  25.955  29.459  1.00  0.00     0.074 A 
ATOM     69  C   UNL A   1      45.941  24.606  29.023  1.00  0.00     0.031 C 
ATOM     70  C   UNL A   1      46.561  26.788  30.019  1.00  0.00     0.031 A 
BRANCH  57  71
ATOM     71  C   UNL A   1      44.345  32.377  31.407  1.00  0.00    -0.014 A 
ATOM     72  C   UNL A   1      44.215  32.687  32.770  1.00  0.00     0.009 A 
ATOM     73  C   UNL A   1      44.817  33.366  30.530  1.00  0.00     0.009 A 
ATOM     74  C   UNL A   1      44.524  33.967  33.238  1.00  0.00     0.001 A 
ATOM     75  C   UNL A   1      45.155  34.634  31.004  1.00  0.00     0.001 A 
ATOM     76  C   UNL A   1      45.001  34.936  32.356  1.00  0.00     0.000 A 
ENDBRANCH  57  71
BRANCH  58  77
ATOM     77  C   UNL A   1      42.176  23.430  27.551  1.00  0.00    -0.014 A 
ATOM     78  C   UNL A   1      41.632  22.385  28.315  1.00  0.00     0.009 A 
ATOM     79  C   UNL A   1      42.470  23.196  26.198  1.00  0.00     0.009 A 
ATOM     80  C   UNL A   1      41.428  21.125  27.748  1.00  0.00     0.001 A 
ATOM     81  C   UNL A   1      42.231  21.945  25.626  1.00  0.00     0.001 A 
ATOM     82  C   UNL A   1      41.725  20.907  26.404  1.00  0.00     0.000 A 
ENDBRANCH  58  77
BRANCH  70  83
ATOM     83  C   UNL A   1      47.949  26.250  30.233  1.00  0.00    -0.014 A 
ATOM     84  C   UNL A   1      48.910  26.274  29.210  1.00  0.00     0.009 A 
ATOM     85  C   UNL A   1      48.309  25.748  31.493  1.00  0.00     0.009 A 
ATOM     86  C   UNL A   1      50.193  25.772  29.438  1.00  0.00     0.001 A 
ATOM     87  C   UNL A   1      49.602  25.279  31.727  1.00  0.00     0.001 A 
ATOM     88  C   UNL A   1      50.540  25.281  30.696  1.00  0.00     0.000 A 
ENDBRANCH  70  83
ENDBRANCH  44  45
ENDBRANCH  36  39
ENDBRANCH  34  35
ENDBRANCH  33  34
ENDBRANCH  32  33
ENDBRANCH   1  32
TORSDOF 17
ENDMDL
MODEL 3
REMARK VINA RESULT:     -11.1      3.665      9.321
REMARK SMILES CC[NH+]1CCN(c2ccc(NC(=O)C3CCCC3)c(C(=O)NCCCCCCNC(=O)c3ccc(-c4c5nc(c(-c6ccccc6)c6ccc([nH]6)c(-c6ccccc6)c6nc(c(-c7ccccc7)c7ccc4[nH]7)C=C6)C=C5)cc3)c2)CC1
REMARK SMILES IDX 25 1 24 2 23 3 22 4 20 5 21 6 19 8 7 9 8 10 80 11 9 12 10 13
REMARK SMILES IDX 6 14 3 15 4 16 82 17 5 19 81 20 2 21 1 22 11 23 12 24 13 26
REMARK SMILES IDX 14 27 15 28 18 29 16 30 17 31 26 32 27 33 28 34 29 35 30 36
REMARK SMILES IDX 31 38 32 39 33 40 79 41 34 42 78 43 35 44 36 45 37 46 72 47
REMARK SMILES IDX 38 48 77 49 71 50 73 51 39 52 76 53 70 54 69 55 40 57 62 58
REMARK SMILES IDX 47 59 61 60 48 61 51 62 60 63 74 64 49 65 50 66 59 68 75 69
REMARK SMILES IDX 52 70 41 71 42 72 46 73 43 74 45 75 44 76 63 77 64 78 68 79
REMARK SMILES IDX 65 80 67 81 66 82 53 83 54 84 58 85 55 86 57 87 56 88
REMARK H PARENT 22 7 3 18 11 25 29 37 73 56 51 67
REMARK Flexibility Score: inf
ROOT
ATOM      1  C   UNL A   1      32.958  29.592  25.330  1.00  0.00     0.002 C 
ENDROOT
BRANCH   1   2
ATOM      2  C   UNL A   1      33.948  28.440  25.452  1.00  0.00     0.021 C 
BRANCH   2   3
ATOM      3  C   UNL A   1      33.428  27.054  25.098  1.00  0.00     0.116 C 
BRANCH   3   4
ATOM      4  N   UNL A   1      33.858  26.516  23.810  1.00  0.00    -0.352 N 
ATOM      5  C   UNL A   1      33.129  26.197  22.672  1.00  0.00     0.253 C 
ATOM      6  O   UNL A   1      33.719  25.759  21.686  1.00  0.00    -0.269 OA
ATOM      7  H   UNL A   1      34.826  26.351  23.737  1.00  0.00     0.163 HD
BRANCH   5   8
ATOM      8  C   UNL A   1      31.639  26.266  22.667  1.00  0.00     0.065 A 
ATOM      9  C   UNL A   1      29.775  27.814  22.862  1.00  0.00     0.038 A 
ATOM     10  C   UNL A   1      29.089  26.802  23.530  1.00  0.00     0.028 A 
ATOM     11  C   UNL A   1      31.014  27.473  22.326  1.00  0.00     0.042 A 
ATOM     12  C   UNL A   1      29.625  25.528  23.675  1.00  0.00     0.029 A 
ATOM     13  C   UNL A   1      30.863  25.207  23.158  1.00  0.00     0.054 A 
BRANCH   9  14
ATOM     14  N   UNL A   1      29.336  29.123  22.904  1.00  0.00    -0.360 N 
ATOM     15  N   UNL A   1      28.071  31.745  23.341  1.00  0.00    -0.332 N 
ATOM     16  C   UNL A   1      27.301  30.584  22.881  1.00  0.00     0.283 C 
ATOM     17  C   UNL A   1      29.246  31.299  24.106  1.00  0.00     0.283 C 
ATOM     18  H   UNL A   1      27.476  32.271  23.980  1.00  0.00     0.348 HD
ATOM     19  C   UNL A   1      28.102  29.474  22.179  1.00  0.00     0.178 C 
ATOM     20  C   UNL A   1      30.139  30.226  23.446  1.00  0.00     0.178 C 
BRANCH  15  21
ATOM     21  C   UNL A   1      28.340  32.755  22.317  1.00  0.00     0.258 C 
ATOM     22  C   UNL A   1      28.010  32.454  20.859  1.00  0.00     0.071 C 
ENDBRANCH  15  21
ENDBRANCH   9  14
BRANCH  13  23
ATOM     23  N   UNL A   1      31.323  23.880  23.118  1.00  0.00    -0.325 N 
ATOM     24  C   UNL A   1      32.021  23.108  24.000  1.00  0.00     0.227 C 
ATOM     25  H   UNL A   1      31.093  23.412  22.283  1.00  0.00     0.169 HD
ATOM     26  O   UNL A   1      32.312  21.964  23.616  1.00  0.00    -0.274 OA
BRANCH  24  27
ATOM     27  C   UNL A   1      32.468  23.510  25.419  1.00  0.00     0.079 C 
ATOM     28  C   UNL A   1      31.707  22.791  26.531  1.00  0.00     0.013 C 
ATOM     29  C   UNL A   1      33.953  23.509  25.795  1.00  0.00     0.013 C 
ATOM     30  C   UNL A   1      32.659  22.729  27.718  1.00  0.00     0.001 C 
ATOM     31  C   UNL A   1      34.069  22.817  27.154  1.00  0.00     0.001 C 
ENDBRANCH  24  27
ENDBRANCH  13  23
ENDBRANCH   5   8
ENDBRANCH   3   4
ENDBRANCH   2   3
ENDBRANCH   1   2
BRANCH   1  32
ATOM     32  C   UNL A   1      32.009  29.793  26.514  1.00  0.00     0.002 C 
BRANCH  32  33
ATOM     33  C   UNL A   1      31.682  31.241  26.889  1.00  0.00     0.021 C 
BRANCH  33  34
ATOM     34  C   UNL A   1      32.860  32.211  26.877  1.00  0.00     0.116 C 
BRANCH  34  35
ATOM     35  N   UNL A   1      32.530  33.498  27.462  1.00  0.00    -0.352 N 
ATOM     36  C   UNL A   1      33.162  34.198  28.461  1.00  0.00     0.251 C 
ATOM     37  H   UNL A   1      31.732  33.935  27.086  1.00  0.00     0.163 HD
ATOM     38  O   UNL A   1      32.637  35.194  28.940  1.00  0.00    -0.269 OA
BRANCH  36  39
ATOM     39  C   UNL A   1      34.470  33.737  28.978  1.00  0.00     0.039 A 
ATOM     40  C   UNL A   1      34.493  32.910  30.105  1.00  0.00     0.014 A 
ATOM     41  C   UNL A   1      35.668  34.126  28.371  1.00  0.00     0.014 A 
ATOM     42  C   UNL A   1      35.711  32.426  30.585  1.00  0.00     0.010 A 
ATOM     43  C   UNL A   1      36.874  33.583  28.806  1.00  0.00     0.010 A 
ATOM     44  C   UNL A   1      36.910  32.730  29.919  1.00  0.00    -0.014 A 
BRANCH  44  45
ATOM     45  C   UNL A   1      38.205  32.156  30.369  1.00  0.00     0.031 A 
ATOM     46  C   UNL A   1      38.706  30.861  29.789  1.00  0.00     0.074 A 
ATOM     47  C   UNL A   1      38.904  32.773  31.343  1.00  0.00     0.049 A 
ATOM     48  N   UNL A   1      39.784  30.184  30.094  1.00  0.00    -0.248 NA
ATOM     49  C   UNL A   1      37.878  30.231  28.748  1.00  0.00     0.031 C 
ATOM     50  C   UNL A   1      38.509  34.014  32.014  1.00  0.00     0.029 A 
ATOM     51  N   UNL A   1      40.092  32.437  31.943  1.00  0.00    -0.354 N 
ATOM     52  C   UNL A   1      39.754  29.046  29.297  1.00  0.00     0.074 A 
ATOM     53  C   UNL A   1      38.531  29.099  28.529  1.00  0.00     0.031 C 
ATOM     54  C   UNL A   1      39.448  34.346  32.915  1.00  0.00     0.029 A 
ATOM     55  C   UNL A   1      40.488  33.321  32.918  1.00  0.00     0.049 A 
ATOM     56  H   UNL A   1      40.612  31.637  31.698  1.00  0.00     0.167 HD
ATOM     57  C   UNL A   1      40.672  28.054  29.201  1.00  0.00     0.031 A 
ATOM     58  C   UNL A   1      41.558  33.304  33.734  1.00  0.00     0.031 A 
ATOM     59  C   UNL A   1      41.896  28.007  29.957  1.00  0.00     0.049 A 
ATOM     60  C   UNL A   1      42.551  32.180  33.617  1.00  0.00     0.074 A 
ATOM     61  C   UNL A   1      42.917  27.076  29.883  1.00  0.00     0.029 A 
ATOM     62  N   UNL A   1      42.261  28.926  30.927  1.00  0.00    -0.354 N 
ATOM     63  N   UNL A   1      42.546  31.153  32.802  1.00  0.00    -0.248 NA
ATOM     64  C   UNL A   1      43.705  32.219  34.527  1.00  0.00     0.031 C 
ATOM     65  C   UNL A   1      43.870  27.395  30.853  1.00  0.00     0.029 A 
ATOM     66  C   UNL A   1      43.478  28.565  31.483  1.00  0.00     0.049 A 
ATOM     67  H   UNL A   1      41.735  29.717  31.184  1.00  0.00     0.167 HD
ATOM     68  C   UNL A   1      43.708  30.445  33.078  1.00  0.00     0.074 A 
ATOM     69  C   UNL A   1      44.404  31.170  34.121  1.00  0.00     0.031 C 
ATOM     70  C   UNL A   1      44.160  29.297  32.517  1.00  0.00     0.031 A 
BRANCH  57  71
ATOM     71  C   UNL A   1      40.388  26.926  28.249  1.00  0.00    -0.014 A 
ATOM     72  C   UNL A   1      40.923  26.912  26.952  1.00  0.00     0.009 A 
ATOM     73  C   UNL A   1      39.629  25.826  28.679  1.00  0.00     0.009 A 
ATOM     74  C   UNL A   1      40.681  25.835  26.096  1.00  0.00     0.001 A 
ATOM     75  C   UNL A   1      39.414  24.736  27.833  1.00  0.00     0.001 A 
ATOM     76  C   UNL A   1      39.934  24.745  26.540  1.00  0.00     0.000 A 
ENDBRANCH  57  71
BRANCH  58  77
ATOM     77  C   UNL A   1      41.754  34.381  34.742  1.00  0.00    -0.014 A 
ATOM     78  C   UNL A   1      41.231  34.256  36.039  1.00  0.00     0.009 A 
ATOM     79  C   UNL A   1      42.436  35.560  34.400  1.00  0.00     0.009 A 
ATOM     80  C   UNL A   1      41.354  35.301  36.957  1.00  0.00     0.001 A 
ATOM     81  C   UNL A   1      42.588  36.589  35.332  1.00  0.00     0.001 A 
ATOM     82  C   UNL A   1      42.034  36.466  36.603  1.00  0.00     0.000 A 
ENDBRANCH  58  77
BRANCH  70  83
ATOM     83  C   UNL A   1      45.489  28.775  32.988  1.00  0.00    -0.014 A 
ATOM     84  C   UNL A   1      46.691  29.182  32.388  1.00  0.00     0.009 A 
ATOM     85  C   UNL A   1      45.539  27.891  34.077  1.00  0.00     0.009 A 
ATOM     86  C   UNL A   1      47.912  28.685  32.849  1.00  0.00     0.001 A 
ATOM     87  C   UNL A   1      46.762  27.423  34.557  1.00  0.00     0.001 A 
ATOM     88  C   UNL A   1      47.948  27.812  33.935  1.00  0.00     0.000 A 
ENDBRANCH  70  83
ENDBRANCH  44  45
ENDBRANCH  36  39
ENDBRANCH  34  35
ENDBRANCH  33  34
ENDBRANCH  32  33
ENDBRANCH   1  32
TORSDOF 17
ENDMDL
