MODEL 1
REMARK VINA RESULT:     -10.9      0.000      0.000
REMARK SMILES COc1ccc([C@H](C)NC(=O)c2cnn(C)c2C(=O)NCCCCCCNC(=O)c2ccc(-c3c4nc(c(-c5ccccc5)c5ccc([nH]5)c(-c5ccccc5)c5nc(c(-c6ccccc6)c6ccc3[nH]6)C=C5)C=C4)cc2)cc1
REMARK SMILES IDX 22 1 21 2 20 3 18 4 19 5 17 7 12 8 13 9 14 10 15 11 16 12
REMARK SMILES IDX 10 13 9 14 11 16 7 17 8 18 6 19 3 20 4 21 79 22 5 23 78 24
REMARK SMILES IDX 2 25 1 26 23 27 24 28 25 29 26 30 27 31 28 32 29 34 30 35
REMARK SMILES IDX 31 36 77 37 32 38 76 39 33 40 34 41 35 42 70 43 36 44 75 45
REMARK SMILES IDX 69 46 71 47 37 48 74 49 68 50 67 51 38 53 60 54 45 55 59 56
REMARK SMILES IDX 46 57 49 58 58 59 72 60 47 61 48 62 57 64 73 65 50 66 39 67
REMARK SMILES IDX 40 68 44 69 41 70 43 71 42 72 61 73 62 74 66 75 63 76 65 77
REMARK SMILES IDX 64 78 51 79 52 80 56 81 53 82 55 83 54 84
REMARK H PARENT 20 6 9 15 27 33 71 52 49 63
REMARK Flexibility Score: inf
ROOT
ATOM      1  C   UNL A   1      33.593  28.927  26.775  1.00  0.00     0.021 C 
ENDROOT
BRANCH   1   2
ATOM      2  C   UNL A   1      33.747  27.517  26.207  1.00  0.00     0.116 C 
BRANCH   2   3
ATOM      3  N   UNL A   1      33.776  27.499  24.768  1.00  0.00    -0.351 N 
ATOM      4  C   UNL A   1      33.014  26.974  23.767  1.00  0.00     0.270 C 
ATOM      5  O   UNL A   1      33.278  27.491  22.676  1.00  0.00    -0.268 OA
ATOM      6  H   UNL A   1      34.549  27.997  24.415  1.00  0.00     0.163 HD
BRANCH   4   7
ATOM      7  C   UNL A   1      32.003  25.931  23.854  1.00  0.00     0.138 A 
ATOM      8  C   UNL A   1      32.094  24.730  23.125  1.00  0.00     0.090 A 
ATOM      9  C   UNL A   1      30.815  24.153  23.183  1.00  0.00     0.149 A 
ATOM     10  N   UNL A   1      30.019  24.801  24.020  1.00  0.00    -0.180 NA
ATOM     11  N   UNL A   1      30.797  25.791  24.511  1.00  0.00    -0.262 N 
ATOM     12  C   UNL A   1      30.251  26.442  25.673  1.00  0.00     0.174 C 
BRANCH   8  13
ATOM     13  C   UNL A   1      33.185  24.202  22.331  1.00  0.00     0.255 C 
ATOM     14  N   UNL A   1      34.053  23.294  22.875  1.00  0.00    -0.345 N 
ATOM     15  H   UNL A   1      34.745  22.977  22.251  1.00  0.00     0.164 HD
ATOM     16  O   UNL A   1      33.279  24.451  21.130  1.00  0.00    -0.269 OA
BRANCH  14  17
ATOM     17  C   UNL A   1      34.140  22.709  24.209  1.00  0.00     0.109 C 
ATOM     18  C   UNL A   1      33.537  21.303  24.205  1.00  0.00     0.036 C 
BRANCH  17  19
ATOM     19  C   UNL A   1      35.572  22.683  24.722  1.00  0.00    -0.026 A 
ATOM     20  C   UNL A   1      38.202  22.525  25.746  1.00  0.00     0.118 A 
ATOM     21  C   UNL A   1      37.642  21.444  25.067  1.00  0.00     0.047 A 
ATOM     22  C   UNL A   1      37.467  23.703  25.873  1.00  0.00     0.047 A 
ATOM     23  C   UNL A   1      36.341  21.517  24.563  1.00  0.00     0.009 A 
ATOM     24  C   UNL A   1      36.168  23.782  25.358  1.00  0.00     0.009 A 
BRANCH  20  25
ATOM     25  O   UNL A   1      39.468  22.323  26.220  1.00  0.00    -0.497 OA
ATOM     26  C   UNL A   1      39.937  20.979  26.191  1.00  0.00     0.278 C 
ENDBRANCH  20  25
ENDBRANCH  17  19
ENDBRANCH  14  17
ENDBRANCH   8  13
ENDBRANCH   4   7
ENDBRANCH   2   3
ENDBRANCH   1   2
BRANCH   1  27
ATOM     27  C   UNL A   1      32.142  29.370  27.004  1.00  0.00     0.002 C 
BRANCH  27  28
ATOM     28  C   UNL A   1      31.579  30.372  25.989  1.00  0.00     0.002 C 
BRANCH  28  29
ATOM     29  C   UNL A   1      31.402  31.807  26.498  1.00  0.00     0.021 C 
BRANCH  29  30
ATOM     30  C   UNL A   1      32.661  32.439  27.084  1.00  0.00     0.116 C 
BRANCH  30  31
ATOM     31  N   UNL A   1      32.450  33.829  27.454  1.00  0.00    -0.352 N 
ATOM     32  C   UNL A   1      33.037  34.570  28.449  1.00  0.00     0.251 C 
ATOM     33  H   UNL A   1      31.785  34.310  26.911  1.00  0.00     0.163 HD
ATOM     34  O   UNL A   1      32.576  35.668  28.750  1.00  0.00    -0.269 OA
BRANCH  32  35
ATOM     35  C   UNL A   1      34.219  34.051  29.171  1.00  0.00     0.039 A 
ATOM     36  C   UNL A   1      34.024  33.267  30.312  1.00  0.00     0.014 A 
ATOM     37  C   UNL A   1      35.515  34.365  28.752  1.00  0.00     0.014 A 
ATOM     38  C   UNL A   1      35.125  32.751  31.000  1.00  0.00     0.010 A 
ATOM     39  C   UNL A   1      36.612  33.804  29.404  1.00  0.00     0.010 A 
ATOM     40  C   UNL A   1      36.428  32.993  30.535  1.00  0.00    -0.014 A 
BRANCH  40  41
ATOM     41  C   UNL A   1      37.610  32.401  31.211  1.00  0.00     0.031 A 
ATOM     42  C   UNL A   1      38.317  31.218  30.607  1.00  0.00     0.074 A 
ATOM     43  C   UNL A   1      38.004  32.884  32.406  1.00  0.00     0.049 A 
ATOM     44  N   UNL A   1      39.318  30.523  31.087  1.00  0.00    -0.248 NA
ATOM     45  C   UNL A   1      37.823  30.739  29.306  1.00  0.00     0.031 C 
ATOM     46  C   UNL A   1      37.383  34.003  33.116  1.00  0.00     0.029 A 
ATOM     47  N   UNL A   1      39.018  32.483  33.240  1.00  0.00    -0.354 N 
ATOM     48  C   UNL A   1      39.553  29.512  30.164  1.00  0.00     0.074 A 
ATOM     49  C   UNL A   1      38.574  29.665  29.110  1.00  0.00     0.031 C 
ATOM     50  C   UNL A   1      38.039  34.211  34.270  1.00  0.00     0.029 A 
ATOM     51  C   UNL A   1      39.101  33.218  34.398  1.00  0.00     0.049 A 
ATOM     52  H   UNL A   1      39.628  31.739  33.029  1.00  0.00     0.167 HD
ATOM     53  C   UNL A   1      40.506  28.550  30.185  1.00  0.00     0.031 A 
ATOM     54  C   UNL A   1      39.933  33.100  35.449  1.00  0.00     0.031 A 
ATOM     55  C   UNL A   1      41.501  28.415  31.215  1.00  0.00     0.049 A 
ATOM     56  C   UNL A   1      40.980  32.021  35.445  1.00  0.00     0.074 A 
ATOM     57  C   UNL A   1      42.561  27.527  31.276  1.00  0.00     0.029 A 
ATOM     58  N   UNL A   1      41.559  29.189  32.361  1.00  0.00    -0.354 N 
ATOM     59  N   UNL A   1      41.240  31.127  34.525  1.00  0.00    -0.248 NA
ATOM     60  C   UNL A   1      41.853  31.944  36.626  1.00  0.00     0.031 C 
ATOM     61  C   UNL A   1      43.233  27.731  32.485  1.00  0.00     0.029 A 
ATOM     62  C   UNL A   1      42.618  28.778  33.153  1.00  0.00     0.049 A 
ATOM     63  H   UNL A   1      40.940  29.922  32.582  1.00  0.00     0.167 HD
ATOM     64  C   UNL A   1      42.322  30.399  35.001  1.00  0.00     0.074 A 
ATOM     65  C   UNL A   1      42.679  30.965  36.285  1.00  0.00     0.031 C 
ATOM     66  C   UNL A   1      42.965  29.354  34.425  1.00  0.00     0.031 A 
BRANCH  53  67
ATOM     67  C   UNL A   1      40.518  27.553  29.061  1.00  0.00    -0.014 A 
ATOM     68  C   UNL A   1      39.752  26.379  29.122  1.00  0.00     0.009 A 
ATOM     69  C   UNL A   1      41.257  27.825  27.900  1.00  0.00     0.009 A 
ATOM     70  C   UNL A   1      39.748  25.484  28.050  1.00  0.00     0.001 A 
ATOM     71  C   UNL A   1      41.232  26.939  26.820  1.00  0.00     0.001 A 
ATOM     72  C   UNL A   1      40.482  25.767  26.899  1.00  0.00     0.000 A 
ENDBRANCH  53  67
BRANCH  54  73
ATOM     73  C   UNL A   1      39.821  34.032  36.602  1.00  0.00    -0.014 A 
ATOM     74  C   UNL A   1      39.073  33.674  37.733  1.00  0.00     0.009 A 
ATOM     75  C   UNL A   1      40.434  35.293  36.564  1.00  0.00     0.009 A 
ATOM     76  C   UNL A   1      38.915  34.572  38.791  1.00  0.00     0.001 A 
ATOM     77  C   UNL A   1      40.298  36.180  37.635  1.00  0.00     0.001 A 
ATOM     78  C   UNL A   1      39.529  35.822  38.742  1.00  0.00     0.000 A 
ENDBRANCH  54  73
BRANCH  66  79
ATOM     79  C   UNL A   1      44.139  28.781  35.162  1.00  0.00    -0.014 A 
ATOM     80  C   UNL A   1      43.982  27.714  36.060  1.00  0.00     0.009 A 
ATOM     81  C   UNL A   1      45.425  29.290  34.926  1.00  0.00     0.009 A 
ATOM     82  C   UNL A   1      45.088  27.189  36.729  1.00  0.00     0.001 A 
ATOM     83  C   UNL A   1      46.533  28.745  35.576  1.00  0.00     0.001 A 
ATOM     84  C   UNL A   1      46.363  27.701  36.483  1.00  0.00     0.000 A 
ENDBRANCH  66  79
ENDBRANCH  40  41
ENDBRANCH  32  35
ENDBRANCH  30  31
ENDBRANCH  29  30
ENDBRANCH  28  29
ENDBRANCH  27  28
ENDBRANCH   1  27
TORSDOF 17
ENDMDL
MODEL 2
REMARK VINA RESULT:     -10.9      2.937      7.336
REMARK SMILES COc1ccc([C@H](C)NC(=O)c2cnn(C)c2C(=O)NCCCCCCNC(=O)c2ccc(-c3c4nc(c(-c5ccccc5)c5ccc([nH]5)c(-c5ccccc5)c5nc(c(-c6ccccc6)c6ccc3[nH]6)C=C5)C=C4)cc2)cc1
REMARK SMILES IDX 22 1 21 2 20 3 18 4 19 5 17 7 12 8 13 9 14 10 15 11 16 12
REMARK SMILES IDX 10 13 9 14 11 16 7 17 8 18 6 19 3 20 4 21 79 22 5 23 78 24
REMARK SMILES IDX 2 25 1 26 23 27 24 28 25 29 26 30 27 31 28 32 29 34 30 35
REMARK SMILES IDX 31 36 77 37 32 38 76 39 33 40 34 41 35 42 70 43 36 44 75 45
REMARK SMILES IDX 69 46 71 47 37 48 74 49 68 50 67 51 38 53 60 54 45 55 59 56
REMARK SMILES IDX 46 57 49 58 58 59 72 60 47 61 48 62 57 64 73 65 50 66 39 67
REMARK SMILES IDX 40 68 44 69 41 70 43 71 42 72 61 73 62 74 66 75 63 76 65 77
REMARK SMILES IDX 64 78 51 79 52 80 56 81 53 82 55 83 54 84
REMARK H PARENT 20 6 9 15 27 33 71 52 49 63
REMARK Flexibility Score: inf
ROOT
ATOM      1  C   UNL A   1      33.616  23.534  22.033  1.00  0.00     0.021 C 
ENDROOT
BRANCH   1   2
ATOM      2  C   UNL A   1      32.714  24.717  21.681  1.00  0.00     0.116 C 
BRANCH   2   3
ATOM      3  N   UNL A   1      31.468  24.697  22.403  1.00  0.00    -0.351 N 
ATOM      4  C   UNL A   1      31.011  25.148  23.605  1.00  0.00     0.270 C 
ATOM      5  O   UNL A   1      29.776  25.158  23.647  1.00  0.00    -0.268 OA
ATOM      6  H   UNL A   1      30.762  24.237  21.894  1.00  0.00     0.163 HD
BRANCH   4   7
ATOM      7  C   UNL A   1      31.783  25.578  24.762  1.00  0.00     0.138 A 
ATOM      8  C   UNL A   1      31.611  25.007  26.037  1.00  0.00     0.090 A 
ATOM      9  C   UNL A   1      32.239  25.885  26.934  1.00  0.00     0.149 A 
ATOM     10  N   UNL A   1      32.921  26.829  26.304  1.00  0.00    -0.180 NA
ATOM     11  N   UNL A   1      32.738  26.547  24.995  1.00  0.00    -0.262 N 
ATOM     12  C   UNL A   1      33.634  27.249  24.114  1.00  0.00     0.174 C 
BRANCH   8  13
ATOM     13  C   UNL A   1      30.840  23.849  26.444  1.00  0.00     0.255 C 
ATOM     14  N   UNL A   1      31.421  22.610  26.468  1.00  0.00    -0.345 N 
ATOM     15  H   UNL A   1      30.824  21.892  26.779  1.00  0.00     0.164 HD
ATOM     16  O   UNL A   1      29.701  23.967  26.896  1.00  0.00    -0.269 OA
BRANCH  14  17
ATOM     17  C   UNL A   1      32.763  22.158  26.116  1.00  0.00     0.109 C 
ATOM     18  C   UNL A   1      33.576  21.894  27.386  1.00  0.00     0.036 C 
BRANCH  17  19
ATOM     19  C   UNL A   1      32.729  20.923  25.228  1.00  0.00    -0.026 A 
ATOM     20  C   UNL A   1      32.798  18.620  23.592  1.00  0.00     0.118 A 
ATOM     21  C   UNL A   1      33.308  18.581  24.889  1.00  0.00     0.047 A 
ATOM     22  C   UNL A   1      32.210  19.795  23.127  1.00  0.00     0.047 A 
ATOM     23  C   UNL A   1      33.278  19.719  25.699  1.00  0.00     0.009 A 
ATOM     24  C   UNL A   1      32.169  20.933  23.942  1.00  0.00     0.009 A 
BRANCH  20  25
ATOM     25  O   UNL A   1      32.912  17.454  22.886  1.00  0.00    -0.497 OA
ATOM     26  C   UNL A   1      33.971  16.588  23.280  1.00  0.00     0.278 C 
ENDBRANCH  20  25
ENDBRANCH  17  19
ENDBRANCH  14  17
ENDBRANCH   8  13
ENDBRANCH   4   7
ENDBRANCH   2   3
ENDBRANCH   1   2
BRANCH   1  27
ATOM     27  C   UNL A   1      34.391  23.687  23.347  1.00  0.00     0.002 C 
BRANCH  27  28
ATOM     28  C   UNL A   1      35.551  22.707  23.559  1.00  0.00     0.002 C 
BRANCH  28  29
ATOM     29  C   UNL A   1      36.927  23.344  23.788  1.00  0.00     0.021 C 
BRANCH  29  30
ATOM     30  C   UNL A   1      37.341  23.468  25.251  1.00  0.00     0.116 C 
BRANCH  30  31
ATOM     31  N   UNL A   1      38.425  22.560  25.588  1.00  0.00    -0.352 N 
ATOM     32  C   UNL A   1      39.624  22.818  26.205  1.00  0.00     0.251 C 
ATOM     33  H   UNL A   1      38.278  21.620  25.336  1.00  0.00     0.163 HD
ATOM     34  O   UNL A   1      40.506  21.963  26.212  1.00  0.00    -0.269 OA
BRANCH  32  35
ATOM     35  C   UNL A   1      39.867  24.124  26.853  1.00  0.00     0.039 A 
ATOM     36  C   UNL A   1      39.320  24.364  28.118  1.00  0.00     0.014 A 
ATOM     37  C   UNL A   1      40.596  25.126  26.207  1.00  0.00     0.014 A 
ATOM     38  C   UNL A   1      39.552  25.584  28.758  1.00  0.00     0.010 A 
ATOM     39  C   UNL A   1      40.874  26.321  26.868  1.00  0.00     0.010 A 
ATOM     40  C   UNL A   1      40.354  26.562  28.149  1.00  0.00    -0.014 A 
BRANCH  40  41
ATOM     41  C   UNL A   1      40.668  27.840  28.837  1.00  0.00     0.031 A 
ATOM     42  C   UNL A   1      41.990  28.025  29.531  1.00  0.00     0.074 A 
ATOM     43  C   UNL A   1      39.733  28.809  28.900  1.00  0.00     0.049 A 
ATOM     44  N   UNL A   1      42.413  29.038  30.244  1.00  0.00    -0.248 NA
ATOM     45  C   UNL A   1      42.955  26.918  29.428  1.00  0.00     0.031 C 
ATOM     46  C   UNL A   1      38.399  28.741  28.301  1.00  0.00     0.029 A 
ATOM     47  N   UNL A   1      39.761  30.038  29.510  1.00  0.00    -0.354 N 
ATOM     48  C   UNL A   1      43.676  28.681  30.697  1.00  0.00     0.074 A 
ATOM     49  C   UNL A   1      43.941  27.347  30.204  1.00  0.00     0.031 C 
ATOM     50  C   UNL A   1      37.743  29.886  28.557  1.00  0.00     0.029 A 
ATOM     51  C   UNL A   1      38.595  30.750  29.369  1.00  0.00     0.049 A 
ATOM     52  H   UNL A   1      40.543  30.378  30.003  1.00  0.00     0.167 HD
ATOM     53  C   UNL A   1      44.543  29.403  31.446  1.00  0.00     0.031 A 
ATOM     54  C   UNL A   1      38.245  31.959  29.848  1.00  0.00     0.031 A 
ATOM     55  C   UNL A   1      44.295  30.742  31.910  1.00  0.00     0.049 A 
ATOM     56  C   UNL A   1      39.228  32.736  30.678  1.00  0.00     0.074 A 
ATOM     57  C   UNL A   1      45.150  31.585  32.600  1.00  0.00     0.029 A 
ATOM     58  N   UNL A   1      43.108  31.431  31.733  1.00  0.00    -0.354 N 
ATOM     59  N   UNL A   1      40.449  32.416  31.026  1.00  0.00    -0.248 NA
ATOM     60  C   UNL A   1      38.782  34.047  31.174  1.00  0.00     0.031 C 
ATOM     61  C   UNL A   1      44.461  32.769  32.883  1.00  0.00     0.029 A 
ATOM     62  C   UNL A   1      43.194  32.678  32.328  1.00  0.00     0.049 A 
ATOM     63  H   UNL A   1      42.319  31.086  31.256  1.00  0.00     0.167 HD
ATOM     64  C   UNL A   1      40.928  33.495  31.757  1.00  0.00     0.074 A 
ATOM     65  C   UNL A   1      39.871  34.484  31.791  1.00  0.00     0.031 C 
ATOM     66  C   UNL A   1      42.137  33.654  32.348  1.00  0.00     0.031 A 
BRANCH  53  67
ATOM     67  C   UNL A   1      45.846  28.759  31.823  1.00  0.00    -0.014 A 
ATOM     68  C   UNL A   1      45.973  28.008  33.001  1.00  0.00     0.009 A 
ATOM     69  C   UNL A   1      46.944  28.852  30.954  1.00  0.00     0.009 A 
ATOM     70  C   UNL A   1      47.183  27.385  33.314  1.00  0.00     0.001 A 
ATOM     71  C   UNL A   1      48.145  28.208  31.258  1.00  0.00     0.001 A 
ATOM     72  C   UNL A   1      48.265  27.481  32.440  1.00  0.00     0.000 A 
ENDBRANCH  53  67
BRANCH  54  73
ATOM     73  C   UNL A   1      36.901  32.522  29.553  1.00  0.00    -0.014 A 
ATOM     74  C   UNL A   1      35.848  32.356  30.465  1.00  0.00     0.009 A 
ATOM     75  C   UNL A   1      36.658  33.198  28.348  1.00  0.00     0.009 A 
ATOM     76  C   UNL A   1      34.570  32.830  30.163  1.00  0.00     0.001 A 
ATOM     77  C   UNL A   1      35.385  33.696  28.060  1.00  0.00     0.001 A 
ATOM     78  C   UNL A   1      34.340  33.502  28.963  1.00  0.00     0.000 A 
ENDBRANCH  54  73
BRANCH  66  79
ATOM     79  C   UNL A   1      42.393  34.956  33.049  1.00  0.00    -0.014 A 
ATOM     80  C   UNL A   1      43.133  35.978  32.435  1.00  0.00     0.009 A 
ATOM     81  C   UNL A   1      41.853  35.175  34.325  1.00  0.00     0.009 A 
ATOM     82  C   UNL A   1      43.352  37.185  33.101  1.00  0.00     0.001 A 
ATOM     83  C   UNL A   1      42.051  36.394  34.977  1.00  0.00     0.001 A 
ATOM     84  C   UNL A   1      42.807  37.393  34.369  1.00  0.00     0.000 A 
ENDBRANCH  66  79
ENDBRANCH  40  41
ENDBRANCH  32  35
ENDBRANCH  30  31
ENDBRANCH  29  30
ENDBRANCH  28  29
ENDBRANCH  27  28
ENDBRANCH   1  27
TORSDOF 17
ENDMDL
MODEL 3
REMARK VINA RESULT:     -10.9      4.079      7.620
REMARK SMILES COc1ccc([C@H](C)NC(=O)c2cnn(C)c2C(=O)NCCCCCCNC(=O)c2ccc(-c3c4nc(c(-c5ccccc5)c5ccc([nH]5)c(-c5ccccc5)c5nc(c(-c6ccccc6)c6ccc3[nH]6)C=C5)C=C4)cc2)cc1
REMARK SMILES IDX 22 1 21 2 20 3 18 4 19 5 17 7 12 8 13 9 14 10 15 11 16 12
REMARK SMILES IDX 10 13 9 14 11 16 7 17 8 18 6 19 3 20 4 21 79 22 5 23 78 24
REMARK SMILES IDX 2 25 1 26 23 27 24 28 25 29 26 30 27 31 28 32 29 34 30 35
REMARK SMILES IDX 31 36 77 37 32 38 76 39 33 40 34 41 35 42 70 43 36 44 75 45
REMARK SMILES IDX 69 46 71 47 37 48 74 49 68 50 67 51 38 53 60 54 45 55 59 56
REMARK SMILES IDX 46 57 49 58 58 59 72 60 47 61 48 62 57 64 73 65 50 66 39 67
REMARK SMILES IDX 40 68 44 69 41 70 43 71 42 72 61 73 62 74 66 75 63 76 65 77
REMARK SMILES IDX 64 78 51 79 52 80 56 81 53 82 55 83 54 84
REMARK H PARENT 20 6 9 15 27 33 71 52 49 63
REMARK Flexibility Score: inf
ROOT
ATOM      1  C   UNL A   1      33.802  23.255  22.335  1.00  0.00     0.021 C 
ENDROOT
BRANCH   1   2
ATOM      2  C   UNL A   1      32.896  24.357  21.788  1.00  0.00     0.116 C 
BRANCH   2   3
ATOM      3  N   UNL A   1      31.615  24.397  22.444  1.00  0.00    -0.351 N 
ATOM      4  C   UNL A   1      31.098  24.951  23.578  1.00  0.00     0.270 C 
ATOM      5  O   UNL A   1      29.862  24.962  23.556  1.00  0.00    -0.268 OA
ATOM      6  H   UNL A   1      30.934  23.893  21.942  1.00  0.00     0.163 HD
BRANCH   4   7
ATOM      7  C   UNL A   1      31.811  25.482  24.730  1.00  0.00     0.138 A 
ATOM      8  C   UNL A   1      31.631  24.970  26.030  1.00  0.00     0.090 A 
ATOM      9  C   UNL A   1      32.185  25.927  26.894  1.00  0.00     0.149 A 
ATOM     10  N   UNL A   1      32.835  26.872  26.232  1.00  0.00    -0.180 NA
ATOM     11  N   UNL A   1      32.706  26.512  24.937  1.00  0.00    -0.262 N 
ATOM     12  C   UNL A   1      33.591  27.214  24.044  1.00  0.00     0.174 C 
BRANCH   8  13
ATOM     13  C   UNL A   1      30.909  23.796  26.477  1.00  0.00     0.255 C 
ATOM     14  N   UNL A   1      31.526  22.574  26.491  1.00  0.00    -0.345 N 
ATOM     15  H   UNL A   1      30.963  21.843  26.832  1.00  0.00     0.164 HD
ATOM     16  O   UNL A   1      29.786  23.886  26.971  1.00  0.00    -0.269 OA
BRANCH  14  17
ATOM     17  C   UNL A   1      32.867  22.156  26.093  1.00  0.00     0.109 C 
ATOM     18  C   UNL A   1      33.728  21.908  27.333  1.00  0.00     0.036 C 
BRANCH  17  19
ATOM     19  C   UNL A   1      32.833  20.924  25.200  1.00  0.00    -0.026 A 
ATOM     20  C   UNL A   1      32.904  18.634  23.546  1.00  0.00     0.118 A 
ATOM     21  C   UNL A   1      33.525  18.623  24.795  1.00  0.00     0.047 A 
ATOM     22  C   UNL A   1      32.207  19.772  23.143  1.00  0.00     0.047 A 
ATOM     23  C   UNL A   1      33.494  19.755  25.613  1.00  0.00     0.009 A 
ATOM     24  C   UNL A   1      32.166  20.903  23.967  1.00  0.00     0.009 A 
BRANCH  20  25
ATOM     25  O   UNL A   1      33.029  17.480  22.824  1.00  0.00    -0.497 OA
ATOM     26  C   UNL A   1      33.955  16.525  23.331  1.00  0.00     0.278 C 
ENDBRANCH  20  25
ENDBRANCH  17  19
ENDBRANCH  14  17
ENDBRANCH   8  13
ENDBRANCH   4   7
ENDBRANCH   2   3
ENDBRANCH   1   2
BRANCH   1  27
ATOM     27  C   UNL A   1      34.810  23.721  23.393  1.00  0.00     0.002 C 
BRANCH  27  28
ATOM     28  C   UNL A   1      36.144  22.964  23.427  1.00  0.00     0.002 C 
BRANCH  28  29
ATOM     29  C   UNL A   1      36.409  22.139  24.690  1.00  0.00     0.021 C 
BRANCH  29  30
ATOM     30  C   UNL A   1      37.357  22.790  25.694  1.00  0.00     0.116 C 
BRANCH  30  31
ATOM     31  N   UNL A   1      38.500  21.943  25.991  1.00  0.00    -0.352 N 
ATOM     32  C   UNL A   1      39.767  22.289  26.388  1.00  0.00     0.251 C 
ATOM     33  H   UNL A   1      38.342  20.977  25.891  1.00  0.00     0.163 HD
ATOM     34  O   UNL A   1      40.663  21.448  26.383  1.00  0.00    -0.269 OA
BRANCH  32  35
ATOM     35  C   UNL A   1      40.068  23.673  26.812  1.00  0.00     0.039 A 
ATOM     36  C   UNL A   1      40.175  23.954  28.177  1.00  0.00     0.014 A 
ATOM     37  C   UNL A   1      40.205  24.701  25.875  1.00  0.00     0.014 A 
ATOM     38  C   UNL A   1      40.476  25.251  28.601  1.00  0.00     0.010 A 
ATOM     39  C   UNL A   1      40.560  25.982  26.294  1.00  0.00     0.010 A 
ATOM     40  C   UNL A   1      40.698  26.270  27.661  1.00  0.00    -0.014 A 
BRANCH  40  41
ATOM     41  C   UNL A   1      41.083  27.640  28.085  1.00  0.00     0.031 A 
ATOM     42  C   UNL A   1      42.532  28.044  28.124  1.00  0.00     0.074 A 
ATOM     43  C   UNL A   1      40.133  28.498  28.504  1.00  0.00     0.049 A 
ATOM     44  N   UNL A   1      43.064  29.168  28.535  1.00  0.00    -0.248 NA
ATOM     45  C   UNL A   1      43.513  27.049  27.662  1.00  0.00     0.031 C 
ATOM     46  C   UNL A   1      38.696  28.218  28.550  1.00  0.00     0.029 A 
ATOM     47  N   UNL A   1      40.237  29.780  28.985  1.00  0.00    -0.354 N 
ATOM     48  C   UNL A   1      44.437  29.005  28.408  1.00  0.00     0.074 A 
ATOM     49  C   UNL A   1      44.660  27.665  27.910  1.00  0.00     0.031 C 
ATOM     50  C   UNL A   1      38.052  29.302  29.015  1.00  0.00     0.029 A 
ATOM     51  C   UNL A   1      39.030  30.336  29.334  1.00  0.00     0.049 A 
ATOM     52  H   UNL A   1      41.095  30.256  29.072  1.00  0.00     0.167 HD
ATOM     53  C   UNL A   1      45.423  29.895  28.671  1.00  0.00     0.031 A 
ATOM     54  C   UNL A   1      38.744  31.541  29.862  1.00  0.00     0.031 A 
ATOM     55  C   UNL A   1      45.203  31.238  29.136  1.00  0.00     0.049 A 
ATOM     56  C   UNL A   1      39.860  32.507  30.145  1.00  0.00     0.074 A 
ATOM     57  C   UNL A   1      46.135  32.240  29.345  1.00  0.00     0.029 A 
ATOM     58  N   UNL A   1      43.966  31.766  29.463  1.00  0.00    -0.354 N 
ATOM     59  N   UNL A   1      41.147  32.365  29.941  1.00  0.00    -0.248 NA
ATOM     60  C   UNL A   1      39.481  33.804  30.726  1.00  0.00     0.031 C 
ATOM     61  C   UNL A   1      45.466  33.361  29.846  1.00  0.00     0.029 A 
ATOM     62  C   UNL A   1      44.113  33.071  29.903  1.00  0.00     0.049 A 
ATOM     63  H   UNL A   1      43.109  31.286  29.393  1.00  0.00     0.167 HD
ATOM     64  C   UNL A   1      41.726  33.563  30.340  1.00  0.00     0.074 A 
ATOM     65  C   UNL A   1      40.651  34.423  30.786  1.00  0.00     0.031 C 
ATOM     66  C   UNL A   1      43.033  33.917  30.337  1.00  0.00     0.031 A 
BRANCH  53  67
ATOM     67  C   UNL A   1      46.843  29.444  28.471  1.00  0.00    -0.014 A 
ATOM     68  C   UNL A   1      47.608  28.954  29.540  1.00  0.00     0.009 A 
ATOM     69  C   UNL A   1      47.399  29.452  27.183  1.00  0.00     0.009 A 
ATOM     70  C   UNL A   1      48.913  28.504  29.325  1.00  0.00     0.001 A 
ATOM     71  C   UNL A   1      48.695  28.979  26.968  1.00  0.00     0.001 A 
ATOM     72  C   UNL A   1      49.452  28.512  28.040  1.00  0.00     0.000 A 
ENDBRANCH  53  67
BRANCH  54  73
ATOM     73  C   UNL A   1      37.336  31.915  30.157  1.00  0.00    -0.014 A 
ATOM     74  C   UNL A   1      36.558  32.567  29.188  1.00  0.00     0.009 A 
ATOM     75  C   UNL A   1      36.775  31.652  31.415  1.00  0.00     0.009 A 
ATOM     76  C   UNL A   1      35.255  32.974  29.484  1.00  0.00     0.001 A 
ATOM     77  C   UNL A   1      35.462  32.035  31.699  1.00  0.00     0.001 A 
ATOM     78  C   UNL A   1      34.708  32.706  30.737  1.00  0.00     0.000 A 
ENDBRANCH  54  73
BRANCH  66  79
ATOM     79  C   UNL A   1      43.368  35.306  30.797  1.00  0.00    -0.014 A 
ATOM     80  C   UNL A   1      43.615  35.583  32.150  1.00  0.00     0.009 A 
ATOM     81  C   UNL A   1      43.475  36.342  29.857  1.00  0.00     0.009 A 
ATOM     82  C   UNL A   1      43.933  36.880  32.556  1.00  0.00     0.001 A 
ATOM     83  C   UNL A   1      43.821  37.632  30.263  1.00  0.00     0.001 A 
ATOM     84  C   UNL A   1      44.040  37.902  31.612  1.00  0.00     0.000 A 
ENDBRANCH  66  79
ENDBRANCH  40  41
ENDBRANCH  32  35
ENDBRANCH  30  31
ENDBRANCH  29  30
ENDBRANCH  28  29
ENDBRANCH  27  28
ENDBRANCH   1  27
TORSDOF 17
ENDMDL
