MODEL 1
REMARK VINA RESULT:     -11.5      0.000      0.000
REMARK SMILES O=C(NCCCCCCNC(=O)[C@H]1CCCCN1C(=O)c1cn2ccccc2n1)c1ccc(-c2c3nc(c(-c4ccccc4)c4ccc([nH]4)c(-c4ccccc4)c4nc(c(-c5ccccc5)c5ccc2[nH]5)C=C4)C=C3)cc1
REMARK SMILES IDX 6 1 5 2 4 3 3 4 1 5 2 6 30 8 31 9 77 10 32 11 76 12 33 13
REMARK SMILES IDX 34 14 35 15 70 16 36 17 75 18 69 19 71 20 37 21 74 22 68 23
REMARK SMILES IDX 67 24 38 26 60 27 45 28 59 29 46 30 49 31 58 32 72 33 47 34
REMARK SMILES IDX 48 35 57 37 73 38 50 39 39 40 40 41 44 42 41 43 43 44 42 45
REMARK SMILES IDX 61 46 62 47 66 48 63 49 65 50 64 51 51 52 52 53 56 54 53 55
REMARK SMILES IDX 55 56 54 57 7 58 8 59 9 60 10 61 11 62 12 64 13 65 14 66
REMARK SMILES IDX 18 67 15 68 17 69 16 70 19 71 20 72 21 73 22 74 29 75 23 76
REMARK SMILES IDX 28 77 24 78 27 79 25 80 26 81
REMARK H PARENT 3 7 71 25 49 36 10 63
REMARK Flexibility Score: inf
ROOT
ATOM      1  C   UNL A   1      36.998  20.729  24.944  1.00  0.00     0.002 C 
ENDROOT
BRANCH   1   2
ATOM      2  C   UNL A   1      38.165  19.743  24.943  1.00  0.00     0.021 C 
BRANCH   2   3
ATOM      3  C   UNL A   1      39.210  20.003  26.019  1.00  0.00     0.116 C 
BRANCH   3   4
ATOM      4  N   UNL A   1      40.407  19.199  25.834  1.00  0.00    -0.352 N 
ATOM      5  O   UNL A   1      42.622  18.822  25.599  1.00  0.00    -0.269 OA
ATOM      6  C   UNL A   1      41.722  19.575  25.956  1.00  0.00     0.251 C 
ATOM      7  H   UNL A   1      40.254  18.259  25.589  1.00  0.00     0.163 HD
BRANCH   6   8
ATOM      8  C   UNL A   1      42.046  20.909  26.504  1.00  0.00     0.039 A 
ATOM      9  C   UNL A   1      41.996  21.139  27.881  1.00  0.00     0.014 A 
ATOM     10  C   UNL A   1      42.402  21.939  25.629  1.00  0.00     0.014 A 
ATOM     11  C   UNL A   1      42.166  22.427  28.371  1.00  0.00     0.010 A 
ATOM     12  C   UNL A   1      42.662  23.216  26.133  1.00  0.00     0.010 A 
ATOM     13  C   UNL A   1      42.523  23.475  27.506  1.00  0.00    -0.014 A 
BRANCH  13  14
ATOM     14  C   UNL A   1      42.827  24.811  28.075  1.00  0.00     0.031 A 
ATOM     15  C   UNL A   1      44.226  25.199  28.462  1.00  0.00     0.074 A 
ATOM     16  C   UNL A   1      41.814  25.687  28.225  1.00  0.00     0.049 A 
ATOM     17  N   UNL A   1      44.655  26.333  28.958  1.00  0.00    -0.248 NA
ATOM     18  C   UNL A   1      45.278  24.188  28.276  1.00  0.00     0.031 C 
ATOM     19  C   UNL A   1      40.413  25.419  27.890  1.00  0.00     0.029 A 
ATOM     20  N   UNL A   1      41.806  26.980  28.679  1.00  0.00    -0.354 N 
ATOM     21  C   UNL A   1      46.019  26.167  29.162  1.00  0.00     0.074 A 
ATOM     22  C   UNL A   1      46.343  24.815  28.758  1.00  0.00     0.031 C 
ATOM     23  C   UNL A   1      39.690  26.528  28.105  1.00  0.00     0.029 A 
ATOM     24  C   UNL A   1      40.562  27.559  28.656  1.00  0.00     0.049 A 
ATOM     25  H   UNL A   1      42.614  27.448  28.991  1.00  0.00     0.167 HD
ATOM     26  C   UNL A   1      46.917  27.062  29.640  1.00  0.00     0.031 A 
ATOM     27  C   UNL A   1      40.155  28.777  29.053  1.00  0.00     0.031 A 
ATOM     28  C   UNL A   1      46.587  28.405  30.045  1.00  0.00     0.049 A 
ATOM     29  C   UNL A   1      41.165  29.733  29.615  1.00  0.00     0.074 A 
ATOM     30  C   UNL A   1      47.433  29.397  30.512  1.00  0.00     0.029 A 
ATOM     31  N   UNL A   1      45.308  28.940  30.044  1.00  0.00    -0.354 N 
ATOM     32  N   UNL A   1      42.457  29.573  29.763  1.00  0.00    -0.248 NA
ATOM     33  C   UNL A   1      40.659  31.036  30.065  1.00  0.00     0.031 C 
ATOM     34  C   UNL A   1      46.658  30.513  30.845  1.00  0.00     0.029 A 
ATOM     35  C   UNL A   1      45.337  30.238  30.529  1.00  0.00     0.049 A 
ATOM     36  H   UNL A   1      44.499  28.468  29.742  1.00  0.00     0.167 HD
ATOM     37  C   UNL A   1      42.923  30.762  30.306  1.00  0.00     0.074 A 
ATOM     38  C   UNL A   1      41.778  31.640  30.439  1.00  0.00     0.031 C 
ATOM     39  C   UNL A   1      44.187  31.096  30.664  1.00  0.00     0.031 A 
BRANCH  26  40
ATOM     40  C   UNL A   1      48.345  26.610  29.782  1.00  0.00    -0.014 A 
ATOM     41  C   UNL A   1      48.791  25.939  30.933  1.00  0.00     0.009 A 
ATOM     42  C   UNL A   1      49.249  26.816  28.727  1.00  0.00     0.009 A 
ATOM     43  C   UNL A   1      50.117  25.515  31.035  1.00  0.00     0.001 A 
ATOM     44  C   UNL A   1      50.566  26.367  28.820  1.00  0.00     0.001 A 
ATOM     45  C   UNL A   1      51.003  25.725  29.978  1.00  0.00     0.000 A 
ENDBRANCH  26  40
BRANCH  27  46
ATOM     46  C   UNL A   1      38.720  29.147  28.949  1.00  0.00    -0.014 A 
ATOM     47  C   UNL A   1      38.189  29.621  27.741  1.00  0.00     0.009 A 
ATOM     48  C   UNL A   1      37.870  29.009  30.058  1.00  0.00     0.009 A 
ATOM     49  C   UNL A   1      36.839  29.970  27.654  1.00  0.00     0.001 A 
ATOM     50  C   UNL A   1      36.516  29.327  29.959  1.00  0.00     0.001 A 
ATOM     51  C   UNL A   1      36.002  29.816  28.759  1.00  0.00     0.000 A 
ENDBRANCH  27  46
BRANCH  39  52
ATOM     52  C   UNL A   1      44.397  32.480  31.207  1.00  0.00    -0.014 A 
ATOM     53  C   UNL A   1      44.328  32.741  32.585  1.00  0.00     0.009 A 
ATOM     54  C   UNL A   1      44.689  33.534  30.328  1.00  0.00     0.009 A 
ATOM     55  C   UNL A   1      44.512  34.039  33.066  1.00  0.00     0.001 A 
ATOM     56  C   UNL A   1      44.903  34.824  30.815  1.00  0.00     0.001 A 
ATOM     57  C   UNL A   1      44.804  35.077  32.182  1.00  0.00     0.000 A 
ENDBRANCH  39  52
ENDBRANCH  13  14
ENDBRANCH   6   8
ENDBRANCH   3   4
ENDBRANCH   2   3
ENDBRANCH   1   2
BRANCH   1  58
ATOM     58  C   UNL A   1      37.337  22.133  24.433  1.00  0.00     0.002 C 
BRANCH  58  59
ATOM     59  C   UNL A   1      37.603  23.186  25.520  1.00  0.00     0.021 C 
BRANCH  59  60
ATOM     60  C   UNL A   1      36.350  23.893  26.040  1.00  0.00     0.116 C 
BRANCH  60  61
ATOM     61  N   UNL A   1      35.535  22.977  26.813  1.00  0.00    -0.354 N 
ATOM     62  C   UNL A   1      34.182  22.885  26.923  1.00  0.00     0.242 C 
ATOM     63  H   UNL A   1      36.040  22.318  27.342  1.00  0.00     0.163 HD
ATOM     64  O   UNL A   1      33.749  22.240  27.882  1.00  0.00    -0.273 OA
BRANCH  62  65
ATOM     65  C   UNL A   1      33.256  23.495  25.844  1.00  0.00     0.174 C 
ATOM     66  C   UNL A   1      33.816  23.186  24.449  1.00  0.00     0.035 C 
ATOM     67  N   UNL A   1      31.867  23.030  25.973  1.00  0.00    -0.325 N 
ATOM     68  C   UNL A   1      33.604  21.731  24.038  1.00  0.00     0.004 C 
ATOM     69  C   UNL A   1      31.597  21.642  25.588  1.00  0.00     0.121 C 
ATOM     70  C   UNL A   1      32.144  21.323  24.199  1.00  0.00     0.022 C 
BRANCH  67  71
ATOM     71  C   UNL A   1      30.920  23.927  26.481  1.00  0.00     0.274 C 
ATOM     72  O   UNL A   1      30.052  23.573  27.281  1.00  0.00    -0.267 OA
BRANCH  71  73
ATOM     73  C   UNL A   1      30.987  25.316  26.030  1.00  0.00     0.147 A 
ATOM     74  C   UNL A   1      30.524  25.813  24.824  1.00  0.00     0.127 A 
ATOM     75  N   UNL A   1      31.511  26.340  26.801  1.00  0.00    -0.223 NA
ATOM     76  N   UNL A   1      30.785  27.158  24.851  1.00  0.00    -0.306 N 
ATOM     77  C   UNL A   1      31.379  27.432  26.078  1.00  0.00     0.137 A 
ATOM     78  C   UNL A   1      30.540  28.125  23.880  1.00  0.00     0.093 A 
ATOM     79  C   UNL A   1      31.736  28.787  26.336  1.00  0.00     0.048 A 
ATOM     80  C   UNL A   1      30.884  29.401  24.124  1.00  0.00     0.018 A 
ATOM     81  C   UNL A   1      31.500  29.730  25.402  1.00  0.00     0.005 A 
ENDBRANCH  71  73
ENDBRANCH  67  71
ENDBRANCH  62  65
ENDBRANCH  60  61
ENDBRANCH  59  60
ENDBRANCH  58  59
ENDBRANCH   1  58
TORSDOF 15
ENDMDL
MODEL 2
REMARK VINA RESULT:     -11.4      1.203      2.984
REMARK SMILES O=C(NCCCCCCNC(=O)[C@H]1CCCCN1C(=O)c1cn2ccccc2n1)c1ccc(-c2c3nc(c(-c4ccccc4)c4ccc([nH]4)c(-c4ccccc4)c4nc(c(-c5ccccc5)c5ccc2[nH]5)C=C4)C=C3)cc1
REMARK SMILES IDX 6 1 5 2 4 3 3 4 1 5 2 6 30 8 31 9 77 10 32 11 76 12 33 13
REMARK SMILES IDX 34 14 35 15 70 16 36 17 75 18 69 19 71 20 37 21 74 22 68 23
REMARK SMILES IDX 67 24 38 26 60 27 45 28 59 29 46 30 49 31 58 32 72 33 47 34
REMARK SMILES IDX 48 35 57 37 73 38 50 39 39 40 40 41 44 42 41 43 43 44 42 45
REMARK SMILES IDX 61 46 62 47 66 48 63 49 65 50 64 51 51 52 52 53 56 54 53 55
REMARK SMILES IDX 55 56 54 57 7 58 8 59 9 60 10 61 11 62 12 64 13 65 14 66
REMARK SMILES IDX 18 67 15 68 17 69 16 70 19 71 20 72 21 73 22 74 29 75 23 76
REMARK SMILES IDX 28 77 24 78 27 79 25 80 26 81
REMARK H PARENT 3 7 71 25 49 36 10 63
REMARK Flexibility Score: inf
ROOT
ATOM      1  C   UNL A   1      36.310  20.362  24.999  1.00  0.00     0.002 C 
ENDROOT
BRANCH   1   2
ATOM      2  C   UNL A   1      37.653  19.672  24.770  1.00  0.00     0.021 C 
BRANCH   2   3
ATOM      3  C   UNL A   1      38.789  20.203  25.631  1.00  0.00     0.116 C 
BRANCH   3   4
ATOM      4  N   UNL A   1      39.904  19.274  25.713  1.00  0.00    -0.352 N 
ATOM      5  O   UNL A   1      42.070  18.663  25.920  1.00  0.00    -0.269 OA
ATOM      6  C   UNL A   1      41.208  19.524  26.065  1.00  0.00     0.251 C 
ATOM      7  H   UNL A   1      39.697  18.339  25.486  1.00  0.00     0.163 HD
BRANCH   6   8
ATOM      8  C   UNL A   1      41.571  20.851  26.603  1.00  0.00     0.039 A 
ATOM      9  C   UNL A   1      41.437  21.122  27.967  1.00  0.00     0.014 A 
ATOM     10  C   UNL A   1      42.048  21.835  25.733  1.00  0.00     0.014 A 
ATOM     11  C   UNL A   1      41.648  22.411  28.439  1.00  0.00     0.010 A 
ATOM     12  C   UNL A   1      42.347  23.108  26.225  1.00  0.00     0.010 A 
ATOM     13  C   UNL A   1      42.127  23.413  27.578  1.00  0.00    -0.014 A 
BRANCH  13  14
ATOM     14  C   UNL A   1      42.468  24.744  28.136  1.00  0.00     0.031 A 
ATOM     15  C   UNL A   1      43.874  25.090  28.535  1.00  0.00     0.074 A 
ATOM     16  C   UNL A   1      41.484  25.654  28.264  1.00  0.00     0.049 A 
ATOM     17  N   UNL A   1      44.335  26.214  29.025  1.00  0.00    -0.248 NA
ATOM     18  C   UNL A   1      44.895  24.042  28.373  1.00  0.00     0.031 C 
ATOM     19  C   UNL A   1      40.078  25.430  27.915  1.00  0.00     0.029 A 
ATOM     20  N   UNL A   1      41.513  26.952  28.704  1.00  0.00    -0.354 N 
ATOM     21  C   UNL A   1      45.691  26.005  29.247  1.00  0.00     0.074 A 
ATOM     22  C   UNL A   1      45.974  24.639  28.861  1.00  0.00     0.031 C 
ATOM     23  C   UNL A   1      39.390  26.565  28.109  1.00  0.00     0.029 A 
ATOM     24  C   UNL A   1      40.289  27.571  28.660  1.00  0.00     0.049 A 
ATOM     25  H   UNL A   1      42.333  27.397  29.020  1.00  0.00     0.167 HD
ATOM     26  C   UNL A   1      46.612  26.875  29.725  1.00  0.00     0.031 A 
ATOM     27  C   UNL A   1      39.918  28.807  29.038  1.00  0.00     0.031 A 
ATOM     28  C   UNL A   1      46.322  28.233  30.112  1.00  0.00     0.049 A 
ATOM     29  C   UNL A   1      40.953  29.735  29.602  1.00  0.00     0.074 A 
ATOM     30  C   UNL A   1      47.195  29.202  30.578  1.00  0.00     0.029 A 
ATOM     31  N   UNL A   1      45.062  28.810  30.089  1.00  0.00    -0.354 N 
ATOM     32  N   UNL A   1      42.237  29.534  29.768  1.00  0.00    -0.248 NA
ATOM     33  C   UNL A   1      40.486  31.059  30.031  1.00  0.00     0.031 C 
ATOM     34  C   UNL A   1      46.454  30.347  30.890  1.00  0.00     0.029 A 
ATOM     35  C   UNL A   1      45.128  30.112  30.561  1.00  0.00     0.049 A 
ATOM     36  H   UNL A   1      44.241  28.362  29.783  1.00  0.00     0.167 HD
ATOM     37  C   UNL A   1      42.736  30.713  30.303  1.00  0.00     0.074 A 
ATOM     38  C   UNL A   1      41.620  31.630  30.413  1.00  0.00     0.031 C 
ATOM     39  C   UNL A   1      44.006  31.009  30.673  1.00  0.00     0.031 A 
BRANCH  26  40
ATOM     40  C   UNL A   1      48.023  26.378  29.890  1.00  0.00    -0.014 A 
ATOM     41  C   UNL A   1      48.458  25.791  31.089  1.00  0.00     0.009 A 
ATOM     42  C   UNL A   1      48.918  26.454  28.811  1.00  0.00     0.009 A 
ATOM     43  C   UNL A   1      49.768  25.322  31.212  1.00  0.00     0.001 A 
ATOM     44  C   UNL A   1      50.218  25.960  28.927  1.00  0.00     0.001 A 
ATOM     45  C   UNL A   1      50.645  25.403  30.132  1.00  0.00     0.000 A 
ENDBRANCH  26  40
BRANCH  27  46
ATOM     46  C   UNL A   1      38.498  29.223  28.913  1.00  0.00    -0.014 A 
ATOM     47  C   UNL A   1      37.628  29.137  30.009  1.00  0.00     0.009 A 
ATOM     48  C   UNL A   1      38.011  29.727  27.696  1.00  0.00     0.009 A 
ATOM     49  C   UNL A   1      36.292  29.527  29.881  1.00  0.00     0.001 A 
ATOM     50  C   UNL A   1      36.686  30.146  27.580  1.00  0.00     0.001 A 
ATOM     51  C   UNL A   1      35.824  30.037  28.670  1.00  0.00     0.000 A 
ENDBRANCH  27  46
BRANCH  39  52
ATOM     52  C   UNL A   1      44.256  32.392  31.203  1.00  0.00    -0.014 A 
ATOM     53  C   UNL A   1      44.162  32.674  32.575  1.00  0.00     0.009 A 
ATOM     54  C   UNL A   1      44.611  33.421  30.318  1.00  0.00     0.009 A 
ATOM     55  C   UNL A   1      44.384  33.970  33.044  1.00  0.00     0.001 A 
ATOM     56  C   UNL A   1      44.862  34.708  30.794  1.00  0.00     0.001 A 
ATOM     57  C   UNL A   1      44.739  34.984  32.155  1.00  0.00     0.000 A 
ENDBRANCH  39  52
ENDBRANCH  13  14
ENDBRANCH   6   8
ENDBRANCH   3   4
ENDBRANCH   2   3
ENDBRANCH   1   2
BRANCH   1  58
ATOM     58  C   UNL A   1      36.401  21.841  25.388  1.00  0.00     0.002 C 
BRANCH  58  59
ATOM     59  C   UNL A   1      35.433  22.780  24.651  1.00  0.00     0.021 C 
BRANCH  59  60
ATOM     60  C   UNL A   1      34.894  23.932  25.502  1.00  0.00     0.116 C 
BRANCH  60  61
ATOM     61  N   UNL A   1      34.849  25.156  24.727  1.00  0.00    -0.354 N 
ATOM     62  C   UNL A   1      33.929  26.159  24.724  1.00  0.00     0.242 C 
ATOM     63  H   UNL A   1      35.602  25.282  24.106  1.00  0.00     0.163 HD
ATOM     64  O   UNL A   1      33.949  26.923  23.756  1.00  0.00    -0.273 OA
BRANCH  62  65
ATOM     65  C   UNL A   1      32.972  26.360  25.923  1.00  0.00     0.174 C 
ATOM     66  C   UNL A   1      33.346  27.645  26.672  1.00  0.00     0.035 C 
ATOM     67  N   UNL A   1      31.559  26.377  25.513  1.00  0.00    -0.325 N 
ATOM     68  C   UNL A   1      32.930  28.907  25.922  1.00  0.00     0.004 C 
ATOM     69  C   UNL A   1      31.096  27.566  24.793  1.00  0.00     0.121 C 
ATOM     70  C   UNL A   1      31.458  28.852  25.531  1.00  0.00     0.022 C 
BRANCH  67  71
ATOM     71  C   UNL A   1      30.777  25.254  25.807  1.00  0.00     0.274 C 
ATOM     72  O   UNL A   1      29.784  25.325  26.532  1.00  0.00    -0.267 OA
BRANCH  71  73
ATOM     73  C   UNL A   1      31.177  23.974  25.224  1.00  0.00     0.147 A 
ATOM     74  C   UNL A   1      31.322  23.692  23.877  1.00  0.00     0.127 A 
ATOM     75  N   UNL A   1      31.502  22.862  25.984  1.00  0.00    -0.223 NA
ATOM     76  N   UNL A   1      31.724  22.384  23.810  1.00  0.00    -0.306 N 
ATOM     77  C   UNL A   1      31.827  21.924  25.119  1.00  0.00     0.137 A 
ATOM     78  C   UNL A   1      31.991  21.597  22.694  1.00  0.00     0.093 A 
ATOM     79  C   UNL A   1      32.244  20.574  25.300  1.00  0.00     0.048 A 
ATOM     80  C   UNL A   1      32.377  20.321  22.868  1.00  0.00     0.018 A 
ATOM     81  C   UNL A   1      32.507  19.806  24.224  1.00  0.00     0.005 A 
ENDBRANCH  71  73
ENDBRANCH  67  71
ENDBRANCH  62  65
ENDBRANCH  60  61
ENDBRANCH  59  60
ENDBRANCH  58  59
ENDBRANCH   1  58
TORSDOF 15
ENDMDL
MODEL 3
REMARK VINA RESULT:     -11.3      1.684      3.719
REMARK SMILES O=C(NCCCCCCNC(=O)[C@H]1CCCCN1C(=O)c1cn2ccccc2n1)c1ccc(-c2c3nc(c(-c4ccccc4)c4ccc([nH]4)c(-c4ccccc4)c4nc(c(-c5ccccc5)c5ccc2[nH]5)C=C4)C=C3)cc1
REMARK SMILES IDX 6 1 5 2 4 3 3 4 1 5 2 6 30 8 31 9 77 10 32 11 76 12 33 13
REMARK SMILES IDX 34 14 35 15 70 16 36 17 75 18 69 19 71 20 37 21 74 22 68 23
REMARK SMILES IDX 67 24 38 26 60 27 45 28 59 29 46 30 49 31 58 32 72 33 47 34
REMARK SMILES IDX 48 35 57 37 73 38 50 39 39 40 40 41 44 42 41 43 43 44 42 45
REMARK SMILES IDX 61 46 62 47 66 48 63 49 65 50 64 51 51 52 52 53 56 54 53 55
REMARK SMILES IDX 55 56 54 57 7 58 8 59 9 60 10 61 11 62 12 64 13 65 14 66
REMARK SMILES IDX 18 67 15 68 17 69 16 70 19 71 20 72 21 73 22 74 29 75 23 76
REMARK SMILES IDX 28 77 24 78 27 79 25 80 26 81
REMARK H PARENT 3 7 71 25 49 36 10 63
REMARK Flexibility Score: inf
ROOT
ATOM      1  C   UNL A   1      37.854  21.471  24.819  1.00  0.00     0.002 C 
ENDROOT
BRANCH   1   2
ATOM      2  C   UNL A   1      38.505  20.093  24.920  1.00  0.00     0.021 C 
BRANCH   2   3
ATOM      3  C   UNL A   1      39.300  19.864  26.197  1.00  0.00     0.116 C 
BRANCH   3   4
ATOM      4  N   UNL A   1      40.488  19.056  25.973  1.00  0.00    -0.352 N 
ATOM      5  O   UNL A   1      42.686  18.673  25.615  1.00  0.00    -0.269 OA
ATOM      6  C   UNL A   1      41.806  19.439  25.994  1.00  0.00     0.251 C 
ATOM      7  H   UNL A   1      40.324  18.105  25.780  1.00  0.00     0.163 HD
BRANCH   6   8
ATOM      8  C   UNL A   1      42.158  20.797  26.459  1.00  0.00     0.039 A 
ATOM      9  C   UNL A   1      42.212  21.085  27.825  1.00  0.00     0.014 A 
ATOM     10  C   UNL A   1      42.433  21.793  25.518  1.00  0.00     0.014 A 
ATOM     11  C   UNL A   1      42.406  22.393  28.247  1.00  0.00     0.010 A 
ATOM     12  C   UNL A   1      42.718  23.091  25.947  1.00  0.00     0.010 A 
ATOM     13  C   UNL A   1      42.684  23.407  27.315  1.00  0.00    -0.014 A 
BRANCH  13  14
ATOM     14  C   UNL A   1      43.017  24.767  27.803  1.00  0.00     0.031 A 
ATOM     15  C   UNL A   1      44.440  25.196  28.021  1.00  0.00     0.074 A 
ATOM     16  C   UNL A   1      42.007  25.628  28.035  1.00  0.00     0.049 A 
ATOM     17  N   UNL A   1      44.894  26.354  28.430  1.00  0.00    -0.248 NA
ATOM     18  C   UNL A   1      45.489  24.199  27.754  1.00  0.00     0.031 C 
ATOM     19  C   UNL A   1      40.583  25.322  27.864  1.00  0.00     0.029 A 
ATOM     20  N   UNL A   1      42.018  26.936  28.444  1.00  0.00    -0.354 N 
ATOM     21  C   UNL A   1      46.276  26.222  28.488  1.00  0.00     0.074 A 
ATOM     22  C   UNL A   1      46.585  24.864  28.096  1.00  0.00     0.031 C 
ATOM     23  C   UNL A   1      39.863  26.424  28.120  1.00  0.00     0.029 A 
ATOM     24  C   UNL A   1      40.765  27.489  28.539  1.00  0.00     0.049 A 
ATOM     25  H   UNL A   1      42.844  27.430  28.649  1.00  0.00     0.167 HD
ATOM     26  C   UNL A   1      47.199  27.151  28.835  1.00  0.00     0.031 A 
ATOM     27  C   UNL A   1      40.376  28.713  28.937  1.00  0.00     0.031 A 
ATOM     28  C   UNL A   1      46.885  28.501  29.230  1.00  0.00     0.049 A 
ATOM     29  C   UNL A   1      41.419  29.707  29.354  1.00  0.00     0.074 A 
ATOM     30  C   UNL A   1      47.753  29.525  29.568  1.00  0.00     0.029 A 
ATOM     31  N   UNL A   1      45.601  29.011  29.351  1.00  0.00    -0.354 N 
ATOM     32  N   UNL A   1      42.723  29.577  29.364  1.00  0.00    -0.248 NA
ATOM     33  C   UNL A   1      40.935  31.015  29.813  1.00  0.00     0.031 C 
ATOM     34  C   UNL A   1      46.994  30.637  29.948  1.00  0.00     0.029 A 
ATOM     35  C   UNL A   1      45.653  30.325  29.787  1.00  0.00     0.049 A 
ATOM     36  H   UNL A   1      44.775  28.513  29.155  1.00  0.00     0.167 HD
ATOM     37  C   UNL A   1      43.217  30.793  29.813  1.00  0.00     0.074 A 
ATOM     38  C   UNL A   1      42.074  31.653  30.042  1.00  0.00     0.031 C 
ATOM     39  C   UNL A   1      44.505  31.164  30.019  1.00  0.00     0.031 A 
BRANCH  26  40
ATOM     40  C   UNL A   1      48.645  26.732  28.834  1.00  0.00    -0.014 A 
ATOM     41  C   UNL A   1      49.259  26.214  29.987  1.00  0.00     0.009 A 
ATOM     42  C   UNL A   1      49.392  26.812  27.648  1.00  0.00     0.009 A 
ATOM     43  C   UNL A   1      50.597  25.818  29.957  1.00  0.00     0.001 A 
ATOM     44  C   UNL A   1      50.721  26.389  27.614  1.00  0.00     0.001 A 
ATOM     45  C   UNL A   1      51.326  25.901  28.771  1.00  0.00     0.000 A 
ENDBRANCH  26  40
BRANCH  27  46
ATOM     46  C   UNL A   1      38.930  29.051  28.979  1.00  0.00    -0.014 A 
ATOM     47  C   UNL A   1      38.179  28.840  30.145  1.00  0.00     0.009 A 
ATOM     48  C   UNL A   1      38.298  29.605  27.854  1.00  0.00     0.009 A 
ATOM     49  C   UNL A   1      36.819  29.156  30.174  1.00  0.00     0.001 A 
ATOM     50  C   UNL A   1      36.948  29.951  27.897  1.00  0.00     0.001 A 
ATOM     51  C   UNL A   1      36.206  29.718  29.054  1.00  0.00     0.000 A 
ENDBRANCH  27  46
BRANCH  39  52
ATOM     52  C   UNL A   1      44.740  32.571  30.490  1.00  0.00    -0.014 A 
ATOM     53  C   UNL A   1      44.803  32.881  31.858  1.00  0.00     0.009 A 
ATOM     54  C   UNL A   1      44.924  33.596  29.550  1.00  0.00     0.009 A 
ATOM     55  C   UNL A   1      45.008  34.198  32.273  1.00  0.00     0.001 A 
ATOM     56  C   UNL A   1      45.160  34.906  29.968  1.00  0.00     0.001 A 
ATOM     57  C   UNL A   1      45.192  35.208  31.329  1.00  0.00     0.000 A 
ENDBRANCH  39  52
ENDBRANCH  13  14
ENDBRANCH   6   8
ENDBRANCH   3   4
ENDBRANCH   2   3
ENDBRANCH   1   2
BRANCH   1  58
ATOM     58  C   UNL A   1      38.377  22.508  25.818  1.00  0.00     0.002 C 
BRANCH  58  59
ATOM     59  C   UNL A   1      37.601  23.834  25.862  1.00  0.00     0.021 C 
BRANCH  59  60
ATOM     60  C   UNL A   1      36.086  23.689  25.707  1.00  0.00     0.116 C 
BRANCH  60  61
ATOM     61  N   UNL A   1      35.659  24.187  24.414  1.00  0.00    -0.354 N 
ATOM     62  C   UNL A   1      34.415  24.254  23.866  1.00  0.00     0.242 C 
ATOM     63  H   UNL A   1      36.383  24.533  23.843  1.00  0.00     0.163 HD
ATOM     64  O   UNL A   1      34.358  24.418  22.645  1.00  0.00    -0.273 OA
BRANCH  62  65
ATOM     65  C   UNL A   1      33.153  24.206  24.759  1.00  0.00     0.174 C 
ATOM     66  C   UNL A   1      32.247  25.401  24.437  1.00  0.00     0.035 C 
ATOM     67  N   UNL A   1      32.423  22.936  24.627  1.00  0.00    -0.325 N 
ATOM     68  C   UNL A   1      31.510  25.241  23.109  1.00  0.00     0.004 C 
ATOM     69  C   UNL A   1      31.689  22.724  23.376  1.00  0.00     0.121 C 
ATOM     70  C   UNL A   1      30.780  23.904  23.046  1.00  0.00     0.022 C 
BRANCH  67  71
ATOM     71  C   UNL A   1      32.509  22.017  25.679  1.00  0.00     0.274 C 
ATOM     72  O   UNL A   1      32.264  22.337  26.843  1.00  0.00    -0.267 OA
BRANCH  71  73
ATOM     73  C   UNL A   1      32.906  20.647  25.357  1.00  0.00     0.147 A 
ATOM     74  C   UNL A   1      34.166  20.225  24.969  1.00  0.00     0.127 A 
ATOM     75  N   UNL A   1      32.042  19.567  25.439  1.00  0.00    -0.223 NA
ATOM     76  N   UNL A   1      34.066  18.870  24.794  1.00  0.00    -0.306 N 
ATOM     77  C   UNL A   1      32.757  18.515  25.099  1.00  0.00     0.137 A 
ATOM     78  C   UNL A   1      35.036  17.958  24.387  1.00  0.00     0.093 A 
ATOM     79  C   UNL A   1      32.418  17.136  24.995  1.00  0.00     0.048 A 
ATOM     80  C   UNL A   1      34.711  16.658  24.282  1.00  0.00     0.018 A 
ATOM     81  C   UNL A   1      33.352  16.246  24.603  1.00  0.00     0.005 A 
ENDBRANCH  71  73
ENDBRANCH  67  71
ENDBRANCH  62  65
ENDBRANCH  60  61
ENDBRANCH  59  60
ENDBRANCH  58  59
ENDBRANCH   1  58
TORSDOF 15
ENDMDL
