MODEL 1
REMARK VINA RESULT:     -10.1      0.000      0.000
REMARK SMILES C[C@H](C(=O)NCCCCCCNC(=O)c1ccc(-c2c3nc(c(-c4ccccc4)c4ccc([nH]4)c(-c4ccccc4)c4nc(c(-c5ccccc5)c5ccc2[nH]5)C=C4)C=C3)cc1)[C@H](C)[S@@](=O)c1cccs1
REMARK SMILES IDX 8 1 7 2 6 3 5 4 3 5 4 6 2 8 1 9 63 10 64 11 65 12 66 13
REMARK SMILES IDX 67 14 68 15 71 16 69 17 70 18 9 19 10 20 11 21 12 22 13 23
REMARK SMILES IDX 14 25 15 26 16 27 62 28 17 29 61 30 18 31 19 32 20 33 55 34
REMARK SMILES IDX 21 35 60 36 54 37 56 38 22 39 59 40 53 41 52 42 23 44 45 45
REMARK SMILES IDX 30 46 44 47 31 48 34 49 43 50 57 51 32 52 33 53 42 55 58 56
REMARK SMILES IDX 35 57 24 58 25 59 29 60 26 61 28 62 27 63 46 64 47 65 51 66
REMARK SMILES IDX 48 67 50 68 49 69 36 70 37 71 41 72 38 73 40 74 39 75
REMARK H PARENT 5 7 12 24 56 43 34 54
REMARK Flexibility Score: inf
ROOT
ATOM      1  C   UNL A   1      36.636  21.746  25.737  1.00  0.00     0.002 C 
ENDROOT
BRANCH   1   2
ATOM      2  C   UNL A   1      35.383  22.628  25.674  1.00  0.00     0.021 C 
BRANCH   2   3
ATOM      3  C   UNL A   1      34.360  22.294  26.749  1.00  0.00     0.116 C 
BRANCH   3   4
ATOM      4  N   UNL A   1      33.447  21.266  26.296  1.00  0.00    -0.356 N 
ATOM      5  C   UNL A   1      32.512  21.264  25.319  1.00  0.00     0.224 C 
ATOM      6  O   UNL A   1      31.859  20.227  25.167  1.00  0.00    -0.275 OA
ATOM      7  H   UNL A   1      33.520  20.417  26.787  1.00  0.00     0.163 HD
BRANCH   5   8
ATOM      8  C   UNL A   1      32.234  22.462  24.430  1.00  0.00     0.091 C 
ATOM      9  C   UNL A   1      32.458  22.174  22.937  1.00  0.00     0.019 C 
BRANCH   8  10
ATOM     10  C   UNL A   1      31.002  23.351  24.707  1.00  0.00     0.094 C 
ATOM     11  C   UNL A   1      30.640  24.244  23.514  1.00  0.00     0.023 C 
BRANCH  10  12
ATOM     12  S   UNL A   1      30.800  24.280  26.245  1.00  0.00     0.067 S 
ATOM     13  O   UNL A   1      31.209  23.469  27.437  1.00  0.00    -0.253 OA
BRANCH  12  14
ATOM     14  C   UNL A   1      31.760  25.725  26.181  1.00  0.00     0.091 A 
ATOM     15  C   UNL A   1      31.211  26.981  26.343  1.00  0.00     0.029 A 
ATOM     16  S   UNL A   1      33.414  25.818  25.801  1.00  0.00    -0.135 S 
ATOM     17  C   UNL A   1      32.200  28.008  26.352  1.00  0.00     0.013 A 
ATOM     18  C   UNL A   1      33.459  27.499  26.129  1.00  0.00     0.066 A 
ENDBRANCH  12  14
ENDBRANCH  10  12
ENDBRANCH   8  10
ENDBRANCH   5   8
ENDBRANCH   3   4
ENDBRANCH   2   3
ENDBRANCH   1   2
BRANCH   1  19
ATOM     19  C   UNL A   1      36.541  20.425  24.961  1.00  0.00     0.002 C 
BRANCH  19  20
ATOM     20  C   UNL A   1      37.854  19.651  24.840  1.00  0.00     0.021 C 
BRANCH  20  21
ATOM     21  C   UNL A   1      38.968  20.165  25.744  1.00  0.00     0.116 C 
BRANCH  21  22
ATOM     22  N   UNL A   1      40.109  19.263  25.764  1.00  0.00    -0.352 N 
ATOM     23  C   UNL A   1      41.422  19.539  26.034  1.00  0.00     0.251 C 
ATOM     24  H   UNL A   1      39.909  18.323  25.554  1.00  0.00     0.163 HD
ATOM     25  O   UNL A   1      42.292  18.701  25.807  1.00  0.00    -0.269 OA
BRANCH  23  26
ATOM     26  C   UNL A   1      41.791  20.856  26.586  1.00  0.00     0.039 A 
ATOM     27  C   UNL A   1      42.353  21.810  25.736  1.00  0.00     0.014 A 
ATOM     28  C   UNL A   1      41.586  21.146  27.939  1.00  0.00     0.014 A 
ATOM     29  C   UNL A   1      42.668  23.074  26.234  1.00  0.00     0.010 A 
ATOM     30  C   UNL A   1      41.827  22.430  28.414  1.00  0.00     0.010 A 
ATOM     31  C   UNL A   1      42.381  23.404  27.569  1.00  0.00    -0.014 A 
BRANCH  31  32
ATOM     32  C   UNL A   1      42.664  24.760  28.097  1.00  0.00     0.031 A 
ATOM     33  C   UNL A   1      44.062  25.134  28.510  1.00  0.00     0.074 A 
ATOM     34  C   UNL A   1      41.656  25.641  28.238  1.00  0.00     0.049 A 
ATOM     35  N   UNL A   1      44.498  26.260  29.018  1.00  0.00    -0.248 NA
ATOM     36  C   UNL A   1      45.101  24.102  28.356  1.00  0.00     0.031 C 
ATOM     37  C   UNL A   1      40.252  25.385  27.910  1.00  0.00     0.029 A 
ATOM     38  N   UNL A   1      41.659  26.934  28.698  1.00  0.00    -0.354 N 
ATOM     39  C   UNL A   1      45.855  26.070  29.242  1.00  0.00     0.074 A 
ATOM     40  C   UNL A   1      46.159  24.703  28.878  1.00  0.00     0.031 C 
ATOM     41  C   UNL A   1      39.535  26.495  28.148  1.00  0.00     0.029 A 
ATOM     42  C   UNL A   1      40.418  27.525  28.685  1.00  0.00     0.049 A 
ATOM     43  H   UNL A   1      42.471  27.395  29.008  1.00  0.00     0.167 HD
ATOM     44  C   UNL A   1      46.775  26.961  29.683  1.00  0.00     0.031 A 
ATOM     45  C   UNL A   1      40.034  28.757  29.069  1.00  0.00     0.031 A 
ATOM     46  C   UNL A   1      46.472  28.319  30.049  1.00  0.00     0.049 A 
ATOM     47  C   UNL A   1      41.070  29.714  29.592  1.00  0.00     0.074 A 
ATOM     48  C   UNL A   1      47.336  29.309  30.482  1.00  0.00     0.029 A 
ATOM     49  N   UNL A   1      45.203  28.877  30.025  1.00  0.00    -0.354 N 
ATOM     50  N   UNL A   1      42.361  29.539  29.737  1.00  0.00    -0.248 NA
ATOM     51  C   UNL A   1      40.594  31.047  29.989  1.00  0.00     0.031 C 
ATOM     52  C   UNL A   1      46.583  30.451  30.769  1.00  0.00     0.029 A 
ATOM     53  C   UNL A   1      45.259  30.192  30.455  1.00  0.00     0.049 A 
ATOM     54  H   UNL A   1      44.385  28.407  29.745  1.00  0.00     0.167 HD
ATOM     55  C   UNL A   1      42.856  30.747  30.212  1.00  0.00     0.074 A 
ATOM     56  C   UNL A   1      41.729  31.651  30.308  1.00  0.00     0.031 C 
ATOM     57  C   UNL A   1      44.128  31.079  30.541  1.00  0.00     0.031 A 
BRANCH  44  58
ATOM     58  C   UNL A   1      48.199  26.489  29.792  1.00  0.00    -0.014 A 
ATOM     59  C   UNL A   1      48.671  25.876  30.965  1.00  0.00     0.009 A 
ATOM     60  C   UNL A   1      49.071  26.623  28.701  1.00  0.00     0.009 A 
ATOM     61  C   UNL A   1      49.994  25.441  31.054  1.00  0.00     0.001 A 
ATOM     62  C   UNL A   1      50.385  26.158  28.781  1.00  0.00     0.001 A 
ATOM     63  C   UNL A   1      50.849  25.577  29.961  1.00  0.00     0.000 A 
ENDBRANCH  44  58
BRANCH  45  64
ATOM     64  C   UNL A   1      38.608  29.164  28.973  1.00  0.00    -0.014 A 
ATOM     65  C   UNL A   1      38.096  29.707  27.784  1.00  0.00     0.009 A 
ATOM     66  C   UNL A   1      37.754  29.038  30.081  1.00  0.00     0.009 A 
ATOM     67  C   UNL A   1      36.773  30.152  27.720  1.00  0.00     0.001 A 
ATOM     68  C   UNL A   1      36.423  29.453  30.002  1.00  0.00     0.001 A 
ATOM     69  C   UNL A   1      35.938  30.022  28.828  1.00  0.00     0.000 A 
ENDBRANCH  45  64
BRANCH  57  70
ATOM     70  C   UNL A   1      44.373  32.492  30.993  1.00  0.00    -0.014 A 
ATOM     71  C   UNL A   1      44.338  32.844  32.351  1.00  0.00     0.009 A 
ATOM     72  C   UNL A   1      44.672  33.480  30.042  1.00  0.00     0.009 A 
ATOM     73  C   UNL A   1      44.557  34.166  32.743  1.00  0.00     0.001 A 
ATOM     74  C   UNL A   1      44.925  34.794  30.440  1.00  0.00     0.001 A 
ATOM     75  C   UNL A   1      44.855  35.138  31.788  1.00  0.00     0.000 A 
ENDBRANCH  57  70
ENDBRANCH  31  32
ENDBRANCH  23  26
ENDBRANCH  21  22
ENDBRANCH  20  21
ENDBRANCH  19  20
ENDBRANCH   1  19
TORSDOF 16
ENDMDL
MODEL 2
REMARK VINA RESULT:      -9.9      4.272      9.305
REMARK SMILES C[C@H](C(=O)NCCCCCCNC(=O)c1ccc(-c2c3nc(c(-c4ccccc4)c4ccc([nH]4)c(-c4ccccc4)c4nc(c(-c5ccccc5)c5ccc2[nH]5)C=C4)C=C3)cc1)[C@H](C)[S@@](=O)c1cccs1
REMARK SMILES IDX 8 1 7 2 6 3 5 4 3 5 4 6 2 8 1 9 63 10 64 11 65 12 66 13
REMARK SMILES IDX 67 14 68 15 71 16 69 17 70 18 9 19 10 20 11 21 12 22 13 23
REMARK SMILES IDX 14 25 15 26 16 27 62 28 17 29 61 30 18 31 19 32 20 33 55 34
REMARK SMILES IDX 21 35 60 36 54 37 56 38 22 39 59 40 53 41 52 42 23 44 45 45
REMARK SMILES IDX 30 46 44 47 31 48 34 49 43 50 57 51 32 52 33 53 42 55 58 56
REMARK SMILES IDX 35 57 24 58 25 59 29 60 26 61 28 62 27 63 46 64 47 65 51 66
REMARK SMILES IDX 48 67 50 68 49 69 36 70 37 71 41 72 38 73 40 74 39 75
REMARK H PARENT 5 7 12 24 56 43 34 54
REMARK Flexibility Score: inf
ROOT
ATOM      1  C   UNL A   1      32.407  29.909  26.465  1.00  0.00     0.002 C 
ENDROOT
BRANCH   1   2
ATOM      2  C   UNL A   1      31.778  28.677  27.127  1.00  0.00     0.021 C 
BRANCH   2   3
ATOM      3  C   UNL A   1      32.441  27.371  26.717  1.00  0.00     0.116 C 
BRANCH   3   4
ATOM      4  N   UNL A   1      31.502  26.271  26.775  1.00  0.00    -0.356 N 
ATOM      5  C   UNL A   1      31.600  24.985  26.369  1.00  0.00     0.224 C 
ATOM      6  O   UNL A   1      30.612  24.264  26.538  1.00  0.00    -0.275 OA
ATOM      7  H   UNL A   1      30.637  26.500  27.184  1.00  0.00     0.163 HD
BRANCH   5   8
ATOM      8  C   UNL A   1      32.846  24.409  25.721  1.00  0.00     0.091 C 
ATOM      9  C   UNL A   1      33.735  23.629  26.702  1.00  0.00     0.019 C 
BRANCH   8  10
ATOM     10  C   UNL A   1      32.750  23.757  24.324  1.00  0.00     0.094 C 
ATOM     11  C   UNL A   1      34.122  23.366  23.762  1.00  0.00     0.023 C 
BRANCH  10  12
ATOM     12  S   UNL A   1      31.721  24.438  23.003  1.00  0.00     0.067 S 
ATOM     13  O   UNL A   1      30.278  24.079  23.185  1.00  0.00    -0.253 OA
BRANCH  12  14
ATOM     14  C   UNL A   1      31.882  26.166  22.974  1.00  0.00     0.091 A 
ATOM     15  C   UNL A   1      30.814  27.009  23.210  1.00  0.00     0.029 A 
ATOM     16  S   UNL A   1      33.276  27.039  22.545  1.00  0.00    -0.135 S 
ATOM     17  C   UNL A   1      31.202  28.381  23.234  1.00  0.00     0.013 A 
ATOM     18  C   UNL A   1      32.540  28.533  22.947  1.00  0.00     0.066 A 
ENDBRANCH  12  14
ENDBRANCH  10  12
ENDBRANCH   8  10
ENDBRANCH   5   8
ENDBRANCH   3   4
ENDBRANCH   2   3
ENDBRANCH   1   2
BRANCH   1  19
ATOM     19  C   UNL A   1      31.406  30.920  25.889  1.00  0.00     0.002 C 
BRANCH  19  20
ATOM     20  C   UNL A   1      31.227  32.195  26.714  1.00  0.00     0.021 C 
BRANCH  20  21
ATOM     21  C   UNL A   1      32.534  32.841  27.155  1.00  0.00     0.116 C 
BRANCH  21  22
ATOM     22  N   UNL A   1      32.333  34.203  27.626  1.00  0.00    -0.352 N 
ATOM     23  C   UNL A   1      32.970  34.868  28.638  1.00  0.00     0.251 C 
ATOM     24  H   UNL A   1      31.643  34.717  27.150  1.00  0.00     0.163 HD
ATOM     25  O   UNL A   1      32.537  35.947  29.041  1.00  0.00    -0.269 OA
BRANCH  23  26
ATOM     26  C   UNL A   1      34.172  34.277  29.256  1.00  0.00     0.039 A 
ATOM     27  C   UNL A   1      34.025  33.494  30.402  1.00  0.00     0.014 A 
ATOM     28  C   UNL A   1      35.439  34.501  28.708  1.00  0.00     0.014 A 
ATOM     29  C   UNL A   1      35.147  32.894  30.972  1.00  0.00     0.010 A 
ATOM     30  C   UNL A   1      36.544  33.838  29.232  1.00  0.00     0.010 A 
ATOM     31  C   UNL A   1      36.410  33.037  30.376  1.00  0.00    -0.014 A 
BRANCH  31  32
ATOM     32  C   UNL A   1      37.603  32.363  30.944  1.00  0.00     0.031 A 
ATOM     33  C   UNL A   1      38.250  32.897  32.193  1.00  0.00     0.074 A 
ATOM     34  C   UNL A   1      38.124  31.293  30.314  1.00  0.00     0.049 A 
ATOM     35  N   UNL A   1      39.311  32.460  32.823  1.00  0.00    -0.248 NA
ATOM     36  C   UNL A   1      37.639  34.090  32.803  1.00  0.00     0.031 C 
ATOM     37  C   UNL A   1      37.611  30.705  29.075  1.00  0.00     0.029 A 
ATOM     38  N   UNL A   1      39.205  30.510  30.631  1.00  0.00    -0.354 N 
ATOM     39  C   UNL A   1      39.493  33.323  33.896  1.00  0.00     0.074 A 
ATOM     40  C   UNL A   1      38.475  34.345  33.796  1.00  0.00     0.031 C 
ATOM     41  C   UNL A   1      38.357  29.636  28.755  1.00  0.00     0.029 A 
ATOM     42  C   UNL A   1      39.424  29.488  29.739  1.00  0.00     0.049 A 
ATOM     43  H   UNL A   1      39.770  30.665  31.422  1.00  0.00     0.167 HD
ATOM     44  C   UNL A   1      40.408  33.255  34.893  1.00  0.00     0.031 A 
ATOM     45  C   UNL A   1      40.382  28.542  29.714  1.00  0.00     0.031 A 
ATOM     46  C   UNL A   1      41.424  32.241  34.989  1.00  0.00     0.049 A 
ATOM     47  C   UNL A   1      41.407  28.513  30.812  1.00  0.00     0.074 A 
ATOM     48  C   UNL A   1      42.380  32.069  35.974  1.00  0.00     0.029 A 
ATOM     49  N   UNL A   1      41.613  31.226  34.064  1.00  0.00    -0.354 N 
ATOM     50  N   UNL A   1      41.527  29.299  31.855  1.00  0.00    -0.248 NA
ATOM     51  C   UNL A   1      42.424  27.454  30.737  1.00  0.00     0.031 C 
ATOM     52  C   UNL A   1      43.182  30.980  35.618  1.00  0.00     0.029 A 
ATOM     53  C   UNL A   1      42.685  30.436  34.445  1.00  0.00     0.049 A 
ATOM     54  H   UNL A   1      41.069  31.089  33.256  1.00  0.00     0.167 HD
ATOM     55  C   UNL A   1      42.610  28.811  32.576  1.00  0.00     0.074 A 
ATOM     56  C   UNL A   1      43.097  27.649  31.861  1.00  0.00     0.031 C 
ATOM     57  C   UNL A   1      43.154  29.282  33.724  1.00  0.00     0.031 A 
BRANCH  44  58
ATOM     58  C   UNL A   1      40.346  34.313  35.961  1.00  0.00    -0.014 A 
ATOM     59  C   UNL A   1      39.548  34.140  37.105  1.00  0.00     0.009 A 
ATOM     60  C   UNL A   1      41.119  35.478  35.844  1.00  0.00     0.009 A 
ATOM     61  C   UNL A   1      39.499  35.128  38.090  1.00  0.00     0.001 A 
ATOM     62  C   UNL A   1      41.092  36.450  36.846  1.00  0.00     0.001 A 
ATOM     63  C   UNL A   1      40.275  36.279  37.963  1.00  0.00     0.000 A 
ENDBRANCH  44  58
BRANCH  45  64
ATOM     64  C   UNL A   1      40.419  27.539  28.617  1.00  0.00    -0.014 A 
ATOM     65  C   UNL A   1      41.139  27.792  27.439  1.00  0.00     0.009 A 
ATOM     66  C   UNL A   1      39.709  26.333  28.729  1.00  0.00     0.009 A 
ATOM     67  C   UNL A   1      41.114  26.878  26.383  1.00  0.00     0.001 A 
ATOM     68  C   UNL A   1      39.714  25.405  27.685  1.00  0.00     0.001 A 
ATOM     69  C   UNL A   1      40.404  25.685  26.508  1.00  0.00     0.000 A 
ENDBRANCH  45  64
BRANCH  57  70
ATOM     70  C   UNL A   1      44.311  28.512  34.301  1.00  0.00    -0.014 A 
ATOM     71  C   UNL A   1      45.638  28.832  33.978  1.00  0.00     0.009 A 
ATOM     72  C   UNL A   1      44.064  27.467  35.205  1.00  0.00     0.009 A 
ATOM     73  C   UNL A   1      46.693  28.094  34.518  1.00  0.00     0.001 A 
ATOM     74  C   UNL A   1      45.122  26.754  35.769  1.00  0.00     0.001 A 
ATOM     75  C   UNL A   1      46.434  27.059  35.416  1.00  0.00     0.000 A 
ENDBRANCH  57  70
ENDBRANCH  31  32
ENDBRANCH  23  26
ENDBRANCH  21  22
ENDBRANCH  20  21
ENDBRANCH  19  20
ENDBRANCH   1  19
TORSDOF 16
ENDMDL
MODEL 3
REMARK VINA RESULT:      -9.9      0.715      6.131
REMARK SMILES C[C@H](C(=O)NCCCCCCNC(=O)c1ccc(-c2c3nc(c(-c4ccccc4)c4ccc([nH]4)c(-c4ccccc4)c4nc(c(-c5ccccc5)c5ccc2[nH]5)C=C4)C=C3)cc1)[C@H](C)[S@@](=O)c1cccs1
REMARK SMILES IDX 8 1 7 2 6 3 5 4 3 5 4 6 2 8 1 9 63 10 64 11 65 12 66 13
REMARK SMILES IDX 67 14 68 15 71 16 69 17 70 18 9 19 10 20 11 21 12 22 13 23
REMARK SMILES IDX 14 25 15 26 16 27 62 28 17 29 61 30 18 31 19 32 20 33 55 34
REMARK SMILES IDX 21 35 60 36 54 37 56 38 22 39 59 40 53 41 52 42 23 44 45 45
REMARK SMILES IDX 30 46 44 47 31 48 34 49 43 50 57 51 32 52 33 53 42 55 58 56
REMARK SMILES IDX 35 57 24 58 25 59 29 60 26 61 28 62 27 63 46 64 47 65 51 66
REMARK SMILES IDX 48 67 50 68 49 69 36 70 37 71 41 72 38 73 40 74 39 75
REMARK H PARENT 5 7 12 24 56 43 34 54
REMARK Flexibility Score: inf
ROOT
ATOM      1  C   UNL A   1      36.633  21.615  25.681  1.00  0.00     0.002 C 
ENDROOT
BRANCH   1   2
ATOM      2  C   UNL A   1      35.384  22.492  25.528  1.00  0.00     0.021 C 
BRANCH   2   3
ATOM      3  C   UNL A   1      34.326  22.219  26.587  1.00  0.00     0.116 C 
BRANCH   3   4
ATOM      4  N   UNL A   1      33.401  21.198  26.144  1.00  0.00    -0.356 N 
ATOM      5  C   UNL A   1      32.455  21.204  25.177  1.00  0.00     0.224 C 
ATOM      6  O   UNL A   1      31.792  20.171  25.032  1.00  0.00    -0.275 OA
ATOM      7  H   UNL A   1      33.473  20.347  26.632  1.00  0.00     0.163 HD
BRANCH   5   8
ATOM      8  C   UNL A   1      32.174  22.404  24.293  1.00  0.00     0.091 C 
ATOM      9  C   UNL A   1      32.336  22.105  22.795  1.00  0.00     0.019 C 
BRANCH   8  10
ATOM     10  C   UNL A   1      30.977  23.327  24.611  1.00  0.00     0.094 C 
ATOM     11  C   UNL A   1      30.543  24.165  23.402  1.00  0.00     0.023 C 
BRANCH  10  12
ATOM     12  S   UNL A   1      30.898  24.334  26.110  1.00  0.00     0.067 S 
ATOM     13  O   UNL A   1      31.357  23.569  27.314  1.00  0.00    -0.253 OA
BRANCH  12  14
ATOM     14  C   UNL A   1      31.891  25.744  25.916  1.00  0.00     0.091 A 
ATOM     15  C   UNL A   1      33.266  25.697  26.026  1.00  0.00     0.029 A 
ATOM     16  S   UNL A   1      31.342  27.339  25.701  1.00  0.00    -0.135 S 
ATOM     17  C   UNL A   1      33.877  26.951  25.730  1.00  0.00     0.013 A 
ATOM     18  C   UNL A   1      32.937  27.923  25.472  1.00  0.00     0.066 A 
ENDBRANCH  12  14
ENDBRANCH  10  12
ENDBRANCH   8  10
ENDBRANCH   5   8
ENDBRANCH   3   4
ENDBRANCH   2   3
ENDBRANCH   1   2
BRANCH   1  19
ATOM     19  C   UNL A   1      36.603  20.299  24.893  1.00  0.00     0.002 C 
BRANCH  19  20
ATOM     20  C   UNL A   1      37.924  19.528  24.869  1.00  0.00     0.021 C 
BRANCH  20  21
ATOM     21  C   UNL A   1      39.036  20.171  25.689  1.00  0.00     0.116 C 
BRANCH  21  22
ATOM     22  N   UNL A   1      40.188  19.294  25.822  1.00  0.00    -0.352 N 
ATOM     23  C   UNL A   1      41.485  19.612  26.121  1.00  0.00     0.251 C 
ATOM     24  H   UNL A   1      40.010  18.337  25.675  1.00  0.00     0.163 HD
ATOM     25  O   UNL A   1      42.376  18.774  25.991  1.00  0.00    -0.269 OA
BRANCH  23  26
ATOM     26  C   UNL A   1      41.813  20.973  26.587  1.00  0.00     0.039 A 
ATOM     27  C   UNL A   1      41.783  21.243  27.955  1.00  0.00     0.014 A 
ATOM     28  C   UNL A   1      42.144  21.979  25.673  1.00  0.00     0.014 A 
ATOM     29  C   UNL A   1      42.132  22.513  28.413  1.00  0.00     0.010 A 
ATOM     30  C   UNL A   1      42.567  23.219  26.136  1.00  0.00     0.010 A 
ATOM     31  C   UNL A   1      42.555  23.502  27.509  1.00  0.00    -0.014 A 
BRANCH  31  32
ATOM     32  C   UNL A   1      42.976  24.841  27.988  1.00  0.00     0.031 A 
ATOM     33  C   UNL A   1      41.948  25.904  28.264  1.00  0.00     0.074 A 
ATOM     34  C   UNL A   1      44.287  25.110  28.137  1.00  0.00     0.049 A 
ATOM     35  N   UNL A   1      42.125  27.139  28.662  1.00  0.00    -0.248 NA
ATOM     36  C   UNL A   1      40.538  25.541  28.045  1.00  0.00     0.031 C 
ATOM     37  C   UNL A   1      45.382  24.177  27.864  1.00  0.00     0.029 A 
ATOM     38  N   UNL A   1      44.922  26.253  28.555  1.00  0.00    -0.354 N 
ATOM     39  C   UNL A   1      40.855  27.695  28.738  1.00  0.00     0.074 A 
ATOM     40  C   UNL A   1      39.923  26.688  28.284  1.00  0.00     0.031 C 
ATOM     41  C   UNL A   1      46.550  24.772  28.152  1.00  0.00     0.029 A 
ATOM     42  C   UNL A   1      46.291  26.140  28.589  1.00  0.00     0.049 A 
ATOM     43  H   UNL A   1      44.443  27.074  28.808  1.00  0.00     0.167 HD
ATOM     44  C   UNL A   1      40.493  28.926  29.174  1.00  0.00     0.031 A 
ATOM     45  C   UNL A   1      47.233  27.042  28.926  1.00  0.00     0.031 A 
ATOM     46  C   UNL A   1      41.421  29.929  29.621  1.00  0.00     0.049 A 
ATOM     47  C   UNL A   1      46.804  28.413  29.370  1.00  0.00     0.074 A 
ATOM     48  C   UNL A   1      41.153  31.197  30.108  1.00  0.00     0.029 A 
ATOM     49  N   UNL A   1      42.799  29.777  29.636  1.00  0.00    -0.354 N 
ATOM     50  N   UNL A   1      45.594  28.902  29.497  1.00  0.00    -0.248 NA
ATOM     51  C   UNL A   1      47.875  29.353  29.733  1.00  0.00     0.031 C 
ATOM     52  C   UNL A   1      42.372  31.831  30.369  1.00  0.00     0.029 A 
ATOM     53  C   UNL A   1      43.396  30.936  30.104  1.00  0.00     0.049 A 
ATOM     54  H   UNL A   1      43.281  28.967  29.354  1.00  0.00     0.167 HD
ATOM     55  C   UNL A   1      45.757  30.193  29.983  1.00  0.00     0.074 A 
ATOM     56  C   UNL A   1      47.180  30.401  30.149  1.00  0.00     0.031 C 
ATOM     57  C   UNL A   1      44.813  31.124  30.266  1.00  0.00     0.031 A 
BRANCH  44  58
ATOM     58  C   UNL A   1      39.024  29.250  29.187  1.00  0.00    -0.014 A 
ATOM     59  C   UNL A   1      38.236  28.991  30.322  1.00  0.00     0.009 A 
ATOM     60  C   UNL A   1      38.425  29.853  28.071  1.00  0.00     0.009 A 
ATOM     61  C   UNL A   1      36.874  29.296  30.323  1.00  0.00     0.001 A 
ATOM     62  C   UNL A   1      37.070  30.186  28.086  1.00  0.00     0.001 A 
ATOM     63  C   UNL A   1      36.292  29.899  29.208  1.00  0.00     0.000 A 
ENDBRANCH  44  58
BRANCH  45  64
ATOM     64  C   UNL A   1      48.674  26.682  28.863  1.00  0.00    -0.014 A 
ATOM     65  C   UNL A   1      49.389  26.794  27.661  1.00  0.00     0.009 A 
ATOM     66  C   UNL A   1      49.338  26.196  30.001  1.00  0.00     0.009 A 
ATOM     67  C   UNL A   1      50.724  26.390  27.590  1.00  0.00     0.001 A 
ATOM     68  C   UNL A   1      50.682  25.825  29.935  1.00  0.00     0.001 A 
ATOM     69  C   UNL A   1      51.370  25.908  28.727  1.00  0.00     0.000 A 
ENDBRANCH  45  64
BRANCH  57  70
ATOM     70  C   UNL A   1      45.291  32.436  30.826  1.00  0.00    -0.014 A 
ATOM     71  C   UNL A   1      45.593  33.523  29.991  1.00  0.00     0.009 A 
ATOM     72  C   UNL A   1      45.413  32.591  32.215  1.00  0.00     0.009 A 
ATOM     73  C   UNL A   1      46.046  34.726  30.535  1.00  0.00     0.001 A 
ATOM     74  C   UNL A   1      45.834  33.806  32.759  1.00  0.00     0.001 A 
ATOM     75  C   UNL A   1      46.161  34.868  31.918  1.00  0.00     0.000 A 
ENDBRANCH  57  70
ENDBRANCH  31  32
ENDBRANCH  23  26
ENDBRANCH  21  22
ENDBRANCH  20  21
ENDBRANCH  19  20
ENDBRANCH   1  19
TORSDOF 16
ENDMDL
