MODEL 1
REMARK VINA RESULT:     -11.8      0.000      0.000
REMARK SMILES O=C(CSc1cc(-c2ccccc2)nc(-c2ccccc2F)n1)NCCCCCCNC(=O)c1ccc(-c2c3nc(c(-c4ccccc4)c4ccc([nH]4)c(-c4ccccc4)c4nc(c(-c5ccccc5)c5ccc2[nH]5)C=C4)C=C3)cc1
REMARK SMILES IDX 27 1 26 2 25 3 24 4 1 5 2 6 3 8 4 9 5 10 6 11 23 12 7 13
REMARK SMILES IDX 15 14 14 15 8 16 9 17 13 18 10 19 12 20 11 21 16 22 17 23
REMARK SMILES IDX 21 24 18 25 20 26 22 27 19 28 28 29 29 30 30 31 31 32 32 33
REMARK SMILES IDX 33 35 34 36 35 37 81 38 36 39 80 40 37 41 38 42 39 43 74 44
REMARK SMILES IDX 40 45 79 46 73 47 75 48 41 49 78 50 72 51 71 52 42 54 64 55
REMARK SMILES IDX 49 56 63 57 50 58 53 59 62 60 76 61 51 62 52 63 61 65 77 66
REMARK SMILES IDX 54 67 43 68 44 69 48 70 45 71 47 72 46 73 65 74 66 75 70 76
REMARK SMILES IDX 67 77 69 78 68 79 55 80 56 81 60 82 57 83 59 84 58 85
REMARK H PARENT 24 7 31 34 75 53 53 64
REMARK Flexibility Score: inf
ROOT
ATOM      1  C   UNL A   1      31.080  28.195  24.646  1.00  0.00     0.002 C 
ENDROOT
BRANCH   1   2
ATOM      2  C   UNL A   1      31.586  28.339  23.205  1.00  0.00     0.021 C 
BRANCH   2   3
ATOM      3  C   UNL A   1      31.021  27.312  22.224  1.00  0.00     0.116 C 
BRANCH   3   4
ATOM      4  N   UNL A   1      31.601  26.004  22.426  1.00  0.00    -0.355 N 
ATOM      5  O   UNL A   1      33.275  26.226  20.874  1.00  0.00    -0.274 OA
ATOM      6  C   UNL A   1      32.719  25.567  21.751  1.00  0.00     0.230 C 
ATOM      7  H   UNL A   1      31.178  25.398  23.075  1.00  0.00     0.163 HD
BRANCH   6   8
ATOM      8  C   UNL A   1      33.143  24.137  22.048  1.00  0.00     0.176 C 
BRANCH   8   9
ATOM      9  S   UNL A   1      32.037  23.252  23.194  1.00  0.00    -0.096 SA
BRANCH   9  10
ATOM     10  C   UNL A   1      33.186  22.056  23.843  1.00  0.00     0.101 A 
ATOM     11  C   UNL A   1      32.830  20.728  23.893  1.00  0.00     0.064 A 
ATOM     12  N   UNL A   1      34.348  22.525  24.317  1.00  0.00    -0.222 NA
ATOM     13  C   UNL A   1      33.747  19.872  24.465  1.00  0.00     0.075 A 
ATOM     14  C   UNL A   1      35.197  21.614  24.823  1.00  0.00     0.163 A 
ATOM     15  N   UNL A   1      34.932  20.303  24.942  1.00  0.00    -0.228 NA
BRANCH  13  16
ATOM     16  C   UNL A   1      33.475  18.439  24.620  1.00  0.00     0.000 A 
ATOM     17  C   UNL A   1      34.003  17.509  23.708  1.00  0.00     0.010 A 
ATOM     18  C   UNL A   1      32.694  17.955  25.683  1.00  0.00     0.010 A 
ATOM     19  C   UNL A   1      33.777  16.139  23.865  1.00  0.00     0.001 A 
ATOM     20  C   UNL A   1      32.459  16.586  25.835  1.00  0.00     0.001 A 
ATOM     21  C   UNL A   1      33.006  15.679  24.930  1.00  0.00     0.000 A 
ENDBRANCH  13  16
BRANCH  14  22
ATOM     22  C   UNL A   1      36.474  22.100  25.332  1.00  0.00     0.055 A 
ATOM     23  C   UNL A   1      36.590  23.383  25.900  1.00  0.00     0.015 A 
ATOM     24  C   UNL A   1      37.631  21.314  25.265  1.00  0.00     0.134 A 
ATOM     25  C   UNL A   1      37.814  23.848  26.393  1.00  0.00     0.001 A 
ATOM     26  C   UNL A   1      38.857  21.774  25.746  1.00  0.00     0.040 A 
ATOM     27  F   UNL A   1      37.593  20.095  24.703  1.00  0.00    -0.206 F 
ATOM     28  C   UNL A   1      38.949  23.041  26.315  1.00  0.00     0.003 A 
ENDBRANCH  14  22
ENDBRANCH   9  10
ENDBRANCH   8   9
ENDBRANCH   6   8
ENDBRANCH   3   4
ENDBRANCH   2   3
ENDBRANCH   1   2
BRANCH   1  29
ATOM     29  C   UNL A   1      32.132  27.772  25.676  1.00  0.00     0.002 C 
BRANCH  29  30
ATOM     30  C   UNL A   1      33.288  28.756  25.873  1.00  0.00     0.021 C 
BRANCH  30  31
ATOM     31  C   UNL A   1      33.842  28.824  27.292  1.00  0.00     0.116 C 
BRANCH  31  32
ATOM     32  N   UNL A   1      33.869  30.181  27.819  1.00  0.00    -0.352 N 
ATOM     33  C   UNL A   1      34.857  30.831  28.518  1.00  0.00     0.251 C 
ATOM     34  H   UNL A   1      33.057  30.712  27.649  1.00  0.00     0.163 HD
ATOM     35  O   UNL A   1      34.635  31.926  29.028  1.00  0.00    -0.269 OA
BRANCH  33  36
ATOM     36  C   UNL A   1      36.183  30.198  28.686  1.00  0.00     0.039 A 
ATOM     37  C   UNL A   1      37.082  30.221  27.616  1.00  0.00     0.014 A 
ATOM     38  C   UNL A   1      36.545  29.597  29.894  1.00  0.00     0.014 A 
ATOM     39  C   UNL A   1      38.372  29.716  27.786  1.00  0.00     0.010 A 
ATOM     40  C   UNL A   1      37.853  29.160  30.084  1.00  0.00     0.010 A 
ATOM     41  C   UNL A   1      38.783  29.226  29.036  1.00  0.00    -0.014 A 
BRANCH  41  42
ATOM     42  C   UNL A   1      40.193  28.821  29.277  1.00  0.00     0.031 A 
ATOM     43  C   UNL A   1      41.174  29.785  29.880  1.00  0.00     0.074 A 
ATOM     44  C   UNL A   1      40.608  27.604  28.876  1.00  0.00     0.049 A 
ATOM     45  N   UNL A   1      42.456  29.629  30.097  1.00  0.00    -0.248 NA
ATOM     46  C   UNL A   1      40.654  31.105  30.265  1.00  0.00     0.031 C 
ATOM     47  C   UNL A   1      39.766  26.591  28.236  1.00  0.00     0.029 A 
ATOM     48  N   UNL A   1      41.848  27.018  28.933  1.00  0.00    -0.354 N 
ATOM     49  C   UNL A   1      42.897  30.831  30.637  1.00  0.00     0.074 A 
ATOM     50  C   UNL A   1      41.757  31.723  30.660  1.00  0.00     0.031 C 
ATOM     51  C   UNL A   1      40.509  25.504  27.975  1.00  0.00     0.029 A 
ATOM     52  C   UNL A   1      41.886  25.759  28.384  1.00  0.00     0.049 A 
ATOM     53  H   UNL A   1      42.635  27.457  29.329  1.00  0.00     0.167 HD
ATOM     54  C   UNL A   1      44.132  31.157  31.087  1.00  0.00     0.031 A 
ATOM     55  C   UNL A   1      42.915  24.908  28.209  1.00  0.00     0.031 A 
ATOM     56  C   UNL A   1      45.269  30.275  31.048  1.00  0.00     0.049 A 
ATOM     57  C   UNL A   1      44.285  25.304  28.681  1.00  0.00     0.074 A 
ATOM     58  C   UNL A   1      46.549  30.496  31.524  1.00  0.00     0.029 A 
ATOM     59  N   UNL A   1      45.266  29.008  30.485  1.00  0.00    -0.354 N 
ATOM     60  N   UNL A   1      44.669  26.416  29.261  1.00  0.00    -0.248 NA
ATOM     61  C   UNL A   1      45.363  24.325  28.482  1.00  0.00     0.031 C 
ATOM     62  C   UNL A   1      47.337  29.389  31.191  1.00  0.00     0.029 A 
ATOM     63  C   UNL A   1      46.531  28.450  30.569  1.00  0.00     0.049 A 
ATOM     64  H   UNL A   1      44.480  28.569  30.086  1.00  0.00     0.167 HD
ATOM     65  C   UNL A   1      46.026  26.264  29.513  1.00  0.00     0.074 A 
ATOM     66  C   UNL A   1      46.394  24.944  29.042  1.00  0.00     0.031 C 
ATOM     67  C   UNL A   1      46.889  27.140  30.082  1.00  0.00     0.031 A 
BRANCH  54  68
ATOM     68  C   UNL A   1      44.315  32.543  31.645  1.00  0.00    -0.014 A 
ATOM     69  C   UNL A   1      44.699  33.617  30.823  1.00  0.00     0.009 A 
ATOM     70  C   UNL A   1      44.090  32.785  33.009  1.00  0.00     0.009 A 
ATOM     71  C   UNL A   1      44.901  34.888  31.364  1.00  0.00     0.001 A 
ATOM     72  C   UNL A   1      44.259  34.066  33.541  1.00  0.00     0.001 A 
ATOM     73  C   UNL A   1      44.678  35.112  32.722  1.00  0.00     0.000 A 
ENDBRANCH  54  68
BRANCH  55  74
ATOM     74  C   UNL A   1      42.683  23.599  27.546  1.00  0.00    -0.014 A 
ATOM     75  C   UNL A   1      42.870  23.451  26.163  1.00  0.00     0.009 A 
ATOM     76  C   UNL A   1      42.293  22.480  28.301  1.00  0.00     0.009 A 
ATOM     77  C   UNL A   1      42.653  22.215  25.548  1.00  0.00     0.001 A 
ATOM     78  C   UNL A   1      42.107  21.240  27.688  1.00  0.00     0.001 A 
ATOM     79  C   UNL A   1      42.279  21.110  26.311  1.00  0.00     0.000 A 
ENDBRANCH  55  74
BRANCH  67  80
ATOM     80  C   UNL A   1      48.316  26.694  30.245  1.00  0.00    -0.014 A 
ATOM     81  C   UNL A   1      49.289  26.990  29.277  1.00  0.00     0.009 A 
ATOM     82  C   UNL A   1      48.702  26.006  31.407  1.00  0.00     0.009 A 
ATOM     83  C   UNL A   1      50.612  26.579  29.454  1.00  0.00     0.001 A 
ATOM     84  C   UNL A   1      50.032  25.623  31.596  1.00  0.00     0.001 A 
ATOM     85  C   UNL A   1      50.983  25.902  30.616  1.00  0.00     0.000 A 
ENDBRANCH  67  80
ENDBRANCH  41  42
ENDBRANCH  33  36
ENDBRANCH  31  32
ENDBRANCH  30  31
ENDBRANCH  29  30
ENDBRANCH   1  29
TORSDOF 17
ENDMDL
MODEL 2
REMARK VINA RESULT:     -11.6      0.934      3.100
REMARK SMILES O=C(CSc1cc(-c2ccccc2)nc(-c2ccccc2F)n1)NCCCCCCNC(=O)c1ccc(-c2c3nc(c(-c4ccccc4)c4ccc([nH]4)c(-c4ccccc4)c4nc(c(-c5ccccc5)c5ccc2[nH]5)C=C4)C=C3)cc1
REMARK SMILES IDX 27 1 26 2 25 3 24 4 1 5 2 6 3 8 4 9 5 10 6 11 23 12 7 13
REMARK SMILES IDX 15 14 14 15 8 16 9 17 13 18 10 19 12 20 11 21 16 22 17 23
REMARK SMILES IDX 21 24 18 25 20 26 22 27 19 28 28 29 29 30 30 31 31 32 32 33
REMARK SMILES IDX 33 35 34 36 35 37 81 38 36 39 80 40 37 41 38 42 39 43 74 44
REMARK SMILES IDX 40 45 79 46 73 47 75 48 41 49 78 50 72 51 71 52 42 54 64 55
REMARK SMILES IDX 49 56 63 57 50 58 53 59 62 60 76 61 51 62 52 63 61 65 77 66
REMARK SMILES IDX 54 67 43 68 44 69 48 70 45 71 47 72 46 73 65 74 66 75 70 76
REMARK SMILES IDX 67 77 69 78 68 79 55 80 56 81 60 82 57 83 59 84 58 85
REMARK H PARENT 24 7 31 34 75 53 53 64
REMARK Flexibility Score: inf
ROOT
ATOM      1  C   UNL A   1      31.068  29.712  24.616  1.00  0.00     0.002 C 
ENDROOT
BRANCH   1   2
ATOM      2  C   UNL A   1      30.273  28.745  23.728  1.00  0.00     0.021 C 
BRANCH   2   3
ATOM      3  C   UNL A   1      31.121  27.700  23.004  1.00  0.00     0.116 C 
BRANCH   3   4
ATOM      4  N   UNL A   1      30.943  26.382  23.569  1.00  0.00    -0.355 N 
ATOM      5  O   UNL A   1      33.157  25.788  23.533  1.00  0.00    -0.274 OA
ATOM      6  C   UNL A   1      31.992  25.527  23.825  1.00  0.00     0.230 C 
ATOM      7  H   UNL A   1      30.030  26.082  23.780  1.00  0.00     0.163 HD
BRANCH   6   8
ATOM      8  C   UNL A   1      31.602  24.158  24.360  1.00  0.00     0.176 C 
BRANCH   8   9
ATOM      9  S   UNL A   1      31.714  22.817  23.131  1.00  0.00    -0.096 SA
BRANCH   9  10
ATOM     10  C   UNL A   1      32.996  21.837  23.887  1.00  0.00     0.101 A 
ATOM     11  C   UNL A   1      34.148  22.448  24.327  1.00  0.00     0.064 A 
ATOM     12  N   UNL A   1      32.798  20.514  23.939  1.00  0.00    -0.222 NA
ATOM     13  C   UNL A   1      35.119  21.616  24.843  1.00  0.00     0.075 A 
ATOM     14  C   UNL A   1      33.782  19.785  24.492  1.00  0.00     0.163 A 
ATOM     15  N   UNL A   1      34.953  20.281  24.924  1.00  0.00    -0.228 NA
BRANCH  13  16
ATOM     16  C   UNL A   1      36.411  22.132  25.308  1.00  0.00     0.000 A 
ATOM     17  C   UNL A   1      36.540  23.468  25.720  1.00  0.00     0.010 A 
ATOM     18  C   UNL A   1      37.548  21.308  25.364  1.00  0.00     0.010 A 
ATOM     19  C   UNL A   1      37.759  23.961  26.194  1.00  0.00     0.001 A 
ATOM     20  C   UNL A   1      38.770  21.803  25.829  1.00  0.00     0.001 A 
ATOM     21  C   UNL A   1      38.873  23.127  26.249  1.00  0.00     0.000 A 
ENDBRANCH  13  16
BRANCH  14  22
ATOM     22  C   UNL A   1      33.583  18.342  24.572  1.00  0.00     0.055 A 
ATOM     23  C   UNL A   1      34.016  17.489  23.540  1.00  0.00     0.015 A 
ATOM     24  C   UNL A   1      32.944  17.756  25.672  1.00  0.00     0.134 A 
ATOM     25  C   UNL A   1      33.830  16.105  23.619  1.00  0.00     0.001 A 
ATOM     26  C   UNL A   1      32.746  16.378  25.754  1.00  0.00     0.040 A 
ATOM     27  F   UNL A   1      32.477  18.519  26.673  1.00  0.00    -0.206 F 
ATOM     28  C   UNL A   1      33.192  15.550  24.727  1.00  0.00     0.003 A 
ENDBRANCH  14  22
ENDBRANCH   9  10
ENDBRANCH   8   9
ENDBRANCH   6   8
ENDBRANCH   3   4
ENDBRANCH   2   3
ENDBRANCH   1   2
BRANCH   1  29
ATOM     29  C   UNL A   1      32.449  29.217  25.058  1.00  0.00     0.002 C 
BRANCH  29  30
ATOM     30  C   UNL A   1      32.486  28.501  26.410  1.00  0.00     0.021 C 
BRANCH  30  31
ATOM     31  C   UNL A   1      33.716  28.798  27.263  1.00  0.00     0.116 C 
BRANCH  31  32
ATOM     32  N   UNL A   1      33.750  30.173  27.737  1.00  0.00    -0.352 N 
ATOM     33  C   UNL A   1      34.741  30.844  28.411  1.00  0.00     0.251 C 
ATOM     34  H   UNL A   1      32.941  30.703  27.547  1.00  0.00     0.163 HD
ATOM     35  O   UNL A   1      34.525  31.959  28.879  1.00  0.00    -0.269 OA
BRANCH  33  36
ATOM     36  C   UNL A   1      36.064  30.212  28.604  1.00  0.00     0.039 A 
ATOM     37  C   UNL A   1      36.987  30.245  27.555  1.00  0.00     0.014 A 
ATOM     38  C   UNL A   1      36.399  29.600  29.814  1.00  0.00     0.014 A 
ATOM     39  C   UNL A   1      38.273  29.740  27.749  1.00  0.00     0.010 A 
ATOM     40  C   UNL A   1      37.704  29.163  30.030  1.00  0.00     0.010 A 
ATOM     41  C   UNL A   1      38.657  29.239  29.004  1.00  0.00    -0.014 A 
BRANCH  41  42
ATOM     42  C   UNL A   1      40.061  28.834  29.273  1.00  0.00     0.031 A 
ATOM     43  C   UNL A   1      41.029  29.795  29.901  1.00  0.00     0.074 A 
ATOM     44  C   UNL A   1      40.485  27.618  28.875  1.00  0.00     0.049 A 
ATOM     45  N   UNL A   1      42.306  29.638  30.145  1.00  0.00    -0.248 NA
ATOM     46  C   UNL A   1      40.500  31.113  30.281  1.00  0.00     0.031 C 
ATOM     47  C   UNL A   1      39.657  26.608  28.213  1.00  0.00     0.029 A 
ATOM     48  N   UNL A   1      41.724  27.033  28.955  1.00  0.00    -0.354 N 
ATOM     49  C   UNL A   1      42.735  30.838  30.699  1.00  0.00     0.074 A 
ATOM     50  C   UNL A   1      41.594  31.729  30.703  1.00  0.00     0.031 C 
ATOM     51  C   UNL A   1      40.406  25.523  27.962  1.00  0.00     0.029 A 
ATOM     52  C   UNL A   1      41.774  25.776  28.402  1.00  0.00     0.049 A 
ATOM     53  H   UNL A   1      42.502  27.470  29.370  1.00  0.00     0.167 HD
ATOM     54  C   UNL A   1      43.960  31.162  31.178  1.00  0.00     0.031 A 
ATOM     55  C   UNL A   1      42.807  24.927  28.245  1.00  0.00     0.031 A 
ATOM     56  C   UNL A   1      45.097  30.281  31.158  1.00  0.00     0.049 A 
ATOM     57  C   UNL A   1      44.167  25.321  28.748  1.00  0.00     0.074 A 
ATOM     58  C   UNL A   1      46.367  30.500  31.663  1.00  0.00     0.029 A 
ATOM     59  N   UNL A   1      45.107  29.016  30.590  1.00  0.00    -0.354 N 
ATOM     60  N   UNL A   1      44.538  26.430  29.341  1.00  0.00    -0.248 NA
ATOM     61  C   UNL A   1      45.249  24.343  28.567  1.00  0.00     0.031 C 
ATOM     62  C   UNL A   1      47.163  29.394  31.341  1.00  0.00     0.029 A 
ATOM     63  C   UNL A   1      46.370  28.458  30.698  1.00  0.00     0.049 A 
ATOM     64  H   UNL A   1      44.330  28.579  30.172  1.00  0.00     0.167 HD
ATOM     65  C   UNL A   1      45.889  26.277  29.621  1.00  0.00     0.074 A 
ATOM     66  C   UNL A   1      46.267  24.959  29.152  1.00  0.00     0.031 C 
ATOM     67  C   UNL A   1      46.739  27.151  30.213  1.00  0.00     0.031 A 
BRANCH  54  68
ATOM     68  C   UNL A   1      44.131  32.546  31.746  1.00  0.00    -0.014 A 
ATOM     69  C   UNL A   1      44.582  33.612  30.949  1.00  0.00     0.009 A 
ATOM     70  C   UNL A   1      43.825  32.793  33.093  1.00  0.00     0.009 A 
ATOM     71  C   UNL A   1      44.771  34.880  31.502  1.00  0.00     0.001 A 
ATOM     72  C   UNL A   1      43.981  34.071  33.634  1.00  0.00     0.001 A 
ATOM     73  C   UNL A   1      44.467  35.109  32.843  1.00  0.00     0.000 A 
ENDBRANCH  54  68
BRANCH  55  74
ATOM     74  C   UNL A   1      42.590  23.620  27.570  1.00  0.00    -0.014 A 
ATOM     75  C   UNL A   1      42.804  23.479  26.191  1.00  0.00     0.009 A 
ATOM     76  C   UNL A   1      42.187  22.497  28.312  1.00  0.00     0.009 A 
ATOM     77  C   UNL A   1      42.601  22.246  25.565  1.00  0.00     0.001 A 
ATOM     78  C   UNL A   1      42.014  21.260  27.690  1.00  0.00     0.001 A 
ATOM     79  C   UNL A   1      42.213  21.137  26.316  1.00  0.00     0.000 A 
ENDBRANCH  55  74
BRANCH  67  80
ATOM     80  C   UNL A   1      48.163  26.704  30.404  1.00  0.00    -0.014 A 
ATOM     81  C   UNL A   1      49.144  26.958  29.433  1.00  0.00     0.009 A 
ATOM     82  C   UNL A   1      48.536  26.060  31.595  1.00  0.00     0.009 A 
ATOM     83  C   UNL A   1      50.463  26.547  29.636  1.00  0.00     0.001 A 
ATOM     84  C   UNL A   1      49.862  25.678  31.809  1.00  0.00     0.001 A 
ATOM     85  C   UNL A   1      50.822  25.915  30.826  1.00  0.00     0.000 A 
ENDBRANCH  67  80
ENDBRANCH  41  42
ENDBRANCH  33  36
ENDBRANCH  31  32
ENDBRANCH  30  31
ENDBRANCH  29  30
ENDBRANCH   1  29
TORSDOF 17
ENDMDL
MODEL 3
REMARK VINA RESULT:     -11.5      3.406      4.866
REMARK SMILES O=C(CSc1cc(-c2ccccc2)nc(-c2ccccc2F)n1)NCCCCCCNC(=O)c1ccc(-c2c3nc(c(-c4ccccc4)c4ccc([nH]4)c(-c4ccccc4)c4nc(c(-c5ccccc5)c5ccc2[nH]5)C=C4)C=C3)cc1
REMARK SMILES IDX 27 1 26 2 25 3 24 4 1 5 2 6 3 8 4 9 5 10 6 11 23 12 7 13
REMARK SMILES IDX 15 14 14 15 8 16 9 17 13 18 10 19 12 20 11 21 16 22 17 23
REMARK SMILES IDX 21 24 18 25 20 26 22 27 19 28 28 29 29 30 30 31 31 32 32 33
REMARK SMILES IDX 33 35 34 36 35 37 81 38 36 39 80 40 37 41 38 42 39 43 74 44
REMARK SMILES IDX 40 45 79 46 73 47 75 48 41 49 78 50 72 51 71 52 42 54 64 55
REMARK SMILES IDX 49 56 63 57 50 58 53 59 62 60 76 61 51 62 52 63 61 65 77 66
REMARK SMILES IDX 54 67 43 68 44 69 48 70 45 71 47 72 46 73 65 74 66 75 70 76
REMARK SMILES IDX 67 77 69 78 68 79 55 80 56 81 60 82 57 83 59 84 58 85
REMARK H PARENT 24 7 31 34 75 53 53 64
REMARK Flexibility Score: inf
ROOT
ATOM      1  C   UNL A   1      32.019  29.220  26.824  1.00  0.00     0.002 C 
ENDROOT
BRANCH   1   2
ATOM      2  C   UNL A   1      31.426  27.881  26.364  1.00  0.00     0.021 C 
BRANCH   2   3
ATOM      3  C   UNL A   1      32.419  26.720  26.336  1.00  0.00     0.116 C 
BRANCH   3   4
ATOM      4  N   UNL A   1      31.943  25.628  25.517  1.00  0.00    -0.355 N 
ATOM      5  O   UNL A   1      31.370  24.240  27.251  1.00  0.00    -0.274 OA
ATOM      6  C   UNL A   1      31.417  24.469  26.044  1.00  0.00     0.230 C 
ATOM      7  H   UNL A   1      31.997  25.717  24.539  1.00  0.00     0.163 HD
BRANCH   6   8
ATOM      8  C   UNL A   1      31.029  23.408  25.026  1.00  0.00     0.176 C 
BRANCH   8   9
ATOM      9  S   UNL A   1      32.099  23.359  23.552  1.00  0.00    -0.096 SA
BRANCH   9  10
ATOM     10  C   UNL A   1      33.289  22.151  24.096  1.00  0.00     0.101 A 
ATOM     11  C   UNL A   1      32.952  20.817  24.097  1.00  0.00     0.064 A 
ATOM     12  N   UNL A   1      34.463  22.614  24.545  1.00  0.00    -0.222 NA
ATOM     13  C   UNL A   1      33.903  19.949  24.590  1.00  0.00     0.075 A 
ATOM     14  C   UNL A   1      35.344  21.692  24.973  1.00  0.00     0.163 A 
ATOM     15  N   UNL A   1      35.101  20.373  25.039  1.00  0.00    -0.228 NA
BRANCH  13  16
ATOM     16  C   UNL A   1      33.656  18.506  24.688  1.00  0.00     0.000 A 
ATOM     17  C   UNL A   1      32.780  17.995  25.660  1.00  0.00     0.010 A 
ATOM     18  C   UNL A   1      34.275  17.598  23.812  1.00  0.00     0.010 A 
ATOM     19  C   UNL A   1      32.513  16.626  25.741  1.00  0.00     0.001 A 
ATOM     20  C   UNL A   1      34.016  16.227  23.898  1.00  0.00     0.001 A 
ATOM     21  C   UNL A   1      33.131  15.743  24.859  1.00  0.00     0.000 A 
ENDBRANCH  13  16
BRANCH  14  22
ATOM     22  C   UNL A   1      36.635  22.173  25.453  1.00  0.00     0.055 A 
ATOM     23  C   UNL A   1      36.773  23.462  26.000  1.00  0.00     0.015 A 
ATOM     24  C   UNL A   1      37.782  21.374  25.377  1.00  0.00     0.134 A 
ATOM     25  C   UNL A   1      38.010  23.921  26.465  1.00  0.00     0.001 A 
ATOM     26  C   UNL A   1      39.021  21.828  25.830  1.00  0.00     0.040 A 
ATOM     27  F   UNL A   1      37.722  20.148  24.834  1.00  0.00    -0.206 F 
ATOM     28  C   UNL A   1      39.135  23.103  26.379  1.00  0.00     0.003 A 
ENDBRANCH  14  22
ENDBRANCH   9  10
ENDBRANCH   8   9
ENDBRANCH   6   8
ENDBRANCH   3   4
ENDBRANCH   2   3
ENDBRANCH   1   2
BRANCH   1  29
ATOM     29  C   UNL A   1      31.781  30.405  25.883  1.00  0.00     0.002 C 
BRANCH  29  30
ATOM     30  C   UNL A   1      31.466  31.735  26.572  1.00  0.00     0.021 C 
BRANCH  30  31
ATOM     31  C   UNL A   1      32.656  32.407  27.249  1.00  0.00     0.116 C 
BRANCH  31  32
ATOM     32  N   UNL A   1      32.407  33.808  27.556  1.00  0.00    -0.352 N 
ATOM     33  C   UNL A   1      33.000  34.619  28.493  1.00  0.00     0.251 C 
ATOM     34  H   UNL A   1      31.709  34.240  27.012  1.00  0.00     0.163 HD
ATOM     35  O   UNL A   1      32.543  35.735  28.723  1.00  0.00    -0.269 OA
BRANCH  33  36
ATOM     36  C   UNL A   1      34.174  34.137  29.253  1.00  0.00     0.039 A 
ATOM     37  C   UNL A   1      33.967  33.367  30.400  1.00  0.00     0.014 A 
ATOM     38  C   UNL A   1      35.473  34.432  28.831  1.00  0.00     0.014 A 
ATOM     39  C   UNL A   1      35.060  32.822  31.075  1.00  0.00     0.010 A 
ATOM     40  C   UNL A   1      36.559  33.829  29.462  1.00  0.00     0.010 A 
ATOM     41  C   UNL A   1      36.363  33.008  30.583  1.00  0.00    -0.014 A 
BRANCH  41  42
ATOM     42  C   UNL A   1      37.524  32.317  31.201  1.00  0.00     0.031 A 
ATOM     43  C   UNL A   1      38.016  32.714  32.562  1.00  0.00     0.074 A 
ATOM     44  C   UNL A   1      38.186  31.380  30.494  1.00  0.00     0.049 A 
ATOM     45  N   UNL A   1      39.054  32.270  33.227  1.00  0.00    -0.248 NA
ATOM     46  C   UNL A   1      37.259  33.764  33.260  1.00  0.00     0.031 C 
ATOM     47  C   UNL A   1      37.839  30.935  29.144  1.00  0.00     0.029 A 
ATOM     48  N   UNL A   1      39.302  30.645  30.810  1.00  0.00    -0.354 N 
ATOM     49  C   UNL A   1      39.079  32.992  34.414  1.00  0.00     0.074 A 
ATOM     50  C   UNL A   1      37.987  33.939  34.353  1.00  0.00     0.031 C 
ATOM     51  C   UNL A   1      38.712  29.994  28.754  1.00  0.00     0.029 A 
ATOM     52  C   UNL A   1      39.706  29.801  29.804  1.00  0.00     0.049 A 
ATOM     53  H   UNL A   1      39.768  30.714  31.675  1.00  0.00     0.167 HD
ATOM     54  C   UNL A   1      39.923  32.865  35.466  1.00  0.00     0.031 A 
ATOM     55  C   UNL A   1      40.769  28.979  29.721  1.00  0.00     0.031 A 
ATOM     56  C   UNL A   1      41.020  31.934  35.519  1.00  0.00     0.049 A 
ATOM     57  C   UNL A   1      41.715  28.881  30.884  1.00  0.00     0.074 A 
ATOM     58  C   UNL A   1      41.901  31.697  36.559  1.00  0.00     0.029 A 
ATOM     59  N   UNL A   1      41.396  31.096  34.479  1.00  0.00    -0.354 N 
ATOM     60  N   UNL A   1      41.680  29.514  32.033  1.00  0.00    -0.248 NA
ATOM     61  C   UNL A   1      42.844  27.950  30.744  1.00  0.00     0.031 C 
ATOM     62  C   UNL A   1      42.849  30.763  36.125  1.00  0.00     0.029 A 
ATOM     63  C   UNL A   1      42.518  30.368  34.840  1.00  0.00     0.049 A 
ATOM     64  H   UNL A   1      40.932  31.029  33.613  1.00  0.00     0.167 HD
ATOM     65  C   UNL A   1      42.767  29.045  32.758  1.00  0.00     0.074 A 
ATOM     66  C   UNL A   1      43.430  28.059  31.928  1.00  0.00     0.031 C 
ATOM     67  C   UNL A   1      43.178  29.401  33.999  1.00  0.00     0.031 A 
BRANCH  54  68
ATOM     68  C   UNL A   1      39.698  33.778  36.641  1.00  0.00    -0.014 A 
ATOM     69  C   UNL A   1      40.259  35.066  36.683  1.00  0.00     0.009 A 
ATOM     70  C   UNL A   1      38.903  33.353  37.717  1.00  0.00     0.009 A 
ATOM     71  C   UNL A   1      40.070  35.886  37.798  1.00  0.00     0.001 A 
ATOM     72  C   UNL A   1      38.687  34.189  38.814  1.00  0.00     0.001 A 
ATOM     73  C   UNL A   1      39.282  35.448  38.861  1.00  0.00     0.000 A 
ENDBRANCH  54  68
BRANCH  55  74
ATOM     74  C   UNL A   1      40.995  28.189  28.483  1.00  0.00    -0.014 A 
ATOM     75  C   UNL A   1      40.543  26.864  28.384  1.00  0.00     0.009 A 
ATOM     76  C   UNL A   1      41.647  28.768  27.381  1.00  0.00     0.009 A 
ATOM     77  C   UNL A   1      40.757  26.130  27.215  1.00  0.00     0.001 A 
ATOM     78  C   UNL A   1      41.831  28.041  26.204  1.00  0.00     0.001 A 
ATOM     79  C   UNL A   1      41.394  26.720  26.124  1.00  0.00     0.000 A 
ENDBRANCH  55  74
BRANCH  67  80
ATOM     80  C   UNL A   1      44.396  28.707  34.546  1.00  0.00    -0.014 A 
ATOM     81  C   UNL A   1      44.285  27.548  35.331  1.00  0.00     0.009 A 
ATOM     82  C   UNL A   1      45.675  29.196  34.234  1.00  0.00     0.009 A 
ATOM     83  C   UNL A   1      45.429  26.911  35.817  1.00  0.00     0.001 A 
ATOM     84  C   UNL A   1      46.818  28.539  34.695  1.00  0.00     0.001 A 
ATOM     85  C   UNL A   1      46.693  27.402  35.493  1.00  0.00     0.000 A 
ENDBRANCH  67  80
ENDBRANCH  41  42
ENDBRANCH  33  36
ENDBRANCH  31  32
ENDBRANCH  30  31
ENDBRANCH  29  30
ENDBRANCH   1  29
TORSDOF 17
ENDMDL
