MODEL 1
REMARK VINA RESULT:     -10.1      0.000      0.000
REMARK SMILES CCC[C@H](C)C(=O)N1CC[C@H](C(=O)NCCCCCCNC(=O)c2ccc(-c3c4nc(c(-c5ccccc5)c5ccc([nH]5)c(-c5ccccc5)c5nc(c(-c6ccccc6)c6ccc3[nH]6)C=C5)C=C4)cc2)[C@@H]1C
REMARK SMILES IDX 16 1 15 2 14 3 12 4 13 5 11 7 8 8 9 9 72 10 10 11 73 12 6 13
REMARK SMILES IDX 7 14 4 15 5 16 3 17 2 18 1 19 17 20 18 21 19 22 20 23 21 24
REMARK SMILES IDX 22 25 23 27 24 28 25 29 71 30 26 31 70 32 27 33 28 34 29 35
REMARK SMILES IDX 64 36 30 37 69 38 63 39 65 40 31 41 68 42 62 43 61 44 32 46
REMARK SMILES IDX 54 47 39 48 53 49 40 50 43 51 52 52 66 53 41 54 42 55 51 57
REMARK SMILES IDX 67 58 44 59 33 60 34 61 38 62 35 63 37 64 36 65 55 66 56 67
REMARK SMILES IDX 60 68 57 69 59 70 58 71 45 72 46 73 50 74 47 75 49 76 48 77
REMARK H PARENT 14 6 21 26 65 45 43 56
REMARK Flexibility Score: inf
ROOT
ATOM      1  C   UNL A   1      34.738  20.003  24.996  1.00  0.00     0.021 C 
ENDROOT
BRANCH   1   2
ATOM      2  C   UNL A   1      33.261  20.219  25.322  1.00  0.00     0.116 C 
BRANCH   2   3
ATOM      3  N   UNL A   1      33.088  21.063  26.489  1.00  0.00    -0.356 N 
ATOM      4  C   UNL A   1      32.536  22.297  26.632  1.00  0.00     0.225 C 
ATOM      5  O   UNL A   1      32.471  22.761  27.772  1.00  0.00    -0.275 OA
ATOM      6  H   UNL A   1      33.429  20.671  27.326  1.00  0.00     0.163 HD
BRANCH   4   7
ATOM      7  C   UNL A   1      32.011  23.056  25.424  1.00  0.00     0.102 C 
ATOM      8  N   UNL A   1      31.969  25.435  25.198  1.00  0.00    -0.339 N 
ATOM      9  C   UNL A   1      30.912  25.079  26.124  1.00  0.00     0.120 C 
ATOM     10  C   UNL A   1      32.851  24.285  24.987  1.00  0.00     0.094 C 
ATOM     11  C   UNL A   1      30.627  23.633  25.765  1.00  0.00     0.037 C 
ATOM     12  C   UNL A   1      34.178  24.447  25.729  1.00  0.00     0.032 C 
BRANCH   8  13
ATOM     13  C   UNL A   1      32.004  26.707  24.683  1.00  0.00     0.225 C 
ATOM     14  O   UNL A   1      30.955  27.345  24.533  1.00  0.00    -0.275 OA
BRANCH  13  15
ATOM     15  C   UNL A   1      33.296  27.280  24.085  1.00  0.00     0.075 C 
ATOM     16  C   UNL A   1      33.376  27.352  22.570  1.00  0.00     0.018 C 
BRANCH  15  17
ATOM     17  C   UNL A   1      33.774  28.497  24.913  1.00  0.00     0.013 C 
BRANCH  17  18
ATOM     18  C   UNL A   1      34.020  28.368  26.420  1.00  0.00    -0.003 C 
ATOM     19  C   UNL A   1      33.796  29.637  27.225  1.00  0.00     0.004 C 
ENDBRANCH  17  18
ENDBRANCH  15  17
ENDBRANCH  13  15
ENDBRANCH   8  13
ENDBRANCH   4   7
ENDBRANCH   2   3
ENDBRANCH   1   2
BRANCH   1  20
ATOM     20  C   UNL A   1      35.613  21.258  25.118  1.00  0.00     0.002 C 
BRANCH  20  21
ATOM     21  C   UNL A   1      37.009  21.153  24.494  1.00  0.00     0.002 C 
BRANCH  21  22
ATOM     22  C   UNL A   1      37.843  19.957  24.957  1.00  0.00     0.021 C 
BRANCH  22  23
ATOM     23  C   UNL A   1      39.078  20.317  25.776  1.00  0.00     0.116 C 
BRANCH  23  24
ATOM     24  N   UNL A   1      40.030  19.219  25.856  1.00  0.00    -0.352 N 
ATOM     25  C   UNL A   1      41.388  19.252  26.049  1.00  0.00     0.251 C 
ATOM     26  H   UNL A   1      39.641  18.320  25.757  1.00  0.00     0.163 HD
ATOM     27  O   UNL A   1      42.058  18.233  25.906  1.00  0.00    -0.269 OA
BRANCH  25  28
ATOM     28  C   UNL A   1      42.053  20.524  26.401  1.00  0.00     0.039 A 
ATOM     29  C   UNL A   1      42.542  21.338  25.377  1.00  0.00     0.014 A 
ATOM     30  C   UNL A   1      42.187  20.916  27.735  1.00  0.00     0.014 A 
ATOM     31  C   UNL A   1      43.093  22.584  25.686  1.00  0.00     0.010 A 
ATOM     32  C   UNL A   1      42.668  22.186  28.038  1.00  0.00     0.010 A 
ATOM     33  C   UNL A   1      43.118  23.036  27.015  1.00  0.00    -0.014 A 
BRANCH  33  34
ATOM     34  C   UNL A   1      43.574  24.407  27.355  1.00  0.00     0.031 A 
ATOM     35  C   UNL A   1      42.586  25.465  27.754  1.00  0.00     0.074 A 
ATOM     36  C   UNL A   1      44.878  24.720  27.227  1.00  0.00     0.049 A 
ATOM     37  N   UNL A   1      42.793  26.730  28.021  1.00  0.00    -0.248 NA
ATOM     38  C   UNL A   1      41.177  25.051  27.842  1.00  0.00     0.031 C 
ATOM     39  C   UNL A   1      45.936  23.792  26.823  1.00  0.00     0.029 A 
ATOM     40  N   UNL A   1      45.535  25.910  27.418  1.00  0.00    -0.354 N 
ATOM     41  C   UNL A   1      41.541  27.266  28.291  1.00  0.00     0.074 A 
ATOM     42  C   UNL A   1      40.577  26.202  28.107  1.00  0.00     0.031 C 
ATOM     43  C   UNL A   1      47.113  24.438  26.830  1.00  0.00     0.029 A 
ATOM     44  C   UNL A   1      46.887  25.835  27.186  1.00  0.00     0.049 A 
ATOM     45  H   UNL A   1      45.081  26.738  27.696  1.00  0.00     0.167 HD
ATOM     46  C   UNL A   1      41.221  28.528  28.671  1.00  0.00     0.031 A 
ATOM     47  C   UNL A   1      47.838  26.785  27.242  1.00  0.00     0.031 A 
ATOM     48  C   UNL A   1      42.181  29.588  28.844  1.00  0.00     0.049 A 
ATOM     49  C   UNL A   1      47.454  28.190  27.608  1.00  0.00     0.074 A 
ATOM     50  C   UNL A   1      41.968  30.882  29.286  1.00  0.00     0.029 A 
ATOM     51  N   UNL A   1      43.535  29.480  28.564  1.00  0.00    -0.354 N 
ATOM     52  N   UNL A   1      46.277  28.666  27.936  1.00  0.00    -0.248 NA
ATOM     53  C   UNL A   1      48.530  29.191  27.608  1.00  0.00     0.031 C 
ATOM     54  C   UNL A   1      43.178  31.578  29.203  1.00  0.00     0.029 A 
ATOM     55  C   UNL A   1      44.161  30.698  28.775  1.00  0.00     0.049 A 
ATOM     56  H   UNL A   1      43.986  28.659  28.261  1.00  0.00     0.167 HD
ATOM     57  C   UNL A   1      46.474  30.015  28.200  1.00  0.00     0.074 A 
ATOM     58  C   UNL A   1      47.886  30.277  28.013  1.00  0.00     0.031 C 
ATOM     59  C   UNL A   1      45.564  30.953  28.565  1.00  0.00     0.031 A 
BRANCH  46  60
ATOM     60  C   UNL A   1      39.764  28.833  28.890  1.00  0.00    -0.014 A 
ATOM     61  C   UNL A   1      39.158  28.662  30.146  1.00  0.00     0.009 A 
ATOM     62  C   UNL A   1      38.984  29.305  27.822  1.00  0.00     0.009 A 
ATOM     63  C   UNL A   1      37.792  28.904  30.313  1.00  0.00     0.001 A 
ATOM     64  C   UNL A   1      37.627  29.580  28.001  1.00  0.00     0.001 A 
ATOM     65  C   UNL A   1      37.029  29.365  29.242  1.00  0.00     0.000 A 
ENDBRANCH  46  60
BRANCH  47  66
ATOM     66  C   UNL A   1      49.253  26.432  26.955  1.00  0.00    -0.014 A 
ATOM     67  C   UNL A   1      49.725  26.422  25.633  1.00  0.00     0.009 A 
ATOM     68  C   UNL A   1      50.143  26.122  27.995  1.00  0.00     0.009 A 
ATOM     69  C   UNL A   1      51.056  26.097  25.359  1.00  0.00     0.001 A 
ATOM     70  C   UNL A   1      51.480  25.825  27.721  1.00  0.00     0.001 A 
ATOM     71  C   UNL A   1      51.933  25.807  26.403  1.00  0.00     0.000 A 
ENDBRANCH  47  66
BRANCH  59  72
ATOM     72  C   UNL A   1      46.071  32.350  28.792  1.00  0.00    -0.014 A 
ATOM     73  C   UNL A   1      46.043  33.308  27.765  1.00  0.00     0.009 A 
ATOM     74  C   UNL A   1      46.539  32.727  30.060  1.00  0.00     0.009 A 
ATOM     75  C   UNL A   1      46.503  34.607  27.999  1.00  0.00     0.001 A 
ATOM     76  C   UNL A   1      46.967  34.033  30.299  1.00  0.00     0.001 A 
ATOM     77  C   UNL A   1      46.957  34.970  29.266  1.00  0.00     0.000 A 
ENDBRANCH  59  72
ENDBRANCH  33  34
ENDBRANCH  25  28
ENDBRANCH  23  24
ENDBRANCH  22  23
ENDBRANCH  21  22
ENDBRANCH  20  21
ENDBRANCH   1  20
TORSDOF 17
ENDMDL
MODEL 2
REMARK VINA RESULT:     -10.0      2.354      7.680
REMARK SMILES CCC[C@H](C)C(=O)N1CC[C@H](C(=O)NCCCCCCNC(=O)c2ccc(-c3c4nc(c(-c5ccccc5)c5ccc([nH]5)c(-c5ccccc5)c5nc(c(-c6ccccc6)c6ccc3[nH]6)C=C5)C=C4)cc2)[C@@H]1C
REMARK SMILES IDX 16 1 15 2 14 3 12 4 13 5 11 7 8 8 9 9 72 10 10 11 73 12 6 13
REMARK SMILES IDX 7 14 4 15 5 16 3 17 2 18 1 19 17 20 18 21 19 22 20 23 21 24
REMARK SMILES IDX 22 25 23 27 24 28 25 29 71 30 26 31 70 32 27 33 28 34 29 35
REMARK SMILES IDX 64 36 30 37 69 38 63 39 65 40 31 41 68 42 62 43 61 44 32 46
REMARK SMILES IDX 54 47 39 48 53 49 40 50 43 51 52 52 66 53 41 54 42 55 51 57
REMARK SMILES IDX 67 58 44 59 33 60 34 61 38 62 35 63 37 64 36 65 55 66 56 67
REMARK SMILES IDX 60 68 57 69 59 70 58 71 45 72 46 73 50 74 47 75 49 76 48 77
REMARK H PARENT 14 6 21 26 65 45 43 56
REMARK Flexibility Score: inf
ROOT
ATOM      1  C   UNL A   1      30.612  28.360  23.389  1.00  0.00     0.021 C 
ENDROOT
BRANCH   1   2
ATOM      2  C   UNL A   1      30.328  26.868  23.548  1.00  0.00     0.116 C 
BRANCH   2   3
ATOM      3  N   UNL A   1      30.279  26.476  24.944  1.00  0.00    -0.356 N 
ATOM      4  C   UNL A   1      30.991  25.555  25.644  1.00  0.00     0.225 C 
ATOM      5  O   UNL A   1      30.773  25.469  26.854  1.00  0.00    -0.275 OA
ATOM      6  H   UNL A   1      29.612  26.966  25.478  1.00  0.00     0.163 HD
BRANCH   4   7
ATOM      7  C   UNL A   1      32.022  24.681  24.949  1.00  0.00     0.102 C 
ATOM      8  N   UNL A   1      33.178  22.844  25.951  1.00  0.00    -0.339 N 
ATOM      9  C   UNL A   1      33.760  24.056  26.493  1.00  0.00     0.120 C 
ATOM     10  C   UNL A   1      31.930  23.162  25.254  1.00  0.00     0.094 C 
ATOM     11  C   UNL A   1      33.424  25.089  25.433  1.00  0.00     0.037 C 
ATOM     12  C   UNL A   1      30.705  22.749  26.071  1.00  0.00     0.032 C 
BRANCH   8  13
ATOM     13  C   UNL A   1      33.821  21.647  26.153  1.00  0.00     0.225 C 
ATOM     14  O   UNL A   1      33.879  21.157  27.286  1.00  0.00    -0.275 OA
BRANCH  13  15
ATOM     15  C   UNL A   1      34.661  21.008  25.038  1.00  0.00     0.075 C 
ATOM     16  C   UNL A   1      36.170  21.100  25.179  1.00  0.00     0.018 C 
BRANCH  15  17
ATOM     17  C   UNL A   1      34.036  19.659  24.606  1.00  0.00     0.013 C 
BRANCH  17  18
ATOM     18  C   UNL A   1      32.564  19.579  24.188  1.00  0.00    -0.003 C 
ATOM     19  C   UNL A   1      32.210  20.328  22.914  1.00  0.00     0.004 C 
ENDBRANCH  17  18
ENDBRANCH  15  17
ENDBRANCH  13  15
ENDBRANCH   8  13
ENDBRANCH   4   7
ENDBRANCH   2   3
ENDBRANCH   1   2
BRANCH   1  20
ATOM     20  C   UNL A   1      32.074  28.763  23.624  1.00  0.00     0.002 C 
BRANCH  20  21
ATOM     21  C   UNL A   1      32.383  29.354  25.004  1.00  0.00     0.002 C 
BRANCH  21  22
ATOM     22  C   UNL A   1      33.585  28.740  25.723  1.00  0.00     0.021 C 
BRANCH  22  23
ATOM     23  C   UNL A   1      33.544  28.847  27.244  1.00  0.00     0.116 C 
BRANCH  23  24
ATOM     24  N   UNL A   1      33.617  30.225  27.705  1.00  0.00    -0.352 N 
ATOM     25  C   UNL A   1      34.629  30.873  28.368  1.00  0.00     0.251 C 
ATOM     26  H   UNL A   1      32.823  30.774  27.512  1.00  0.00     0.163 HD
ATOM     27  O   UNL A   1      34.443  31.991  28.841  1.00  0.00    -0.269 OA
BRANCH  25  28
ATOM     28  C   UNL A   1      35.940  30.213  28.540  1.00  0.00     0.039 A 
ATOM     29  C   UNL A   1      36.837  30.199  27.469  1.00  0.00     0.014 A 
ATOM     30  C   UNL A   1      36.286  29.616  29.755  1.00  0.00     0.014 A 
ATOM     31  C   UNL A   1      38.113  29.659  27.641  1.00  0.00     0.010 A 
ATOM     32  C   UNL A   1      37.581  29.144  29.949  1.00  0.00     0.010 A 
ATOM     33  C   UNL A   1      38.510  29.169  28.896  1.00  0.00    -0.014 A 
BRANCH  33  34
ATOM     34  C   UNL A   1      39.901  28.712  29.142  1.00  0.00     0.031 A 
ATOM     35  C   UNL A   1      40.912  29.638  29.756  1.00  0.00     0.074 A 
ATOM     36  C   UNL A   1      40.274  27.484  28.735  1.00  0.00     0.049 A 
ATOM     37  N   UNL A   1      42.185  29.436  29.984  1.00  0.00    -0.248 NA
ATOM     38  C   UNL A   1      40.433  30.973  30.146  1.00  0.00     0.031 C 
ATOM     39  C   UNL A   1      39.397  26.498  28.101  1.00  0.00     0.029 A 
ATOM     40  N   UNL A   1      41.494  26.857  28.790  1.00  0.00    -0.354 N 
ATOM     41  C   UNL A   1      42.663  30.622  30.526  1.00  0.00     0.074 A 
ATOM     42  C   UNL A   1      41.555  31.553  30.546  1.00  0.00     0.031 C 
ATOM     43  C   UNL A   1      40.097  25.379  27.857  1.00  0.00     0.029 A 
ATOM     44  C   UNL A   1      41.483  25.586  28.268  1.00  0.00     0.049 A 
ATOM     45  H   UNL A   1      42.300  27.276  29.168  1.00  0.00     0.167 HD
ATOM     46  C   UNL A   1      43.909  30.908  30.977  1.00  0.00     0.031 A 
ATOM     47  C   UNL A   1      42.476  24.690  28.124  1.00  0.00     0.031 A 
ATOM     48  C   UNL A   1      45.012  29.983  30.947  1.00  0.00     0.049 A 
ATOM     49  C   UNL A   1      43.862  25.049  28.578  1.00  0.00     0.074 A 
ATOM     50  C   UNL A   1      46.295  30.154  31.437  1.00  0.00     0.029 A 
ATOM     51  N   UNL A   1      44.967  28.719  30.378  1.00  0.00    -0.354 N 
ATOM     52  N   UNL A   1      44.283  26.147  29.159  1.00  0.00    -0.248 NA
ATOM     53  C   UNL A   1      44.912  24.046  28.352  1.00  0.00     0.031 C 
ATOM     54  C   UNL A   1      47.047  29.024  31.099  1.00  0.00     0.029 A 
ATOM     55  C   UNL A   1      46.214  28.119  30.459  1.00  0.00     0.049 A 
ATOM     56  H   UNL A   1      44.168  28.308  29.976  1.00  0.00     0.167 HD
ATOM     57  C   UNL A   1      45.640  25.959  29.386  1.00  0.00     0.074 A 
ATOM     58  C   UNL A   1      45.967  24.635  28.899  1.00  0.00     0.031 C 
ATOM     59  C   UNL A   1      46.534  26.809  29.950  1.00  0.00     0.031 A 
BRANCH  46  60
ATOM     60  C   UNL A   1      44.145  32.295  31.512  1.00  0.00    -0.014 A 
ATOM     61  C   UNL A   1      44.564  33.343  30.677  1.00  0.00     0.009 A 
ATOM     62  C   UNL A   1      43.936  32.559  32.875  1.00  0.00     0.009 A 
ATOM     63  C   UNL A   1      44.824  34.611  31.205  1.00  0.00     0.001 A 
ATOM     64  C   UNL A   1      44.163  33.836  33.393  1.00  0.00     0.001 A 
ATOM     65  C   UNL A   1      44.620  34.856  32.562  1.00  0.00     0.000 A 
ENDBRANCH  46  60
BRANCH  47  66
ATOM     66  C   UNL A   1      42.189  23.357  27.532  1.00  0.00    -0.014 A 
ATOM     67  C   UNL A   1      42.468  23.110  26.179  1.00  0.00     0.009 A 
ATOM     68  C   UNL A   1      41.655  22.321  28.314  1.00  0.00     0.009 A 
ATOM     69  C   UNL A   1      42.206  21.857  25.620  1.00  0.00     0.001 A 
ATOM     70  C   UNL A   1      41.421  21.061  27.760  1.00  0.00     0.001 A 
ATOM     71  C   UNL A   1      41.690  20.832  26.412  1.00  0.00     0.000 A 
ENDBRANCH  47  66
BRANCH  59  72
ATOM     72  C   UNL A   1      47.954  26.330  30.074  1.00  0.00    -0.014 A 
ATOM     73  C   UNL A   1      48.872  26.499  29.025  1.00  0.00     0.009 A 
ATOM     74  C   UNL A   1      48.391  25.743  31.271  1.00  0.00     0.009 A 
ATOM     75  C   UNL A   1      50.191  26.063  29.164  1.00  0.00     0.001 A 
ATOM     76  C   UNL A   1      49.719  25.337  31.419  1.00  0.00     0.001 A 
ATOM     77  C   UNL A   1      50.615  25.489  30.362  1.00  0.00     0.000 A 
ENDBRANCH  59  72
ENDBRANCH  33  34
ENDBRANCH  25  28
ENDBRANCH  23  24
ENDBRANCH  22  23
ENDBRANCH  21  22
ENDBRANCH  20  21
ENDBRANCH   1  20
TORSDOF 17
ENDMDL
MODEL 3
REMARK VINA RESULT:      -9.9      5.619     11.646
REMARK SMILES CCC[C@H](C)C(=O)N1CC[C@H](C(=O)NCCCCCCNC(=O)c2ccc(-c3c4nc(c(-c5ccccc5)c5ccc([nH]5)c(-c5ccccc5)c5nc(c(-c6ccccc6)c6ccc3[nH]6)C=C5)C=C4)cc2)[C@@H]1C
REMARK SMILES IDX 16 1 15 2 14 3 12 4 13 5 11 7 8 8 9 9 72 10 10 11 73 12 6 13
REMARK SMILES IDX 7 14 4 15 5 16 3 17 2 18 1 19 17 20 18 21 19 22 20 23 21 24
REMARK SMILES IDX 22 25 23 27 24 28 25 29 71 30 26 31 70 32 27 33 28 34 29 35
REMARK SMILES IDX 64 36 30 37 69 38 63 39 65 40 31 41 68 42 62 43 61 44 32 46
REMARK SMILES IDX 54 47 39 48 53 49 40 50 43 51 52 52 66 53 41 54 42 55 51 57
REMARK SMILES IDX 67 58 44 59 33 60 34 61 38 62 35 63 37 64 36 65 55 66 56 67
REMARK SMILES IDX 60 68 57 69 59 70 58 71 45 72 46 73 50 74 47 75 49 76 48 77
REMARK H PARENT 14 6 21 26 65 45 43 56
REMARK Flexibility Score: inf
ROOT
ATOM      1  C   UNL A   1      36.631  33.458  34.476  1.00  0.00     0.021 C 
ENDROOT
BRANCH   1   2
ATOM      2  C   UNL A   1      37.844  34.364  34.681  1.00  0.00     0.116 C 
BRANCH   2   3
ATOM      3  N   UNL A   1      38.499  34.105  35.949  1.00  0.00    -0.356 N 
ATOM      4  C   UNL A   1      39.516  33.267  36.281  1.00  0.00     0.225 C 
ATOM      5  O   UNL A   1      39.915  33.292  37.446  1.00  0.00    -0.275 OA
ATOM      6  H   UNL A   1      38.143  34.630  36.703  1.00  0.00     0.163 HD
BRANCH   4   7
ATOM      7  C   UNL A   1      40.136  32.351  35.238  1.00  0.00     0.102 C 
ATOM      8  N   UNL A   1      40.739  30.065  35.591  1.00  0.00    -0.339 N 
ATOM      9  C   UNL A   1      41.731  30.873  36.271  1.00  0.00     0.120 C 
ATOM     10  C   UNL A   1      39.594  30.897  35.215  1.00  0.00     0.094 C 
ATOM     11  C   UNL A   1      41.636  32.200  35.541  1.00  0.00     0.037 C 
ATOM     12  C   UNL A   1      38.391  30.650  36.127  1.00  0.00     0.032 C 
BRANCH   8  13
ATOM     13  C   UNL A   1      40.982  28.725  35.407  1.00  0.00     0.225 C 
ATOM     14  O   UNL A   1      41.038  27.965  36.380  1.00  0.00    -0.275 OA
BRANCH  13  15
ATOM     15  C   UNL A   1      41.402  28.183  34.033  1.00  0.00     0.075 C 
ATOM     16  C   UNL A   1      40.500  28.520  32.859  1.00  0.00     0.018 C 
BRANCH  15  17
ATOM     17  C   UNL A   1      42.934  28.310  33.855  1.00  0.00     0.013 C 
BRANCH  17  18
ATOM     18  C   UNL A   1      43.857  27.129  34.168  1.00  0.00    -0.003 C 
ATOM     19  C   UNL A   1      44.006  26.108  33.053  1.00  0.00     0.004 C 
ENDBRANCH  17  18
ENDBRANCH  15  17
ENDBRANCH  13  15
ENDBRANCH   8  13
ENDBRANCH   4   7
ENDBRANCH   2   3
ENDBRANCH   1   2
BRANCH   1  20
ATOM     20  C   UNL A   1      35.294  34.198  34.333  1.00  0.00     0.002 C 
BRANCH  20  21
ATOM     21  C   UNL A   1      35.151  35.067  33.079  1.00  0.00     0.002 C 
BRANCH  21  22
ATOM     22  C   UNL A   1      33.749  35.106  32.468  1.00  0.00     0.021 C 
BRANCH  22  23
ATOM     23  C   UNL A   1      33.599  36.039  31.271  1.00  0.00     0.116 C 
BRANCH  23  24
ATOM     24  N   UNL A   1      32.823  35.441  30.196  1.00  0.00    -0.352 N 
ATOM     25  C   UNL A   1      33.194  34.501  29.267  1.00  0.00     0.251 C 
ATOM     26  H   UNL A   1      31.893  35.758  30.124  1.00  0.00     0.163 HD
ATOM     27  O   UNL A   1      32.459  34.247  28.316  1.00  0.00    -0.269 OA
BRANCH  25  28
ATOM     28  C   UNL A   1      34.496  33.814  29.392  1.00  0.00     0.039 A 
ATOM     29  C   UNL A   1      35.567  34.244  28.606  1.00  0.00     0.014 A 
ATOM     30  C   UNL A   1      34.662  32.754  30.288  1.00  0.00     0.014 A 
ATOM     31  C   UNL A   1      36.827  33.665  28.775  1.00  0.00     0.010 A 
ATOM     32  C   UNL A   1      35.931  32.229  30.509  1.00  0.00     0.010 A 
ATOM     33  C   UNL A   1      37.028  32.685  29.761  1.00  0.00    -0.014 A 
BRANCH  33  34
ATOM     34  C   UNL A   1      38.382  32.150  30.052  1.00  0.00     0.031 A 
ATOM     35  C   UNL A   1      39.372  32.962  30.836  1.00  0.00     0.074 A 
ATOM     36  C   UNL A   1      38.746  30.959  29.538  1.00  0.00     0.049 A 
ATOM     37  N   UNL A   1      40.618  32.686  31.130  1.00  0.00    -0.248 NA
ATOM     38  C   UNL A   1      38.907  34.265  31.338  1.00  0.00     0.031 C 
ATOM     39  C   UNL A   1      37.888  30.084  28.737  1.00  0.00     0.029 A 
ATOM     40  N   UNL A   1      39.938  30.282  29.609  1.00  0.00    -0.354 N 
ATOM     41  C   UNL A   1      41.091  33.787  31.834  1.00  0.00     0.074 A 
ATOM     42  C   UNL A   1      40.014  34.753  31.879  1.00  0.00     0.031 C 
ATOM     43  C   UNL A   1      38.569  28.971  28.420  1.00  0.00     0.029 A 
ATOM     44  C   UNL A   1      39.926  29.077  28.949  1.00  0.00     0.049 A 
ATOM     45  H   UNL A   1      40.726  30.626  30.088  1.00  0.00     0.167 HD
ATOM     46  C   UNL A   1      42.307  33.972  32.402  1.00  0.00     0.031 A 
ATOM     47  C   UNL A   1      40.899  28.164  28.776  1.00  0.00     0.031 A 
ATOM     48  C   UNL A   1      43.380  33.013  32.347  1.00  0.00     0.049 A 
ATOM     49  C   UNL A   1      42.257  28.417  29.365  1.00  0.00     0.074 A 
ATOM     50  C   UNL A   1      44.627  33.079  32.943  1.00  0.00     0.029 A 
ATOM     51  N   UNL A   1      43.339  31.822  31.638  1.00  0.00    -0.354 N 
ATOM     52  N   UNL A   1      42.667  29.427  30.094  1.00  0.00    -0.248 NA
ATOM     53  C   UNL A   1      43.289  27.403  29.105  1.00  0.00     0.031 C 
ATOM     54  C   UNL A   1      45.367  31.964  32.535  1.00  0.00     0.029 A 
ATOM     55  C   UNL A   1      44.556  31.168  31.740  1.00  0.00     0.049 A 
ATOM     56  H   UNL A   1      42.560  31.489  31.137  1.00  0.00     0.167 HD
ATOM     57  C   UNL A   1      43.997  29.162  30.395  1.00  0.00     0.074 A 
ATOM     58  C   UNL A   1      44.318  27.888  29.787  1.00  0.00     0.031 C 
ATOM     59  C   UNL A   1      44.872  29.910  31.112  1.00  0.00     0.031 A 
BRANCH  46  60
ATOM     60  C   UNL A   1      42.546  35.282  33.104  1.00  0.00    -0.014 A 
ATOM     61  C   UNL A   1      43.310  36.303  32.515  1.00  0.00     0.009 A 
ATOM     62  C   UNL A   1      41.989  35.502  34.374  1.00  0.00     0.009 A 
ATOM     63  C   UNL A   1      43.558  37.492  33.206  1.00  0.00     0.001 A 
ATOM     64  C   UNL A   1      42.210  36.704  35.047  1.00  0.00     0.001 A 
ATOM     65  C   UNL A   1      43.006  37.692  34.470  1.00  0.00     0.000 A 
ENDBRANCH  46  60
BRANCH  47  66
ATOM     66  C   UNL A   1      40.616  26.916  28.020  1.00  0.00    -0.014 A 
ATOM     67  C   UNL A   1      40.885  26.847  26.645  1.00  0.00     0.009 A 
ATOM     68  C   UNL A   1      40.095  25.785  28.667  1.00  0.00     0.009 A 
ATOM     69  C   UNL A   1      40.626  25.674  25.931  1.00  0.00     0.001 A 
ATOM     70  C   UNL A   1      39.864  24.605  27.958  1.00  0.00     0.001 A 
ATOM     71  C   UNL A   1      40.124  24.552  26.589  1.00  0.00     0.000 A 
ENDBRANCH  47  66
BRANCH  59  72
ATOM     72  C   UNL A   1      46.263  29.364  31.282  1.00  0.00    -0.014 A 
ATOM     73  C   UNL A   1      46.592  28.540  32.370  1.00  0.00     0.009 A 
ATOM     74  C   UNL A   1      47.245  29.640  30.319  1.00  0.00     0.009 A 
ATOM     75  C   UNL A   1      47.885  28.028  32.503  1.00  0.00     0.001 A 
ATOM     76  C   UNL A   1      48.527  29.101  30.437  1.00  0.00     0.001 A 
ATOM     77  C   UNL A   1      48.849  28.303  31.534  1.00  0.00     0.000 A 
ENDBRANCH  59  72
ENDBRANCH  33  34
ENDBRANCH  25  28
ENDBRANCH  23  24
ENDBRANCH  22  23
ENDBRANCH  21  22
ENDBRANCH  20  21
ENDBRANCH   1  20
TORSDOF 17
ENDMDL
