MODEL 1
REMARK VINA RESULT:     -12.7      0.000      0.000
REMARK SMILES O=C(NCCCCCCNC(=O)c1ccc(-c2c3nc(c(-c4ccccc4)c4ccc([nH]4)c(-c4ccccc4)c4nc(c(-c5ccccc5)c5ccc2[nH]5)C=C4)C=C3)cc1)C1=Cc2cc(Cl)cc(-c3ccc(CO)cc3)c2O[C@@H]1C(F)(F)F
REMARK SMILES IDX 6 1 5 2 4 3 3 4 1 5 2 6 61 8 62 9 79 10 63 11 78 12 64 13
REMARK SMILES IDX 77 14 65 15 68 16 66 17 67 18 80 19 81 20 82 21 83 22 69 23
REMARK SMILES IDX 70 24 76 25 71 26 75 27 72 28 73 29 74 30 7 32 8 33 9 34
REMARK SMILES IDX 10 35 11 36 12 38 13 39 14 40 60 41 15 42 59 43 16 44 17 45
REMARK SMILES IDX 18 46 53 47 19 48 58 49 52 50 54 51 20 52 57 53 51 54 50 55
REMARK SMILES IDX 21 57 43 58 28 59 42 60 29 61 32 62 41 63 55 64 30 65 31 66
REMARK SMILES IDX 40 68 56 69 33 70 22 71 23 72 27 73 24 74 26 75 25 76 44 77
REMARK SMILES IDX 45 78 49 79 46 80 48 81 47 82 34 83 35 84 39 85 36 86 38 87
REMARK SMILES IDX 37 88
REMARK H PARENT 3 7 74 31 10 37 54 56 32 67
REMARK Flexibility Score: inf
ROOT
ATOM      1  C   UNL A   1      31.674  27.252  24.710  1.00  0.00     0.002 C 
ENDROOT
BRANCH   1   2
ATOM      2  C   UNL A   1      30.940  26.789  25.974  1.00  0.00     0.021 C 
BRANCH   2   3
ATOM      3  C   UNL A   1      30.256  25.418  25.922  1.00  0.00     0.116 C 
BRANCH   3   4
ATOM      4  N   UNL A   1      30.763  24.445  26.886  1.00  0.00    -0.352 N 
ATOM      5  O   UNL A   1      32.177  22.908  27.747  1.00  0.00    -0.270 OA
ATOM      6  C   UNL A   1      31.775  23.516  26.760  1.00  0.00     0.251 C 
ATOM      7  H   UNL A   1      30.314  24.452  27.762  1.00  0.00     0.163 HD
BRANCH   6   8
ATOM      8  C   UNL A   1      32.512  23.422  25.473  1.00  0.00     0.067 C 
ATOM      9  C   UNL A   1      33.746  23.892  25.227  1.00  0.00     0.025 C 
ATOM     10  C   UNL A   1      31.945  22.464  24.470  1.00  0.00     0.314 C 
ATOM     11  C   UNL A   1      34.658  22.759  24.904  1.00  0.00     0.019 A 
ATOM     12  O   UNL A   1      32.766  21.277  24.420  1.00  0.00    -0.475 OA
ATOM     13  C   UNL A   1      36.021  22.879  25.220  1.00  0.00     0.032 A 
ATOM     14  C   UNL A   1      34.115  21.472  24.647  1.00  0.00     0.135 A 
ATOM     15  C   UNL A   1      36.816  21.737  25.300  1.00  0.00     0.042 A 
ATOM     16  C   UNL A   1      34.903  20.314  24.784  1.00  0.00     0.026 A 
ATOM     17  Cl  UNL A   1      38.451  21.867  25.827  1.00  0.00    -0.084 Cl
ATOM     18  C   UNL A   1      36.269  20.472  25.087  1.00  0.00     0.033 A 
BRANCH  10  19
ATOM     19  C   UNL A   1      31.783  23.133  23.082  1.00  0.00     0.429 C 
ATOM     20  F   UNL A   1      30.477  23.314  22.770  1.00  0.00    -0.167 F 
ATOM     21  F   UNL A   1      32.368  24.356  23.044  1.00  0.00    -0.167 F 
ATOM     22  F   UNL A   1      32.328  22.408  22.075  1.00  0.00    -0.167 F 
ENDBRANCH  10  19
BRANCH  16  23
ATOM     23  C   UNL A   1      34.315  18.963  24.875  1.00  0.00    -0.015 A 
ATOM     24  C   UNL A   1      33.116  18.808  25.588  1.00  0.00     0.009 A 
ATOM     25  C   UNL A   1      34.879  17.824  24.298  1.00  0.00     0.009 A 
ATOM     26  C   UNL A   1      32.516  17.567  25.775  1.00  0.00     0.007 A 
ATOM     27  C   UNL A   1      34.281  16.565  24.481  1.00  0.00     0.007 A 
ATOM     28  C   UNL A   1      33.108  16.424  25.238  1.00  0.00    -0.023 A 
BRANCH  28  29
ATOM     29  C   UNL A   1      32.470  15.082  25.478  1.00  0.00     0.191 C 
BRANCH  29  30
ATOM     30  O   UNL A   1      33.449  14.048  25.452  1.00  0.00    -0.392 OA
ATOM     31  H   UNL A   1      33.371  13.509  26.256  1.00  0.00     0.211 HD
ENDBRANCH  29  30
ENDBRANCH  28  29
ENDBRANCH  16  23
ENDBRANCH   6   8
ENDBRANCH   3   4
ENDBRANCH   2   3
ENDBRANCH   1   2
BRANCH   1  32
ATOM     32  C   UNL A   1      33.185  27.486  24.826  1.00  0.00     0.002 C 
BRANCH  32  33
ATOM     33  C   UNL A   1      33.628  28.777  25.520  1.00  0.00     0.021 C 
BRANCH  33  34
ATOM     34  C   UNL A   1      33.713  28.731  27.038  1.00  0.00     0.116 C 
BRANCH  34  35
ATOM     35  N   UNL A   1      33.711  30.062  27.618  1.00  0.00    -0.352 N 
ATOM     36  C   UNL A   1      34.645  30.715  28.388  1.00  0.00     0.251 C 
ATOM     37  H   UNL A   1      32.901  30.589  27.430  1.00  0.00     0.163 HD
ATOM     38  O   UNL A   1      34.325  31.751  28.959  1.00  0.00    -0.269 OA
BRANCH  36  39
ATOM     39  C   UNL A   1      36.029  30.196  28.543  1.00  0.00     0.039 A 
ATOM     40  C   UNL A   1      36.410  29.668  29.784  1.00  0.00     0.014 A 
ATOM     41  C   UNL A   1      36.977  30.294  27.523  1.00  0.00     0.014 A 
ATOM     42  C   UNL A   1      37.718  29.215  29.985  1.00  0.00     0.010 A 
ATOM     43  C   UNL A   1      38.252  29.759  27.694  1.00  0.00     0.010 A 
ATOM     44  C   UNL A   1      38.646  29.238  28.933  1.00  0.00    -0.014 A 
BRANCH  44  45
ATOM     45  C   UNL A   1      40.043  28.768  29.119  1.00  0.00     0.031 A 
ATOM     46  C   UNL A   1      41.085  29.700  29.680  1.00  0.00     0.074 A 
ATOM     47  C   UNL A   1      40.393  27.526  28.730  1.00  0.00     0.049 A 
ATOM     48  N   UNL A   1      42.370  29.504  29.842  1.00  0.00    -0.248 NA
ATOM     49  C   UNL A   1      40.629  31.040  30.082  1.00  0.00     0.031 C 
ATOM     50  C   UNL A   1      39.490  26.536  28.139  1.00  0.00     0.029 A 
ATOM     51  N   UNL A   1      41.607  26.889  28.765  1.00  0.00    -0.354 N 
ATOM     52  C   UNL A   1      42.875  30.701  30.336  1.00  0.00     0.074 A 
ATOM     53  C   UNL A   1      41.770  31.633  30.399  1.00  0.00     0.031 C 
ATOM     54  C   UNL A   1      40.175  25.408  27.894  1.00  0.00     0.029 A 
ATOM     55  C   UNL A   1      41.571  25.608  28.269  1.00  0.00     0.049 A 
ATOM     56  H   UNL A   1      42.426  27.309  29.113  1.00  0.00     0.167 HD
ATOM     57  C   UNL A   1      44.139  30.997  30.722  1.00  0.00     0.031 A 
ATOM     58  C   UNL A   1      42.552  24.698  28.128  1.00  0.00     0.031 A 
ATOM     59  C   UNL A   1      45.235  30.066  30.681  1.00  0.00     0.049 A 
ATOM     60  C   UNL A   1      43.947  25.045  28.565  1.00  0.00     0.074 A 
ATOM     61  C   UNL A   1      46.539  30.247  31.107  1.00  0.00     0.029 A 
ATOM     62  N   UNL A   1      45.150  28.774  30.187  1.00  0.00    -0.354 N 
ATOM     63  N   UNL A   1      44.395  26.163  29.085  1.00  0.00    -0.248 NA
ATOM     64  C   UNL A   1      44.969  24.002  28.407  1.00  0.00     0.031 C 
ATOM     65  C   UNL A   1      47.256  29.078  30.827  1.00  0.00     0.029 A 
ATOM     66  C   UNL A   1      46.384  28.152  30.277  1.00  0.00     0.049 A 
ATOM     67  H   UNL A   1      44.334  28.358  29.824  1.00  0.00     0.167 HD
ATOM     68  C   UNL A   1      45.743  25.949  29.338  1.00  0.00     0.074 A 
ATOM     69  C   UNL A   1      46.036  24.589  28.929  1.00  0.00     0.031 C 
ATOM     70  C   UNL A   1      46.658  26.800  29.861  1.00  0.00     0.031 A 
BRANCH  57  71
ATOM     71  C   UNL A   1      44.403  32.395  31.215  1.00  0.00    -0.014 A 
ATOM     72  C   UNL A   1      44.273  32.725  32.573  1.00  0.00     0.009 A 
ATOM     73  C   UNL A   1      44.804  33.390  30.310  1.00  0.00     0.009 A 
ATOM     74  C   UNL A   1      44.496  34.033  33.009  1.00  0.00     0.001 A 
ATOM     75  C   UNL A   1      45.057  34.690  30.754  1.00  0.00     0.001 A 
ATOM     76  C   UNL A   1      44.891  35.014  32.099  1.00  0.00     0.000 A 
ENDBRANCH  57  71
BRANCH  58  77
ATOM     77  C   UNL A   1      42.243  23.358  27.563  1.00  0.00    -0.014 A 
ATOM     78  C   UNL A   1      42.532  23.071  26.220  1.00  0.00     0.009 A 
ATOM     79  C   UNL A   1      41.670  22.358  28.363  1.00  0.00     0.009 A 
ATOM     80  C   UNL A   1      42.234  21.815  25.686  1.00  0.00     0.001 A 
ATOM     81  C   UNL A   1      41.399  21.095  27.833  1.00  0.00     0.001 A 
ATOM     82  C   UNL A   1      41.673  20.827  26.493  1.00  0.00     0.000 A 
ENDBRANCH  58  77
BRANCH  70  83
ATOM     83  C   UNL A   1      48.053  26.277  30.052  1.00  0.00    -0.014 A 
ATOM     84  C   UNL A   1      48.990  26.307  29.008  1.00  0.00     0.009 A 
ATOM     85  C   UNL A   1      48.445  25.786  31.306  1.00  0.00     0.009 A 
ATOM     86  C   UNL A   1      50.285  25.823  29.210  1.00  0.00     0.001 A 
ATOM     87  C   UNL A   1      49.747  25.330  31.513  1.00  0.00     0.001 A 
ATOM     88  C   UNL A   1      50.663  25.340  30.462  1.00  0.00     0.000 A 
ENDBRANCH  70  83
ENDBRANCH  44  45
ENDBRANCH  36  39
ENDBRANCH  34  35
ENDBRANCH  33  34
ENDBRANCH  32  33
ENDBRANCH   1  32
TORSDOF 17
ENDMDL
MODEL 2
REMARK VINA RESULT:     -12.3      0.887      1.266
REMARK SMILES O=C(NCCCCCCNC(=O)c1ccc(-c2c3nc(c(-c4ccccc4)c4ccc([nH]4)c(-c4ccccc4)c4nc(c(-c5ccccc5)c5ccc2[nH]5)C=C4)C=C3)cc1)C1=Cc2cc(Cl)cc(-c3ccc(CO)cc3)c2O[C@@H]1C(F)(F)F
REMARK SMILES IDX 6 1 5 2 4 3 3 4 1 5 2 6 61 8 62 9 79 10 63 11 78 12 64 13
REMARK SMILES IDX 77 14 65 15 68 16 66 17 67 18 80 19 81 20 82 21 83 22 69 23
REMARK SMILES IDX 70 24 76 25 71 26 75 27 72 28 73 29 74 30 7 32 8 33 9 34
REMARK SMILES IDX 10 35 11 36 12 38 13 39 14 40 60 41 15 42 59 43 16 44 17 45
REMARK SMILES IDX 18 46 53 47 19 48 58 49 52 50 54 51 20 52 57 53 51 54 50 55
REMARK SMILES IDX 21 57 43 58 28 59 42 60 29 61 32 62 41 63 55 64 30 65 31 66
REMARK SMILES IDX 40 68 56 69 33 70 22 71 23 72 27 73 24 74 26 75 25 76 44 77
REMARK SMILES IDX 45 78 49 79 46 80 48 81 47 82 34 83 35 84 39 85 36 86 38 87
REMARK SMILES IDX 37 88
REMARK H PARENT 3 7 74 31 10 37 54 56 32 67
REMARK Flexibility Score: inf
ROOT
ATOM      1  C   UNL A   1      31.061  27.151  24.692  1.00  0.00     0.002 C 
ENDROOT
BRANCH   1   2
ATOM      2  C   UNL A   1      30.390  26.587  25.950  1.00  0.00     0.021 C 
BRANCH   2   3
ATOM      3  C   UNL A   1      29.992  25.106  25.925  1.00  0.00     0.116 C 
BRANCH   3   4
ATOM      4  N   UNL A   1      30.649  24.279  26.934  1.00  0.00    -0.352 N 
ATOM      5  O   UNL A   1      32.282  23.017  27.851  1.00  0.00    -0.270 OA
ATOM      6  C   UNL A   1      31.780  23.496  26.839  1.00  0.00     0.251 C 
ATOM      7  H   UNL A   1      30.218  24.281  27.819  1.00  0.00     0.163 HD
BRANCH   6   8
ATOM      8  C   UNL A   1      32.500  23.423  25.542  1.00  0.00     0.067 C 
ATOM      9  C   UNL A   1      33.728  23.903  25.285  1.00  0.00     0.025 C 
ATOM     10  C   UNL A   1      31.927  22.473  24.535  1.00  0.00     0.314 C 
ATOM     11  C   UNL A   1      34.643  22.781  24.936  1.00  0.00     0.019 A 
ATOM     12  O   UNL A   1      32.754  21.292  24.460  1.00  0.00    -0.475 OA
ATOM     13  C   UNL A   1      36.009  22.905  25.235  1.00  0.00     0.032 A 
ATOM     14  C   UNL A   1      34.104  21.493  24.670  1.00  0.00     0.135 A 
ATOM     15  C   UNL A   1      36.813  21.768  25.291  1.00  0.00     0.042 A 
ATOM     16  C   UNL A   1      34.902  20.338  24.783  1.00  0.00     0.026 A 
ATOM     17  Cl  UNL A   1      38.454  21.903  25.797  1.00  0.00    -0.084 Cl
ATOM     18  C   UNL A   1      36.271  20.503  25.070  1.00  0.00     0.033 A 
BRANCH  10  19
ATOM     19  C   UNL A   1      31.741  23.157  23.157  1.00  0.00     0.429 C 
ATOM     20  F   UNL A   1      32.424  22.505  22.186  1.00  0.00    -0.167 F 
ATOM     21  F   UNL A   1      30.439  23.173  22.778  1.00  0.00    -0.167 F 
ATOM     22  F   UNL A   1      32.168  24.443  23.139  1.00  0.00    -0.167 F 
ENDBRANCH  10  19
BRANCH  16  23
ATOM     23  C   UNL A   1      34.325  18.983  24.866  1.00  0.00    -0.015 A 
ATOM     24  C   UNL A   1      33.116  18.817  25.561  1.00  0.00     0.009 A 
ATOM     25  C   UNL A   1      34.906  17.849  24.297  1.00  0.00     0.009 A 
ATOM     26  C   UNL A   1      32.525  17.571  25.740  1.00  0.00     0.007 A 
ATOM     27  C   UNL A   1      34.316  16.585  24.471  1.00  0.00     0.007 A 
ATOM     28  C   UNL A   1      33.134  16.434  25.211  1.00  0.00    -0.023 A 
BRANCH  28  29
ATOM     29  C   UNL A   1      32.504  15.086  25.442  1.00  0.00     0.191 C 
BRANCH  29  30
ATOM     30  O   UNL A   1      33.496  14.065  25.468  1.00  0.00    -0.392 OA
ATOM     31  H   UNL A   1      33.096  13.219  25.213  1.00  0.00     0.211 HD
ENDBRANCH  29  30
ENDBRANCH  28  29
ENDBRANCH  16  23
ENDBRANCH   6   8
ENDBRANCH   3   4
ENDBRANCH   2   3
ENDBRANCH   1   2
BRANCH   1  32
ATOM     32  C   UNL A   1      32.570  27.413  24.764  1.00  0.00     0.002 C 
BRANCH  32  33
ATOM     33  C   UNL A   1      33.105  27.983  26.081  1.00  0.00     0.021 C 
BRANCH  33  34
ATOM     34  C   UNL A   1      34.269  28.956  25.971  1.00  0.00     0.116 C 
BRANCH  34  35
ATOM     35  N   UNL A   1      34.013  30.188  26.696  1.00  0.00    -0.352 N 
ATOM     36  C   UNL A   1      34.655  30.754  27.772  1.00  0.00     0.251 C 
ATOM     37  H   UNL A   1      33.247  30.708  26.360  1.00  0.00     0.163 HD
ATOM     38  O   UNL A   1      34.118  31.685  28.362  1.00  0.00    -0.269 OA
BRANCH  36  39
ATOM     39  C   UNL A   1      35.980  30.268  28.235  1.00  0.00     0.039 A 
ATOM     40  C   UNL A   1      37.097  30.488  27.417  1.00  0.00     0.014 A 
ATOM     41  C   UNL A   1      36.130  29.531  29.412  1.00  0.00     0.014 A 
ATOM     42  C   UNL A   1      38.353  30.001  27.794  1.00  0.00     0.010 A 
ATOM     43  C   UNL A   1      37.396  29.128  29.832  1.00  0.00     0.010 A 
ATOM     44  C   UNL A   1      38.517  29.334  29.017  1.00  0.00    -0.014 A 
BRANCH  44  45
ATOM     45  C   UNL A   1      39.839  28.803  29.442  1.00  0.00     0.031 A 
ATOM     46  C   UNL A   1      40.734  29.629  30.329  1.00  0.00     0.074 A 
ATOM     47  C   UNL A   1      40.262  27.609  28.985  1.00  0.00     0.049 A 
ATOM     48  N   UNL A   1      41.951  29.376  30.741  1.00  0.00    -0.248 NA
ATOM     49  C   UNL A   1      40.203  30.922  30.787  1.00  0.00     0.031 C 
ATOM     50  C   UNL A   1      39.509  26.726  28.092  1.00  0.00     0.029 A 
ATOM     51  N   UNL A   1      41.438  26.936  29.204  1.00  0.00    -0.354 N 
ATOM     52  C   UNL A   1      42.338  30.489  31.480  1.00  0.00     0.074 A 
ATOM     53  C   UNL A   1      41.248  31.438  31.418  1.00  0.00     0.031 C 
ATOM     54  C   UNL A   1      40.229  25.617  27.862  1.00  0.00     0.029 A 
ATOM     55  C   UNL A   1      41.509  25.727  28.555  1.00  0.00     0.049 A 
ATOM     56  H   UNL A   1      42.162  27.286  29.772  1.00  0.00     0.167 HD
ATOM     57  C   UNL A   1      43.487  30.697  32.166  1.00  0.00     0.031 A 
ATOM     58  C   UNL A   1      42.496  24.812  28.517  1.00  0.00     0.031 A 
ATOM     59  C   UNL A   1      44.562  29.746  32.248  1.00  0.00     0.049 A 
ATOM     60  C   UNL A   1      43.761  25.062  29.287  1.00  0.00     0.074 A 
ATOM     61  C   UNL A   1      45.741  29.835  32.967  1.00  0.00     0.029 A 
ATOM     62  N   UNL A   1      44.586  28.527  31.589  1.00  0.00    -0.354 N 
ATOM     63  N   UNL A   1      44.086  26.094  30.029  1.00  0.00    -0.248 NA
ATOM     64  C   UNL A   1      44.791  24.016  29.226  1.00  0.00     0.031 C 
ATOM     65  C   UNL A   1      46.500  28.688  32.705  1.00  0.00     0.029 A 
ATOM     66  C   UNL A   1      45.769  27.863  31.866  1.00  0.00     0.049 A 
ATOM     67  H   UNL A   1      43.868  28.183  31.008  1.00  0.00     0.167 HD
ATOM     68  C   UNL A   1      45.345  25.811  30.541  1.00  0.00     0.074 A 
ATOM     69  C   UNL A   1      45.717  24.504  30.038  1.00  0.00     0.031 C 
ATOM     70  C   UNL A   1      46.124  26.564  31.354  1.00  0.00     0.031 A 
BRANCH  57  71
ATOM     71  C   UNL A   1      43.638  32.016  32.876  1.00  0.00    -0.014 A 
ATOM     72  C   UNL A   1      43.184  32.190  34.194  1.00  0.00     0.009 A 
ATOM     73  C   UNL A   1      44.261  33.092  32.225  1.00  0.00     0.009 A 
ATOM     74  C   UNL A   1      43.309  33.429  34.828  1.00  0.00     0.001 A 
ATOM     75  C   UNL A   1      44.413  34.320  32.873  1.00  0.00     0.001 A 
ATOM     76  C   UNL A   1      43.927  34.491  34.168  1.00  0.00     0.000 A 
ENDBRANCH  57  71
BRANCH  58  77
ATOM     77  C   UNL A   1      42.315  23.562  27.735  1.00  0.00    -0.014 A 
ATOM     78  C   UNL A   1      42.595  23.539  26.359  1.00  0.00     0.009 A 
ATOM     79  C   UNL A   1      41.876  22.384  28.357  1.00  0.00     0.009 A 
ATOM     80  C   UNL A   1      42.417  22.367  25.621  1.00  0.00     0.001 A 
ATOM     81  C   UNL A   1      41.726  21.207  27.622  1.00  0.00     0.001 A 
ATOM     82  C   UNL A   1      41.989  21.201  26.253  1.00  0.00     0.000 A 
ENDBRANCH  58  77
BRANCH  70  83
ATOM     83  C   UNL A   1      47.442  25.980  31.776  1.00  0.00    -0.014 A 
ATOM     84  C   UNL A   1      48.597  26.155  31.000  1.00  0.00     0.009 A 
ATOM     85  C   UNL A   1      47.534  25.281  32.989  1.00  0.00     0.009 A 
ATOM     86  C   UNL A   1      49.815  25.611  31.416  1.00  0.00     0.001 A 
ATOM     87  C   UNL A   1      48.758  24.764  33.416  1.00  0.00     0.001 A 
ATOM     88  C   UNL A   1      49.895  24.921  32.625  1.00  0.00     0.000 A 
ENDBRANCH  70  83
ENDBRANCH  44  45
ENDBRANCH  36  39
ENDBRANCH  34  35
ENDBRANCH  33  34
ENDBRANCH  32  33
ENDBRANCH   1  32
TORSDOF 17
ENDMDL
MODEL 3
REMARK VINA RESULT:     -11.8      1.874      5.742
REMARK SMILES O=C(NCCCCCCNC(=O)c1ccc(-c2c3nc(c(-c4ccccc4)c4ccc([nH]4)c(-c4ccccc4)c4nc(c(-c5ccccc5)c5ccc2[nH]5)C=C4)C=C3)cc1)C1=Cc2cc(Cl)cc(-c3ccc(CO)cc3)c2O[C@@H]1C(F)(F)F
REMARK SMILES IDX 6 1 5 2 4 3 3 4 1 5 2 6 61 8 62 9 79 10 63 11 78 12 64 13
REMARK SMILES IDX 77 14 65 15 68 16 66 17 67 18 80 19 81 20 82 21 83 22 69 23
REMARK SMILES IDX 70 24 76 25 71 26 75 27 72 28 73 29 74 30 7 32 8 33 9 34
REMARK SMILES IDX 10 35 11 36 12 38 13 39 14 40 60 41 15 42 59 43 16 44 17 45
REMARK SMILES IDX 18 46 53 47 19 48 58 49 52 50 54 51 20 52 57 53 51 54 50 55
REMARK SMILES IDX 21 57 43 58 28 59 42 60 29 61 32 62 41 63 55 64 30 65 31 66
REMARK SMILES IDX 40 68 56 69 33 70 22 71 23 72 27 73 24 74 26 75 25 76 44 77
REMARK SMILES IDX 45 78 49 79 46 80 48 81 47 82 34 83 35 84 39 85 36 86 38 87
REMARK SMILES IDX 37 88
REMARK H PARENT 3 7 74 31 10 37 54 56 32 67
REMARK Flexibility Score: inf
ROOT
ATOM      1  C   UNL A   1      31.698  26.959  24.501  1.00  0.00     0.002 C 
ENDROOT
BRANCH   1   2
ATOM      2  C   UNL A   1      30.927  26.679  25.797  1.00  0.00     0.021 C 
BRANCH   2   3
ATOM      3  C   UNL A   1      30.208  25.329  25.904  1.00  0.00     0.116 C 
BRANCH   3   4
ATOM      4  N   UNL A   1      30.773  24.411  26.888  1.00  0.00    -0.352 N 
ATOM      5  O   UNL A   1      32.268  22.968  27.772  1.00  0.00    -0.270 OA
ATOM      6  C   UNL A   1      31.823  23.525  26.774  1.00  0.00     0.251 C 
ATOM      7  H   UNL A   1      30.337  24.427  27.771  1.00  0.00     0.163 HD
BRANCH   6   8
ATOM      8  C   UNL A   1      32.544  23.424  25.478  1.00  0.00     0.067 C 
ATOM      9  C   UNL A   1      33.777  23.885  25.216  1.00  0.00     0.025 C 
ATOM     10  C   UNL A   1      31.959  22.466  24.486  1.00  0.00     0.314 C 
ATOM     11  C   UNL A   1      34.679  22.746  24.885  1.00  0.00     0.019 A 
ATOM     12  O   UNL A   1      32.772  21.274  24.429  1.00  0.00    -0.475 OA
ATOM     13  C   UNL A   1      36.046  22.858  25.183  1.00  0.00     0.032 A 
ATOM     14  C   UNL A   1      34.125  21.462  24.637  1.00  0.00     0.135 A 
ATOM     15  C   UNL A   1      36.836  21.712  25.257  1.00  0.00     0.042 A 
ATOM     16  C   UNL A   1      34.908  20.299  24.769  1.00  0.00     0.026 A 
ATOM     17  Cl  UNL A   1      38.478  21.833  25.763  1.00  0.00    -0.084 Cl
ATOM     18  C   UNL A   1      36.279  20.450  25.054  1.00  0.00     0.033 A 
BRANCH  10  19
ATOM     19  C   UNL A   1      31.783  23.132  23.097  1.00  0.00     0.429 C 
ATOM     20  F   UNL A   1      32.637  24.171  22.936  1.00  0.00    -0.167 F 
ATOM     21  F   UNL A   1      32.032  22.260  22.089  1.00  0.00    -0.167 F 
ATOM     22  F   UNL A   1      30.535  23.617  22.894  1.00  0.00    -0.167 F 
ENDBRANCH  10  19
BRANCH  16  23
ATOM     23  C   UNL A   1      34.313  18.952  24.871  1.00  0.00    -0.015 A 
ATOM     24  C   UNL A   1      33.122  18.805  25.599  1.00  0.00     0.009 A 
ATOM     25  C   UNL A   1      34.862  17.809  24.289  1.00  0.00     0.009 A 
ATOM     26  C   UNL A   1      32.518  17.568  25.797  1.00  0.00     0.007 A 
ATOM     27  C   UNL A   1      34.259  16.554  24.482  1.00  0.00     0.007 A 
ATOM     28  C   UNL A   1      33.096  16.421  25.255  1.00  0.00    -0.023 A 
BRANCH  28  29
ATOM     29  C   UNL A   1      32.453  15.083  25.506  1.00  0.00     0.191 C 
BRANCH  29  30
ATOM     30  O   UNL A   1      33.420  14.041  25.440  1.00  0.00    -0.392 OA
ATOM     31  H   UNL A   1      33.028  13.215  25.765  1.00  0.00     0.211 HD
ENDBRANCH  29  30
ENDBRANCH  28  29
ENDBRANCH  16  23
ENDBRANCH   6   8
ENDBRANCH   3   4
ENDBRANCH   2   3
ENDBRANCH   1   2
BRANCH   1  32
ATOM     32  C   UNL A   1      33.062  27.646  24.635  1.00  0.00     0.002 C 
BRANCH  32  33
ATOM     33  C   UNL A   1      33.063  29.059  25.226  1.00  0.00     0.021 C 
BRANCH  33  34
ATOM     34  C   UNL A   1      33.919  29.271  26.465  1.00  0.00     0.116 C 
BRANCH  34  35
ATOM     35  N   UNL A   1      33.796  30.623  26.981  1.00  0.00    -0.352 N 
ATOM     36  C   UNL A   1      34.531  31.301  27.925  1.00  0.00     0.251 C 
ATOM     37  H   UNL A   1      33.060  31.145  26.587  1.00  0.00     0.163 HD
ATOM     38  O   UNL A   1      34.097  32.360  28.367  1.00  0.00    -0.269 OA
BRANCH  36  39
ATOM     39  C   UNL A   1      35.832  30.784  28.422  1.00  0.00     0.039 A 
ATOM     40  C   UNL A   1      35.825  29.726  29.340  1.00  0.00     0.014 A 
ATOM     41  C   UNL A   1      37.047  31.371  28.066  1.00  0.00     0.014 A 
ATOM     42  C   UNL A   1      37.026  29.244  29.869  1.00  0.00     0.010 A 
ATOM     43  C   UNL A   1      38.249  30.831  28.521  1.00  0.00     0.010 A 
ATOM     44  C   UNL A   1      38.252  29.780  29.448  1.00  0.00    -0.014 A 
BRANCH  44  45
ATOM     45  C   UNL A   1      39.544  29.290  29.995  1.00  0.00     0.031 A 
ATOM     46  C   UNL A   1      40.241  28.120  29.352  1.00  0.00     0.074 A 
ATOM     47  C   UNL A   1      40.063  29.855  31.103  1.00  0.00     0.049 A 
ATOM     48  N   UNL A   1      41.330  27.497  29.727  1.00  0.00    -0.248 NA
ATOM     49  C   UNL A   1      39.614  27.555  28.146  1.00  0.00     0.031 C 
ATOM     50  C   UNL A   1      39.470  30.971  31.843  1.00  0.00     0.029 A 
ATOM     51  N   UNL A   1      41.204  29.559  31.805  1.00  0.00    -0.354 N 
ATOM     52  C   UNL A   1      41.500  26.455  28.823  1.00  0.00     0.074 A 
ATOM     53  C   UNL A   1      40.377  26.498  27.912  1.00  0.00     0.031 C 
ATOM     54  C   UNL A   1      40.267  31.283  32.878  1.00  0.00     0.029 A 
ATOM     55  C   UNL A   1      41.401  30.365  32.900  1.00  0.00     0.049 A 
ATOM     56  H   UNL A   1      41.823  28.838  31.548  1.00  0.00     0.167 HD
ATOM     57  C   UNL A   1      42.508  25.554  28.743  1.00  0.00     0.031 A 
ATOM     58  C   UNL A   1      42.382  30.362  33.821  1.00  0.00     0.031 A 
ATOM     59  C   UNL A   1      43.637  25.523  29.633  1.00  0.00     0.049 A 
ATOM     60  C   UNL A   1      43.492  29.356  33.711  1.00  0.00     0.074 A 
ATOM     61  C   UNL A   1      44.742  24.691  29.599  1.00  0.00     0.029 A 
ATOM     62  N   UNL A   1      43.805  26.368  30.719  1.00  0.00    -0.354 N 
ATOM     63  N   UNL A   1      43.668  28.414  32.815  1.00  0.00    -0.248 NA
ATOM     64  C   UNL A   1      44.546  29.419  34.734  1.00  0.00     0.031 C 
ATOM     65  C   UNL A   1      45.557  25.002  30.693  1.00  0.00     0.029 A 
ATOM     66  C   UNL A   1      44.985  26.064  31.376  1.00  0.00     0.049 A 
ATOM     67  H   UNL A   1      43.178  27.080  30.985  1.00  0.00     0.167 HD
ATOM     68  C   UNL A   1      44.862  27.790  33.151  1.00  0.00     0.074 A 
ATOM     69  C   UNL A   1      45.375  28.471  34.323  1.00  0.00     0.031 C 
ATOM     70  C   UNL A   1      45.478  26.748  32.543  1.00  0.00     0.031 A 
BRANCH  57  71
ATOM     71  C   UNL A   1      42.425  24.519  27.652  1.00  0.00    -0.014 A 
ATOM     72  C   UNL A   1      41.783  23.288  27.863  1.00  0.00     0.009 A 
ATOM     73  C   UNL A   1      42.980  24.788  26.392  1.00  0.00     0.009 A 
ATOM     74  C   UNL A   1      41.738  22.330  26.848  1.00  0.00     0.001 A 
ATOM     75  C   UNL A   1      42.905  23.840  25.368  1.00  0.00     0.001 A 
ATOM     76  C   UNL A   1      42.296  22.608  25.600  1.00  0.00     0.000 A 
ENDBRANCH  57  71
BRANCH  58  77
ATOM     77  C   UNL A   1      42.368  31.363  34.919  1.00  0.00    -0.014 A 
ATOM     78  C   UNL A   1      41.747  31.065  36.142  1.00  0.00     0.009 A 
ATOM     79  C   UNL A   1      42.984  32.613  34.758  1.00  0.00     0.009 A 
ATOM     80  C   UNL A   1      41.725  32.008  37.172  1.00  0.00     0.001 A 
ATOM     81  C   UNL A   1      42.984  33.543  35.799  1.00  0.00     0.001 A 
ATOM     82  C   UNL A   1      42.348  33.244  37.002  1.00  0.00     0.000 A 
ENDBRANCH  58  77
BRANCH  70  83
ATOM     83  C   UNL A   1      46.793  26.300  33.116  1.00  0.00    -0.014 A 
ATOM     84  C   UNL A   1      47.994  26.931  32.763  1.00  0.00     0.009 A 
ATOM     85  C   UNL A   1      46.820  25.257  34.055  1.00  0.00     0.009 A 
ATOM     86  C   UNL A   1      49.204  26.504  33.315  1.00  0.00     0.001 A 
ATOM     87  C   UNL A   1      48.026  24.851  34.627  1.00  0.00     0.001 A 
ATOM     88  C   UNL A   1      49.218  25.468  34.250  1.00  0.00     0.000 A 
ENDBRANCH  70  83
ENDBRANCH  44  45
ENDBRANCH  36  39
ENDBRANCH  34  35
ENDBRANCH  33  34
ENDBRANCH  32  33
ENDBRANCH   1  32
TORSDOF 17
ENDMDL
