MODEL 1
REMARK VINA RESULT:     -11.1      0.000      0.000
REMARK SMILES C[C@@H](C(=O)NCCCCCCNC(=O)c1ccc(-c2c3nc(c(-c4ccccc4)c4ccc([nH]4)c(-c4ccccc4)c4nc(c(-c5ccccc5)c5ccc2[nH]5)C=C4)C=C3)cc1)c1ccc(C[C@H]2CCC[C@@H]2O)cc1Br
REMARK SMILES IDX 7 1 6 2 5 3 3 4 4 5 2 7 1 8 63 9 64 10 75 11 65 12 74 13
REMARK SMILES IDX 76 14 66 15 67 16 68 17 69 18 72 19 70 20 71 21 73 22 8 24
REMARK SMILES IDX 9 25 10 26 11 27 12 28 13 29 14 31 15 32 16 33 62 34 17 35
REMARK SMILES IDX 61 36 18 37 19 38 20 39 55 40 21 41 60 42 54 43 56 44 22 45
REMARK SMILES IDX 59 46 53 47 52 48 23 50 45 51 30 52 44 53 31 54 34 55 43 56
REMARK SMILES IDX 57 57 32 58 33 59 42 61 58 62 35 63 24 64 25 65 29 66 26 67
REMARK SMILES IDX 28 68 27 69 46 70 47 71 51 72 48 73 50 74 49 75 36 76 37 77
REMARK SMILES IDX 41 78 38 79 40 80 39 81
REMARK H PARENT 5 6 73 23 12 30 56 49 34 60
REMARK Flexibility Score: inf
ROOT
ATOM      1  C   UNL A   1      37.271  22.808  24.976  1.00  0.00     0.021 C 
ENDROOT
BRANCH   1   2
ATOM      2  C   UNL A   1      36.402  23.768  25.796  1.00  0.00     0.116 C 
BRANCH   2   3
ATOM      3  N   UNL A   1      35.697  23.035  26.830  1.00  0.00    -0.356 N 
ATOM      4  C   UNL A   1      34.355  22.970  27.081  1.00  0.00     0.227 C 
ATOM      5  O   UNL A   1      34.024  22.658  28.227  1.00  0.00    -0.274 OA
ATOM      6  H   UNL A   1      36.267  22.510  27.438  1.00  0.00     0.163 HD
BRANCH   4   7
ATOM      7  C   UNL A   1      33.337  23.233  25.943  1.00  0.00     0.106 C 
ATOM      8  C   UNL A   1      32.169  24.009  26.546  1.00  0.00     0.023 C 
BRANCH   7   9
ATOM      9  C   UNL A   1      33.013  21.959  25.132  1.00  0.00    -0.022 A 
ATOM     10  C   UNL A   1      32.988  20.744  25.865  1.00  0.00     0.006 A 
ATOM     11  C   UNL A   1      32.795  21.842  23.745  1.00  0.00     0.022 A 
ATOM     12  C   UNL A   1      32.700  19.509  25.281  1.00  0.00     0.004 A 
ATOM     13  C   UNL A   1      32.535  20.586  23.158  1.00  0.00     0.019 A 
ATOM     14  Br  UNL A   1      32.866  23.244  22.460  1.00  0.00    -0.051 Br
ATOM     15  C   UNL A   1      32.499  19.411  23.911  1.00  0.00    -0.047 A 
BRANCH  15  16
ATOM     16  C   UNL A   1      32.289  18.079  23.236  1.00  0.00     0.041 C 
BRANCH  16  17
ATOM     17  C   UNL A   1      33.195  16.935  23.721  1.00  0.00     0.022 C 
ATOM     18  C   UNL A   1      34.711  17.201  23.697  1.00  0.00     0.007 C 
ATOM     19  C   UNL A   1      32.918  16.440  25.142  1.00  0.00     0.117 C 
ATOM     20  C   UNL A   1      35.283  16.491  24.928  1.00  0.00     0.003 C 
ATOM     21  C   UNL A   1      34.157  15.619  25.458  1.00  0.00     0.032 C 
BRANCH  19  22
ATOM     22  O   UNL A   1      31.740  15.657  25.185  1.00  0.00    -0.393 OA
ATOM     23  H   UNL A   1      30.968  16.226  25.047  1.00  0.00     0.210 HD
ENDBRANCH  19  22
ENDBRANCH  16  17
ENDBRANCH  15  16
ENDBRANCH   7   9
ENDBRANCH   4   7
ENDBRANCH   2   3
ENDBRANCH   1   2
BRANCH   1  24
ATOM     24  C   UNL A   1      36.487  21.699  24.263  1.00  0.00     0.002 C 
BRANCH  24  25
ATOM     25  C   UNL A   1      36.537  20.332  24.949  1.00  0.00     0.002 C 
BRANCH  25  26
ATOM     26  C   UNL A   1      37.879  19.603  24.839  1.00  0.00     0.021 C 
BRANCH  26  27
ATOM     27  C   UNL A   1      38.948  20.067  25.826  1.00  0.00     0.116 C 
BRANCH  27  28
ATOM     28  N   UNL A   1      40.135  19.231  25.784  1.00  0.00    -0.352 N 
ATOM     29  C   UNL A   1      41.442  19.554  26.032  1.00  0.00     0.251 C 
ATOM     30  H   UNL A   1      39.975  18.290  25.541  1.00  0.00     0.163 HD
ATOM     31  O   UNL A   1      42.333  18.749  25.762  1.00  0.00    -0.269 OA
BRANCH  29  32
ATOM     32  C   UNL A   1      41.799  20.870  26.604  1.00  0.00     0.039 A 
ATOM     33  C   UNL A   1      42.217  21.882  25.737  1.00  0.00     0.014 A 
ATOM     34  C   UNL A   1      41.763  21.101  27.984  1.00  0.00     0.014 A 
ATOM     35  C   UNL A   1      42.553  23.138  26.246  1.00  0.00     0.010 A 
ATOM     36  C   UNL A   1      42.039  22.374  28.484  1.00  0.00     0.010 A 
ATOM     37  C   UNL A   1      42.442  23.403  27.621  1.00  0.00    -0.014 A 
BRANCH  37  38
ATOM     38  C   UNL A   1      42.739  24.757  28.152  1.00  0.00     0.031 A 
ATOM     39  C   UNL A   1      44.144  25.147  28.520  1.00  0.00     0.074 A 
ATOM     40  C   UNL A   1      41.731  25.634  28.322  1.00  0.00     0.049 A 
ATOM     41  N   UNL A   1      44.587  26.292  28.976  1.00  0.00    -0.248 NA
ATOM     42  C   UNL A   1      45.182  24.115  28.375  1.00  0.00     0.031 C 
ATOM     43  C   UNL A   1      40.318  25.364  28.050  1.00  0.00     0.029 A 
ATOM     44  N   UNL A   1      41.742  26.935  28.762  1.00  0.00    -0.354 N 
ATOM     45  C   UNL A   1      45.952  26.118  29.170  1.00  0.00     0.074 A 
ATOM     46  C   UNL A   1      46.255  24.744  28.835  1.00  0.00     0.031 C 
ATOM     47  C   UNL A   1      39.602  26.472  28.300  1.00  0.00     0.029 A 
ATOM     48  C   UNL A   1      40.500  27.521  28.775  1.00  0.00     0.049 A 
ATOM     49  H   UNL A   1      42.563  27.401  29.041  1.00  0.00     0.167 HD
ATOM     50  C   UNL A   1      46.875  27.026  29.569  1.00  0.00     0.031 A 
ATOM     51  C   UNL A   1      40.125  28.765  29.124  1.00  0.00     0.031 A 
ATOM     52  C   UNL A   1      46.579  28.394  29.904  1.00  0.00     0.049 A 
ATOM     53  C   UNL A   1      41.170  29.753  29.560  1.00  0.00     0.074 A 
ATOM     54  C   UNL A   1      47.454  29.397  30.289  1.00  0.00     0.029 A 
ATOM     55  N   UNL A   1      45.311  28.952  29.893  1.00  0.00    -0.354 N 
ATOM     56  N   UNL A   1      42.465  29.589  29.678  1.00  0.00    -0.248 NA
ATOM     57  C   UNL A   1      40.701  31.105  29.893  1.00  0.00     0.031 C 
ATOM     58  C   UNL A   1      46.707  30.552  30.547  1.00  0.00     0.029 A 
ATOM     59  C   UNL A   1      45.376  30.281  30.277  1.00  0.00     0.049 A 
ATOM     60  H   UNL A   1      44.486  28.474  29.649  1.00  0.00     0.167 HD
ATOM     61  C   UNL A   1      42.967  30.820  30.078  1.00  0.00     0.074 A 
ATOM     62  C   UNL A   1      41.841  31.727  30.158  1.00  0.00     0.031 C 
ATOM     63  C   UNL A   1      44.246  31.168  30.360  1.00  0.00     0.031 A 
BRANCH  50  64
ATOM     64  C   UNL A   1      48.304  26.566  29.656  1.00  0.00    -0.014 A 
ATOM     65  C   UNL A   1      48.792  25.953  30.822  1.00  0.00     0.009 A 
ATOM     66  C   UNL A   1      49.158  26.701  28.552  1.00  0.00     0.009 A 
ATOM     67  C   UNL A   1      50.116  25.513  30.890  1.00  0.00     0.001 A 
ATOM     68  C   UNL A   1      50.473  26.237  28.613  1.00  0.00     0.001 A 
ATOM     69  C   UNL A   1      50.953  25.651  29.783  1.00  0.00     0.000 A 
ENDBRANCH  50  64
BRANCH  51  70
ATOM     70  C   UNL A   1      38.693  29.156  29.063  1.00  0.00    -0.014 A 
ATOM     71  C   UNL A   1      38.144  29.674  27.881  1.00  0.00     0.009 A 
ATOM     72  C   UNL A   1      37.873  29.025  30.195  1.00  0.00     0.009 A 
ATOM     73  C   UNL A   1      36.809  30.084  27.842  1.00  0.00     0.001 A 
ATOM     74  C   UNL A   1      36.531  29.409  30.144  1.00  0.00     0.001 A 
ATOM     75  C   UNL A   1      36.004  29.948  28.972  1.00  0.00     0.000 A 
ENDBRANCH  51  70
BRANCH  63  76
ATOM     76  C   UNL A   1      44.490  32.594  30.760  1.00  0.00    -0.014 A 
ATOM     77  C   UNL A   1      44.464  32.985  32.108  1.00  0.00     0.009 A 
ATOM     78  C   UNL A   1      44.765  33.557  29.777  1.00  0.00     0.009 A 
ATOM     79  C   UNL A   1      44.669  34.321  32.459  1.00  0.00     0.001 A 
ATOM     80  C   UNL A   1      44.996  34.886  30.134  1.00  0.00     0.001 A 
ATOM     81  C   UNL A   1      44.936  35.269  31.473  1.00  0.00     0.000 A 
ENDBRANCH  63  76
ENDBRANCH  37  38
ENDBRANCH  29  32
ENDBRANCH  27  28
ENDBRANCH  26  27
ENDBRANCH  25  26
ENDBRANCH  24  25
ENDBRANCH   1  24
TORSDOF 17
ENDMDL
MODEL 2
REMARK VINA RESULT:     -10.9      0.421      5.876
REMARK SMILES C[C@@H](C(=O)NCCCCCCNC(=O)c1ccc(-c2c3nc(c(-c4ccccc4)c4ccc([nH]4)c(-c4ccccc4)c4nc(c(-c5ccccc5)c5ccc2[nH]5)C=C4)C=C3)cc1)c1ccc(C[C@H]2CCC[C@@H]2O)cc1Br
REMARK SMILES IDX 7 1 6 2 5 3 3 4 4 5 2 7 1 8 63 9 64 10 75 11 65 12 74 13
REMARK SMILES IDX 76 14 66 15 67 16 68 17 69 18 72 19 70 20 71 21 73 22 8 24
REMARK SMILES IDX 9 25 10 26 11 27 12 28 13 29 14 31 15 32 16 33 62 34 17 35
REMARK SMILES IDX 61 36 18 37 19 38 20 39 55 40 21 41 60 42 54 43 56 44 22 45
REMARK SMILES IDX 59 46 53 47 52 48 23 50 45 51 30 52 44 53 31 54 34 55 43 56
REMARK SMILES IDX 57 57 32 58 33 59 42 61 58 62 35 63 24 64 25 65 29 66 26 67
REMARK SMILES IDX 28 68 27 69 46 70 47 71 51 72 48 73 50 74 49 75 36 76 37 77
REMARK SMILES IDX 41 78 38 79 40 80 39 81
REMARK H PARENT 5 6 73 23 12 30 56 49 34 60
REMARK Flexibility Score: inf
ROOT
ATOM      1  C   UNL A   1      37.181  22.911  24.968  1.00  0.00     0.021 C 
ENDROOT
BRANCH   1   2
ATOM      2  C   UNL A   1      36.197  23.856  25.669  1.00  0.00     0.116 C 
BRANCH   2   3
ATOM      3  N   UNL A   1      35.532  23.160  26.753  1.00  0.00    -0.356 N 
ATOM      4  C   UNL A   1      34.199  23.085  27.043  1.00  0.00     0.227 C 
ATOM      5  O   UNL A   1      33.903  22.821  28.211  1.00  0.00    -0.274 OA
ATOM      6  H   UNL A   1      36.127  22.672  27.369  1.00  0.00     0.163 HD
BRANCH   4   7
ATOM      7  C   UNL A   1      33.147  23.281  25.922  1.00  0.00     0.106 C 
ATOM      8  C   UNL A   1      31.943  23.984  26.544  1.00  0.00     0.023 C 
BRANCH   7   9
ATOM      9  C   UNL A   1      32.890  21.987  25.119  1.00  0.00    -0.022 A 
ATOM     10  C   UNL A   1      32.765  20.796  25.881  1.00  0.00     0.006 A 
ATOM     11  C   UNL A   1      32.821  21.829  23.721  1.00  0.00     0.022 A 
ATOM     12  C   UNL A   1      32.519  19.548  25.307  1.00  0.00     0.004 A 
ATOM     13  C   UNL A   1      32.603  20.560  23.147  1.00  0.00     0.019 A 
ATOM     14  Br  UNL A   1      33.054  23.189  22.410  1.00  0.00    -0.051 Br
ATOM     15  C   UNL A   1      32.465  19.409  23.926  1.00  0.00    -0.047 A 
BRANCH  15  16
ATOM     16  C   UNL A   1      32.306  18.060  23.272  1.00  0.00     0.041 C 
BRANCH  16  17
ATOM     17  C   UNL A   1      33.276  16.967  23.752  1.00  0.00     0.022 C 
ATOM     18  C   UNL A   1      34.765  17.351  23.819  1.00  0.00     0.007 C 
ATOM     19  C   UNL A   1      32.970  16.384  25.133  1.00  0.00     0.117 C 
ATOM     20  C   UNL A   1      35.332  16.628  25.045  1.00  0.00     0.003 C 
ATOM     21  C   UNL A   1      34.254  15.647  25.477  1.00  0.00     0.032 C 
BRANCH  19  22
ATOM     22  O   UNL A   1      31.858  15.512  25.081  1.00  0.00    -0.393 OA
ATOM     23  H   UNL A   1      31.327  15.616  25.885  1.00  0.00     0.210 HD
ENDBRANCH  19  22
ENDBRANCH  16  17
ENDBRANCH  15  16
ENDBRANCH   7   9
ENDBRANCH   4   7
ENDBRANCH   2   3
ENDBRANCH   1   2
BRANCH   1  24
ATOM     24  C   UNL A   1      36.514  21.760  24.204  1.00  0.00     0.002 C 
BRANCH  24  25
ATOM     25  C   UNL A   1      36.585  20.399  24.900  1.00  0.00     0.002 C 
BRANCH  25  26
ATOM     26  C   UNL A   1      37.942  19.697  24.809  1.00  0.00     0.021 C 
BRANCH  26  27
ATOM     27  C   UNL A   1      38.898  19.989  25.963  1.00  0.00     0.116 C 
BRANCH  27  28
ATOM     28  N   UNL A   1      40.131  19.228  25.861  1.00  0.00    -0.352 N 
ATOM     29  C   UNL A   1      41.429  19.639  26.014  1.00  0.00     0.251 C 
ATOM     30  H   UNL A   1      40.018  18.273  25.652  1.00  0.00     0.163 HD
ATOM     31  O   UNL A   1      42.350  18.885  25.703  1.00  0.00    -0.269 OA
BRANCH  29  32
ATOM     32  C   UNL A   1      41.736  20.990  26.531  1.00  0.00     0.039 A 
ATOM     33  C   UNL A   1      41.719  21.195  27.913  1.00  0.00     0.014 A 
ATOM     34  C   UNL A   1      41.998  22.061  25.669  1.00  0.00     0.014 A 
ATOM     35  C   UNL A   1      42.012  22.457  28.433  1.00  0.00     0.010 A 
ATOM     36  C   UNL A   1      42.351  23.306  26.191  1.00  0.00     0.010 A 
ATOM     37  C   UNL A   1      42.356  23.517  27.577  1.00  0.00    -0.014 A 
BRANCH  37  38
ATOM     38  C   UNL A   1      42.728  24.841  28.135  1.00  0.00     0.031 A 
ATOM     39  C   UNL A   1      41.688  25.907  28.344  1.00  0.00     0.074 A 
ATOM     40  C   UNL A   1      44.017  25.091  28.436  1.00  0.00     0.049 A 
ATOM     41  N   UNL A   1      41.832  27.111  28.841  1.00  0.00    -0.248 NA
ATOM     42  C   UNL A   1      40.314  25.589  27.926  1.00  0.00     0.031 C 
ATOM     43  C   UNL A   1      45.130  24.161  28.236  1.00  0.00     0.029 A 
ATOM     44  N   UNL A   1      44.608  26.205  28.981  1.00  0.00    -0.354 N 
ATOM     45  C   UNL A   1      40.570  27.691  28.796  1.00  0.00     0.074 A 
ATOM     46  C   UNL A   1      39.685  26.729  28.175  1.00  0.00     0.031 C 
ATOM     47  C   UNL A   1      46.263  24.729  28.677  1.00  0.00     0.029 A 
ATOM     48  C   UNL A   1      45.963  26.071  29.166  1.00  0.00     0.049 A 
ATOM     49  H   UNL A   1      44.109  27.019  29.215  1.00  0.00     0.167 HD
ATOM     50  C   UNL A   1      40.177  28.904  29.252  1.00  0.00     0.031 A 
ATOM     51  C   UNL A   1      46.863  26.931  29.679  1.00  0.00     0.031 A 
ATOM     52  C   UNL A   1      41.053  29.864  29.869  1.00  0.00     0.049 A 
ATOM     53  C   UNL A   1      46.399  28.269  30.180  1.00  0.00     0.074 A 
ATOM     54  C   UNL A   1      40.739  31.109  30.390  1.00  0.00     0.029 A 
ATOM     55  N   UNL A   1      42.415  29.687  30.050  1.00  0.00    -0.354 N 
ATOM     56  N   UNL A   1      45.190  28.776  30.187  1.00  0.00    -0.248 NA
ATOM     57  C   UNL A   1      47.424  29.147  30.761  1.00  0.00     0.031 C 
ATOM     58  C   UNL A   1      41.921  31.699  30.853  1.00  0.00     0.029 A 
ATOM     59  C   UNL A   1      42.960  30.804  30.662  1.00  0.00     0.049 A 
ATOM     60  H   UNL A   1      42.920  28.886  29.782  1.00  0.00     0.167 HD
ATOM     61  C   UNL A   1      45.306  30.021  30.790  1.00  0.00     0.074 A 
ATOM     62  C   UNL A   1      46.698  30.182  31.158  1.00  0.00     0.031 C 
ATOM     63  C   UNL A   1      44.347  30.952  31.015  1.00  0.00     0.031 A 
BRANCH  50  64
ATOM     64  C   UNL A   1      38.723  29.259  29.105  1.00  0.00    -0.014 A 
ATOM     65  C   UNL A   1      37.826  29.076  30.171  1.00  0.00     0.009 A 
ATOM     66  C   UNL A   1      38.252  29.824  27.910  1.00  0.00     0.009 A 
ATOM     67  C   UNL A   1      36.481  29.423  30.031  1.00  0.00     0.001 A 
ATOM     68  C   UNL A   1      36.912  30.195  27.783  1.00  0.00     0.001 A 
ATOM     69  C   UNL A   1      36.027  29.987  28.839  1.00  0.00     0.000 A 
ENDBRANCH  50  64
BRANCH  51  70
ATOM     70  C   UNL A   1      48.296  26.547  29.760  1.00  0.00    -0.014 A 
ATOM     71  C   UNL A   1      49.171  26.826  28.699  1.00  0.00     0.009 A 
ATOM     72  C   UNL A   1      48.791  25.887  30.895  1.00  0.00     0.009 A 
ATOM     73  C   UNL A   1      50.507  26.422  28.759  1.00  0.00     0.001 A 
ATOM     74  C   UNL A   1      50.134  25.510  30.964  1.00  0.00     0.001 A 
ATOM     75  C   UNL A   1      50.987  25.768  29.893  1.00  0.00     0.000 A 
ENDBRANCH  51  70
BRANCH  63  76
ATOM     76  C   UNL A   1      44.773  32.213  31.708  1.00  0.00    -0.014 A 
ATOM     77  C   UNL A   1      44.729  32.324  33.107  1.00  0.00     0.009 A 
ATOM     78  C   UNL A   1      45.239  33.301  30.954  1.00  0.00     0.009 A 
ATOM     79  C   UNL A   1      45.105  33.514  33.733  1.00  0.00     0.001 A 
ATOM     80  C   UNL A   1      45.640  34.480  31.584  1.00  0.00     0.001 A 
ATOM     81  C   UNL A   1      45.562  34.588  32.972  1.00  0.00     0.000 A 
ENDBRANCH  63  76
ENDBRANCH  37  38
ENDBRANCH  29  32
ENDBRANCH  27  28
ENDBRANCH  26  27
ENDBRANCH  25  26
ENDBRANCH  24  25
ENDBRANCH   1  24
TORSDOF 17
ENDMDL
MODEL 3
REMARK VINA RESULT:     -10.4      3.353      7.936
REMARK SMILES C[C@@H](C(=O)NCCCCCCNC(=O)c1ccc(-c2c3nc(c(-c4ccccc4)c4ccc([nH]4)c(-c4ccccc4)c4nc(c(-c5ccccc5)c5ccc2[nH]5)C=C4)C=C3)cc1)c1ccc(C[C@H]2CCC[C@@H]2O)cc1Br
REMARK SMILES IDX 7 1 6 2 5 3 3 4 4 5 2 7 1 8 63 9 64 10 75 11 65 12 74 13
REMARK SMILES IDX 76 14 66 15 67 16 68 17 69 18 72 19 70 20 71 21 73 22 8 24
REMARK SMILES IDX 9 25 10 26 11 27 12 28 13 29 14 31 15 32 16 33 62 34 17 35
REMARK SMILES IDX 61 36 18 37 19 38 20 39 55 40 21 41 60 42 54 43 56 44 22 45
REMARK SMILES IDX 59 46 53 47 52 48 23 50 45 51 30 52 44 53 31 54 34 55 43 56
REMARK SMILES IDX 57 57 32 58 33 59 42 61 58 62 35 63 24 64 25 65 29 66 26 67
REMARK SMILES IDX 28 68 27 69 46 70 47 71 51 72 48 73 50 74 49 75 36 76 37 77
REMARK SMILES IDX 41 78 38 79 40 80 39 81
REMARK H PARENT 5 6 73 23 12 30 56 49 34 60
REMARK Flexibility Score: inf
ROOT
ATOM      1  C   UNL A   1      36.140  22.378  24.072  1.00  0.00     0.021 C 
ENDROOT
BRANCH   1   2
ATOM      2  C   UNL A   1      35.460  23.753  24.114  1.00  0.00     0.116 C 
BRANCH   2   3
ATOM      3  N   UNL A   1      34.359  23.788  23.172  1.00  0.00    -0.356 N 
ATOM      4  C   UNL A   1      33.068  24.194  23.366  1.00  0.00     0.227 C 
ATOM      5  O   UNL A   1      32.226  23.743  22.586  1.00  0.00    -0.274 OA
ATOM      6  H   UNL A   1      34.571  23.474  22.262  1.00  0.00     0.163 HD
BRANCH   4   7
ATOM      7  C   UNL A   1      32.732  25.207  24.489  1.00  0.00     0.106 C 
ATOM      8  C   UNL A   1      32.418  24.403  25.749  1.00  0.00     0.023 C 
BRANCH   7   9
ATOM      9  C   UNL A   1      31.707  26.271  24.040  1.00  0.00    -0.022 A 
ATOM     10  C   UNL A   1      30.349  25.995  24.344  1.00  0.00     0.006 A 
ATOM     11  C   UNL A   1      31.943  27.456  23.314  1.00  0.00     0.022 A 
ATOM     12  C   UNL A   1      29.304  26.861  24.016  1.00  0.00     0.004 A 
ATOM     13  C   UNL A   1      30.879  28.310  22.960  1.00  0.00     0.019 A 
ATOM     14  Br  UNL A   1      33.620  28.070  22.654  1.00  0.00    -0.051 Br
ATOM     15  C   UNL A   1      29.554  28.018  23.291  1.00  0.00    -0.047 A 
BRANCH  15  16
ATOM     16  C   UNL A   1      28.437  28.921  22.832  1.00  0.00     0.041 C 
BRANCH  16  17
ATOM     17  C   UNL A   1      28.866  30.306  22.320  1.00  0.00     0.022 C 
ATOM     18  C   UNL A   1      28.164  30.818  21.050  1.00  0.00     0.007 C 
ATOM     19  C   UNL A   1      28.714  31.449  23.327  1.00  0.00     0.117 C 
ATOM     20  C   UNL A   1      28.001  32.330  21.239  1.00  0.00     0.003 C 
ATOM     21  C   UNL A   1      28.845  32.685  22.452  1.00  0.00     0.032 C 
BRANCH  19  22
ATOM     22  O   UNL A   1      29.724  31.393  24.315  1.00  0.00    -0.393 OA
ATOM     23  H   UNL A   1      30.275  32.189  24.261  1.00  0.00     0.210 HD
ENDBRANCH  19  22
ENDBRANCH  16  17
ENDBRANCH  15  16
ENDBRANCH   7   9
ENDBRANCH   4   7
ENDBRANCH   2   3
ENDBRANCH   1   2
BRANCH   1  24
ATOM     24  C   UNL A   1      35.478  21.321  24.964  1.00  0.00     0.002 C 
BRANCH  24  25
ATOM     25  C   UNL A   1      36.203  19.975  25.014  1.00  0.00     0.002 C 
BRANCH  25  26
ATOM     26  C   UNL A   1      37.691  20.028  24.654  1.00  0.00     0.021 C 
BRANCH  26  27
ATOM     27  C   UNL A   1      38.632  20.265  25.833  1.00  0.00     0.116 C 
BRANCH  27  28
ATOM     28  N   UNL A   1      39.761  19.351  25.826  1.00  0.00    -0.352 N 
ATOM     29  C   UNL A   1      41.085  19.594  26.079  1.00  0.00     0.251 C 
ATOM     30  H   UNL A   1      39.542  18.416  25.608  1.00  0.00     0.163 HD
ATOM     31  O   UNL A   1      41.923  18.725  25.840  1.00  0.00    -0.269 OA
BRANCH  29  32
ATOM     32  C   UNL A   1      41.522  20.899  26.620  1.00  0.00     0.039 A 
ATOM     33  C   UNL A   1      42.201  21.778  25.772  1.00  0.00     0.014 A 
ATOM     34  C   UNL A   1      41.306  21.246  27.958  1.00  0.00     0.014 A 
ATOM     35  C   UNL A   1      42.620  23.021  26.250  1.00  0.00     0.010 A 
ATOM     36  C   UNL A   1      41.670  22.512  28.417  1.00  0.00     0.010 A 
ATOM     37  C   UNL A   1      42.335  23.409  27.569  1.00  0.00    -0.014 A 
BRANCH  37  38
ATOM     38  C   UNL A   1      42.726  24.755  28.057  1.00  0.00     0.031 A 
ATOM     39  C   UNL A   1      41.695  25.833  28.252  1.00  0.00     0.074 A 
ATOM     40  C   UNL A   1      44.025  25.015  28.305  1.00  0.00     0.049 A 
ATOM     41  N   UNL A   1      41.856  27.056  28.691  1.00  0.00    -0.248 NA
ATOM     42  C   UNL A   1      40.308  25.500  27.894  1.00  0.00     0.031 C 
ATOM     43  C   UNL A   1      45.129  24.074  28.109  1.00  0.00     0.029 A 
ATOM     44  N   UNL A   1      44.635  26.150  28.780  1.00  0.00    -0.354 N 
ATOM     45  C   UNL A   1      40.594  27.637  28.662  1.00  0.00     0.074 A 
ATOM     46  C   UNL A   1      39.688  26.651  28.112  1.00  0.00     0.031 C 
ATOM     47  C   UNL A   1      46.277  24.658  28.489  1.00  0.00     0.029 A 
ATOM     48  C   UNL A   1      45.994  26.021  28.928  1.00  0.00     0.049 A 
ATOM     49  H   UNL A   1      44.144  26.975  28.995  1.00  0.00     0.167 HD
ATOM     50  C   UNL A   1      40.217  28.870  29.077  1.00  0.00     0.031 A 
ATOM     51  C   UNL A   1      46.912  26.900  29.373  1.00  0.00     0.031 A 
ATOM     52  C   UNL A   1      41.114  29.854  29.623  1.00  0.00     0.049 A 
ATOM     53  C   UNL A   1      46.466  28.260  29.830  1.00  0.00     0.074 A 
ATOM     54  C   UNL A   1      40.819  31.121  30.099  1.00  0.00     0.029 A 
ATOM     55  N   UNL A   1      42.481  29.681  29.767  1.00  0.00    -0.354 N 
ATOM     56  N   UNL A   1      45.259  28.769  29.854  1.00  0.00    -0.248 NA
ATOM     57  C   UNL A   1      47.510  29.159  30.339  1.00  0.00     0.031 C 
ATOM     58  C   UNL A   1      42.016  31.728  30.497  1.00  0.00     0.029 A 
ATOM     59  C   UNL A   1      43.047  30.822  30.312  1.00  0.00     0.049 A 
ATOM     60  H   UNL A   1      42.977  28.868  29.518  1.00  0.00     0.167 HD
ATOM     61  C   UNL A   1      45.396  30.039  30.398  1.00  0.00     0.074 A 
ATOM     62  C   UNL A   1      46.798  30.212  30.714  1.00  0.00     0.031 C 
ATOM     63  C   UNL A   1      44.445  30.982  30.612  1.00  0.00     0.031 A 
BRANCH  50  64
ATOM     64  C   UNL A   1      38.760  29.222  28.961  1.00  0.00    -0.014 A 
ATOM     65  C   UNL A   1      38.234  29.723  27.759  1.00  0.00     0.009 A 
ATOM     66  C   UNL A   1      37.895  29.010  30.045  1.00  0.00     0.009 A 
ATOM     67  C   UNL A   1      36.876  30.033  27.655  1.00  0.00     0.001 A 
ATOM     68  C   UNL A   1      36.534  29.295  29.930  1.00  0.00     0.001 A 
ATOM     69  C   UNL A   1      36.027  29.814  28.739  1.00  0.00     0.000 A 
ENDBRANCH  50  64
BRANCH  51  70
ATOM     70  C   UNL A   1      48.346  26.517  29.425  1.00  0.00    -0.014 A 
ATOM     71  C   UNL A   1      48.870  25.856  30.547  1.00  0.00     0.009 A 
ATOM     72  C   UNL A   1      49.201  26.824  28.355  1.00  0.00     0.009 A 
ATOM     73  C   UNL A   1      50.229  25.540  30.610  1.00  0.00     0.001 A 
ATOM     74  C   UNL A   1      50.554  26.481  28.410  1.00  0.00     0.001 A 
ATOM     75  C   UNL A   1      51.068  25.850  29.540  1.00  0.00     0.000 A 
ENDBRANCH  51  70
BRANCH  63  76
ATOM     76  C   UNL A   1      44.895  32.271  31.236  1.00  0.00    -0.014 A 
ATOM     77  C   UNL A   1      45.289  33.362  30.444  1.00  0.00     0.009 A 
ATOM     78  C   UNL A   1      44.911  32.403  32.632  1.00  0.00     0.009 A 
ATOM     79  C   UNL A   1      45.727  34.545  31.042  1.00  0.00     0.001 A 
ATOM     80  C   UNL A   1      45.325  33.596  33.226  1.00  0.00     0.001 A 
ATOM     81  C   UNL A   1      45.743  34.661  32.431  1.00  0.00     0.000 A 
ENDBRANCH  63  76
ENDBRANCH  37  38
ENDBRANCH  29  32
ENDBRANCH  27  28
ENDBRANCH  26  27
ENDBRANCH  25  26
ENDBRANCH  24  25
ENDBRANCH   1  24
TORSDOF 17
ENDMDL
