MODEL 1
REMARK VINA RESULT:     -12.1      0.000      0.000
REMARK SMILES CCc1ccc(C[NH+]2CCC(Oc3ccccc3OC)(C(=O)NCCCCNC(=O)c3ccc(-c4c5nc(c(-c6ccccc6)c6ccc([nH]6)c(-c6ccccc6)c6nc(c(-c7ccccc7)c7ccc4[nH]7)C=C6)C=C5)cc3)CC2)nc1
REMARK SMILES IDX 25 1 24 2 23 3 21 4 22 5 11 7 8 8 9 9 80 10 10 12 79 13 7 14
REMARK SMILES IDX 6 15 3 16 4 17 82 18 5 19 81 20 2 21 1 22 12 23 13 24 14 25
REMARK SMILES IDX 18 26 15 27 17 28 16 29 19 30 20 31 26 32 27 33 28 34 29 35
REMARK SMILES IDX 30 37 31 38 32 39 78 40 33 41 77 42 34 43 35 44 36 45 71 46
REMARK SMILES IDX 37 47 76 48 70 49 72 50 38 51 75 52 69 53 68 54 39 56 61 57
REMARK SMILES IDX 46 58 60 59 47 60 50 61 59 62 73 63 48 64 49 65 58 67 74 68
REMARK SMILES IDX 51 69 40 70 41 71 45 72 42 73 44 74 43 75 62 76 63 77 67 78
REMARK SMILES IDX 64 79 66 80 65 81 52 82 53 83 57 84 54 85 56 86 55 87
REMARK H PARENT 23 6 8 11 28 36 72 55 50 66
REMARK Flexibility Score: inf
ROOT
ATOM      1  C   UNL A   1      32.073  30.495  26.625  1.00  0.00     0.023 C 
ENDROOT
BRANCH   1   2
ATOM      2  C   UNL A   1      31.713  29.994  25.229  1.00  0.00     0.116 C 
BRANCH   2   3
ATOM      3  N   UNL A   1      32.884  29.664  24.434  1.00  0.00    -0.353 N 
ATOM      4  C   UNL A   1      33.071  28.691  23.485  1.00  0.00     0.264 C 
ATOM      5  O   UNL A   1      34.120  28.769  22.836  1.00  0.00    -0.270 OA
ATOM      6  H   UNL A   1      33.671  30.231  24.603  1.00  0.00     0.163 HD
BRANCH   4   7
ATOM      7  C   UNL A   1      32.026  27.557  23.251  1.00  0.00     0.197 C 
ATOM      8  N   UNL A   1      33.041  25.126  24.577  1.00  0.00    -0.330 N 
ATOM      9  C   UNL A   1      32.586  26.273  25.366  1.00  0.00     0.267 C 
ATOM     10  C   UNL A   1      33.660  25.572  23.320  1.00  0.00     0.267 C 
ATOM     11  H   UNL A   1      32.217  24.572  24.346  1.00  0.00     0.348 HD
ATOM     12  C   UNL A   1      31.509  27.028  24.594  1.00  0.00     0.120 C 
ATOM     13  C   UNL A   1      32.664  26.382  22.477  1.00  0.00     0.120 C 
BRANCH   8  14
ATOM     14  C   UNL A   1      33.936  24.223  25.347  1.00  0.00     0.319 C 
BRANCH  14  15
ATOM     15  C   UNL A   1      33.684  22.732  25.192  1.00  0.00     0.095 A 
ATOM     16  C   UNL A   1      33.279  20.088  24.509  1.00  0.00    -0.030 A 
ATOM     17  C   UNL A   1      34.539  20.501  24.942  1.00  0.00     0.007 A 
ATOM     18  C   UNL A   1      32.268  21.043  24.493  1.00  0.00     0.115 A 
ATOM     19  C   UNL A   1      34.747  21.832  25.291  1.00  0.00     0.030 A 
ATOM     20  N   UNL A   1      32.440  22.339  24.833  1.00  0.00    -0.255 NA
BRANCH  16  21
ATOM     21  C   UNL A   1      33.030  18.692  24.009  1.00  0.00     0.034 C 
ATOM     22  C   UNL A   1      34.242  17.782  24.125  1.00  0.00     0.009 C 
ENDBRANCH  16  21
ENDBRANCH  14  15
ENDBRANCH   8  14
BRANCH   7  23
ATOM     23  O   UNL A   1      31.024  28.287  22.497  1.00  0.00    -0.473 OA
BRANCH  23  24
ATOM     24  C   UNL A   1      29.736  28.328  22.934  1.00  0.00     0.162 A 
ATOM     25  C   UNL A   1      29.161  27.143  23.396  1.00  0.00     0.050 A 
ATOM     26  C   UNL A   1      28.925  29.444  22.697  1.00  0.00     0.160 A 
ATOM     27  C   UNL A   1      27.803  27.091  23.703  1.00  0.00     0.004 A 
ATOM     28  C   UNL A   1      27.563  29.397  23.012  1.00  0.00     0.050 A 
ATOM     29  C   UNL A   1      27.007  28.222  23.527  1.00  0.00     0.004 A 
BRANCH  26  30
ATOM     30  O   UNL A   1      29.410  30.501  21.972  1.00  0.00    -0.493 OA
ATOM     31  C   UNL A   1      28.443  31.066  21.093  1.00  0.00     0.278 C 
ENDBRANCH  26  30
ENDBRANCH  23  24
ENDBRANCH   7  23
ENDBRANCH   4   7
ENDBRANCH   2   3
ENDBRANCH   1   2
BRANCH   1  32
ATOM     32  C   UNL A   1      31.729  31.956  26.892  1.00  0.00     0.023 C 
BRANCH  32  33
ATOM     33  C   UNL A   1      32.887  32.814  27.381  1.00  0.00     0.116 C 
BRANCH  33  34
ATOM     34  N   UNL A   1      32.511  34.189  27.682  1.00  0.00    -0.352 N 
ATOM     35  C   UNL A   1      33.047  35.028  28.634  1.00  0.00     0.251 C 
ATOM     36  H   UNL A   1      31.783  34.566  27.136  1.00  0.00     0.163 HD
ATOM     37  O   UNL A   1      32.576  36.135  28.845  1.00  0.00    -0.269 OA
BRANCH  35  38
ATOM     38  C   UNL A   1      34.186  34.536  29.434  1.00  0.00     0.039 A 
ATOM     39  C   UNL A   1      33.939  33.933  30.670  1.00  0.00     0.014 A 
ATOM     40  C   UNL A   1      35.478  34.579  28.904  1.00  0.00     0.014 A 
ATOM     41  C   UNL A   1      34.980  33.285  31.336  1.00  0.00     0.010 A 
ATOM     42  C   UNL A   1      36.492  33.869  29.530  1.00  0.00     0.010 A 
ATOM     43  C   UNL A   1      36.251  33.206  30.745  1.00  0.00    -0.014 A 
BRANCH  43  44
ATOM     44  C   UNL A   1      37.357  32.430  31.358  1.00  0.00     0.031 A 
ATOM     45  C   UNL A   1      37.973  32.908  32.639  1.00  0.00     0.074 A 
ATOM     46  C   UNL A   1      37.890  31.385  30.697  1.00  0.00     0.049 A 
ATOM     47  N   UNL A   1      39.056  32.492  33.242  1.00  0.00    -0.248 NA
ATOM     48  C   UNL A   1      37.302  34.033  33.311  1.00  0.00     0.031 C 
ATOM     49  C   UNL A   1      37.414  30.851  29.420  1.00  0.00     0.029 A 
ATOM     50  N   UNL A   1      38.978  30.604  30.999  1.00  0.00    -0.354 N 
ATOM     51  C   UNL A   1      39.222  33.332  34.335  1.00  0.00     0.074 A 
ATOM     52  C   UNL A   1      38.148  34.300  34.294  1.00  0.00     0.031 C 
ATOM     53  C   UNL A   1      38.202  29.829  29.049  1.00  0.00     0.029 A 
ATOM     54  C   UNL A   1      39.263  29.665  30.038  1.00  0.00     0.049 A 
ATOM     55  H   UNL A   1      39.504  30.707  31.825  1.00  0.00     0.167 HD
ATOM     56  C   UNL A   1      40.178  33.295  35.293  1.00  0.00     0.031 A 
ATOM     57  C   UNL A   1      40.280  28.785  29.948  1.00  0.00     0.031 A 
ATOM     58  C   UNL A   1      41.226  32.313  35.347  1.00  0.00     0.049 A 
ATOM     59  C   UNL A   1      41.316  28.744  31.035  1.00  0.00     0.074 A 
ATOM     60  C   UNL A   1      42.190  32.137  36.323  1.00  0.00     0.029 A 
ATOM     61  N   UNL A   1      41.446  31.343  34.382  1.00  0.00    -0.354 N 
ATOM     62  N   UNL A   1      41.419  29.497  32.102  1.00  0.00    -0.248 NA
ATOM     63  C   UNL A   1      42.371  27.727  30.910  1.00  0.00     0.031 C 
ATOM     64  C   UNL A   1      43.023  31.086  35.925  1.00  0.00     0.029 A 
ATOM     65  C   UNL A   1      42.547  30.578  34.727  1.00  0.00     0.049 A 
ATOM     66  H   UNL A   1      40.902  31.218  33.572  1.00  0.00     0.167 HD
ATOM     67  C   UNL A   1      42.533  29.032  32.789  1.00  0.00     0.074 A 
ATOM     68  C   UNL A   1      43.067  27.925  32.021  1.00  0.00     0.031 C 
ATOM     69  C   UNL A   1      43.061  29.478  33.954  1.00  0.00     0.031 A 
BRANCH  56  70
ATOM     70  C   UNL A   1      40.136  34.366  36.346  1.00  0.00    -0.014 A 
ATOM     71  C   UNL A   1      39.370  34.217  37.513  1.00  0.00     0.009 A 
ATOM     72  C   UNL A   1      40.884  35.541  36.169  1.00  0.00     0.009 A 
ATOM     73  C   UNL A   1      39.314  35.244  38.457  1.00  0.00     0.001 A 
ATOM     74  C   UNL A   1      40.850  36.553  37.130  1.00  0.00     0.001 A 
ATOM     75  C   UNL A   1      40.056  36.408  38.266  1.00  0.00     0.000 A 
ENDBRANCH  56  70
BRANCH  57  76
ATOM     76  C   UNL A   1      40.358  27.868  28.783  1.00  0.00    -0.014 A 
ATOM     77  C   UNL A   1      39.735  26.612  28.824  1.00  0.00     0.009 A 
ATOM     78  C   UNL A   1      41.029  28.256  27.613  1.00  0.00     0.009 A 
ATOM     79  C   UNL A   1      39.798  25.754  27.722  1.00  0.00     0.001 A 
ATOM     80  C   UNL A   1      41.070  27.406  26.504  1.00  0.00     0.001 A 
ATOM     81  C   UNL A   1      40.459  26.154  26.563  1.00  0.00     0.000 A 
ENDBRANCH  57  76
BRANCH  69  82
ATOM     82  C   UNL A   1      44.258  28.750  34.496  1.00  0.00    -0.014 A 
ATOM     83  C   UNL A   1      44.113  27.624  35.319  1.00  0.00     0.009 A 
ATOM     84  C   UNL A   1      45.546  29.155  34.112  1.00  0.00     0.009 A 
ATOM     85  C   UNL A   1      45.239  26.926  35.760  1.00  0.00     0.001 A 
ATOM     86  C   UNL A   1      46.667  28.443  34.536  1.00  0.00     0.001 A 
ATOM     87  C   UNL A   1      46.513  27.333  35.364  1.00  0.00     0.000 A 
ENDBRANCH  69  82
ENDBRANCH  43  44
ENDBRANCH  35  38
ENDBRANCH  33  34
ENDBRANCH  32  33
ENDBRANCH   1  32
TORSDOF 17
ENDMDL
MODEL 2
REMARK VINA RESULT:     -12.1      4.495      8.661
REMARK SMILES CCc1ccc(C[NH+]2CCC(Oc3ccccc3OC)(C(=O)NCCCCNC(=O)c3ccc(-c4c5nc(c(-c6ccccc6)c6ccc([nH]6)c(-c6ccccc6)c6nc(c(-c7ccccc7)c7ccc4[nH]7)C=C6)C=C5)cc3)CC2)nc1
REMARK SMILES IDX 25 1 24 2 23 3 21 4 22 5 11 7 8 8 9 9 80 10 10 12 79 13 7 14
REMARK SMILES IDX 6 15 3 16 4 17 82 18 5 19 81 20 2 21 1 22 12 23 13 24 14 25
REMARK SMILES IDX 18 26 15 27 17 28 16 29 19 30 20 31 26 32 27 33 28 34 29 35
REMARK SMILES IDX 30 37 31 38 32 39 78 40 33 41 77 42 34 43 35 44 36 45 71 46
REMARK SMILES IDX 37 47 76 48 70 49 72 50 38 51 75 52 69 53 68 54 39 56 61 57
REMARK SMILES IDX 46 58 60 59 47 60 50 61 59 62 73 63 48 64 49 65 58 67 74 68
REMARK SMILES IDX 51 69 40 70 41 71 45 72 42 73 44 74 43 75 62 76 63 77 67 78
REMARK SMILES IDX 64 79 66 80 65 81 52 82 53 83 57 84 54 85 56 86 55 87
REMARK H PARENT 23 6 8 11 28 36 72 55 50 66
REMARK Flexibility Score: inf
ROOT
ATOM      1  C   UNL A   1      37.036  22.652  24.354  1.00  0.00     0.023 C 
ENDROOT
BRANCH   1   2
ATOM      2  C   UNL A   1      36.378  23.615  25.339  1.00  0.00     0.116 C 
BRANCH   2   3
ATOM      3  N   UNL A   1      35.693  22.926  26.421  1.00  0.00    -0.353 N 
ATOM      4  C   UNL A   1      34.354  22.742  26.653  1.00  0.00     0.264 C 
ATOM      5  O   UNL A   1      34.070  21.948  27.557  1.00  0.00    -0.270 OA
ATOM      6  H   UNL A   1      36.288  22.525  27.096  1.00  0.00     0.163 HD
BRANCH   4   7
ATOM      7  C   UNL A   1      33.264  23.495  25.830  1.00  0.00     0.197 C 
ATOM      8  N   UNL A   1      32.178  21.599  23.850  1.00  0.00    -0.330 N 
ATOM      9  C   UNL A   1      31.905  21.426  25.278  1.00  0.00     0.267 C 
ATOM     10  C   UNL A   1      33.517  22.168  23.641  1.00  0.00     0.267 C 
ATOM     11  H   UNL A   1      31.492  22.262  23.489  1.00  0.00     0.348 HD
ATOM     12  C   UNL A   1      31.913  22.786  25.968  1.00  0.00     0.120 C 
ATOM     13  C   UNL A   1      33.645  23.534  24.333  1.00  0.00     0.120 C 
BRANCH   8  14
ATOM     14  C   UNL A   1      31.980  20.346  23.075  1.00  0.00     0.319 C 
BRANCH  14  15
ATOM     15  C   UNL A   1      32.552  19.077  23.687  1.00  0.00     0.095 A 
ATOM     16  C   UNL A   1      33.214  16.616  24.748  1.00  0.00    -0.030 A 
ATOM     17  C   UNL A   1      33.501  16.888  23.410  1.00  0.00     0.007 A 
ATOM     18  C   UNL A   1      32.644  17.640  25.496  1.00  0.00     0.115 A 
ATOM     19  C   UNL A   1      33.172  18.129  22.872  1.00  0.00     0.030 A 
ATOM     20  N   UNL A   1      32.321  18.855  25.003  1.00  0.00    -0.255 NA
BRANCH  16  21
ATOM     21  C   UNL A   1      33.439  15.256  25.348  1.00  0.00     0.034 C 
ATOM     22  C   UNL A   1      32.158  14.577  25.806  1.00  0.00     0.009 C 
ENDBRANCH  16  21
ENDBRANCH  14  15
ENDBRANCH   8  14
BRANCH   7  23
ATOM     23  O   UNL A   1      33.303  24.790  26.483  1.00  0.00    -0.473 OA
BRANCH  23  24
ATOM     24  C   UNL A   1      33.010  25.919  25.782  1.00  0.00     0.162 A 
ATOM     25  C   UNL A   1      34.068  26.632  25.216  1.00  0.00     0.050 A 
ATOM     26  C   UNL A   1      31.735  26.494  25.833  1.00  0.00     0.160 A 
ATOM     27  C   UNL A   1      33.844  27.875  24.626  1.00  0.00     0.004 A 
ATOM     28  C   UNL A   1      31.506  27.738  25.236  1.00  0.00     0.050 A 
ATOM     29  C   UNL A   1      32.561  28.420  24.621  1.00  0.00     0.004 A 
BRANCH  26  30
ATOM     30  O   UNL A   1      30.770  25.950  26.639  1.00  0.00    -0.493 OA
ATOM     31  C   UNL A   1      29.600  25.565  25.927  1.00  0.00     0.278 C 
ENDBRANCH  26  30
ENDBRANCH  23  24
ENDBRANCH   7  23
ENDBRANCH   4   7
ENDBRANCH   2   3
ENDBRANCH   1   2
BRANCH   1  32
ATOM     32  C   UNL A   1      37.443  21.307  24.944  1.00  0.00     0.023 C 
BRANCH  32  33
ATOM     33  C   UNL A   1      38.688  21.335  25.820  1.00  0.00     0.116 C 
BRANCH  33  34
ATOM     34  N   UNL A   1      39.527  20.152  25.684  1.00  0.00    -0.352 N 
ATOM     35  C   UNL A   1      40.862  20.017  25.992  1.00  0.00     0.251 C 
ATOM     36  H   UNL A   1      39.083  19.348  25.329  1.00  0.00     0.163 HD
ATOM     37  O   UNL A   1      41.472  18.988  25.745  1.00  0.00    -0.269 OA
BRANCH  35  38
ATOM     38  C   UNL A   1      41.559  21.173  26.592  1.00  0.00     0.039 A 
ATOM     39  C   UNL A   1      42.087  22.157  25.754  1.00  0.00     0.014 A 
ATOM     40  C   UNL A   1      41.586  21.324  27.981  1.00  0.00     0.014 A 
ATOM     41  C   UNL A   1      42.563  23.346  26.310  1.00  0.00     0.010 A 
ATOM     42  C   UNL A   1      41.988  22.536  28.524  1.00  0.00     0.010 A 
ATOM     43  C   UNL A   1      42.469  23.562  27.694  1.00  0.00    -0.014 A 
BRANCH  43  44
ATOM     44  C   UNL A   1      42.852  24.852  28.317  1.00  0.00     0.031 A 
ATOM     45  C   UNL A   1      41.803  25.898  28.557  1.00  0.00     0.074 A 
ATOM     46  C   UNL A   1      44.151  25.131  28.538  1.00  0.00     0.049 A 
ATOM     47  N   UNL A   1      41.947  27.147  28.914  1.00  0.00    -0.248 NA
ATOM     48  C   UNL A   1      40.407  25.492  28.323  1.00  0.00     0.031 C 
ATOM     49  C   UNL A   1      45.271  24.219  28.302  1.00  0.00     0.029 A 
ATOM     50  N   UNL A   1      44.750  26.284  28.983  1.00  0.00    -0.354 N 
ATOM     51  C   UNL A   1      40.668  27.689  28.903  1.00  0.00     0.074 A 
ATOM     52  C   UNL A   1      39.767  26.642  28.472  1.00  0.00     0.031 C 
ATOM     53  C   UNL A   1      46.420  24.845  28.607  1.00  0.00     0.029 A 
ATOM     54  C   UNL A   1      46.121  26.213  29.016  1.00  0.00     0.049 A 
ATOM     55  H   UNL A   1      44.244  27.085  29.252  1.00  0.00     0.167 HD
ATOM     56  C   UNL A   1      40.279  28.943  29.230  1.00  0.00     0.031 A 
ATOM     57  C   UNL A   1      47.038  27.152  29.319  1.00  0.00     0.031 A 
ATOM     58  C   UNL A   1      41.172  29.971  29.685  1.00  0.00     0.049 A 
ATOM     59  C   UNL A   1      46.583  28.531  29.703  1.00  0.00     0.074 A 
ATOM     60  C   UNL A   1      40.865  31.246  30.125  1.00  0.00     0.029 A 
ATOM     61  N   UNL A   1      42.550  29.841  29.758  1.00  0.00    -0.354 N 
ATOM     62  N   UNL A   1      45.363  29.009  29.759  1.00  0.00    -0.248 NA
ATOM     63  C   UNL A   1      47.627  29.497  30.074  1.00  0.00     0.031 C 
ATOM     64  C   UNL A   1      42.063  31.904  30.422  1.00  0.00     0.029 A 
ATOM     65  C   UNL A   1      43.111  31.021  30.213  1.00  0.00     0.049 A 
ATOM     66  H   UNL A   1      43.055  29.030  29.521  1.00  0.00     0.167 HD
ATOM     67  C   UNL A   1      45.490  30.321  30.194  1.00  0.00     0.074 A 
ATOM     68  C   UNL A   1      46.905  30.562  30.396  1.00  0.00     0.031 C 
ATOM     69  C   UNL A   1      44.520  31.242  30.413  1.00  0.00     0.031 A 
BRANCH  56  70
ATOM     70  C   UNL A   1      38.819  29.268  29.083  1.00  0.00    -0.014 A 
ATOM     71  C   UNL A   1      37.928  29.140  30.161  1.00  0.00     0.009 A 
ATOM     72  C   UNL A   1      38.330  29.717  27.846  1.00  0.00     0.009 A 
ATOM     73  C   UNL A   1      36.568  29.407  29.988  1.00  0.00     0.001 A 
ATOM     74  C   UNL A   1      36.975  30.013  27.686  1.00  0.00     0.001 A 
ATOM     75  C   UNL A   1      36.094  29.846  28.753  1.00  0.00     0.000 A 
ENDBRANCH  56  70
BRANCH  57  76
ATOM     76  C   UNL A   1      48.483  26.810  29.272  1.00  0.00    -0.014 A 
ATOM     77  C   UNL A   1      49.228  27.032  28.105  1.00  0.00     0.009 A 
ATOM     78  C   UNL A   1      49.130  26.287  30.402  1.00  0.00     0.009 A 
ATOM     79  C   UNL A   1      50.590  26.722  28.065  1.00  0.00     0.001 A 
ATOM     80  C   UNL A   1      50.497  26.000  30.367  1.00  0.00     0.001 A 
ATOM     81  C   UNL A   1      51.224  26.213  29.197  1.00  0.00     0.000 A 
ENDBRANCH  57  76
BRANCH  69  82
ATOM     82  C   UNL A   1      44.944  32.585  30.931  1.00  0.00    -0.014 A 
ATOM     83  C   UNL A   1      45.080  32.825  32.306  1.00  0.00     0.009 A 
ATOM     84  C   UNL A   1      45.285  33.601  30.024  1.00  0.00     0.009 A 
ATOM     85  C   UNL A   1      45.535  34.063  32.763  1.00  0.00     0.001 A 
ATOM     86  C   UNL A   1      45.762  34.829  30.482  1.00  0.00     0.001 A 
ATOM     87  C   UNL A   1      45.881  35.061  31.851  1.00  0.00     0.000 A 
ENDBRANCH  69  82
ENDBRANCH  43  44
ENDBRANCH  35  38
ENDBRANCH  33  34
ENDBRANCH  32  33
ENDBRANCH   1  32
TORSDOF 17
ENDMDL
MODEL 3
REMARK VINA RESULT:     -12.1      0.671      5.722
REMARK SMILES CCc1ccc(C[NH+]2CCC(Oc3ccccc3OC)(C(=O)NCCCCNC(=O)c3ccc(-c4c5nc(c(-c6ccccc6)c6ccc([nH]6)c(-c6ccccc6)c6nc(c(-c7ccccc7)c7ccc4[nH]7)C=C6)C=C5)cc3)CC2)nc1
REMARK SMILES IDX 25 1 24 2 23 3 21 4 22 5 11 7 8 8 9 9 80 10 10 12 79 13 7 14
REMARK SMILES IDX 6 15 3 16 4 17 82 18 5 19 81 20 2 21 1 22 12 23 13 24 14 25
REMARK SMILES IDX 18 26 15 27 17 28 16 29 19 30 20 31 26 32 27 33 28 34 29 35
REMARK SMILES IDX 30 37 31 38 32 39 78 40 33 41 77 42 34 43 35 44 36 45 71 46
REMARK SMILES IDX 37 47 76 48 70 49 72 50 38 51 75 52 69 53 68 54 39 56 61 57
REMARK SMILES IDX 46 58 60 59 47 60 50 61 59 62 73 63 48 64 49 65 58 67 74 68
REMARK SMILES IDX 51 69 40 70 41 71 45 72 42 73 44 74 43 75 62 76 63 77 67 78
REMARK SMILES IDX 64 79 66 80 65 81 52 82 53 83 57 84 54 85 56 86 55 87
REMARK H PARENT 23 6 8 11 28 36 72 55 50 66
REMARK Flexibility Score: inf
ROOT
ATOM      1  C   UNL A   1      31.892  30.525  26.658  1.00  0.00     0.023 C 
ENDROOT
BRANCH   1   2
ATOM      2  C   UNL A   1      31.547  29.912  25.304  1.00  0.00     0.116 C 
BRANCH   2   3
ATOM      3  N   UNL A   1      32.723  29.667  24.485  1.00  0.00    -0.353 N 
ATOM      4  C   UNL A   1      32.947  28.734  23.505  1.00  0.00     0.264 C 
ATOM      5  O   UNL A   1      33.981  28.886  22.846  1.00  0.00    -0.270 OA
ATOM      6  H   UNL A   1      33.481  30.271  24.661  1.00  0.00     0.163 HD
BRANCH   4   7
ATOM      7  C   UNL A   1      31.959  27.554  23.250  1.00  0.00     0.197 C 
ATOM      8  N   UNL A   1      32.972  25.214  24.733  1.00  0.00    -0.330 N 
ATOM      9  C   UNL A   1      32.427  26.370  25.445  1.00  0.00     0.267 C 
ATOM     10  C   UNL A   1      33.655  25.635  23.501  1.00  0.00     0.267 C 
ATOM     11  H   UNL A   1      32.185  24.620  24.471  1.00  0.00     0.348 HD
ATOM     12  C   UNL A   1      31.377  27.056  24.577  1.00  0.00     0.120 C 
ATOM     13  C   UNL A   1      32.687  26.375  22.565  1.00  0.00     0.120 C 
BRANCH   8  14
ATOM     14  C   UNL A   1      33.846  24.374  25.592  1.00  0.00     0.319 C 
BRANCH  14  15
ATOM     15  C   UNL A   1      33.702  22.868  25.435  1.00  0.00     0.095 A 
ATOM     16  C   UNL A   1      33.331  20.217  24.763  1.00  0.00    -0.030 A 
ATOM     17  C   UNL A   1      34.615  20.761  24.731  1.00  0.00     0.007 A 
ATOM     18  C   UNL A   1      32.300  21.047  25.188  1.00  0.00     0.115 A 
ATOM     19  C   UNL A   1      34.807  22.097  25.073  1.00  0.00     0.030 A 
ATOM     20  N   UNL A   1      32.458  22.343  25.532  1.00  0.00    -0.255 NA
BRANCH  16  21
ATOM     21  C   UNL A   1      33.050  18.817  24.292  1.00  0.00     0.034 C 
ATOM     22  C   UNL A   1      34.269  17.909  24.331  1.00  0.00     0.009 C 
ENDBRANCH  16  21
ENDBRANCH  14  15
ENDBRANCH   8  14
BRANCH   7  23
ATOM     23  O   UNL A   1      30.984  28.217  22.407  1.00  0.00    -0.473 OA
BRANCH  23  24
ATOM     24  C   UNL A   1      29.689  28.324  22.813  1.00  0.00     0.162 A 
ATOM     25  C   UNL A   1      29.110  27.228  23.453  1.00  0.00     0.050 A 
ATOM     26  C   UNL A   1      28.881  29.384  22.387  1.00  0.00     0.160 A 
ATOM     27  C   UNL A   1      27.747  27.222  23.746  1.00  0.00     0.004 A 
ATOM     28  C   UNL A   1      27.515  29.385  22.686  1.00  0.00     0.050 A 
ATOM     29  C   UNL A   1      26.953  28.308  23.378  1.00  0.00     0.004 A 
BRANCH  26  30
ATOM     30  O   UNL A   1      29.375  30.310  21.506  1.00  0.00    -0.493 OA
ATOM     31  C   UNL A   1      28.778  31.594  21.651  1.00  0.00     0.278 C 
ENDBRANCH  26  30
ENDBRANCH  23  24
ENDBRANCH   7  23
ENDBRANCH   4   7
ENDBRANCH   2   3
ENDBRANCH   1   2
BRANCH   1  32
ATOM     32  C   UNL A   1      31.418  31.960  26.854  1.00  0.00     0.023 C 
BRANCH  32  33
ATOM     33  C   UNL A   1      32.508  33.019  26.769  1.00  0.00     0.116 C 
BRANCH  33  34
ATOM     34  N   UNL A   1      32.267  34.178  27.618  1.00  0.00    -0.352 N 
ATOM     35  C   UNL A   1      33.032  34.636  28.668  1.00  0.00     0.251 C 
ATOM     36  H   UNL A   1      31.456  34.699  27.415  1.00  0.00     0.163 HD
ATOM     37  O   UNL A   1      32.668  35.575  29.359  1.00  0.00    -0.269 OA
BRANCH  35  38
ATOM     38  C   UNL A   1      34.294  33.930  28.970  1.00  0.00     0.039 A 
ATOM     39  C   UNL A   1      35.491  34.425  28.448  1.00  0.00     0.014 A 
ATOM     40  C   UNL A   1      34.291  32.850  29.856  1.00  0.00     0.014 A 
ATOM     41  C   UNL A   1      36.702  33.892  28.890  1.00  0.00     0.010 A 
ATOM     42  C   UNL A   1      35.496  32.375  30.351  1.00  0.00     0.010 A 
ATOM     43  C   UNL A   1      36.713  32.898  29.881  1.00  0.00    -0.014 A 
BRANCH  43  44
ATOM     44  C   UNL A   1      37.975  32.384  30.466  1.00  0.00     0.031 A 
ATOM     45  C   UNL A   1      38.609  31.152  29.889  1.00  0.00     0.074 A 
ATOM     46  C   UNL A   1      38.469  32.938  31.590  1.00  0.00     0.049 A 
ATOM     47  N   UNL A   1      39.599  30.435  30.354  1.00  0.00    -0.248 NA
ATOM     48  C   UNL A   1      38.025  30.637  28.640  1.00  0.00     0.031 C 
ATOM     49  C   UNL A   1      37.918  34.107  32.277  1.00  0.00     0.029 A 
ATOM     50  N   UNL A   1      39.535  32.565  32.371  1.00  0.00    -0.354 N 
ATOM     51  C   UNL A   1      39.724  29.361  29.483  1.00  0.00     0.074 A 
ATOM     52  C   UNL A   1      38.690  29.504  28.481  1.00  0.00     0.031 C 
ATOM     53  C   UNL A   1      38.651  34.358  33.375  1.00  0.00     0.029 A 
ATOM     54  C   UNL A   1      39.693  33.343  33.492  1.00  0.00     0.049 A 
ATOM     55  H   UNL A   1      40.129  31.812  32.149  1.00  0.00     0.167 HD
ATOM     56  C   UNL A   1      40.625  28.351  29.511  1.00  0.00     0.031 A 
ATOM     57  C   UNL A   1      40.564  33.238  34.514  1.00  0.00     0.031 A 
ATOM     58  C   UNL A   1      41.669  28.230  30.490  1.00  0.00     0.049 A 
ATOM     59  C   UNL A   1      41.572  32.124  34.512  1.00  0.00     0.074 A 
ATOM     60  C   UNL A   1      42.685  27.293  30.553  1.00  0.00     0.029 A 
ATOM     61  N   UNL A   1      41.828  29.072  31.579  1.00  0.00    -0.354 N 
ATOM     62  N   UNL A   1      41.726  31.155  33.642  1.00  0.00    -0.248 NA
ATOM     63  C   UNL A   1      42.531  32.092  35.626  1.00  0.00     0.031 C 
ATOM     64  C   UNL A   1      43.434  27.542  31.708  1.00  0.00     0.029 A 
ATOM     65  C   UNL A   1      42.913  28.663  32.335  1.00  0.00     0.049 A 
ATOM     66  H   UNL A   1      41.255  29.845  31.785  1.00  0.00     0.167 HD
ATOM     67  C   UNL A   1      42.812  30.414  34.088  1.00  0.00     0.074 A 
ATOM     68  C   UNL A   1      43.284  31.049  35.302  1.00  0.00     0.031 C 
ATOM     69  C   UNL A   1      43.371  29.309  33.537  1.00  0.00     0.031 A 
BRANCH  56  70
ATOM     70  C   UNL A   1      40.498  27.291  28.454  1.00  0.00    -0.014 A 
ATOM     71  C   UNL A   1      39.733  26.133  28.666  1.00  0.00     0.009 A 
ATOM     72  C   UNL A   1      41.150  27.458  27.222  1.00  0.00     0.009 A 
ATOM     73  C   UNL A   1      39.665  25.141  27.685  1.00  0.00     0.001 A 
ATOM     74  C   UNL A   1      41.055  26.479  26.232  1.00  0.00     0.001 A 
ATOM     75  C   UNL A   1      40.323  25.317  26.469  1.00  0.00     0.000 A 
ENDBRANCH  56  70
BRANCH  57  76
ATOM     76  C   UNL A   1      40.519  34.224  35.623  1.00  0.00    -0.014 A 
ATOM     77  C   UNL A   1      41.248  35.420  35.540  1.00  0.00     0.009 A 
ATOM     78  C   UNL A   1      39.724  33.990  36.756  1.00  0.00     0.009 A 
ATOM     79  C   UNL A   1      41.194  36.354  36.578  1.00  0.00     0.001 A 
ATOM     80  C   UNL A   1      39.654  34.936  37.781  1.00  0.00     0.001 A 
ATOM     81  C   UNL A   1      40.394  36.115  37.693  1.00  0.00     0.000 A 
ENDBRANCH  57  76
BRANCH  69  82
ATOM     82  C   UNL A   1      44.580  28.733  34.216  1.00  0.00    -0.014 A 
ATOM     83  C   UNL A   1      45.871  29.195  33.919  1.00  0.00     0.009 A 
ATOM     84  C   UNL A   1      44.414  27.768  35.222  1.00  0.00     0.009 A 
ATOM     85  C   UNL A   1      46.974  28.688  34.608  1.00  0.00     0.001 A 
ATOM     86  C   UNL A   1      45.516  27.280  35.924  1.00  0.00     0.001 A 
ATOM     87  C   UNL A   1      46.795  27.736  35.612  1.00  0.00     0.000 A 
ENDBRANCH  69  82
ENDBRANCH  43  44
ENDBRANCH  35  38
ENDBRANCH  33  34
ENDBRANCH  32  33
ENDBRANCH   1  32
TORSDOF 17
ENDMDL
