MODEL 1
REMARK VINA RESULT:     -10.2      0.000      0.000
REMARK SMILES O=C(NCCCCNC(=O)[C@H]1C[C@](O)(c2ccc(F)cc2)[C@@H](c2ccc(F)cc2)O1)c1ccc(-c2c3nc(c(-c4ccccc4)c4ccc([nH]4)c(-c4ccccc4)c4nc(c(-c5ccccc5)c5ccc2[nH]5)C=C4)C=C3)cc1
REMARK SMILES IDX 5 1 4 2 3 3 1 4 2 5 31 7 32 8 78 9 33 10 77 11 34 12 35 13
REMARK SMILES IDX 36 14 71 15 37 16 76 17 70 18 72 19 38 20 75 21 69 22 68 23
REMARK SMILES IDX 39 25 61 26 46 27 60 28 47 29 50 30 59 31 73 32 48 33 49 34
REMARK SMILES IDX 58 36 74 37 51 38 40 39 41 40 45 41 42 42 44 43 43 44 62 45
REMARK SMILES IDX 63 46 67 47 64 48 66 49 65 50 52 51 53 52 57 53 54 54 56 55
REMARK SMILES IDX 55 56 6 57 7 58 8 59 9 60 10 62 11 63 12 64 30 65 13 66
REMARK SMILES IDX 22 67 15 68 16 69 21 70 17 71 20 72 18 73 19 74 14 75 23 77
REMARK SMILES IDX 24 78 29 79 25 80 28 81 26 82 27 83
REMARK H PARENT 3 6 72 24 50 35 8 61 14 76
REMARK Flexibility Score: inf
ROOT
ATOM      1  C   UNL A   1      32.674  36.417  31.650  1.00  0.00     0.023 C 
ENDROOT
BRANCH   1   2
ATOM      2  C   UNL A   1      33.454  36.223  30.353  1.00  0.00     0.116 C 
BRANCH   2   3
ATOM      3  N   UNL A   1      32.713  35.513  29.327  1.00  0.00    -0.352 N 
ATOM      4  O   UNL A   1      32.324  33.987  27.717  1.00  0.00    -0.269 OA
ATOM      5  C   UNL A   1      33.066  34.397  28.606  1.00  0.00     0.251 C 
ATOM      6  H   UNL A   1      31.826  35.886  29.116  1.00  0.00     0.163 HD
BRANCH   5   7
ATOM      7  C   UNL A   1      34.355  33.711  28.860  1.00  0.00     0.039 A 
ATOM      8  C   UNL A   1      34.502  32.796  29.904  1.00  0.00     0.014 A 
ATOM      9  C   UNL A   1      35.441  33.994  28.025  1.00  0.00     0.014 A 
ATOM     10  C   UNL A   1      35.765  32.294  30.211  1.00  0.00     0.010 A 
ATOM     11  C   UNL A   1      36.691  33.426  28.286  1.00  0.00     0.010 A 
ATOM     12  C   UNL A   1      36.877  32.608  29.410  1.00  0.00    -0.014 A 
BRANCH  12  13
ATOM     13  C   UNL A   1      38.214  32.060  29.764  1.00  0.00     0.031 A 
ATOM     14  C   UNL A   1      39.132  32.796  30.704  1.00  0.00     0.074 A 
ATOM     15  C   UNL A   1      38.589  30.866  29.266  1.00  0.00     0.049 A 
ATOM     16  N   UNL A   1      40.301  32.428  31.171  1.00  0.00    -0.248 NA
ATOM     17  C   UNL A   1      38.689  34.117  31.177  1.00  0.00     0.031 C 
ATOM     18  C   UNL A   1      37.798  30.054  28.337  1.00  0.00     0.029 A 
ATOM     19  N   UNL A   1      39.713  30.114  29.491  1.00  0.00    -0.354 N 
ATOM     20  C   UNL A   1      40.741  33.478  31.969  1.00  0.00     0.074 A 
ATOM     21  C   UNL A   1      39.726  34.507  31.906  1.00  0.00     0.031 C 
ATOM     22  C   UNL A   1      38.434  28.893  28.119  1.00  0.00     0.029 A 
ATOM     23  C   UNL A   1      39.697  28.898  28.850  1.00  0.00     0.049 A 
ATOM     24  H   UNL A   1      40.459  30.415  30.059  1.00  0.00     0.167 HD
ATOM     25  C   UNL A   1      41.881  33.575  32.695  1.00  0.00     0.031 A 
ATOM     26  C   UNL A   1      40.596  27.898  28.848  1.00  0.00     0.031 A 
ATOM     27  C   UNL A   1      42.888  32.548  32.772  1.00  0.00     0.049 A 
ATOM     28  C   UNL A   1      41.853  28.033  29.657  1.00  0.00     0.074 A 
ATOM     29  C   UNL A   1      44.058  32.542  33.516  1.00  0.00     0.029 A 
ATOM     30  N   UNL A   1      42.847  31.348  32.083  1.00  0.00    -0.354 N 
ATOM     31  N   UNL A   1      42.230  29.015  30.439  1.00  0.00    -0.248 NA
ATOM     32  C   UNL A   1      42.806  26.917  29.585  1.00  0.00     0.031 C 
ATOM     33  C   UNL A   1      44.746  31.355  33.239  1.00  0.00     0.029 A 
ATOM     34  C   UNL A   1      43.981  30.602  32.365  1.00  0.00     0.049 A 
ATOM     35  H   UNL A   1      42.121  31.066  31.481  1.00  0.00     0.167 HD
ATOM     36  C   UNL A   1      43.452  28.626  30.970  1.00  0.00     0.074 A 
ATOM     37  C   UNL A   1      43.743  27.311  30.434  1.00  0.00     0.031 C 
ATOM     38  C   UNL A   1      44.260  29.297  31.825  1.00  0.00     0.031 A 
BRANCH  25  39
ATOM     39  C   UNL A   1      42.117  34.854  33.451  1.00  0.00    -0.014 A 
ATOM     40  C   UNL A   1      42.917  35.878  32.922  1.00  0.00     0.009 A 
ATOM     41  C   UNL A   1      41.490  35.054  34.691  1.00  0.00     0.009 A 
ATOM     42  C   UNL A   1      43.110  37.064  33.635  1.00  0.00     0.001 A 
ATOM     43  C   UNL A   1      41.665  36.249  35.391  1.00  0.00     0.001 A 
ATOM     44  C   UNL A   1      42.481  37.249  34.867  1.00  0.00     0.000 A 
ENDBRANCH  25  39
BRANCH  26  45
ATOM     45  C   UNL A   1      40.329  26.667  28.061  1.00  0.00    -0.014 A 
ATOM     46  C   UNL A   1      39.545  25.635  28.597  1.00  0.00     0.009 A 
ATOM     47  C   UNL A   1      40.853  26.521  26.767  1.00  0.00     0.009 A 
ATOM     48  C   UNL A   1      39.308  24.472  27.860  1.00  0.00     0.001 A 
ATOM     49  C   UNL A   1      40.590  25.371  26.023  1.00  0.00     0.001 A 
ATOM     50  C   UNL A   1      39.825  24.344  26.573  1.00  0.00     0.000 A 
ENDBRANCH  26  45
BRANCH  38  51
ATOM     51  C   UNL A   1      45.519  28.603  32.260  1.00  0.00    -0.014 A 
ATOM     52  C   UNL A   1      45.537  27.766  33.387  1.00  0.00     0.009 A 
ATOM     53  C   UNL A   1      46.699  28.778  31.522  1.00  0.00     0.009 A 
ATOM     54  C   UNL A   1      46.723  27.148  33.787  1.00  0.00     0.001 A 
ATOM     55  C   UNL A   1      47.878  28.138  31.908  1.00  0.00     0.001 A 
ATOM     56  C   UNL A   1      47.891  27.332  33.046  1.00  0.00     0.000 A 
ENDBRANCH  38  51
ENDBRANCH  12  13
ENDBRANCH   5   7
ENDBRANCH   2   3
ENDBRANCH   1   2
BRANCH   1  57
ATOM     57  C   UNL A   1      33.493  36.483  32.946  1.00  0.00     0.023 C 
BRANCH  57  58
ATOM     58  C   UNL A   1      34.889  35.862  32.884  1.00  0.00     0.116 C 
BRANCH  58  59
ATOM     59  N   UNL A   1      34.852  34.438  33.129  1.00  0.00    -0.354 N 
ATOM     60  C   UNL A   1      35.642  33.615  33.856  1.00  0.00     0.249 C 
ATOM     61  H   UNL A   1      34.108  33.978  32.680  1.00  0.00     0.163 HD
ATOM     62  O   UNL A   1      35.391  32.413  33.738  1.00  0.00    -0.272 OA
BRANCH  60  63
ATOM     63  C   UNL A   1      36.708  34.143  34.836  1.00  0.00     0.211 C 
ATOM     64  C   UNL A   1      36.432  33.529  36.207  1.00  0.00     0.085 C 
ATOM     65  O   UNL A   1      38.035  33.799  34.440  1.00  0.00    -0.357 OA
ATOM     66  C   UNL A   1      37.741  32.879  36.660  1.00  0.00     0.123 C 
ATOM     67  C   UNL A   1      38.594  32.829  35.353  1.00  0.00     0.186 C 
BRANCH  66  68
ATOM     68  C   UNL A   1      38.305  33.666  37.861  1.00  0.00    -0.013 A 
ATOM     69  C   UNL A   1      39.129  34.790  37.595  1.00  0.00     0.010 A 
ATOM     70  C   UNL A   1      38.032  33.377  39.208  1.00  0.00     0.010 A 
ATOM     71  C   UNL A   1      39.626  35.600  38.617  1.00  0.00     0.039 A 
ATOM     72  C   UNL A   1      38.521  34.199  40.234  1.00  0.00     0.039 A 
ATOM     73  C   UNL A   1      39.305  35.303  39.930  1.00  0.00     0.123 A 
ATOM     74  F   UNL A   1      39.753  36.090  40.916  1.00  0.00    -0.207 F 
ENDBRANCH  66  68
BRANCH  66  75
ATOM     75  O   UNL A   1      37.499  31.578  37.211  1.00  0.00    -0.382 OA
ATOM     76  H   UNL A   1      38.324  31.223  37.578  1.00  0.00     0.212 HD
ENDBRANCH  66  75
BRANCH  67  77
ATOM     77  C   UNL A   1      38.793  31.538  34.562  1.00  0.00    -0.016 A 
ATOM     78  C   UNL A   1      37.839  31.005  33.682  1.00  0.00     0.009 A 
ATOM     79  C   UNL A   1      40.048  30.897  34.626  1.00  0.00     0.009 A 
ATOM     80  C   UNL A   1      38.127  29.897  32.881  1.00  0.00     0.039 A 
ATOM     81  C   UNL A   1      40.336  29.782  33.834  1.00  0.00     0.039 A 
ATOM     82  C   UNL A   1      39.373  29.298  32.960  1.00  0.00     0.123 A 
ATOM     83  F   UNL A   1      39.657  28.252  32.173  1.00  0.00    -0.207 F 
ENDBRANCH  67  77
ENDBRANCH  60  63
ENDBRANCH  58  59
ENDBRANCH  57  58
ENDBRANCH   1  57
TORSDOF 14
ENDMDL
MODEL 2
REMARK VINA RESULT:      -9.8      0.442      5.798
REMARK SMILES O=C(NCCCCNC(=O)[C@H]1C[C@](O)(c2ccc(F)cc2)[C@@H](c2ccc(F)cc2)O1)c1ccc(-c2c3nc(c(-c4ccccc4)c4ccc([nH]4)c(-c4ccccc4)c4nc(c(-c5ccccc5)c5ccc2[nH]5)C=C4)C=C3)cc1
REMARK SMILES IDX 5 1 4 2 3 3 1 4 2 5 31 7 32 8 78 9 33 10 77 11 34 12 35 13
REMARK SMILES IDX 36 14 71 15 37 16 76 17 70 18 72 19 38 20 75 21 69 22 68 23
REMARK SMILES IDX 39 25 61 26 46 27 60 28 47 29 50 30 59 31 73 32 48 33 49 34
REMARK SMILES IDX 58 36 74 37 51 38 40 39 41 40 45 41 42 42 44 43 43 44 62 45
REMARK SMILES IDX 63 46 67 47 64 48 66 49 65 50 52 51 53 52 57 53 54 54 56 55
REMARK SMILES IDX 55 56 6 57 7 58 8 59 9 60 10 62 11 63 12 64 30 65 13 66
REMARK SMILES IDX 22 67 15 68 16 69 21 70 17 71 20 72 18 73 19 74 14 75 23 77
REMARK SMILES IDX 24 78 29 79 25 80 28 81 26 82 27 83
REMARK H PARENT 3 6 72 24 50 35 8 61 14 76
REMARK Flexibility Score: inf
ROOT
ATOM      1  C   UNL A   1      32.536  36.122  31.608  1.00  0.00     0.023 C 
ENDROOT
BRANCH   1   2
ATOM      2  C   UNL A   1      33.309  36.133  30.293  1.00  0.00     0.116 C 
BRANCH   2   3
ATOM      3  N   UNL A   1      32.636  35.435  29.213  1.00  0.00    -0.352 N 
ATOM      4  O   UNL A   1      32.354  33.935  27.558  1.00  0.00    -0.269 OA
ATOM      5  C   UNL A   1      33.040  34.334  28.495  1.00  0.00     0.251 C 
ATOM      6  H   UNL A   1      31.760  35.805  28.957  1.00  0.00     0.163 HD
BRANCH   5   7
ATOM      7  C   UNL A   1      34.318  33.654  28.812  1.00  0.00     0.039 A 
ATOM      8  C   UNL A   1      34.435  32.792  29.903  1.00  0.00     0.014 A 
ATOM      9  C   UNL A   1      35.424  33.889  27.989  1.00  0.00     0.014 A 
ATOM     10  C   UNL A   1      35.687  32.297  30.263  1.00  0.00     0.010 A 
ATOM     11  C   UNL A   1      36.664  33.327  28.306  1.00  0.00     0.010 A 
ATOM     12  C   UNL A   1      36.818  32.564  29.473  1.00  0.00    -0.014 A 
BRANCH  12  13
ATOM     13  C   UNL A   1      38.143  32.026  29.884  1.00  0.00     0.031 A 
ATOM     14  C   UNL A   1      38.646  30.709  29.355  1.00  0.00     0.074 A 
ATOM     15  C   UNL A   1      38.920  32.753  30.711  1.00  0.00     0.049 A 
ATOM     16  N   UNL A   1      39.804  30.127  29.557  1.00  0.00    -0.248 NA
ATOM     17  C   UNL A   1      37.733  29.939  28.495  1.00  0.00     0.031 C 
ATOM     18  C   UNL A   1      38.549  34.041  31.303  1.00  0.00     0.029 A 
ATOM     19  N   UNL A   1      40.192  32.528  31.173  1.00  0.00    -0.354 N 
ATOM     20  C   UNL A   1      39.749  28.919  28.873  1.00  0.00     0.074 A 
ATOM     21  C   UNL A   1      38.437  28.838  28.269  1.00  0.00     0.031 C 
ATOM     22  C   UNL A   1      39.590  34.519  32.000  1.00  0.00     0.029 A 
ATOM     23  C   UNL A   1      40.682  33.552  31.948  1.00  0.00     0.049 A 
ATOM     24  H   UNL A   1      40.704  31.713  30.969  1.00  0.00     0.167 HD
ATOM     25  C   UNL A   1      40.705  27.966  28.751  1.00  0.00     0.031 A 
ATOM     26  C   UNL A   1      41.876  33.700  32.549  1.00  0.00     0.031 A 
ATOM     27  C   UNL A   1      42.017  28.048  29.339  1.00  0.00     0.049 A 
ATOM     28  C   UNL A   1      42.915  32.627  32.402  1.00  0.00     0.074 A 
ATOM     29  C   UNL A   1      43.066  27.148  29.234  1.00  0.00     0.029 A 
ATOM     30  N   UNL A   1      42.461  29.086  30.141  1.00  0.00    -0.354 N 
ATOM     31  N   UNL A   1      42.859  31.513  31.716  1.00  0.00    -0.248 NA
ATOM     32  C   UNL A   1      44.185  32.839  33.111  1.00  0.00     0.031 C 
ATOM     33  C   UNL A   1      44.129  27.622  30.012  1.00  0.00     0.029 A 
ATOM     34  C   UNL A   1      43.760  28.840  30.557  1.00  0.00     0.049 A 
ATOM     35  H   UNL A   1      41.931  29.881  30.381  1.00  0.00     0.167 HD
ATOM     36  C   UNL A   1      44.093  30.900  31.890  1.00  0.00     0.074 A 
ATOM     37  C   UNL A   1      44.881  31.777  32.734  1.00  0.00     0.031 C 
ATOM     38  C   UNL A   1      44.533  29.718  31.397  1.00  0.00     0.031 A 
BRANCH  25  39
ATOM     39  C   UNL A   1      40.358  26.730  27.967  1.00  0.00    -0.014 A 
ATOM     40  C   UNL A   1      40.777  26.566  26.638  1.00  0.00     0.009 A 
ATOM     41  C   UNL A   1      39.640  25.694  28.585  1.00  0.00     0.009 A 
ATOM     42  C   UNL A   1      40.455  25.403  25.933  1.00  0.00     0.001 A 
ATOM     43  C   UNL A   1      39.340  24.523  27.886  1.00  0.00     0.001 A 
ATOM     44  C   UNL A   1      39.740  24.382  26.559  1.00  0.00     0.000 A 
ENDBRANCH  25  39
BRANCH  26  45
ATOM     45  C   UNL A   1      42.159  34.927  33.337  1.00  0.00    -0.014 A 
ATOM     46  C   UNL A   1      41.623  35.086  34.624  1.00  0.00     0.009 A 
ATOM     47  C   UNL A   1      42.972  35.942  32.808  1.00  0.00     0.009 A 
ATOM     48  C   UNL A   1      41.879  36.248  35.357  1.00  0.00     0.001 A 
ATOM     49  C   UNL A   1      43.248  37.088  33.554  1.00  0.00     0.001 A 
ATOM     50  C   UNL A   1      42.695  37.243  34.824  1.00  0.00     0.000 A 
ENDBRANCH  26  45
BRANCH  38  51
ATOM     51  C   UNL A   1      45.943  29.323  31.728  1.00  0.00    -0.014 A 
ATOM     52  C   UNL A   1      47.010  29.650  30.876  1.00  0.00     0.009 A 
ATOM     53  C   UNL A   1      46.208  28.629  32.918  1.00  0.00     0.009 A 
ATOM     54  C   UNL A   1      48.311  29.254  31.193  1.00  0.00     0.001 A 
ATOM     55  C   UNL A   1      47.514  28.258  33.245  1.00  0.00     0.001 A 
ATOM     56  C   UNL A   1      48.562  28.562  32.378  1.00  0.00     0.000 A 
ENDBRANCH  38  51
ENDBRANCH  12  13
ENDBRANCH   5   7
ENDBRANCH   2   3
ENDBRANCH   1   2
BRANCH   1  57
ATOM     57  C   UNL A   1      33.235  36.739  32.826  1.00  0.00     0.023 C 
BRANCH  57  58
ATOM     58  C   UNL A   1      34.602  36.152  33.179  1.00  0.00     0.116 C 
BRANCH  58  59
ATOM     59  N   UNL A   1      34.527  34.727  33.412  1.00  0.00    -0.354 N 
ATOM     60  C   UNL A   1      35.342  33.863  34.060  1.00  0.00     0.249 C 
ATOM     61  H   UNL A   1      33.728  34.304  33.024  1.00  0.00     0.163 HD
ATOM     62  O   UNL A   1      35.032  32.674  33.952  1.00  0.00    -0.272 OA
BRANCH  60  63
ATOM     63  C   UNL A   1      36.508  34.335  34.950  1.00  0.00     0.211 C 
ATOM     64  C   UNL A   1      36.323  33.719  36.334  1.00  0.00     0.085 C 
ATOM     65  O   UNL A   1      37.781  33.938  34.440  1.00  0.00    -0.357 OA
ATOM     66  C   UNL A   1      37.635  33.009  36.671  1.00  0.00     0.123 C 
ATOM     67  C   UNL A   1      38.372  32.935  35.296  1.00  0.00     0.186 C 
BRANCH  66  68
ATOM     68  C   UNL A   1      38.333  33.758  37.825  1.00  0.00    -0.013 A 
ATOM     69  C   UNL A   1      39.198  34.833  37.496  1.00  0.00     0.010 A 
ATOM     70  C   UNL A   1      38.146  33.480  39.189  1.00  0.00     0.010 A 
ATOM     71  C   UNL A   1      39.816  35.611  38.477  1.00  0.00     0.039 A 
ATOM     72  C   UNL A   1      38.757  34.269  40.175  1.00  0.00     0.039 A 
ATOM     73  C   UNL A   1      39.579  35.328  39.811  1.00  0.00     0.123 A 
ATOM     74  F   UNL A   1      40.145  36.085  40.759  1.00  0.00    -0.207 F 
ENDBRANCH  66  68
BRANCH  66  75
ATOM     75  O   UNL A   1      37.383  31.714  37.232  1.00  0.00    -0.382 OA
ATOM     76  H   UNL A   1      37.340  31.782  38.199  1.00  0.00     0.212 HD
ENDBRANCH  66  75
BRANCH  67  77
ATOM     77  C   UNL A   1      38.446  31.645  34.482  1.00  0.00    -0.016 A 
ATOM     78  C   UNL A   1      37.392  31.151  33.701  1.00  0.00     0.009 A 
ATOM     79  C   UNL A   1      39.679  30.962  34.416  1.00  0.00     0.009 A 
ATOM     80  C   UNL A   1      37.560  30.041  32.869  1.00  0.00     0.039 A 
ATOM     81  C   UNL A   1      39.848  29.845  33.593  1.00  0.00     0.039 A 
ATOM     82  C   UNL A   1      38.787  29.400  32.819  1.00  0.00     0.123 A 
ATOM     83  F   UNL A   1      38.954  28.352  32.001  1.00  0.00    -0.207 F 
ENDBRANCH  67  77
ENDBRANCH  60  63
ENDBRANCH  58  59
ENDBRANCH  57  58
ENDBRANCH   1  57
TORSDOF 14
ENDMDL
MODEL 3
REMARK VINA RESULT:      -9.7      6.255     12.903
REMARK SMILES O=C(NCCCCNC(=O)[C@H]1C[C@](O)(c2ccc(F)cc2)[C@@H](c2ccc(F)cc2)O1)c1ccc(-c2c3nc(c(-c4ccccc4)c4ccc([nH]4)c(-c4ccccc4)c4nc(c(-c5ccccc5)c5ccc2[nH]5)C=C4)C=C3)cc1
REMARK SMILES IDX 5 1 4 2 3 3 1 4 2 5 31 7 32 8 78 9 33 10 77 11 34 12 35 13
REMARK SMILES IDX 36 14 71 15 37 16 76 17 70 18 72 19 38 20 75 21 69 22 68 23
REMARK SMILES IDX 39 25 61 26 46 27 60 28 47 29 50 30 59 31 73 32 48 33 49 34
REMARK SMILES IDX 58 36 74 37 51 38 40 39 41 40 45 41 42 42 44 43 43 44 62 45
REMARK SMILES IDX 63 46 67 47 64 48 66 49 65 50 52 51 53 52 57 53 54 54 56 55
REMARK SMILES IDX 55 56 6 57 7 58 8 59 9 60 10 62 11 63 12 64 30 65 13 66
REMARK SMILES IDX 22 67 15 68 16 69 21 70 17 71 20 72 18 73 19 74 14 75 23 77
REMARK SMILES IDX 24 78 29 79 25 80 28 81 26 82 27 83
REMARK H PARENT 3 6 72 24 50 35 8 61 14 76
REMARK Flexibility Score: inf
ROOT
ATOM      1  C   UNL A   1      38.813  21.401  25.387  1.00  0.00     0.023 C 
ENDROOT
BRANCH   1   2
ATOM      2  C   UNL A   1      38.947  20.122  26.208  1.00  0.00     0.116 C 
BRANCH   2   3
ATOM      3  N   UNL A   1      40.102  19.318  25.852  1.00  0.00    -0.352 N 
ATOM      4  O   UNL A   1      42.275  18.816  25.538  1.00  0.00    -0.269 OA
ATOM      5  C   UNL A   1      41.441  19.607  25.971  1.00  0.00     0.251 C 
ATOM      6  H   UNL A   1      39.896  18.434  25.469  1.00  0.00     0.163 HD
BRANCH   5   7
ATOM      7  C   UNL A   1      41.886  20.885  26.575  1.00  0.00     0.039 A 
ATOM      8  C   UNL A   1      41.874  21.083  27.957  1.00  0.00     0.014 A 
ATOM      9  C   UNL A   1      42.329  21.908  25.730  1.00  0.00     0.014 A 
ATOM     10  C   UNL A   1      42.146  22.347  28.477  1.00  0.00     0.010 A 
ATOM     11  C   UNL A   1      42.679  23.153  26.262  1.00  0.00     0.010 A 
ATOM     12  C   UNL A   1      42.546  23.399  27.636  1.00  0.00    -0.014 A 
BRANCH  12  13
ATOM     13  C   UNL A   1      42.826  24.738  28.219  1.00  0.00     0.031 A 
ATOM     14  C   UNL A   1      44.231  25.160  28.561  1.00  0.00     0.074 A 
ATOM     15  C   UNL A   1      41.808  25.602  28.404  1.00  0.00     0.049 A 
ATOM     16  N   UNL A   1      44.658  26.314  29.012  1.00  0.00    -0.248 NA
ATOM     17  C   UNL A   1      45.293  24.157  28.382  1.00  0.00     0.031 C 
ATOM     18  C   UNL A   1      40.398  25.316  28.123  1.00  0.00     0.029 A 
ATOM     19  N   UNL A   1      41.804  26.901  28.843  1.00  0.00    -0.354 N 
ATOM     20  C   UNL A   1      46.029  26.170  29.193  1.00  0.00     0.074 A 
ATOM     21  C   UNL A   1      46.360  24.810  28.826  1.00  0.00     0.031 C 
ATOM     22  C   UNL A   1      39.675  26.425  28.340  1.00  0.00     0.029 A 
ATOM     23  C   UNL A   1      40.558  27.482  28.822  1.00  0.00     0.049 A 
ATOM     24  H   UNL A   1      42.614  27.372  29.142  1.00  0.00     0.167 HD
ATOM     25  C   UNL A   1      46.933  27.086  29.618  1.00  0.00     0.031 A 
ATOM     26  C   UNL A   1      40.167  28.725  29.153  1.00  0.00     0.031 A 
ATOM     27  C   UNL A   1      46.611  28.444  29.971  1.00  0.00     0.049 A 
ATOM     28  C   UNL A   1      41.187  29.719  29.626  1.00  0.00     0.074 A 
ATOM     29  C   UNL A   1      47.468  29.456  30.374  1.00  0.00     0.029 A 
ATOM     30  N   UNL A   1      45.335  28.982  29.967  1.00  0.00    -0.354 N 
ATOM     31  N   UNL A   1      42.484  29.576  29.749  1.00  0.00    -0.248 NA
ATOM     32  C   UNL A   1      40.687  31.049  30.000  1.00  0.00     0.031 C 
ATOM     33  C   UNL A   1      46.702  30.593  30.656  1.00  0.00     0.029 A 
ATOM     34  C   UNL A   1      45.376  30.304  30.380  1.00  0.00     0.049 A 
ATOM     35  H   UNL A   1      44.518  28.496  29.709  1.00  0.00     0.167 HD
ATOM     36  C   UNL A   1      42.958  30.803  30.193  1.00  0.00     0.074 A 
ATOM     37  C   UNL A   1      41.811  31.682  30.300  1.00  0.00     0.031 C 
ATOM     38  C   UNL A   1      44.230  31.168  30.485  1.00  0.00     0.031 A 
BRANCH  25  39
ATOM     39  C   UNL A   1      48.363  26.641  29.751  1.00  0.00    -0.014 A 
ATOM     40  C   UNL A   1      49.256  26.719  28.671  1.00  0.00     0.009 A 
ATOM     41  C   UNL A   1      48.836  26.180  30.990  1.00  0.00     0.009 A 
ATOM     42  C   UNL A   1      50.584  26.313  28.821  1.00  0.00     0.001 A 
ATOM     43  C   UNL A   1      50.170  25.799  31.144  1.00  0.00     0.001 A 
ATOM     44  C   UNL A   1      51.040  25.857  30.058  1.00  0.00     0.000 A 
ENDBRANCH  25  39
BRANCH  26  45
ATOM     45  C   UNL A   1      38.736  29.106  29.032  1.00  0.00    -0.014 A 
ATOM     46  C   UNL A   1      38.222  29.565  27.810  1.00  0.00     0.009 A 
ATOM     47  C   UNL A   1      37.877  29.006  30.138  1.00  0.00     0.009 A 
ATOM     48  C   UNL A   1      36.880  29.936  27.704  1.00  0.00     0.001 A 
ATOM     49  C   UNL A   1      36.530  29.350  30.020  1.00  0.00     0.001 A 
ATOM     50  C   UNL A   1      36.035  29.823  28.806  1.00  0.00     0.000 A 
ENDBRANCH  26  45
BRANCH  38  51
ATOM     51  C   UNL A   1      44.449  32.590  30.914  1.00  0.00    -0.014 A 
ATOM     52  C   UNL A   1      44.696  33.605  29.975  1.00  0.00     0.009 A 
ATOM     53  C   UNL A   1      44.392  32.921  32.277  1.00  0.00     0.009 A 
ATOM     54  C   UNL A   1      44.919  34.916  30.398  1.00  0.00     0.001 A 
ATOM     55  C   UNL A   1      44.589  34.238  32.694  1.00  0.00     0.001 A 
ATOM     56  C   UNL A   1      44.862  35.232  31.756  1.00  0.00     0.000 A 
ENDBRANCH  38  51
ENDBRANCH  12  13
ENDBRANCH   5   7
ENDBRANCH   2   3
ENDBRANCH   1   2
BRANCH   1  57
ATOM     57  C   UNL A   1      38.558  22.698  26.165  1.00  0.00     0.023 C 
BRANCH  57  58
ATOM     58  C   UNL A   1      37.558  23.668  25.535  1.00  0.00     0.116 C 
BRANCH  58  59
ATOM     59  N   UNL A   1      36.343  23.764  26.313  1.00  0.00    -0.354 N 
ATOM     60  C   UNL A   1      35.213  23.022  26.338  1.00  0.00     0.249 C 
ATOM     61  H   UNL A   1      36.338  24.516  26.948  1.00  0.00     0.163 HD
ATOM     62  O   UNL A   1      34.308  23.473  27.046  1.00  0.00    -0.272 OA
BRANCH  60  63
ATOM     63  C   UNL A   1      35.098  21.664  25.619  1.00  0.00     0.211 C 
ATOM     64  C   UNL A   1      33.923  20.905  26.231  1.00  0.00     0.085 C 
ATOM     65  O   UNL A   1      34.871  21.803  24.217  1.00  0.00    -0.357 OA
ATOM     66  C   UNL A   1      33.019  20.496  25.067  1.00  0.00     0.123 C 
ATOM     67  C   UNL A   1      33.533  21.373  23.882  1.00  0.00     0.186 C 
BRANCH  66  68
ATOM     68  C   UNL A   1      33.068  18.963  24.905  1.00  0.00    -0.013 A 
ATOM     69  C   UNL A   1      32.736  18.162  26.028  1.00  0.00     0.010 A 
ATOM     70  C   UNL A   1      33.382  18.292  23.711  1.00  0.00     0.010 A 
ATOM     71  C   UNL A   1      32.686  16.769  25.953  1.00  0.00     0.039 A 
ATOM     72  C   UNL A   1      33.319  16.894  23.633  1.00  0.00     0.039 A 
ATOM     73  C   UNL A   1      32.967  16.147  24.749  1.00  0.00     0.123 A 
ATOM     74  F   UNL A   1      32.895  14.813  24.659  1.00  0.00    -0.207 F 
ENDBRANCH  66  68
BRANCH  66  75
ATOM     75  O   UNL A   1      31.643  20.745  25.380  1.00  0.00    -0.382 OA
ATOM     76  H   UNL A   1      31.337  20.096  26.035  1.00  0.00     0.212 HD
ENDBRANCH  66  75
BRANCH  67  77
ATOM     77  C   UNL A   1      32.778  22.609  23.399  1.00  0.00    -0.016 A 
ATOM     78  C   UNL A   1      31.419  22.845  23.654  1.00  0.00     0.009 A 
ATOM     79  C   UNL A   1      33.505  23.632  22.754  1.00  0.00     0.009 A 
ATOM     80  C   UNL A   1      30.812  24.055  23.306  1.00  0.00     0.039 A 
ATOM     81  C   UNL A   1      32.899  24.840  22.395  1.00  0.00     0.039 A 
ATOM     82  C   UNL A   1      31.558  25.043  22.685  1.00  0.00     0.123 A 
ATOM     83  F   UNL A   1      30.981  26.213  22.376  1.00  0.00    -0.207 F 
ENDBRANCH  67  77
ENDBRANCH  60  63
ENDBRANCH  58  59
ENDBRANCH  57  58
ENDBRANCH   1  57
TORSDOF 14
ENDMDL
