MODEL 1
REMARK VINA RESULT:     -13.5      0.000      0.000
REMARK SMILES Cc1ccc(C2=NN(C(=O)CCC(=O)NCCCCNC(=O)c3ccc(-c4c5nc(c(-c6ccccc6)c6ccc([nH]6)c(-c6ccccc6)c6nc(c(-c7ccccc7)c7ccc4[nH]7)C=C6)C=C5)cc3)[C@H](C[C@@H]3C=c4cccc(C)c4=NC3=O)C2)cc1
REMARK SMILES IDX 16 1 15 2 13 3 14 4 12 6 11 7 9 8 10 9 8 10 6 11 7 12 85 13
REMARK SMILES IDX 71 14 5 15 1 16 2 17 3 18 87 19 4 20 86 21 72 22 73 23 74 24
REMARK SMILES IDX 83 25 75 26 82 27 84 28 76 29 81 30 77 31 79 32 78 33 80 34
REMARK SMILES IDX 17 35 18 36 19 37 20 38 21 39 22 41 23 42 24 43 70 44 25 45
REMARK SMILES IDX 69 46 26 47 27 48 28 49 63 50 29 51 68 52 62 53 64 54 30 55
REMARK SMILES IDX 67 56 61 57 60 58 31 60 53 61 38 62 52 63 39 64 42 65 51 66
REMARK SMILES IDX 65 67 40 68 41 69 50 71 66 72 43 73 32 74 33 75 37 76 34 77
REMARK SMILES IDX 36 78 35 79 54 80 55 81 59 82 56 83 58 84 57 85 44 86 45 87
REMARK SMILES IDX 49 88 46 89 48 90 47 91
REMARK H PARENT 15 5 20 40 64 59 42 70
REMARK Flexibility Score: inf
ROOT
ATOM      1  C   UNL A   1      44.984  34.683  28.399  1.00  0.00     0.116 C 
ENDROOT
BRANCH   1   2
ATOM      2  N   UNL A   1      46.096  34.049  27.422  1.00  0.00    -0.356 N 
ATOM      3  C   UNL A   1      46.168  33.022  26.539  1.00  0.00     0.220 C 
ATOM      4  O   UNL A   1      47.286  32.796  26.064  1.00  0.00    -0.275 OA
ATOM      5  H   UNL A   1      46.949  34.537  27.482  1.00  0.00     0.163 HD
BRANCH   3   6
ATOM      6  C   UNL A   1      44.987  32.173  26.129  1.00  0.00     0.110 C 
BRANCH   6   7
ATOM      7  C   UNL A   1      44.619  30.941  26.935  1.00  0.00     0.112 C 
BRANCH   7   8
ATOM      8  C   UNL A   1      45.260  29.657  26.451  1.00  0.00     0.243 C 
ATOM      9  O   UNL A   1      46.112  29.668  25.564  1.00  0.00    -0.273 OA
BRANCH   8  10
ATOM     10  N   UNL A   1      44.693  28.476  27.005  1.00  0.00    -0.230 N 
ATOM     11  C   UNL A   1      44.790  27.258  29.568  1.00  0.00     0.070 C 
ATOM     12  N   UNL A   1      44.434  28.567  28.818  1.00  0.00    -0.174 NA
ATOM     13  C   UNL A   1      45.595  25.841  28.188  1.00  0.00     0.086 C 
ATOM     14  C   UNL A   1      45.171  26.768  26.404  1.00  0.00     0.118 C 
BRANCH  11  15
ATOM     15  C   UNL A   1      43.820  27.179  31.032  1.00  0.00    -0.002 A 
ATOM     16  C   UNL A   1      41.922  28.421  34.772  1.00  0.00     0.044 C 
ATOM     17  C   UNL A   1      42.392  27.823  33.479  1.00  0.00    -0.051 A 
ATOM     18  C   UNL A   1      41.858  28.098  32.212  1.00  0.00     0.004 A 
ATOM     19  C   UNL A   1      43.507  27.029  33.528  1.00  0.00     0.004 A 
ATOM     20  C   UNL A   1      42.554  27.772  31.003  1.00  0.00     0.010 A 
ATOM     21  C   UNL A   1      44.152  26.689  32.338  1.00  0.00     0.010 A 
ENDBRANCH  11  15
BRANCH  14  22
ATOM     22  C   UNL A   1      43.955  26.314  25.259  1.00  0.00     0.045 C 
BRANCH  22  23
ATOM     23  C   UNL A   1      43.391  24.841  25.337  1.00  0.00     0.106 C 
ATOM     24  C   UNL A   1      42.948  24.331  26.686  1.00  0.00    -0.003 C 
ATOM     25  C   UNL A   1      44.226  23.675  24.775  1.00  0.00     0.253 C 
ATOM     26  C   UNL A   1      42.241  23.201  26.725  1.00  0.00    -0.003 A 
ATOM     27  N   UNL A   1      43.672  22.393  24.879  1.00  0.00    -0.212 NA
ATOM     28  O   UNL A   1      45.293  23.886  24.204  1.00  0.00    -0.272 OA
ATOM     29  C   UNL A   1      41.134  22.945  27.609  1.00  0.00     0.010 A 
ATOM     30  C   UNL A   1      42.752  22.174  25.774  1.00  0.00     0.077 A 
ATOM     31  C   UNL A   1      40.512  21.762  27.570  1.00  0.00     0.001 A 
ATOM     32  C   UNL A   1      42.185  20.800  26.056  1.00  0.00    -0.025 A 
ATOM     33  C   UNL A   1      41.108  20.660  26.856  1.00  0.00     0.005 A 
ATOM     34  C   UNL A   1      42.982  19.620  25.606  1.00  0.00     0.047 C 
ENDBRANCH  22  23
ENDBRANCH  14  22
ENDBRANCH   8  10
ENDBRANCH   7   8
ENDBRANCH   6   7
ENDBRANCH   3   6
ENDBRANCH   1   2
BRANCH   1  35
ATOM     35  C   UNL A   1      43.971  36.649  28.279  1.00  0.00     0.023 C 
BRANCH  35  36
ATOM     36  C   UNL A   1      43.791  37.605  29.940  1.00  0.00     0.023 C 
BRANCH  36  37
ATOM     37  C   UNL A   1      43.809  36.748  31.543  1.00  0.00     0.116 C 
BRANCH  37  38
ATOM     38  N   UNL A   1      43.769  35.223  31.602  1.00  0.00    -0.352 N 
ATOM     39  C   UNL A   1      44.411  34.202  32.315  1.00  0.00     0.251 C 
ATOM     40  H   UNL A   1      43.113  34.858  30.965  1.00  0.00     0.163 HD
ATOM     41  O   UNL A   1      44.691  33.167  31.702  1.00  0.00    -0.269 OA
BRANCH  39  42
ATOM     42  C   UNL A   1      44.445  34.197  33.846  1.00  0.00     0.039 A 
ATOM     43  C   UNL A   1      44.593  32.857  34.281  1.00  0.00     0.014 A 
ATOM     44  C   UNL A   1      43.279  34.814  34.233  1.00  0.00     0.014 A 
ATOM     45  C   UNL A   1      43.477  32.032  34.191  1.00  0.00     0.010 A 
ATOM     46  C   UNL A   1      42.178  34.063  33.908  1.00  0.00     0.010 A 
ATOM     47  C   UNL A   1      42.296  32.659  33.828  1.00  0.00    -0.014 A 
BRANCH  47  48
ATOM     48  C   UNL A   1      41.079  31.997  33.430  1.00  0.00     0.031 A 
ATOM     49  C   UNL A   1      41.022  31.639  32.003  1.00  0.00     0.074 A 
ATOM     50  C   UNL A   1      40.172  31.582  34.343  1.00  0.00     0.049 A 
ATOM     51  N   UNL A   1      39.941  31.466  31.332  1.00  0.00    -0.248 NA
ATOM     52  C   UNL A   1      42.227  31.563  31.165  1.00  0.00     0.031 C 
ATOM     53  C   UNL A   1      39.137  30.572  34.145  1.00  0.00     0.029 A 
ATOM     54  N   UNL A   1      39.894  32.090  35.614  1.00  0.00    -0.354 N 
ATOM     55  C   UNL A   1      40.326  30.872  30.150  1.00  0.00     0.074 A 
ATOM     56  C   UNL A   1      41.724  31.154  30.008  1.00  0.00     0.031 C 
ATOM     57  C   UNL A   1      38.192  30.727  35.088  1.00  0.00     0.029 A 
ATOM     58  C   UNL A   1      38.507  31.941  35.819  1.00  0.00     0.049 A 
ATOM     59  H   UNL A   1      40.542  32.478  36.246  1.00  0.00     0.167 HD
ATOM     60  C   UNL A   1      39.476  29.997  29.554  1.00  0.00     0.031 A 
ATOM     61  C   UNL A   1      37.650  32.994  35.988  1.00  0.00     0.031 A 
ATOM     62  C   UNL A   1      38.174  30.013  30.227  1.00  0.00     0.049 A 
ATOM     63  C   UNL A   1      36.666  33.135  34.839  1.00  0.00     0.074 A 
ATOM     64  C   UNL A   1      37.558  29.150  31.116  1.00  0.00     0.029 A 
ATOM     65  N   UNL A   1      37.491  31.221  30.325  1.00  0.00    -0.354 N 
ATOM     66  N   UNL A   1      36.713  32.420  33.748  1.00  0.00    -0.248 NA
ATOM     67  C   UNL A   1      35.597  34.131  34.792  1.00  0.00     0.031 C 
ATOM     68  C   UNL A   1      36.546  29.879  31.807  1.00  0.00     0.029 A 
ATOM     69  C   UNL A   1      36.522  31.171  31.310  1.00  0.00     0.049 A 
ATOM     70  H   UNL A   1      37.673  32.010  29.765  1.00  0.00     0.167 HD
ATOM     71  C   UNL A   1      35.782  32.866  32.848  1.00  0.00     0.074 A 
ATOM     72  C   UNL A   1      35.079  33.914  33.568  1.00  0.00     0.031 C 
ATOM     73  C   UNL A   1      35.716  32.362  31.579  1.00  0.00     0.031 A 
BRANCH  60  74
ATOM     74  C   UNL A   1      39.934  28.919  28.596  1.00  0.00    -0.014 A 
ATOM     75  C   UNL A   1      40.668  29.291  27.458  1.00  0.00     0.009 A 
ATOM     76  C   UNL A   1      39.627  27.546  28.692  1.00  0.00     0.009 A 
ATOM     77  C   UNL A   1      41.026  28.365  26.468  1.00  0.00     0.001 A 
ATOM     78  C   UNL A   1      39.967  26.615  27.703  1.00  0.00     0.001 A 
ATOM     79  C   UNL A   1      40.666  27.028  26.584  1.00  0.00     0.000 A 
ENDBRANCH  60  74
BRANCH  61  80
ATOM     80  C   UNL A   1      38.245  34.123  36.754  1.00  0.00    -0.014 A 
ATOM     81  C   UNL A   1      38.397  33.933  38.142  1.00  0.00     0.009 A 
ATOM     82  C   UNL A   1      39.070  35.050  36.099  1.00  0.00     0.009 A 
ATOM     83  C   UNL A   1      39.487  34.490  38.813  1.00  0.00     0.001 A 
ATOM     84  C   UNL A   1      40.161  35.602  36.778  1.00  0.00     0.001 A 
ATOM     85  C   UNL A   1      40.397  35.279  38.116  1.00  0.00     0.000 A 
ENDBRANCH  61  80
BRANCH  73  86
ATOM     86  C   UNL A   1      34.890  32.916  30.434  1.00  0.00    -0.014 A 
ATOM     87  C   UNL A   1      34.306  34.186  30.403  1.00  0.00     0.009 A 
ATOM     88  C   UNL A   1      34.786  32.153  29.244  1.00  0.00     0.009 A 
ATOM     89  C   UNL A   1      33.620  34.648  29.268  1.00  0.00     0.001 A 
ATOM     90  C   UNL A   1      34.166  32.633  28.091  1.00  0.00     0.001 A 
ATOM     91  C   UNL A   1      33.564  33.880  28.110  1.00  0.00     0.000 A 
ENDBRANCH  73  86
ENDBRANCH  47  48
ENDBRANCH  39  42
ENDBRANCH  37  38
ENDBRANCH  36  37
ENDBRANCH  35  36
ENDBRANCH   1  35
TORSDOF 17
ENDMDL
MODEL 2
REMARK VINA RESULT:     -13.2      2.881      9.442
REMARK SMILES Cc1ccc(C2=NN(C(=O)CCC(=O)NCCCCNC(=O)c3ccc(-c4c5nc(c(-c6ccccc6)c6ccc([nH]6)c(-c6ccccc6)c6nc(c(-c7ccccc7)c7ccc4[nH]7)C=C6)C=C5)cc3)[C@H](C[C@@H]3C=c4cccc(C)c4=NC3=O)C2)cc1
REMARK SMILES IDX 16 1 15 2 13 3 14 4 12 6 11 7 9 8 10 9 8 10 6 11 7 12 85 13
REMARK SMILES IDX 71 14 5 15 1 16 2 17 3 18 87 19 4 20 86 21 72 22 73 23 74 24
REMARK SMILES IDX 83 25 75 26 82 27 84 28 76 29 81 30 77 31 79 32 78 33 80 34
REMARK SMILES IDX 17 35 18 36 19 37 20 38 21 39 22 41 23 42 24 43 70 44 25 45
REMARK SMILES IDX 69 46 26 47 27 48 28 49 63 50 29 51 68 52 62 53 64 54 30 55
REMARK SMILES IDX 67 56 61 57 60 58 31 60 53 61 38 62 52 63 39 64 42 65 51 66
REMARK SMILES IDX 65 67 40 68 41 69 50 71 66 72 43 73 32 74 33 75 37 76 34 77
REMARK SMILES IDX 36 78 35 79 54 80 55 81 59 82 56 83 58 84 57 85 44 86 45 87
REMARK SMILES IDX 49 88 46 89 48 90 47 91
REMARK H PARENT 15 5 20 40 64 59 42 70
REMARK Flexibility Score: inf
ROOT
ATOM      1  C   UNL A   1      42.674  19.905  26.371  1.00  0.00     0.116 C 
ENDROOT
BRANCH   1   2
ATOM      2  N   UNL A   1      43.407  20.520  25.077  1.00  0.00    -0.356 N 
ATOM      3  C   UNL A   1      44.263  21.540  24.815  1.00  0.00     0.220 C 
ATOM      4  O   UNL A   1      44.502  21.752  23.622  1.00  0.00    -0.275 OA
ATOM      5  H   UNL A   1      43.173  20.024  24.259  1.00  0.00     0.163 HD
BRANCH   3   6
ATOM      6  C   UNL A   1      44.909  22.399  25.878  1.00  0.00     0.110 C 
BRANCH   6   7
ATOM      7  C   UNL A   1      45.154  23.874  25.619  1.00  0.00     0.112 C 
BRANCH   7   8
ATOM      8  C   UNL A   1      46.485  24.389  26.127  1.00  0.00     0.243 C 
ATOM      9  O   UNL A   1      47.145  23.747  26.941  1.00  0.00    -0.273 OA
BRANCH   8  10
ATOM     10  N   UNL A   1      46.807  25.704  25.689  1.00  0.00    -0.230 N 
ATOM     11  C   UNL A   1      49.144  26.906  24.615  1.00  0.00     0.070 C 
ATOM     12  N   UNL A   1      48.128  25.751  24.419  1.00  0.00    -0.174 NA
ATOM     13  C   UNL A   1      48.689  27.960  26.416  1.00  0.00     0.086 C 
ATOM     14  C   UNL A   1      46.851  27.159  26.868  1.00  0.00     0.118 C 
BRANCH  11  15
ATOM     15  C   UNL A   1      49.812  27.327  23.043  1.00  0.00    -0.002 A 
ATOM     16  C   UNL A   1      50.830  27.027  18.800  1.00  0.00     0.044 C 
ATOM     17  C   UNL A   1      50.513  27.376  20.224  1.00  0.00    -0.051 A 
ATOM     18  C   UNL A   1      49.278  27.850  20.692  1.00  0.00     0.004 A 
ATOM     19  C   UNL A   1      51.472  27.102  21.162  1.00  0.00     0.004 A 
ATOM     20  C   UNL A   1      48.933  27.838  22.083  1.00  0.00     0.010 A 
ATOM     21  C   UNL A   1      51.130  27.132  22.515  1.00  0.00     0.010 A 
ENDBRANCH  11  15
BRANCH  14  22
ATOM     22  C   UNL A   1      45.312  27.935  26.715  1.00  0.00     0.045 C 
BRANCH  22  23
ATOM     23  C   UNL A   1      45.187  29.420  27.239  1.00  0.00     0.106 C 
ATOM     24  C   UNL A   1      43.810  29.925  27.592  1.00  0.00    -0.003 C 
ATOM     25  C   UNL A   1      45.785  30.572  26.410  1.00  0.00     0.253 C 
ATOM     26  C   UNL A   1      43.720  31.070  28.269  1.00  0.00    -0.003 A 
ATOM     27  N   UNL A   1      45.637  31.865  26.927  1.00  0.00    -0.212 NA
ATOM     28  O   UNL A   1      46.418  30.344  25.383  1.00  0.00    -0.272 OA
ATOM     29  C   UNL A   1      42.772  31.341  29.318  1.00  0.00     0.010 A 
ATOM     30  C   UNL A   1      44.689  32.096  27.790  1.00  0.00     0.077 A 
ATOM     31  C   UNL A   1      42.764  32.538  29.914  1.00  0.00     0.001 A 
ATOM     32  C   UNL A   1      44.362  33.479  28.308  1.00  0.00    -0.025 A 
ATOM     33  C   UNL A   1      43.501  33.635  29.334  1.00  0.00     0.005 A 
ATOM     34  C   UNL A   1      44.845  34.645  27.511  1.00  0.00     0.047 C 
ENDBRANCH  22  23
ENDBRANCH  14  22
ENDBRANCH   8  10
ENDBRANCH   7   8
ENDBRANCH   6   7
ENDBRANCH   3   6
ENDBRANCH   1   2
BRANCH   1  35
ATOM     35  C   UNL A   1      40.795  20.548  27.354  1.00  0.00     0.023 C 
BRANCH  35  36
ATOM     36  C   UNL A   1      40.537  22.450  27.510  1.00  0.00     0.023 C 
BRANCH  36  37
ATOM     37  C   UNL A   1      41.940  23.603  27.575  1.00  0.00     0.116 C 
BRANCH  37  38
ATOM     38  N   UNL A   1      41.801  24.947  28.286  1.00  0.00    -0.352 N 
ATOM     39  C   UNL A   1      41.598  26.286  27.928  1.00  0.00     0.251 C 
ATOM     40  H   UNL A   1      41.872  24.843  29.263  1.00  0.00     0.163 HD
ATOM     41  O   UNL A   1      42.204  27.148  28.573  1.00  0.00    -0.269 OA
BRANCH  39  42
ATOM     42  C   UNL A   1      40.424  26.707  27.039  1.00  0.00     0.039 A 
ATOM     43  C   UNL A   1      40.624  28.052  26.647  1.00  0.00     0.014 A 
ATOM     44  C   UNL A   1      39.300  26.477  27.798  1.00  0.00     0.014 A 
ATOM     45  C   UNL A   1      40.397  29.035  27.604  1.00  0.00     0.010 A 
ATOM     46  C   UNL A   1      39.237  27.322  28.877  1.00  0.00     0.010 A 
ATOM     47  C   UNL A   1      39.847  28.593  28.798  1.00  0.00    -0.014 A 
BRANCH  47  48
ATOM     48  C   UNL A   1      39.749  29.359  30.015  1.00  0.00     0.031 A 
ATOM     49  C   UNL A   1      39.027  30.635  29.872  1.00  0.00     0.074 A 
ATOM     50  C   UNL A   1      40.125  28.841  31.205  1.00  0.00     0.049 A 
ATOM     51  N   UNL A   1      39.180  31.655  30.635  1.00  0.00    -0.248 NA
ATOM     52  C   UNL A   1      38.129  30.904  28.740  1.00  0.00     0.031 C 
ATOM     53  C   UNL A   1      39.719  29.310  32.527  1.00  0.00     0.029 A 
ATOM     54  N   UNL A   1      41.079  27.860  31.486  1.00  0.00    -0.354 N 
ATOM     55  C   UNL A   1      38.134  32.501  30.343  1.00  0.00     0.074 A 
ATOM     56  C   UNL A   1      37.662  32.107  29.049  1.00  0.00     0.031 C 
ATOM     57  C   UNL A   1      40.592  28.851  33.439  1.00  0.00     0.029 A 
ATOM     58  C   UNL A   1      41.675  28.209  32.715  1.00  0.00     0.049 A 
ATOM     59  H   UNL A   1      41.295  27.074  30.933  1.00  0.00     0.167 HD
ATOM     60  C   UNL A   1      37.625  33.275  31.336  1.00  0.00     0.031 A 
ATOM     61  C   UNL A   1      42.999  28.528  32.851  1.00  0.00     0.031 A 
ATOM     62  C   UNL A   1      38.466  33.186  32.532  1.00  0.00     0.049 A 
ATOM     63  C   UNL A   1      43.213  29.982  33.235  1.00  0.00     0.074 A 
ATOM     64  C   UNL A   1      38.329  32.519  33.738  1.00  0.00     0.029 A 
ATOM     65  N   UNL A   1      39.813  33.518  32.425  1.00  0.00    -0.354 N 
ATOM     66  N   UNL A   1      42.256  30.867  33.299  1.00  0.00    -0.248 NA
ATOM     67  C   UNL A   1      44.521  30.574  33.509  1.00  0.00     0.031 C 
ATOM     68  C   UNL A   1      39.626  32.385  34.315  1.00  0.00     0.029 A 
ATOM     69  C   UNL A   1      40.542  33.004  33.482  1.00  0.00     0.049 A 
ATOM     70  H   UNL A   1      40.198  34.052  31.693  1.00  0.00     0.167 HD
ATOM     71  C   UNL A   1      42.775  32.111  33.539  1.00  0.00     0.074 A 
ATOM     72  C   UNL A   1      44.197  31.866  33.705  1.00  0.00     0.031 C 
ATOM     73  C   UNL A   1      41.987  33.229  33.528  1.00  0.00     0.031 A 
BRANCH  60  74
ATOM     74  C   UNL A   1      36.217  33.830  31.314  1.00  0.00    -0.014 A 
ATOM     75  C   UNL A   1      35.521  33.865  30.096  1.00  0.00     0.009 A 
ATOM     76  C   UNL A   1      35.541  34.402  32.412  1.00  0.00     0.009 A 
ATOM     77  C   UNL A   1      34.262  34.470  29.975  1.00  0.00     0.001 A 
ATOM     78  C   UNL A   1      34.289  35.020  32.300  1.00  0.00     0.001 A 
ATOM     79  C   UNL A   1      33.649  35.058  31.075  1.00  0.00     0.000 A 
ENDBRANCH  60  74
BRANCH  61  80
ATOM     80  C   UNL A   1      43.891  27.732  31.964  1.00  0.00    -0.014 A 
ATOM     81  C   UNL A   1      44.620  28.449  30.993  1.00  0.00     0.009 A 
ATOM     82  C   UNL A   1      44.378  26.490  32.400  1.00  0.00     0.009 A 
ATOM     83  C   UNL A   1      45.905  28.039  30.634  1.00  0.00     0.001 A 
ATOM     84  C   UNL A   1      45.667  26.088  32.037  1.00  0.00     0.001 A 
ATOM     85  C   UNL A   1      46.446  26.888  31.199  1.00  0.00     0.000 A 
ENDBRANCH  61  80
BRANCH  73  86
ATOM     86  C   UNL A   1      42.468  34.667  33.559  1.00  0.00    -0.014 A 
ATOM     87  C   UNL A   1      43.159  35.308  32.527  1.00  0.00     0.009 A 
ATOM     88  C   UNL A   1      42.097  35.479  34.660  1.00  0.00     0.009 A 
ATOM     89  C   UNL A   1      43.500  36.668  32.609  1.00  0.00     0.001 A 
ATOM     90  C   UNL A   1      42.373  36.845  34.716  1.00  0.00     0.001 A 
ATOM     91  C   UNL A   1      43.094  37.438  33.694  1.00  0.00     0.000 A 
ENDBRANCH  73  86
ENDBRANCH  47  48
ENDBRANCH  39  42
ENDBRANCH  37  38
ENDBRANCH  36  37
ENDBRANCH  35  36
ENDBRANCH   1  35
TORSDOF 17
ENDMDL
MODEL 3
REMARK VINA RESULT:     -12.9      1.728      4.802
REMARK SMILES Cc1ccc(C2=NN(C(=O)CCC(=O)NCCCCNC(=O)c3ccc(-c4c5nc(c(-c6ccccc6)c6ccc([nH]6)c(-c6ccccc6)c6nc(c(-c7ccccc7)c7ccc4[nH]7)C=C6)C=C5)cc3)[C@H](C[C@@H]3C=c4cccc(C)c4=NC3=O)C2)cc1
REMARK SMILES IDX 16 1 15 2 13 3 14 4 12 6 11 7 9 8 10 9 8 10 6 11 7 12 85 13
REMARK SMILES IDX 71 14 5 15 1 16 2 17 3 18 87 19 4 20 86 21 72 22 73 23 74 24
REMARK SMILES IDX 83 25 75 26 82 27 84 28 76 29 81 30 77 31 79 32 78 33 80 34
REMARK SMILES IDX 17 35 18 36 19 37 20 38 21 39 22 41 23 42 24 43 70 44 25 45
REMARK SMILES IDX 69 46 26 47 27 48 28 49 63 50 29 51 68 52 62 53 64 54 30 55
REMARK SMILES IDX 67 56 61 57 60 58 31 60 53 61 38 62 52 63 39 64 42 65 51 66
REMARK SMILES IDX 65 67 40 68 41 69 50 71 66 72 43 73 32 74 33 75 37 76 34 77
REMARK SMILES IDX 36 78 35 79 54 80 55 81 59 82 56 83 58 84 57 85 44 86 45 87
REMARK SMILES IDX 49 88 46 89 48 90 47 91
REMARK H PARENT 15 5 20 40 64 59 42 70
REMARK Flexibility Score: inf
ROOT
ATOM      1  C   UNL A   1      43.480  36.148  26.473  1.00  0.00     0.116 C 
ENDROOT
BRANCH   1   2
ATOM      2  N   UNL A   1      43.650  34.983  25.375  1.00  0.00    -0.356 N 
ATOM      3  C   UNL A   1      44.095  33.702  25.351  1.00  0.00     0.220 C 
ATOM      4  O   UNL A   1      44.168  33.175  24.236  1.00  0.00    -0.275 OA
ATOM      5  H   UNL A   1      43.351  35.280  24.485  1.00  0.00     0.163 HD
BRANCH   3   6
ATOM      6  C   UNL A   1      44.494  32.920  26.581  1.00  0.00     0.110 C 
BRANCH   6   7
ATOM      7  C   UNL A   1      44.419  31.404  26.577  1.00  0.00     0.112 C 
BRANCH   7   8
ATOM      8  C   UNL A   1      45.764  30.708  26.615  1.00  0.00     0.243 C 
ATOM      9  O   UNL A   1      46.764  31.232  26.127  1.00  0.00    -0.273 OA
BRANCH   8  10
ATOM     10  N   UNL A   1      45.720  29.380  27.123  1.00  0.00    -0.230 N 
ATOM     11  C   UNL A   1      44.475  26.979  26.261  1.00  0.00     0.070 C 
ATOM     12  N   UNL A   1      45.447  28.108  25.832  1.00  0.00    -0.174 NA
ATOM     13  C   UNL A   1      43.692  27.409  28.200  1.00  0.00     0.086 C 
ATOM     14  C   UNL A   1      44.905  28.971  28.759  1.00  0.00     0.118 C 
BRANCH  11  15
ATOM     15  C   UNL A   1      44.886  25.525  25.362  1.00  0.00    -0.002 A 
ATOM     16  C   UNL A   1      45.733  21.316  24.527  1.00  0.00     0.044 C 
ATOM     17  C   UNL A   1      45.390  22.775  24.570  1.00  0.00    -0.051 A 
ATOM     18  C   UNL A   1      44.093  23.306  24.631  1.00  0.00     0.004 A 
ATOM     19  C   UNL A   1      46.431  23.658  24.670  1.00  0.00     0.004 A 
ATOM     20  C   UNL A   1      43.841  24.664  25.011  1.00  0.00     0.010 A 
ATOM     21  C   UNL A   1      46.166  24.988  25.004  1.00  0.00     0.010 A 
ENDBRANCH  11  15
BRANCH  14  22
ATOM     22  C   UNL A   1      46.184  28.930  29.925  1.00  0.00     0.045 C 
BRANCH  22  23
ATOM     23  C   UNL A   1      45.800  28.583  31.418  1.00  0.00     0.106 C 
ATOM     24  C   UNL A   1      44.389  28.874  31.865  1.00  0.00    -0.003 C 
ATOM     25  C   UNL A   1      46.658  29.134  32.572  1.00  0.00     0.253 C 
ATOM     26  C   UNL A   1      43.983  28.357  33.024  1.00  0.00    -0.003 A 
ATOM     27  N   UNL A   1      46.263  28.794  33.871  1.00  0.00    -0.212 NA
ATOM     28  O   UNL A   1      47.676  29.782  32.343  1.00  0.00    -0.272 OA
ATOM     29  C   UNL A   1      42.670  27.825  33.281  1.00  0.00     0.010 A 
ATOM     30  C   UNL A   1      45.031  28.429  34.082  1.00  0.00     0.077 A 
ATOM     31  C   UNL A   1      42.370  27.349  34.494  1.00  0.00     0.001 A 
ATOM     32  C   UNL A   1      44.470  28.168  35.462  1.00  0.00    -0.025 A 
ATOM     33  C   UNL A   1      43.249  27.615  35.607  1.00  0.00     0.005 A 
ATOM     34  C   UNL A   1      45.211  28.740  36.625  1.00  0.00     0.047 C 
ENDBRANCH  22  23
ENDBRANCH  14  22
ENDBRANCH   8  10
ENDBRANCH   7   8
ENDBRANCH   6   7
ENDBRANCH   3   6
ENDBRANCH   1   2
BRANCH   1  35
ATOM     35  C   UNL A   1      44.678  36.539  28.295  1.00  0.00     0.023 C 
BRANCH  35  36
ATOM     36  C   UNL A   1      43.705  37.226  29.808  1.00  0.00     0.023 C 
BRANCH  36  37
ATOM     37  C   UNL A   1      43.659  36.342  31.396  1.00  0.00     0.116 C 
BRANCH  37  38
ATOM     38  N   UNL A   1      43.719  34.817  31.431  1.00  0.00    -0.352 N 
ATOM     39  C   UNL A   1      44.430  33.830  32.127  1.00  0.00     0.251 C 
ATOM     40  H   UNL A   1      43.086  34.420  30.790  1.00  0.00     0.163 HD
ATOM     41  O   UNL A   1      44.775  32.825  31.497  1.00  0.00    -0.269 OA
BRANCH  39  42
ATOM     42  C   UNL A   1      44.470  33.803  33.658  1.00  0.00     0.039 A 
ATOM     43  C   UNL A   1      44.570  32.453  34.074  1.00  0.00     0.014 A 
ATOM     44  C   UNL A   1      43.328  34.458  34.058  1.00  0.00     0.014 A 
ATOM     45  C   UNL A   1      43.425  31.670  33.979  1.00  0.00     0.010 A 
ATOM     46  C   UNL A   1      42.199  33.752  33.728  1.00  0.00     0.010 A 
ATOM     47  C   UNL A   1      42.266  32.345  33.629  1.00  0.00    -0.014 A 
BRANCH  47  48
ATOM     48  C   UNL A   1      41.024  31.734  33.228  1.00  0.00     0.031 A 
ATOM     49  C   UNL A   1      40.944  31.406  31.794  1.00  0.00     0.074 A 
ATOM     50  C   UNL A   1      40.110  31.331  34.140  1.00  0.00     0.049 A 
ATOM     51  N   UNL A   1      39.853  31.284  31.129  1.00  0.00    -0.248 NA
ATOM     52  C   UNL A   1      42.140  31.305  30.946  1.00  0.00     0.031 C 
ATOM     53  C   UNL A   1      39.039  30.361  33.931  1.00  0.00     0.029 A 
ATOM     54  N   UNL A   1      39.859  31.823  35.423  1.00  0.00    -0.354 N 
ATOM     55  C   UNL A   1      40.209  30.701  29.933  1.00  0.00     0.074 A 
ATOM     56  C   UNL A   1      41.614  30.937  29.784  1.00  0.00     0.031 C 
ATOM     57  C   UNL A   1      38.107  30.530  34.884  1.00  0.00     0.029 A 
ATOM     58  C   UNL A   1      38.470  31.717  35.636  1.00  0.00     0.049 A 
ATOM     59  H   UNL A   1      40.524  32.176  36.058  1.00  0.00     0.167 HD
ATOM     60  C   UNL A   1      39.324  29.867  29.327  1.00  0.00     0.031 A 
ATOM     61  C   UNL A   1      37.650  32.795  35.833  1.00  0.00     0.031 A 
ATOM     62  C   UNL A   1      38.029  29.914  30.010  1.00  0.00     0.049 A 
ATOM     63  C   UNL A   1      36.663  32.993  34.695  1.00  0.00     0.074 A 
ATOM     64  C   UNL A   1      37.390  29.055  30.887  1.00  0.00     0.029 A 
ATOM     65  N   UNL A   1      37.389  31.143  30.137  1.00  0.00    -0.354 N 
ATOM     66  N   UNL A   1      36.677  32.299  33.590  1.00  0.00    -0.248 NA
ATOM     67  C   UNL A   1      35.629  34.026  34.676  1.00  0.00     0.031 C 
ATOM     68  C   UNL A   1      36.409  29.804  31.600  1.00  0.00     0.029 A 
ATOM     69  C   UNL A   1      36.426  31.106  31.129  1.00  0.00     0.049 A 
ATOM     70  H   UNL A   1      37.593  31.936  29.591  1.00  0.00     0.167 HD
ATOM     71  C   UNL A   1      35.756  32.795  32.707  1.00  0.00     0.074 A 
ATOM     72  C   UNL A   1      35.094  33.851  33.453  1.00  0.00     0.031 C 
ATOM     73  C   UNL A   1      35.663  32.318  31.428  1.00  0.00     0.031 A 
BRANCH  60  74
ATOM     74  C   UNL A   1      39.738  28.793  28.343  1.00  0.00    -0.014 A 
ATOM     75  C   UNL A   1      39.609  27.446  28.716  1.00  0.00     0.009 A 
ATOM     76  C   UNL A   1      40.327  29.016  27.081  1.00  0.00     0.009 A 
ATOM     77  C   UNL A   1      40.079  26.402  27.906  1.00  0.00     0.001 A 
ATOM     78  C   UNL A   1      40.812  27.982  26.271  1.00  0.00     0.001 A 
ATOM     79  C   UNL A   1      40.690  26.669  26.688  1.00  0.00     0.000 A 
ENDBRANCH  60  74
BRANCH  61  80
ATOM     80  C   UNL A   1      38.289  33.888  36.617  1.00  0.00    -0.014 A 
ATOM     81  C   UNL A   1      38.320  33.726  38.016  1.00  0.00     0.009 A 
ATOM     82  C   UNL A   1      39.243  34.716  36.006  1.00  0.00     0.009 A 
ATOM     83  C   UNL A   1      39.405  34.201  38.755  1.00  0.00     0.001 A 
ATOM     84  C   UNL A   1      40.328  35.186  36.753  1.00  0.00     0.001 A 
ATOM     85  C   UNL A   1      40.433  34.883  38.111  1.00  0.00     0.000 A 
ENDBRANCH  61  80
BRANCH  73  86
ATOM     86  C   UNL A   1      34.848  32.923  30.301  1.00  0.00    -0.014 A 
ATOM     87  C   UNL A   1      34.411  34.251  30.245  1.00  0.00     0.009 A 
ATOM     88  C   UNL A   1      34.597  32.135  29.150  1.00  0.00     0.009 A 
ATOM     89  C   UNL A   1      33.725  34.748  29.125  1.00  0.00     0.001 A 
ATOM     90  C   UNL A   1      33.977  32.643  28.008  1.00  0.00     0.001 A 
ATOM     91  C   UNL A   1      33.523  33.950  28.003  1.00  0.00     0.000 A 
ENDBRANCH  73  86
ENDBRANCH  47  48
ENDBRANCH  39  42
ENDBRANCH  37  38
ENDBRANCH  36  37
ENDBRANCH  35  36
ENDBRANCH   1  35
TORSDOF 17
ENDMDL
