MODEL 1
REMARK VINA RESULT:     -12.2      0.000      0.000
REMARK SMILES COc1ccc(-c2cc([C@@H]3CC[N@@H+](CC(=O)NCCCCNC(=O)c4ccc(-c5c6nc(c(-c7ccccc7)c7ccc([nH]7)c(-c7ccccc7)c7nc(c(-c8ccccc8)c8ccc5[nH]8)C=C7)C=C6)cc4)C3)ccn2)c2ccc(C)nc12
REMARK SMILES IDX 18 1 17 2 15 3 16 4 14 6 13 7 10 8 11 9 73 10 12 11 9 13
REMARK SMILES IDX 7 14 8 15 76 16 75 17 74 18 6 19 3 20 4 21 83 22 5 23 77 24
REMARK SMILES IDX 82 25 78 26 80 27 79 28 81 29 2 30 1 31 19 32 20 33 21 34
REMARK SMILES IDX 22 35 23 36 24 38 25 39 26 40 72 41 27 42 71 43 28 44 29 45
REMARK SMILES IDX 30 46 65 47 31 48 70 49 64 50 66 51 32 52 69 53 63 54 62 55
REMARK SMILES IDX 33 57 55 58 40 59 54 60 41 61 44 62 53 63 67 64 42 65 43 66
REMARK SMILES IDX 52 68 68 69 45 70 34 71 35 72 39 73 36 74 38 75 37 76 56 77
REMARK SMILES IDX 57 78 61 79 58 80 60 81 59 82 46 83 47 84 51 85 48 86 50 87
REMARK SMILES IDX 49 88
REMARK H PARENT 17 5 13 12 22 37 66 56 44 67
REMARK Flexibility Score: inf
ROOT
ATOM      1  C   UNL A   1      39.234  21.474  26.352  1.00  0.00     0.116 C 
ENDROOT
BRANCH   1   2
ATOM      2  N   UNL A   1      38.540  21.972  25.171  1.00  0.00    -0.351 N 
ATOM      3  C   UNL A   1      37.405  21.567  24.518  1.00  0.00     0.275 C 
ATOM      4  O   UNL A   1      37.098  22.187  23.495  1.00  0.00    -0.269 OA
ATOM      5  H   UNL A   1      38.972  22.755  24.762  1.00  0.00     0.163 HD
BRANCH   3   6
ATOM      6  C   UNL A   1      36.555  20.383  25.002  1.00  0.00     0.363 C 
BRANCH   6   7
ATOM      7  N   UNL A   1      35.318  20.705  25.760  1.00  0.00    -0.327 N 
ATOM      8  C   UNL A   1      34.113  22.714  25.059  1.00  0.00     0.080 C 
ATOM      9  C   UNL A   1      33.780  21.511  24.178  1.00  0.00     0.075 C 
ATOM     10  C   UNL A   1      35.076  22.121  26.115  1.00  0.00     0.271 C 
ATOM     11  C   UNL A   1      34.120  20.304  25.045  1.00  0.00     0.263 C 
ATOM     12  H   UNL A   1      35.492  20.183  26.619  1.00  0.00     0.348 HD
BRANCH   8  13
ATOM     13  C   UNL A   1      32.804  23.359  25.483  1.00  0.00    -0.035 A 
ATOM     14  C   UNL A   1      31.588  25.393  26.063  1.00  0.00     0.071 A 
ATOM     15  C   UNL A   1      32.614  24.745  25.376  1.00  0.00     0.033 A 
ATOM     16  N   UNL A   1      30.708  24.702  26.821  1.00  0.00    -0.256 NA
ATOM     17  C   UNL A   1      30.853  23.355  26.866  1.00  0.00     0.112 A 
ATOM     18  C   UNL A   1      31.866  22.648  26.226  1.00  0.00     0.024 A 
BRANCH  14  19
ATOM     19  C   UNL A   1      31.527  26.873  26.117  1.00  0.00     0.010 A 
ATOM     20  C   UNL A   1      31.655  29.682  26.232  1.00  0.00     0.145 A 
ATOM     21  C   UNL A   1      32.201  28.909  27.260  1.00  0.00     0.049 A 
ATOM     22  C   UNL A   1      31.060  29.089  25.104  1.00  0.00     0.113 A 
ATOM     23  C   UNL A   1      32.133  27.523  27.205  1.00  0.00     0.015 A 
ATOM     24  C   UNL A   1      30.974  27.672  25.063  1.00  0.00     0.013 A 
ATOM     25  N   UNL A   1      30.599  29.846  24.078  1.00  0.00    -0.249 NA
ATOM     26  C   UNL A   1      30.328  27.118  23.935  1.00  0.00     0.013 A 
ATOM     27  C   UNL A   1      30.029  29.271  22.996  1.00  0.00     0.038 A 
ATOM     28  C   UNL A   1      29.868  27.908  22.892  1.00  0.00     0.024 A 
ATOM     29  C   UNL A   1      29.531  30.190  21.925  1.00  0.00     0.067 C 
BRANCH  20  30
ATOM     30  O   UNL A   1      31.821  31.037  26.432  1.00  0.00    -0.494 OA
ATOM     31  C   UNL A   1      32.932  31.399  27.250  1.00  0.00     0.278 C 
ENDBRANCH  20  30
ENDBRANCH  14  19
ENDBRANCH   8  13
ENDBRANCH   6   7
ENDBRANCH   3   6
ENDBRANCH   1   2
BRANCH   1  32
ATOM     32  C   UNL A   1      40.720  21.124  26.159  1.00  0.00     0.023 C 
BRANCH  32  33
ATOM     33  C   UNL A   1      41.080  19.637  26.092  1.00  0.00     0.023 C 
BRANCH  33  34
ATOM     34  C   UNL A   1      42.519  19.365  26.472  1.00  0.00     0.116 C 
BRANCH  34  35
ATOM     35  N   UNL A   1      43.329  19.059  25.301  1.00  0.00    -0.352 N 
ATOM     36  C   UNL A   1      44.122  19.877  24.543  1.00  0.00     0.251 C 
ATOM     37  H   UNL A   1      43.303  18.118  25.011  1.00  0.00     0.163 HD
ATOM     38  O   UNL A   1      44.593  19.468  23.490  1.00  0.00    -0.269 OA
BRANCH  36  39
ATOM     39  C   UNL A   1      44.381  21.255  24.992  1.00  0.00     0.039 A 
ATOM     40  C   UNL A   1      43.838  22.307  24.252  1.00  0.00     0.014 A 
ATOM     41  C   UNL A   1      45.152  21.509  26.130  1.00  0.00     0.014 A 
ATOM     42  C   UNL A   1      44.041  23.616  24.678  1.00  0.00     0.010 A 
ATOM     43  C   UNL A   1      45.267  22.804  26.609  1.00  0.00     0.010 A 
ATOM     44  C   UNL A   1      44.731  23.868  25.874  1.00  0.00    -0.014 A 
BRANCH  44  45
ATOM     45  C   UNL A   1      44.915  25.252  26.360  1.00  0.00     0.031 A 
ATOM     46  C   UNL A   1      46.273  25.892  26.299  1.00  0.00     0.074 A 
ATOM     47  C   UNL A   1      43.863  25.900  26.894  1.00  0.00     0.049 A 
ATOM     48  N   UNL A   1      46.631  27.092  26.676  1.00  0.00    -0.248 NA
ATOM     49  C   UNL A   1      47.380  25.075  25.774  1.00  0.00     0.031 C 
ATOM     50  C   UNL A   1      42.517  25.342  27.058  1.00  0.00     0.029 A 
ATOM     51  N   UNL A   1      43.758  27.170  27.395  1.00  0.00    -0.354 N 
ATOM     52  C   UNL A   1      48.000  27.162  26.455  1.00  0.00     0.074 A 
ATOM     53  C   UNL A   1      48.422  25.874  25.957  1.00  0.00     0.031 C 
ATOM     54  C   UNL A   1      41.715  26.278  27.588  1.00  0.00     0.029 A 
ATOM     55  C   UNL A   1      42.496  27.483  27.836  1.00  0.00     0.049 A 
ATOM     56  H   UNL A   1      44.515  27.798  27.436  1.00  0.00     0.167 HD
ATOM     57  C   UNL A   1      48.827  28.217  26.633  1.00  0.00     0.031 A 
ATOM     58  C   UNL A   1      42.027  28.619  28.385  1.00  0.00     0.031 A 
ATOM     59  C   UNL A   1      48.389  29.503  27.104  1.00  0.00     0.049 A 
ATOM     60  C   UNL A   1      42.967  29.779  28.550  1.00  0.00     0.074 A 
ATOM     61  C   UNL A   1      49.125  30.666  27.238  1.00  0.00     0.029 A 
ATOM     62  N   UNL A   1      47.099  29.790  27.521  1.00  0.00    -0.354 N 
ATOM     63  N   UNL A   1      44.238  29.864  28.235  1.00  0.00    -0.248 NA
ATOM     64  C   UNL A   1      42.405  31.006  29.129  1.00  0.00     0.031 C 
ATOM     65  C   UNL A   1      48.296  31.641  27.800  1.00  0.00     0.029 A 
ATOM     66  C   UNL A   1      47.027  31.104  27.950  1.00  0.00     0.049 A 
ATOM     67  H   UNL A   1      46.347  29.155  27.513  1.00  0.00     0.167 HD
ATOM     68  C   UNL A   1      44.620  31.160  28.556  1.00  0.00     0.074 A 
ATOM     69  C   UNL A   1      43.440  31.830  29.061  1.00  0.00     0.031 C 
ATOM     70  C   UNL A   1      45.839  31.743  28.451  1.00  0.00     0.031 A 
BRANCH  57  71
ATOM     71  C   UNL A   1      50.288  28.030  26.329  1.00  0.00    -0.014 A 
ATOM     72  C   UNL A   1      51.196  27.623  27.319  1.00  0.00     0.009 A 
ATOM     73  C   UNL A   1      50.747  28.199  25.014  1.00  0.00     0.009 A 
ATOM     74  C   UNL A   1      52.540  27.410  27.001  1.00  0.00     0.001 A 
ATOM     75  C   UNL A   1      52.084  27.958  24.693  1.00  0.00     0.001 A 
ATOM     76  C   UNL A   1      52.980  27.568  25.688  1.00  0.00     0.000 A 
ENDBRANCH  57  71
BRANCH  58  77
ATOM     77  C   UNL A   1      40.608  28.715  28.819  1.00  0.00    -0.014 A 
ATOM     78  C   UNL A   1      40.241  28.441  30.146  1.00  0.00     0.009 A 
ATOM     79  C   UNL A   1      39.605  29.057  27.898  1.00  0.00     0.009 A 
ATOM     80  C   UNL A   1      38.897  28.461  30.528  1.00  0.00     0.001 A 
ATOM     81  C   UNL A   1      38.266  29.114  28.291  1.00  0.00     0.001 A 
ATOM     82  C   UNL A   1      37.912  28.800  29.602  1.00  0.00     0.000 A 
ENDBRANCH  58  77
BRANCH  70  83
ATOM     83  C   UNL A   1      45.941  33.184  28.865  1.00  0.00    -0.014 A 
ATOM     84  C   UNL A   1      45.682  34.223  27.957  1.00  0.00     0.009 A 
ATOM     85  C   UNL A   1      46.272  33.502  30.191  1.00  0.00     0.009 A 
ATOM     86  C   UNL A   1      45.797  35.555  28.361  1.00  0.00     0.001 A 
ATOM     87  C   UNL A   1      46.350  34.833  30.601  1.00  0.00     0.001 A 
ATOM     88  C   UNL A   1      46.126  35.857  29.682  1.00  0.00     0.000 A 
ENDBRANCH  70  83
ENDBRANCH  44  45
ENDBRANCH  36  39
ENDBRANCH  34  35
ENDBRANCH  33  34
ENDBRANCH  32  33
ENDBRANCH   1  32
TORSDOF 15
ENDMDL
MODEL 2
REMARK VINA RESULT:     -12.0      0.737      5.708
REMARK SMILES COc1ccc(-c2cc([C@@H]3CC[N@@H+](CC(=O)NCCCCNC(=O)c4ccc(-c5c6nc(c(-c7ccccc7)c7ccc([nH]7)c(-c7ccccc7)c7nc(c(-c8ccccc8)c8ccc5[nH]8)C=C7)C=C6)cc4)C3)ccn2)c2ccc(C)nc12
REMARK SMILES IDX 18 1 17 2 15 3 16 4 14 6 13 7 10 8 11 9 73 10 12 11 9 13
REMARK SMILES IDX 7 14 8 15 76 16 75 17 74 18 6 19 3 20 4 21 83 22 5 23 77 24
REMARK SMILES IDX 82 25 78 26 80 27 79 28 81 29 2 30 1 31 19 32 20 33 21 34
REMARK SMILES IDX 22 35 23 36 24 38 25 39 26 40 72 41 27 42 71 43 28 44 29 45
REMARK SMILES IDX 30 46 65 47 31 48 70 49 64 50 66 51 32 52 69 53 63 54 62 55
REMARK SMILES IDX 33 57 55 58 40 59 54 60 41 61 44 62 53 63 67 64 42 65 43 66
REMARK SMILES IDX 52 68 68 69 45 70 34 71 35 72 39 73 36 74 38 75 37 76 56 77
REMARK SMILES IDX 57 78 61 79 58 80 60 81 59 82 46 83 47 84 51 85 48 86 50 87
REMARK SMILES IDX 49 88
REMARK H PARENT 17 5 13 12 22 37 66 56 44 67
REMARK Flexibility Score: inf
ROOT
ATOM      1  C   UNL A   1      39.704  21.412  26.100  1.00  0.00     0.116 C 
ENDROOT
BRANCH   1   2
ATOM      2  N   UNL A   1      38.773  20.346  25.752  1.00  0.00    -0.351 N 
ATOM      3  C   UNL A   1      37.628  20.318  24.999  1.00  0.00     0.275 C 
ATOM      4  O   UNL A   1      37.029  19.239  24.934  1.00  0.00    -0.269 OA
ATOM      5  H   UNL A   1      39.014  19.472  26.135  1.00  0.00     0.163 HD
BRANCH   3   6
ATOM      6  C   UNL A   1      37.083  21.562  24.284  1.00  0.00     0.363 C 
BRANCH   6   7
ATOM      7  N   UNL A   1      36.187  22.453  25.067  1.00  0.00    -0.327 N 
ATOM      8  C   UNL A   1      33.827  22.445  24.426  1.00  0.00     0.080 C 
ATOM      9  C   UNL A   1      34.175  21.271  25.340  1.00  0.00     0.075 C 
ATOM     10  C   UNL A   1      35.162  23.221  24.326  1.00  0.00     0.271 C 
ATOM     11  C   UNL A   1      35.435  21.724  26.071  1.00  0.00     0.263 C 
ATOM     12  H   UNL A   1      36.871  23.108  25.444  1.00  0.00     0.348 HD
BRANCH   8  13
ATOM     13  C   UNL A   1      32.583  23.117  24.982  1.00  0.00    -0.035 A 
ATOM     14  C   UNL A   1      31.505  25.162  25.761  1.00  0.00     0.071 A 
ATOM     15  C   UNL A   1      32.447  24.513  24.965  1.00  0.00     0.033 A 
ATOM     16  N   UNL A   1      30.652  24.466  26.544  1.00  0.00    -0.256 NA
ATOM     17  C   UNL A   1      30.740  23.114  26.506  1.00  0.00     0.112 A 
ATOM     18  C   UNL A   1      31.671  22.404  25.755  1.00  0.00     0.024 A 
BRANCH  14  19
ATOM     19  C   UNL A   1      31.514  26.638  25.898  1.00  0.00     0.010 A 
ATOM     20  C   UNL A   1      31.775  29.428  26.163  1.00  0.00     0.145 A 
ATOM     21  C   UNL A   1      32.319  28.575  27.127  1.00  0.00     0.049 A 
ATOM     22  C   UNL A   1      31.117  28.926  25.027  1.00  0.00     0.113 A 
ATOM     23  C   UNL A   1      32.186  27.198  26.998  1.00  0.00     0.015 A 
ATOM     24  C   UNL A   1      30.964  27.520  24.911  1.00  0.00     0.013 A 
ATOM     25  N   UNL A   1      30.657  29.761  24.061  1.00  0.00    -0.249 NA
ATOM     26  C   UNL A   1      30.255  27.059  23.777  1.00  0.00     0.013 A 
ATOM     27  C   UNL A   1      30.025  29.274  22.970  1.00  0.00     0.038 A 
ATOM     28  C   UNL A   1      29.798  27.927  22.796  1.00  0.00     0.024 A 
ATOM     29  C   UNL A   1      29.535  30.273  21.970  1.00  0.00     0.067 C 
BRANCH  20  30
ATOM     30  O   UNL A   1      32.011  30.760  26.432  1.00  0.00    -0.494 OA
ATOM     31  C   UNL A   1      33.150  31.024  27.248  1.00  0.00     0.278 C 
ENDBRANCH  20  30
ENDBRANCH  14  19
ENDBRANCH   8  13
ENDBRANCH   6   7
ENDBRANCH   3   6
ENDBRANCH   1   2
BRANCH   1  32
ATOM     32  C   UNL A   1      41.145  20.971  26.408  1.00  0.00     0.023 C 
BRANCH  32  33
ATOM     33  C   UNL A   1      41.503  19.511  26.115  1.00  0.00     0.023 C 
BRANCH  33  34
ATOM     34  C   UNL A   1      42.961  19.202  26.371  1.00  0.00     0.116 C 
BRANCH  34  35
ATOM     35  N   UNL A   1      43.668  18.907  25.132  1.00  0.00    -0.352 N 
ATOM     36  C   UNL A   1      44.390  19.733  24.315  1.00  0.00     0.251 C 
ATOM     37  H   UNL A   1      43.619  17.969  24.837  1.00  0.00     0.163 HD
ATOM     38  O   UNL A   1      44.768  19.334  23.221  1.00  0.00    -0.269 OA
BRANCH  36  39
ATOM     39  C   UNL A   1      44.684  21.109  24.751  1.00  0.00     0.039 A 
ATOM     40  C   UNL A   1      44.232  22.166  23.958  1.00  0.00     0.014 A 
ATOM     41  C   UNL A   1      45.398  21.355  25.926  1.00  0.00     0.014 A 
ATOM     42  C   UNL A   1      44.468  23.474  24.369  1.00  0.00     0.010 A 
ATOM     43  C   UNL A   1      45.541  22.654  26.386  1.00  0.00     0.010 A 
ATOM     44  C   UNL A   1      45.098  23.724  25.599  1.00  0.00    -0.014 A 
BRANCH  44  45
ATOM     45  C   UNL A   1      45.315  25.109  26.067  1.00  0.00     0.031 A 
ATOM     46  C   UNL A   1      44.167  25.897  26.632  1.00  0.00     0.074 A 
ATOM     47  C   UNL A   1      46.537  25.657  25.933  1.00  0.00     0.049 A 
ATOM     48  N   UNL A   1      44.160  27.121  27.092  1.00  0.00    -0.248 NA
ATOM     49  C   UNL A   1      42.849  25.239  26.662  1.00  0.00     0.031 C 
ATOM     50  C   UNL A   1      47.702  24.998  25.337  1.00  0.00     0.029 A 
ATOM     51  N   UNL A   1      47.004  26.893  26.293  1.00  0.00    -0.354 N 
ATOM     52  C   UNL A   1      42.843  27.383  27.442  1.00  0.00     0.074 A 
ATOM     53  C   UNL A   1      42.066  26.215  27.099  1.00  0.00     0.031 C 
ATOM     54  C   UNL A   1      48.758  25.824  25.404  1.00  0.00     0.029 A 
ATOM     55  C   UNL A   1      48.335  27.080  26.010  1.00  0.00     0.049 A 
ATOM     56  H   UNL A   1      46.440  27.582  26.712  1.00  0.00     0.167 HD
ATOM     57  C   UNL A   1      42.332  28.496  28.017  1.00  0.00     0.031 A 
ATOM     58  C   UNL A   1      49.123  28.152  26.216  1.00  0.00     0.031 A 
ATOM     59  C   UNL A   1      43.122  29.641  28.378  1.00  0.00     0.049 A 
ATOM     60  C   UNL A   1      48.528  29.363  26.876  1.00  0.00     0.074 A 
ATOM     61  C   UNL A   1      42.723  30.786  29.044  1.00  0.00     0.029 A 
ATOM     62  N   UNL A   1      44.471  29.787  28.096  1.00  0.00    -0.354 N 
ATOM     63  N   UNL A   1      47.302  29.557  27.299  1.00  0.00    -0.248 NA
ATOM     64  C   UNL A   1      49.431  30.499  27.103  1.00  0.00     0.031 C 
ATOM     65  C   UNL A   1      43.817  31.653  29.107  1.00  0.00     0.029 A 
ATOM     66  C   UNL A   1      44.912  31.020  28.542  1.00  0.00     0.049 A 
ATOM     67  H   UNL A   1      45.031  29.114  27.647  1.00  0.00     0.167 HD
ATOM     68  C   UNL A   1      47.292  30.825  27.863  1.00  0.00     0.074 A 
ATOM     69  C   UNL A   1      48.641  31.340  27.754  1.00  0.00     0.031 C 
ATOM     70  C   UNL A   1      46.260  31.508  28.416  1.00  0.00     0.031 A 
BRANCH  57  71
ATOM     71  C   UNL A   1      40.853  28.537  28.286  1.00  0.00    -0.014 A 
ATOM     72  C   UNL A   1      40.308  28.013  29.468  1.00  0.00     0.009 A 
ATOM     73  C   UNL A   1      40.001  29.172  27.368  1.00  0.00     0.009 A 
ATOM     74  C   UNL A   1      38.936  28.106  29.716  1.00  0.00     0.001 A 
ATOM     75  C   UNL A   1      38.636  29.289  27.632  1.00  0.00     0.001 A 
ATOM     76  C   UNL A   1      38.103  28.752  28.803  1.00  0.00     0.000 A 
ENDBRANCH  57  71
BRANCH  58  77
ATOM     77  C   UNL A   1      50.548  28.131  25.793  1.00  0.00    -0.014 A 
ATOM     78  C   UNL A   1      50.915  28.467  24.480  1.00  0.00     0.009 A 
ATOM     79  C   UNL A   1      51.551  27.747  26.697  1.00  0.00     0.009 A 
ATOM     80  C   UNL A   1      52.247  28.374  24.071  1.00  0.00     0.001 A 
ATOM     81  C   UNL A   1      52.887  27.691  26.296  1.00  0.00     0.001 A 
ATOM     82  C   UNL A   1      53.232  27.989  24.979  1.00  0.00     0.000 A 
ENDBRANCH  58  77
BRANCH  70  83
ATOM     83  C   UNL A   1      46.566  32.872  28.967  1.00  0.00    -0.014 A 
ATOM     84  C   UNL A   1      46.999  33.042  30.291  1.00  0.00     0.009 A 
ATOM     85  C   UNL A   1      46.445  33.998  28.138  1.00  0.00     0.009 A 
ATOM     86  C   UNL A   1      47.263  34.321  30.787  1.00  0.00     0.001 A 
ATOM     87  C   UNL A   1      46.745  35.270  28.624  1.00  0.00     0.001 A 
ATOM     88  C   UNL A   1      47.140  35.431  29.951  1.00  0.00     0.000 A 
ENDBRANCH  70  83
ENDBRANCH  44  45
ENDBRANCH  36  39
ENDBRANCH  34  35
ENDBRANCH  33  34
ENDBRANCH  32  33
ENDBRANCH   1  32
TORSDOF 15
ENDMDL
MODEL 3
REMARK VINA RESULT:     -11.7      1.199      2.055
REMARK SMILES COc1ccc(-c2cc([C@@H]3CC[N@@H+](CC(=O)NCCCCNC(=O)c4ccc(-c5c6nc(c(-c7ccccc7)c7ccc([nH]7)c(-c7ccccc7)c7nc(c(-c8ccccc8)c8ccc5[nH]8)C=C7)C=C6)cc4)C3)ccn2)c2ccc(C)nc12
REMARK SMILES IDX 18 1 17 2 15 3 16 4 14 6 13 7 10 8 11 9 73 10 12 11 9 13
REMARK SMILES IDX 7 14 8 15 76 16 75 17 74 18 6 19 3 20 4 21 83 22 5 23 77 24
REMARK SMILES IDX 82 25 78 26 80 27 79 28 81 29 2 30 1 31 19 32 20 33 21 34
REMARK SMILES IDX 22 35 23 36 24 38 25 39 26 40 72 41 27 42 71 43 28 44 29 45
REMARK SMILES IDX 30 46 65 47 31 48 70 49 64 50 66 51 32 52 69 53 63 54 62 55
REMARK SMILES IDX 33 57 55 58 40 59 54 60 41 61 44 62 53 63 67 64 42 65 43 66
REMARK SMILES IDX 52 68 68 69 45 70 34 71 35 72 39 73 36 74 38 75 37 76 56 77
REMARK SMILES IDX 57 78 61 79 58 80 60 81 59 82 46 83 47 84 51 85 48 86 50 87
REMARK SMILES IDX 49 88
REMARK H PARENT 17 5 13 12 22 37 66 56 44 67
REMARK Flexibility Score: inf
ROOT
ATOM      1  C   UNL A   1      39.197  22.459  26.722  1.00  0.00     0.116 C 
ENDROOT
BRANCH   1   2
ATOM      2  N   UNL A   1      38.634  22.355  25.382  1.00  0.00    -0.351 N 
ATOM      3  C   UNL A   1      37.428  21.906  24.910  1.00  0.00     0.275 C 
ATOM      4  O   UNL A   1      37.273  21.906  23.684  1.00  0.00    -0.269 OA
ATOM      5  H   UNL A   1      39.241  22.670  24.674  1.00  0.00     0.163 HD
BRANCH   3   6
ATOM      6  C   UNL A   1      36.319  21.396  25.841  1.00  0.00     0.363 C 
BRANCH   6   7
ATOM      7  N   UNL A   1      35.345  22.401  26.345  1.00  0.00    -0.327 N 
ATOM      8  C   UNL A   1      33.162  22.437  25.244  1.00  0.00     0.080 C 
ATOM      9  C   UNL A   1      33.247  21.344  26.309  1.00  0.00     0.075 C 
ATOM     10  C   UNL A   1      34.538  23.138  25.348  1.00  0.00     0.271 C 
ATOM     11  C   UNL A   1      34.364  21.809  27.236  1.00  0.00     0.263 C 
ATOM     12  H   UNL A   1      35.983  23.058  26.794  1.00  0.00     0.348 HD
BRANCH   8  13
ATOM     13  C   UNL A   1      31.879  23.217  25.476  1.00  0.00    -0.035 A 
ATOM     14  C   UNL A   1      30.691  25.343  25.331  1.00  0.00     0.071 A 
ATOM     15  C   UNL A   1      31.675  24.468  24.874  1.00  0.00     0.033 A 
ATOM     16  N   UNL A   1      29.863  24.998  26.341  1.00  0.00    -0.256 NA
ATOM     17  C   UNL A   1      30.017  23.761  26.874  1.00  0.00     0.112 A 
ATOM     18  C   UNL A   1      30.992  22.849  26.483  1.00  0.00     0.024 A 
BRANCH  14  19
ATOM     19  C   UNL A   1      30.626  26.738  24.835  1.00  0.00     0.010 A 
ATOM     20  C   UNL A   1      30.260  29.381  23.941  1.00  0.00     0.145 A 
ATOM     21  C   UNL A   1      29.550  28.334  23.350  1.00  0.00     0.049 A 
ATOM     22  C   UNL A   1      31.145  29.157  25.011  1.00  0.00     0.113 A 
ATOM     23  C   UNL A   1      29.734  27.029  23.788  1.00  0.00     0.015 A 
ATOM     24  C   UNL A   1      31.346  27.819  25.441  1.00  0.00     0.013 A 
ATOM     25  N   UNL A   1      31.774  30.189  25.626  1.00  0.00    -0.249 NA
ATOM     26  C   UNL A   1      32.278  27.632  26.487  1.00  0.00     0.013 A 
ATOM     27  C   UNL A   1      32.623  29.969  26.654  1.00  0.00     0.038 A 
ATOM     28  C   UNL A   1      32.906  28.700  27.108  1.00  0.00     0.024 A 
ATOM     29  C   UNL A   1      33.285  31.169  27.254  1.00  0.00     0.067 C 
BRANCH  20  30
ATOM     30  O   UNL A   1      29.949  30.613  23.402  1.00  0.00    -0.494 OA
ATOM     31  C   UNL A   1      28.580  30.994  23.507  1.00  0.00     0.278 C 
ENDBRANCH  20  30
ENDBRANCH  14  19
ENDBRANCH   8  13
ENDBRANCH   6   7
ENDBRANCH   3   6
ENDBRANCH   1   2
BRANCH   1  32
ATOM     32  C   UNL A   1      40.548  21.756  26.940  1.00  0.00     0.023 C 
BRANCH  32  33
ATOM     33  C   UNL A   1      40.770  20.434  26.200  1.00  0.00     0.023 C 
BRANCH  33  34
ATOM     34  C   UNL A   1      41.978  19.675  26.705  1.00  0.00     0.116 C 
BRANCH  34  35
ATOM     35  N   UNL A   1      42.981  19.517  25.661  1.00  0.00    -0.352 N 
ATOM     36  C   UNL A   1      43.787  20.450  25.069  1.00  0.00     0.251 C 
ATOM     37  H   UNL A   1      43.097  18.597  25.331  1.00  0.00     0.163 HD
ATOM     38  O   UNL A   1      44.449  20.151  24.084  1.00  0.00    -0.269 OA
BRANCH  36  39
ATOM     39  C   UNL A   1      43.830  21.820  25.610  1.00  0.00     0.039 A 
ATOM     40  C   UNL A   1      44.244  21.998  26.931  1.00  0.00     0.014 A 
ATOM     41  C   UNL A   1      43.467  22.916  24.823  1.00  0.00     0.014 A 
ATOM     42  C   UNL A   1      44.327  23.286  27.451  1.00  0.00     0.010 A 
ATOM     43  C   UNL A   1      43.649  24.201  25.307  1.00  0.00     0.010 A 
ATOM     44  C   UNL A   1      44.058  24.395  26.633  1.00  0.00    -0.014 A 
BRANCH  44  45
ATOM     45  C   UNL A   1      44.185  25.769  27.161  1.00  0.00     0.031 A 
ATOM     46  C   UNL A   1      45.534  26.426  27.220  1.00  0.00     0.074 A 
ATOM     47  C   UNL A   1      43.085  26.392  27.624  1.00  0.00     0.049 A 
ATOM     48  N   UNL A   1      45.846  27.622  27.650  1.00  0.00    -0.248 NA
ATOM     49  C   UNL A   1      46.690  25.634  26.766  1.00  0.00     0.031 C 
ATOM     50  C   UNL A   1      41.739  25.815  27.671  1.00  0.00     0.029 A 
ATOM     51  N   UNL A   1      42.925  27.649  28.142  1.00  0.00    -0.354 N 
ATOM     52  C   UNL A   1      47.227  27.713  27.538  1.00  0.00     0.074 A 
ATOM     53  C   UNL A   1      47.703  26.441  27.048  1.00  0.00     0.031 C 
ATOM     54  C   UNL A   1      40.885  26.729  28.156  1.00  0.00     0.029 A 
ATOM     55  C   UNL A   1      41.628  27.938  28.491  1.00  0.00     0.049 A 
ATOM     56  H   UNL A   1      43.668  28.285  28.256  1.00  0.00     0.167 HD
ATOM     57  C   UNL A   1      48.024  28.773  27.803  1.00  0.00     0.031 A 
ATOM     58  C   UNL A   1      41.102  29.055  29.025  1.00  0.00     0.031 A 
ATOM     59  C   UNL A   1      47.533  30.043  28.265  1.00  0.00     0.049 A 
ATOM     60  C   UNL A   1      42.011  30.223  29.287  1.00  0.00     0.074 A 
ATOM     61  C   UNL A   1      48.240  31.211  28.482  1.00  0.00     0.029 A 
ATOM     62  N   UNL A   1      46.210  30.306  28.586  1.00  0.00    -0.354 N 
ATOM     63  N   UNL A   1      43.301  30.330  29.075  1.00  0.00    -0.248 NA
ATOM     64  C   UNL A   1      41.389  31.430  29.847  1.00  0.00     0.031 C 
ATOM     65  C   UNL A   1      47.356  32.163  28.997  1.00  0.00     0.029 A 
ATOM     66  C   UNL A   1      46.087  31.608  29.037  1.00  0.00     0.049 A 
ATOM     67  H   UNL A   1      45.470  29.662  28.506  1.00  0.00     0.167 HD
ATOM     68  C   UNL A   1      43.640  31.622  29.453  1.00  0.00     0.074 A 
ATOM     69  C   UNL A   1      42.414  32.267  29.878  1.00  0.00     0.031 C 
ATOM     70  C   UNL A   1      44.855  32.222  29.456  1.00  0.00     0.031 A 
BRANCH  57  71
ATOM     71  C   UNL A   1      49.505  28.610  27.611  1.00  0.00    -0.014 A 
ATOM     72  C   UNL A   1      50.304  27.972  28.573  1.00  0.00     0.009 A 
ATOM     73  C   UNL A   1      50.099  29.043  26.415  1.00  0.00     0.009 A 
ATOM     74  C   UNL A   1      51.671  27.791  28.350  1.00  0.00     0.001 A 
ATOM     75  C   UNL A   1      51.460  28.834  26.182  1.00  0.00     0.001 A 
ATOM     76  C   UNL A   1      52.245  28.213  27.152  1.00  0.00     0.000 A 
ENDBRANCH  57  71
BRANCH  58  77
ATOM     77  C   UNL A   1      39.652  29.125  29.348  1.00  0.00    -0.014 A 
ATOM     78  C   UNL A   1      39.162  28.630  30.567  1.00  0.00     0.009 A 
ATOM     79  C   UNL A   1      38.744  29.666  28.424  1.00  0.00     0.009 A 
ATOM     80  C   UNL A   1      37.790  28.632  30.832  1.00  0.00     0.001 A 
ATOM     81  C   UNL A   1      37.377  29.701  28.708  1.00  0.00     0.001 A 
ATOM     82  C   UNL A   1      36.900  29.170  29.904  1.00  0.00     0.000 A 
ENDBRANCH  58  77
BRANCH  70  83
ATOM     83  C   UNL A   1      44.905  33.654  29.908  1.00  0.00    -0.014 A 
ATOM     84  C   UNL A   1      44.692  34.710  29.008  1.00  0.00     0.009 A 
ATOM     85  C   UNL A   1      45.140  33.947  31.260  1.00  0.00     0.009 A 
ATOM     86  C   UNL A   1      44.757  36.034  29.447  1.00  0.00     0.001 A 
ATOM     87  C   UNL A   1      45.168  35.269  31.703  1.00  0.00     0.001 A 
ATOM     88  C   UNL A   1      44.990  36.311  30.794  1.00  0.00     0.000 A 
ENDBRANCH  70  83
ENDBRANCH  44  45
ENDBRANCH  36  39
ENDBRANCH  34  35
ENDBRANCH  33  34
ENDBRANCH  32  33
ENDBRANCH   1  32
TORSDOF 15
ENDMDL
