MODEL 1
REMARK VINA RESULT:      -9.6      0.000      0.000
REMARK SMILES C[C@H]([NH2+]C1CC1)[C@H](C)C(=O)NCCCCNC(=O)c1ccc(-c2c3nc(c(-c4ccccc4)c4ccc([nH]4)c(-c4ccccc4)c4nc(c(-c5ccccc5)c5ccc2[nH]5)C=C4)C=C3)cc1
REMARK SMILES IDX 13 1 12 2 11 3 9 4 10 5 7 7 8 8 2 9 1 10 3 11 4 14 5 15 6 16
REMARK SMILES IDX 14 17 15 18 16 19 17 20 18 22 19 23 20 24 66 25 21 26 65 27
REMARK SMILES IDX 22 28 23 29 24 30 59 31 25 32 64 33 58 34 60 35 26 36 63 37
REMARK SMILES IDX 57 38 56 39 27 41 49 42 34 43 48 44 35 45 38 46 47 47 61 48
REMARK SMILES IDX 36 49 37 50 46 52 62 53 39 54 28 55 29 56 33 57 30 58 32 59
REMARK SMILES IDX 31 60 50 61 51 62 55 63 52 64 54 65 53 66 40 67 41 68 45 69
REMARK SMILES IDX 42 70 44 71 43 72
REMARK H PARENT 11 6 3 12 3 13 16 21 60 40 38 51
REMARK Flexibility Score: inf
ROOT
ATOM      1  C   UNL A   1      37.076  21.805  24.214  1.00  0.00     0.023 C 
ENDROOT
BRANCH   1   2
ATOM      2  C   UNL A   1      35.586  22.014  24.461  1.00  0.00     0.116 C 
BRANCH   2   3
ATOM      3  N   UNL A   1      35.249  21.890  25.869  1.00  0.00    -0.356 N 
ATOM      4  C   UNL A   1      34.119  21.427  26.473  1.00  0.00     0.228 C 
ATOM      5  O   UNL A   1      34.090  21.441  27.707  1.00  0.00    -0.275 OA
ATOM      6  H   UNL A   1      35.952  22.190  26.488  1.00  0.00     0.163 HD
BRANCH   4   7
ATOM      7  C   UNL A   1      32.937  20.885  25.670  1.00  0.00     0.133 C 
ATOM      8  C   UNL A   1      32.042  22.045  25.213  1.00  0.00     0.024 C 
BRANCH   7   9
ATOM      9  C   UNL A   1      33.410  19.883  24.578  1.00  0.00     0.191 C 
ATOM     10  C   UNL A   1      32.457  19.743  23.387  1.00  0.00     0.076 C 
BRANCH   9  11
ATOM     11  N   UNL A   1      33.867  18.595  25.122  1.00  0.00    -0.341 N 
ATOM     12  H   UNL A   1      33.027  18.111  25.443  1.00  0.00     0.346 HD
ATOM     13  H   UNL A   1      34.570  18.895  25.797  1.00  0.00     0.346 HD
BRANCH  11  14
ATOM     14  C   UNL A   1      34.614  17.622  24.333  1.00  0.00     0.183 C 
ATOM     15  C   UNL A   1      34.728  16.203  24.827  1.00  0.00     0.071 C 
ATOM     16  C   UNL A   1      34.053  16.496  23.521  1.00  0.00     0.071 C 
ENDBRANCH  11  14
ENDBRANCH   9  11
ENDBRANCH   7   9
ENDBRANCH   4   7
ENDBRANCH   2   3
ENDBRANCH   1   2
BRANCH   1  17
ATOM     17  C   UNL A   1      37.620  20.460  24.690  1.00  0.00     0.023 C 
BRANCH  17  18
ATOM     18  C   UNL A   1      38.570  20.531  25.881  1.00  0.00     0.116 C 
BRANCH  18  19
ATOM     19  N   UNL A   1      39.644  19.554  25.810  1.00  0.00    -0.352 N 
ATOM     20  C   UNL A   1      40.984  19.700  26.067  1.00  0.00     0.251 C 
ATOM     21  H   UNL A   1      39.368  18.650  25.534  1.00  0.00     0.163 HD
ATOM     22  O   UNL A   1      41.758  18.785  25.806  1.00  0.00    -0.269 OA
BRANCH  20  23
ATOM     23  C   UNL A   1      41.502  20.968  26.626  1.00  0.00     0.039 A 
ATOM     24  C   UNL A   1      41.973  21.941  25.742  1.00  0.00     0.014 A 
ATOM     25  C   UNL A   1      41.530  21.200  28.003  1.00  0.00     0.014 A 
ATOM     26  C   UNL A   1      42.412  23.168  26.238  1.00  0.00     0.010 A 
ATOM     27  C   UNL A   1      41.881  22.457  28.489  1.00  0.00     0.010 A 
ATOM     28  C   UNL A   1      42.335  23.452  27.612  1.00  0.00    -0.014 A 
BRANCH  28  29
ATOM     29  C   UNL A   1      42.709  24.796  28.121  1.00  0.00     0.031 A 
ATOM     30  C   UNL A   1      41.667  25.858  28.341  1.00  0.00     0.074 A 
ATOM     31  C   UNL A   1      44.006  25.065  28.372  1.00  0.00     0.049 A 
ATOM     32  N   UNL A   1      41.807  27.055  28.855  1.00  0.00    -0.248 NA
ATOM     33  C   UNL A   1      40.294  25.549  27.910  1.00  0.00     0.031 C 
ATOM     34  C   UNL A   1      45.121  24.145  28.135  1.00  0.00     0.029 A 
ATOM     35  N   UNL A   1      44.603  26.183  28.896  1.00  0.00    -0.354 N 
ATOM     36  C   UNL A   1      40.548  27.640  28.801  1.00  0.00     0.074 A 
ATOM     37  C   UNL A   1      39.670  26.693  28.152  1.00  0.00     0.031 C 
ATOM     38  C   UNL A   1      46.259  24.716  28.564  1.00  0.00     0.029 A 
ATOM     39  C   UNL A   1      45.960  26.050  29.069  1.00  0.00     0.049 A 
ATOM     40  H   UNL A   1      44.108  27.003  29.123  1.00  0.00     0.167 HD
ATOM     41  C   UNL A   1      40.152  28.847  29.271  1.00  0.00     0.031 A 
ATOM     42  C   UNL A   1      46.862  26.902  29.590  1.00  0.00     0.031 A 
ATOM     43  C   UNL A   1      41.028  29.791  29.914  1.00  0.00     0.049 A 
ATOM     44  C   UNL A   1      46.396  28.230  30.116  1.00  0.00     0.074 A 
ATOM     45  C   UNL A   1      40.713  31.016  30.477  1.00  0.00     0.029 A 
ATOM     46  N   UNL A   1      42.395  29.620  30.072  1.00  0.00    -0.354 N 
ATOM     47  N   UNL A   1      45.184  28.730  30.145  1.00  0.00    -0.248 NA
ATOM     48  C   UNL A   1      47.422  29.101  30.704  1.00  0.00     0.031 C 
ATOM     49  C   UNL A   1      41.898  31.612  30.921  1.00  0.00     0.029 A 
ATOM     50  C   UNL A   1      42.942  30.728  30.698  1.00  0.00     0.049 A 
ATOM     51  H   UNL A   1      42.903  28.828  29.781  1.00  0.00     0.167 HD
ATOM     52  C   UNL A   1      45.297  29.960  30.778  1.00  0.00     0.074 A 
ATOM     53  C   UNL A   1      46.692  30.116  31.140  1.00  0.00     0.031 C 
ATOM     54  C   UNL A   1      44.333  30.879  31.039  1.00  0.00     0.031 A 
BRANCH  41  55
ATOM     55  C   UNL A   1      38.704  29.218  29.094  1.00  0.00    -0.014 A 
ATOM     56  C   UNL A   1      37.781  29.086  30.145  1.00  0.00     0.009 A 
ATOM     57  C   UNL A   1      38.261  29.740  27.869  1.00  0.00     0.009 A 
ATOM     58  C   UNL A   1      36.440  29.429  29.960  1.00  0.00     0.001 A 
ATOM     59  C   UNL A   1      36.927  30.113  27.696  1.00  0.00     0.001 A 
ATOM     60  C   UNL A   1      36.015  29.948  28.737  1.00  0.00     0.000 A 
ENDBRANCH  41  55
BRANCH  42  61
ATOM     61  C   UNL A   1      48.294  26.510  29.671  1.00  0.00    -0.014 A 
ATOM     62  C   UNL A   1      49.185  26.825  28.633  1.00  0.00     0.009 A 
ATOM     63  C   UNL A   1      48.779  25.815  30.790  1.00  0.00     0.009 A 
ATOM     64  C   UNL A   1      50.521  26.427  28.700  1.00  0.00     0.001 A 
ATOM     65  C   UNL A   1      50.123  25.446  30.870  1.00  0.00     0.001 A 
ATOM     66  C   UNL A   1      50.991  25.743  29.820  1.00  0.00     0.000 A 
ENDBRANCH  42  61
BRANCH  54  67
ATOM     67  C   UNL A   1      44.757  32.116  31.782  1.00  0.00    -0.014 A 
ATOM     68  C   UNL A   1      44.745  32.174  33.185  1.00  0.00     0.009 A 
ATOM     69  C   UNL A   1      45.180  33.245  31.061  1.00  0.00     0.009 A 
ATOM     70  C   UNL A   1      45.091  33.354  33.846  1.00  0.00     0.001 A 
ATOM     71  C   UNL A   1      45.562  34.410  31.727  1.00  0.00     0.001 A 
ATOM     72  C   UNL A   1      45.502  34.469  33.118  1.00  0.00     0.000 A 
ENDBRANCH  54  67
ENDBRANCH  28  29
ENDBRANCH  20  23
ENDBRANCH  18  19
ENDBRANCH  17  18
ENDBRANCH   1  17
TORSDOF 14
ENDMDL
MODEL 2
REMARK VINA RESULT:      -9.5      1.107      6.459
REMARK SMILES C[C@H]([NH2+]C1CC1)[C@H](C)C(=O)NCCCCNC(=O)c1ccc(-c2c3nc(c(-c4ccccc4)c4ccc([nH]4)c(-c4ccccc4)c4nc(c(-c5ccccc5)c5ccc2[nH]5)C=C4)C=C3)cc1
REMARK SMILES IDX 13 1 12 2 11 3 9 4 10 5 7 7 8 8 2 9 1 10 3 11 4 14 5 15 6 16
REMARK SMILES IDX 14 17 15 18 16 19 17 20 18 22 19 23 20 24 66 25 21 26 65 27
REMARK SMILES IDX 22 28 23 29 24 30 59 31 25 32 64 33 58 34 60 35 26 36 63 37
REMARK SMILES IDX 57 38 56 39 27 41 49 42 34 43 48 44 35 45 38 46 47 47 61 48
REMARK SMILES IDX 36 49 37 50 46 52 62 53 39 54 28 55 29 56 33 57 30 58 32 59
REMARK SMILES IDX 31 60 50 61 51 62 55 63 52 64 54 65 53 66 40 67 41 68 45 69
REMARK SMILES IDX 42 70 44 71 43 72
REMARK H PARENT 11 6 3 12 3 13 16 21 60 40 38 51
REMARK Flexibility Score: inf
ROOT
ATOM      1  C   UNL A   1      37.008  21.978  23.937  1.00  0.00     0.023 C 
ENDROOT
BRANCH   1   2
ATOM      2  C   UNL A   1      35.726  22.611  24.465  1.00  0.00     0.116 C 
BRANCH   2   3
ATOM      3  N   UNL A   1      34.750  22.816  23.409  1.00  0.00    -0.356 N 
ATOM      4  C   UNL A   1      33.392  22.699  23.421  1.00  0.00     0.228 C 
ATOM      5  O   UNL A   1      32.795  22.926  22.365  1.00  0.00    -0.275 OA
ATOM      6  H   UNL A   1      35.131  23.084  22.543  1.00  0.00     0.163 HD
BRANCH   4   7
ATOM      7  C   UNL A   1      32.624  22.329  24.689  1.00  0.00     0.133 C 
ATOM      8  C   UNL A   1      31.333  23.156  24.775  1.00  0.00     0.024 C 
BRANCH   7   9
ATOM      9  C   UNL A   1      32.487  20.787  24.836  1.00  0.00     0.191 C 
ATOM     10  C   UNL A   1      33.399  20.166  25.899  1.00  0.00     0.076 C 
BRANCH   9  11
ATOM     11  N   UNL A   1      32.508  20.071  23.551  1.00  0.00    -0.341 N 
ATOM     12  H   UNL A   1      33.433  20.235  23.152  1.00  0.00     0.346 HD
ATOM     13  H   UNL A   1      31.681  20.453  23.091  1.00  0.00     0.346 HD
BRANCH  11  14
ATOM     14  C   UNL A   1      32.270  18.636  23.440  1.00  0.00     0.183 C 
ATOM     15  C   UNL A   1      32.367  17.975  22.090  1.00  0.00     0.071 C 
ATOM     16  C   UNL A   1      33.291  17.568  23.196  1.00  0.00     0.071 C 
ENDBRANCH  11  14
ENDBRANCH   9  11
ENDBRANCH   7   9
ENDBRANCH   4   7
ENDBRANCH   2   3
ENDBRANCH   1   2
BRANCH   1  17
ATOM     17  C   UNL A   1      37.377  20.646  24.586  1.00  0.00     0.023 C 
BRANCH  17  18
ATOM     18  C   UNL A   1      38.373  20.740  25.738  1.00  0.00     0.116 C 
BRANCH  18  19
ATOM     19  N   UNL A   1      39.448  19.766  25.641  1.00  0.00    -0.352 N 
ATOM     20  C   UNL A   1      40.781  19.895  25.938  1.00  0.00     0.251 C 
ATOM     21  H   UNL A   1      39.178  18.878  25.311  1.00  0.00     0.163 HD
ATOM     22  O   UNL A   1      41.560  18.994  25.649  1.00  0.00    -0.269 OA
BRANCH  20  23
ATOM     23  C   UNL A   1      41.286  21.131  26.576  1.00  0.00     0.039 A 
ATOM     24  C   UNL A   1      41.837  22.122  25.762  1.00  0.00     0.014 A 
ATOM     25  C   UNL A   1      41.224  21.315  27.960  1.00  0.00     0.014 A 
ATOM     26  C   UNL A   1      42.267  23.321  26.331  1.00  0.00     0.010 A 
ATOM     27  C   UNL A   1      41.568  22.546  28.513  1.00  0.00     0.010 A 
ATOM     28  C   UNL A   1      42.102  23.559  27.705  1.00  0.00    -0.014 A 
BRANCH  28  29
ATOM     29  C   UNL A   1      42.468  24.876  28.286  1.00  0.00     0.031 A 
ATOM     30  C   UNL A   1      43.893  25.194  28.644  1.00  0.00     0.074 A 
ATOM     31  C   UNL A   1      41.501  25.788  28.507  1.00  0.00     0.049 A 
ATOM     32  N   UNL A   1      44.401  26.319  29.083  1.00  0.00    -0.248 NA
ATOM     33  C   UNL A   1      44.876  24.106  28.515  1.00  0.00     0.031 C 
ATOM     34  C   UNL A   1      40.070  25.578  28.268  1.00  0.00     0.029 A 
ATOM     35  N   UNL A   1      41.574  27.078  28.967  1.00  0.00    -0.354 N 
ATOM     36  C   UNL A   1      45.752  26.073  29.288  1.00  0.00     0.074 A 
ATOM     37  C   UNL A   1      45.976  24.677  28.984  1.00  0.00     0.031 C 
ATOM     38  C   UNL A   1      39.410  26.717  28.531  1.00  0.00     0.029 A 
ATOM     39  C   UNL A   1      40.360  27.722  28.990  1.00  0.00     0.049 A 
ATOM     40  H   UNL A   1      42.414  27.501  29.255  1.00  0.00     0.167 HD
ATOM     41  C   UNL A   1      46.725  26.934  29.673  1.00  0.00     0.031 A 
ATOM     42  C   UNL A   1      40.048  28.986  29.330  1.00  0.00     0.031 A 
ATOM     43  C   UNL A   1      46.500  28.322  29.979  1.00  0.00     0.049 A 
ATOM     44  C   UNL A   1      41.146  29.925  29.740  1.00  0.00     0.074 A 
ATOM     45  C   UNL A   1      47.427  29.292  30.321  1.00  0.00     0.029 A 
ATOM     46  N   UNL A   1      45.257  28.937  29.990  1.00  0.00    -0.354 N 
ATOM     47  N   UNL A   1      42.434  29.702  29.837  1.00  0.00    -0.248 NA
ATOM     48  C   UNL A   1      40.746  31.302  30.064  1.00  0.00     0.031 C 
ATOM     49  C   UNL A   1      46.739  30.477  30.597  1.00  0.00     0.029 A 
ATOM     50  C   UNL A   1      45.390  30.266  30.360  1.00  0.00     0.049 A 
ATOM     51  H   UNL A   1      44.406  28.495  29.769  1.00  0.00     0.167 HD
ATOM     52  C   UNL A   1      43.002  30.914  30.206  1.00  0.00     0.074 A 
ATOM     53  C   UNL A   1      41.920  31.874  30.289  1.00  0.00     0.031 C 
ATOM     54  C   UNL A   1      44.304  31.207  30.453  1.00  0.00     0.031 A 
BRANCH  41  55
ATOM     55  C   UNL A   1      48.123  26.390  29.793  1.00  0.00    -0.014 A 
ATOM     56  C   UNL A   1      49.018  26.424  28.710  1.00  0.00     0.009 A 
ATOM     57  C   UNL A   1      48.566  25.867  31.018  1.00  0.00     0.009 A 
ATOM     58  C   UNL A   1      50.309  25.908  28.840  1.00  0.00     0.001 A 
ATOM     59  C   UNL A   1      49.868  25.382  31.155  1.00  0.00     0.001 A 
ATOM     60  C   UNL A   1      50.735  25.393  30.064  1.00  0.00     0.000 A 
ENDBRANCH  41  55
BRANCH  42  61
ATOM     61  C   UNL A   1      38.636  29.447  29.262  1.00  0.00    -0.014 A 
ATOM     62  C   UNL A   1      37.779  29.300  30.364  1.00  0.00     0.009 A 
ATOM     63  C   UNL A   1      38.135  30.036  28.090  1.00  0.00     0.009 A 
ATOM     64  C   UNL A   1      36.445  29.706  30.284  1.00  0.00     0.001 A 
ATOM     65  C   UNL A   1      36.810  30.471  28.023  1.00  0.00     0.001 A 
ATOM     66  C   UNL A   1      35.964  30.296  29.118  1.00  0.00     0.000 A 
ENDBRANCH  42  61
BRANCH  54  67
ATOM     67  C   UNL A   1      44.624  32.635  30.802  1.00  0.00    -0.014 A 
ATOM     68  C   UNL A   1      44.642  33.082  32.133  1.00  0.00     0.009 A 
ATOM     69  C   UNL A   1      44.916  33.549  29.776  1.00  0.00     0.009 A 
ATOM     70  C   UNL A   1      44.889  34.426  32.423  1.00  0.00     0.001 A 
ATOM     71  C   UNL A   1      45.200  34.882  30.073  1.00  0.00     0.001 A 
ATOM     72  C   UNL A   1      45.170  35.323  31.395  1.00  0.00     0.000 A 
ENDBRANCH  54  67
ENDBRANCH  28  29
ENDBRANCH  20  23
ENDBRANCH  18  19
ENDBRANCH  17  18
ENDBRANCH   1  17
TORSDOF 14
ENDMDL
MODEL 3
REMARK VINA RESULT:      -9.4      4.980      9.881
REMARK SMILES C[C@H]([NH2+]C1CC1)[C@H](C)C(=O)NCCCCNC(=O)c1ccc(-c2c3nc(c(-c4ccccc4)c4ccc([nH]4)c(-c4ccccc4)c4nc(c(-c5ccccc5)c5ccc2[nH]5)C=C4)C=C3)cc1
REMARK SMILES IDX 13 1 12 2 11 3 9 4 10 5 7 7 8 8 2 9 1 10 3 11 4 14 5 15 6 16
REMARK SMILES IDX 14 17 15 18 16 19 17 20 18 22 19 23 20 24 66 25 21 26 65 27
REMARK SMILES IDX 22 28 23 29 24 30 59 31 25 32 64 33 58 34 60 35 26 36 63 37
REMARK SMILES IDX 57 38 56 39 27 41 49 42 34 43 48 44 35 45 38 46 47 47 61 48
REMARK SMILES IDX 36 49 37 50 46 52 62 53 39 54 28 55 29 56 33 57 30 58 32 59
REMARK SMILES IDX 31 60 50 61 51 62 55 63 52 64 54 65 53 66 40 67 41 68 45 69
REMARK SMILES IDX 42 70 44 71 43 72
REMARK H PARENT 11 6 3 12 3 13 16 21 60 40 38 51
REMARK Flexibility Score: inf
ROOT
ATOM      1  C   UNL A   1      31.529  30.805  26.077  1.00  0.00     0.023 C 
ENDROOT
BRANCH   1   2
ATOM      2  C   UNL A   1      32.878  30.136  26.311  1.00  0.00     0.116 C 
BRANCH   2   3
ATOM      3  N   UNL A   1      33.485  29.694  25.068  1.00  0.00    -0.356 N 
ATOM      4  C   UNL A   1      32.961  28.989  24.026  1.00  0.00     0.228 C 
ATOM      5  O   UNL A   1      33.712  28.734  23.080  1.00  0.00    -0.275 OA
ATOM      6  H   UNL A   1      34.431  29.943  24.960  1.00  0.00     0.163 HD
BRANCH   4   7
ATOM      7  C   UNL A   1      31.497  28.551  24.003  1.00  0.00     0.133 C 
ATOM      8  C   UNL A   1      30.856  28.948  22.666  1.00  0.00     0.024 C 
BRANCH   7   9
ATOM      9  C   UNL A   1      31.346  27.068  24.447  1.00  0.00     0.191 C 
ATOM     10  C   UNL A   1      31.172  26.870  25.957  1.00  0.00     0.076 C 
BRANCH   9  11
ATOM     11  N   UNL A   1      32.346  26.171  23.848  1.00  0.00    -0.341 N 
ATOM     12  H   UNL A   1      32.606  25.509  24.580  1.00  0.00     0.346 HD
ATOM     13  H   UNL A   1      33.035  26.837  23.497  1.00  0.00     0.346 HD
BRANCH  11  14
ATOM     14  C   UNL A   1      32.080  25.369  22.658  1.00  0.00     0.183 C 
ATOM     15  C   UNL A   1      32.779  25.710  21.368  1.00  0.00     0.071 C 
ATOM     16  C   UNL A   1      32.997  24.376  22.015  1.00  0.00     0.071 C 
ENDBRANCH  11  14
ENDBRANCH   9  11
ENDBRANCH   7   9
ENDBRANCH   4   7
ENDBRANCH   2   3
ENDBRANCH   1   2
BRANCH   1  17
ATOM     17  C   UNL A   1      31.334  32.128  26.815  1.00  0.00     0.023 C 
BRANCH  17  18
ATOM     18  C   UNL A   1      32.622  32.843  27.212  1.00  0.00     0.116 C 
BRANCH  18  19
ATOM     19  N   UNL A   1      32.404  34.221  27.619  1.00  0.00    -0.352 N 
ATOM     20  C   UNL A   1      33.051  34.971  28.569  1.00  0.00     0.251 C 
ATOM     21  H   UNL A   1      31.682  34.688  27.140  1.00  0.00     0.163 HD
ATOM     22  O   UNL A   1      32.620  36.079  28.868  1.00  0.00    -0.269 OA
BRANCH  20  23
ATOM     23  C   UNL A   1      34.246  34.433  29.256  1.00  0.00     0.039 A 
ATOM     24  C   UNL A   1      34.072  33.780  30.477  1.00  0.00     0.014 A 
ATOM     25  C   UNL A   1      35.525  34.571  28.711  1.00  0.00     0.014 A 
ATOM     26  C   UNL A   1      35.174  33.212  31.118  1.00  0.00     0.010 A 
ATOM     27  C   UNL A   1      36.607  33.926  29.304  1.00  0.00     0.010 A 
ATOM     28  C   UNL A   1      36.444  33.247  30.519  1.00  0.00    -0.014 A 
BRANCH  28  29
ATOM     29  C   UNL A   1      37.592  32.553  31.158  1.00  0.00     0.031 A 
ATOM     30  C   UNL A   1      38.209  31.336  30.526  1.00  0.00     0.074 A 
ATOM     31  C   UNL A   1      38.071  33.018  32.329  1.00  0.00     0.049 A 
ATOM     32  N   UNL A   1      39.264  30.657  30.904  1.00  0.00    -0.248 NA
ATOM     33  C   UNL A   1      37.548  30.794  29.328  1.00  0.00     0.031 C 
ATOM     34  C   UNL A   1      37.517  34.148  33.080  1.00  0.00     0.029 A 
ATOM     35  N   UNL A   1      39.140  32.609  33.085  1.00  0.00    -0.354 N 
ATOM     36  C   UNL A   1      39.387  29.611  29.999  1.00  0.00     0.074 A 
ATOM     37  C   UNL A   1      38.267  29.707  29.089  1.00  0.00     0.031 C 
ATOM     38  C   UNL A   1      38.284  34.375  34.159  1.00  0.00     0.029 A 
ATOM     39  C   UNL A   1      39.357  33.389  34.195  1.00  0.00     0.049 A 
ATOM     40  H   UNL A   1      39.697  31.831  32.854  1.00  0.00     0.167 HD
ATOM     41  C   UNL A   1      40.356  28.668  29.916  1.00  0.00     0.031 A 
ATOM     42  C   UNL A   1      40.320  33.326  35.133  1.00  0.00     0.031 A 
ATOM     43  C   UNL A   1      41.468  28.571  30.825  1.00  0.00     0.049 A 
ATOM     44  C   UNL A   1      41.391  32.280  35.012  1.00  0.00     0.074 A 
ATOM     45  C   UNL A   1      42.534  27.688  30.793  1.00  0.00     0.029 A 
ATOM     46  N   UNL A   1      41.653  29.379  31.936  1.00  0.00    -0.354 N 
ATOM     47  N   UNL A   1      41.546  31.356  34.094  1.00  0.00    -0.248 NA
ATOM     48  C   UNL A   1      42.435  32.285  36.046  1.00  0.00     0.031 C 
ATOM     49  C   UNL A   1      43.331  27.923  31.918  1.00  0.00     0.029 A 
ATOM     50  C   UNL A   1      42.801  28.998  32.613  1.00  0.00     0.049 A 
ATOM     51  H   UNL A   1      41.057  30.114  32.206  1.00  0.00     0.167 HD
ATOM     52  C   UNL A   1      42.718  30.688  34.424  1.00  0.00     0.074 A 
ATOM     53  C   UNL A   1      43.245  31.332  35.611  1.00  0.00     0.031 C 
ATOM     54  C   UNL A   1      43.307  29.637  33.801  1.00  0.00     0.031 A 
BRANCH  41  55
ATOM     55  C   UNL A   1      40.246  27.657  28.806  1.00  0.00    -0.014 A 
ATOM     56  C   UNL A   1      40.854  27.872  27.558  1.00  0.00     0.009 A 
ATOM     57  C   UNL A   1      39.553  26.456  29.022  1.00  0.00     0.009 A 
ATOM     58  C   UNL A   1      40.735  26.925  26.538  1.00  0.00     0.001 A 
ATOM     59  C   UNL A   1      39.463  25.496  28.012  1.00  0.00     0.001 A 
ATOM     60  C   UNL A   1      40.045  25.735  26.768  1.00  0.00     0.000 A 
ENDBRANCH  41  55
BRANCH  42  61
ATOM     61  C   UNL A   1      40.335  34.307  36.250  1.00  0.00    -0.014 A 
ATOM     62  C   UNL A   1      40.974  35.549  36.106  1.00  0.00     0.009 A 
ATOM     63  C   UNL A   1      39.710  34.005  37.471  1.00  0.00     0.009 A 
ATOM     64  C   UNL A   1      41.013  36.453  37.169  1.00  0.00     0.001 A 
ATOM     65  C   UNL A   1      39.722  34.924  38.521  1.00  0.00     0.001 A 
ATOM     66  C   UNL A   1      40.382  36.144  38.373  1.00  0.00     0.000 A 
ENDBRANCH  42  61
BRANCH  54  67
ATOM     67  C   UNL A   1      44.607  29.146  34.377  1.00  0.00    -0.014 A 
ATOM     68  C   UNL A   1      45.843  29.658  33.948  1.00  0.00     0.009 A 
ATOM     69  C   UNL A   1      44.593  28.155  35.371  1.00  0.00     0.009 A 
ATOM     70  C   UNL A   1      47.036  29.145  34.460  1.00  0.00     0.001 A 
ATOM     71  C   UNL A   1      45.786  27.671  35.909  1.00  0.00     0.001 A 
ATOM     72  C   UNL A   1      47.007  28.155  35.441  1.00  0.00     0.000 A 
ENDBRANCH  54  67
ENDBRANCH  28  29
ENDBRANCH  20  23
ENDBRANCH  18  19
ENDBRANCH  17  18
ENDBRANCH   1  17
TORSDOF 14
ENDMDL
