MODEL 1
REMARK VINA RESULT:     -10.7      0.000      0.000
REMARK SMILES O=C(NCCCCNC(=O)C1CN(S(=O)(=O)c2ccc(F)cc2)C1)c1ccc(-c2c3nc(c(-c4ccccc4)c4ccc([nH]4)c(-c4ccccc4)c4nc(c(-c5ccccc5)c5ccc2[nH]5)C=C4)C=C3)cc1
REMARK SMILES IDX 5 1 4 2 3 3 1 4 2 5 25 7 26 8 72 9 27 10 71 11 28 12 29 13
REMARK SMILES IDX 30 14 65 15 31 16 70 17 64 18 66 19 32 20 69 21 63 22 62 23
REMARK SMILES IDX 33 25 55 26 40 27 54 28 41 29 44 30 53 31 67 32 42 33 43 34
REMARK SMILES IDX 52 36 68 37 45 38 34 39 35 40 39 41 36 42 38 43 37 44 56 45
REMARK SMILES IDX 57 46 61 47 58 48 60 49 59 50 46 51 47 52 51 53 48 54 50 55
REMARK SMILES IDX 49 56 6 57 7 58 8 59 9 60 10 62 11 63 12 64 24 65 13 66
REMARK SMILES IDX 14 67 15 68 16 69 17 70 18 71 23 72 19 73 22 74 20 75 21 76
REMARK H PARENT 3 6 66 24 44 35 8 61
REMARK Flexibility Score: inf
ROOT
ATOM      1  C   UNL A   1      32.716  28.194  26.078  1.00  0.00     0.023 C 
ENDROOT
BRANCH   1   2
ATOM      2  C   UNL A   1      33.917  28.596  26.926  1.00  0.00     0.116 C 
BRANCH   2   3
ATOM      3  N   UNL A   1      33.779  29.910  27.535  1.00  0.00    -0.352 N 
ATOM      4  O   UNL A   1      34.367  31.673  28.818  1.00  0.00    -0.269 OA
ATOM      5  C   UNL A   1      34.691  30.619  28.282  1.00  0.00     0.251 C 
ATOM      6  H   UNL A   1      32.912  30.354  27.391  1.00  0.00     0.163 HD
BRANCH   5   7
ATOM      7  C   UNL A   1      36.056  30.084  28.467  1.00  0.00     0.039 A 
ATOM      8  C   UNL A   1      36.433  29.486  29.671  1.00  0.00     0.014 A 
ATOM      9  C   UNL A   1      36.976  30.202  27.420  1.00  0.00     0.014 A 
ATOM     10  C   UNL A   1      37.763  29.142  29.883  1.00  0.00     0.010 A 
ATOM     11  C   UNL A   1      38.296  29.783  27.608  1.00  0.00     0.010 A 
ATOM     12  C   UNL A   1      38.708  29.285  28.854  1.00  0.00    -0.014 A 
BRANCH  12  13
ATOM     13  C   UNL A   1      40.112  28.869  29.088  1.00  0.00     0.031 A 
ATOM     14  C   UNL A   1      41.081  29.769  29.802  1.00  0.00     0.074 A 
ATOM     15  C   UNL A   1      40.505  27.650  28.670  1.00  0.00     0.049 A 
ATOM     16  N   UNL A   1      42.338  29.552  30.100  1.00  0.00    -0.248 NA
ATOM     17  C   UNL A   1      40.579  31.083  30.234  1.00  0.00     0.031 C 
ATOM     18  C   UNL A   1      39.657  26.686  27.967  1.00  0.00     0.029 A 
ATOM     19  N   UNL A   1      41.710  27.009  28.794  1.00  0.00    -0.354 N 
ATOM     20  C   UNL A   1      42.784  30.706  30.732  1.00  0.00     0.074 A 
ATOM     21  C   UNL A   1      41.669  31.628  30.760  1.00  0.00     0.031 C 
ATOM     22  C   UNL A   1      40.354  25.559  27.759  1.00  0.00     0.029 A 
ATOM     23  C   UNL A   1      41.711  25.742  28.262  1.00  0.00     0.049 A 
ATOM     24  H   UNL A   1      42.498  27.416  29.221  1.00  0.00     0.167 HD
ATOM     25  C   UNL A   1      44.009  30.971  31.245  1.00  0.00     0.031 A 
ATOM     26  C   UNL A   1      42.696  24.832  28.176  1.00  0.00     0.031 A 
ATOM     27  C   UNL A   1      45.117  30.052  31.221  1.00  0.00     0.049 A 
ATOM     28  C   UNL A   1      44.050  25.161  28.728  1.00  0.00     0.074 A 
ATOM     29  C   UNL A   1      46.389  30.221  31.744  1.00  0.00     0.029 A 
ATOM     30  N   UNL A   1      45.087  28.794  30.642  1.00  0.00    -0.354 N 
ATOM     31  N   UNL A   1      44.446  26.247  29.344  1.00  0.00    -0.248 NA
ATOM     32  C   UNL A   1      45.093  24.138  28.570  1.00  0.00     0.031 C 
ATOM     33  C   UNL A   1      47.141  29.079  31.443  1.00  0.00     0.029 A 
ATOM     34  C   UNL A   1      46.324  28.183  30.773  1.00  0.00     0.049 A 
ATOM     35  H   UNL A   1      44.303  28.393  30.201  1.00  0.00     0.167 HD
ATOM     36  C   UNL A   1      45.780  26.037  29.659  1.00  0.00     0.074 A 
ATOM     37  C   UNL A   1      46.120  24.710  29.183  1.00  0.00     0.031 C 
ATOM     38  C   UNL A   1      46.648  26.868  30.285  1.00  0.00     0.031 A 
BRANCH  25  39
ATOM     39  C   UNL A   1      44.227  32.327  31.855  1.00  0.00    -0.014 A 
ATOM     40  C   UNL A   1      44.014  32.553  33.223  1.00  0.00     0.009 A 
ATOM     41  C   UNL A   1      44.694  33.382  31.055  1.00  0.00     0.009 A 
ATOM     42  C   UNL A   1      44.237  33.819  33.773  1.00  0.00     0.001 A 
ATOM     43  C   UNL A   1      44.938  34.639  31.611  1.00  0.00     0.001 A 
ATOM     44  C   UNL A   1      44.702  34.858  32.968  1.00  0.00     0.000 A 
ENDBRANCH  25  39
BRANCH  26  45
ATOM     45  C   UNL A   1      42.428  23.524  27.527  1.00  0.00    -0.014 A 
ATOM     46  C   UNL A   1      42.591  23.369  26.143  1.00  0.00     0.009 A 
ATOM     47  C   UNL A   1      42.036  22.418  28.297  1.00  0.00     0.009 A 
ATOM     48  C   UNL A   1      42.353  22.131  25.541  1.00  0.00     0.001 A 
ATOM     49  C   UNL A   1      41.824  21.176  27.695  1.00  0.00     0.001 A 
ATOM     50  C   UNL A   1      41.977  21.036  26.317  1.00  0.00     0.000 A 
ENDBRANCH  26  45
BRANCH  38  51
ATOM     51  C   UNL A   1      48.040  26.355  30.506  1.00  0.00    -0.014 A 
ATOM     52  C   UNL A   1      49.035  26.519  29.530  1.00  0.00     0.009 A 
ATOM     53  C   UNL A   1      48.365  25.720  31.715  1.00  0.00     0.009 A 
ATOM     54  C   UNL A   1      50.323  26.030  29.749  1.00  0.00     0.001 A 
ATOM     55  C   UNL A   1      49.661  25.253  31.940  1.00  0.00     0.001 A 
ATOM     56  C   UNL A   1      50.636  25.400  30.954  1.00  0.00     0.000 A 
ENDBRANCH  38  51
ENDBRANCH  12  13
ENDBRANCH   5   7
ENDBRANCH   2   3
ENDBRANCH   1   2
BRANCH   1  57
ATOM     57  C   UNL A   1      31.586  27.501  26.836  1.00  0.00     0.023 C 
BRANCH  57  58
ATOM     58  C   UNL A   1      30.610  26.719  25.962  1.00  0.00     0.116 C 
BRANCH  58  59
ATOM     59  N   UNL A   1      30.105  25.515  26.608  1.00  0.00    -0.356 N 
ATOM     60  C   UNL A   1      30.656  24.250  26.565  1.00  0.00     0.225 C 
ATOM     61  H   UNL A   1      29.279  25.614  27.133  1.00  0.00     0.163 HD
ATOM     62  O   UNL A   1      30.129  23.354  27.228  1.00  0.00    -0.275 OA
BRANCH  60  63
ATOM     63  C   UNL A   1      31.877  24.070  25.671  1.00  0.00     0.109 C 
ATOM     64  C   UNL A   1      32.810  22.849  25.728  1.00  0.00     0.117 C 
ATOM     65  C   UNL A   1      31.575  23.554  24.245  1.00  0.00     0.117 C 
ATOM     66  N   UNL A   1      32.954  22.948  24.207  1.00  0.00    -0.196 NA
BRANCH  66  67
ATOM     67  S   UNL A   1      34.262  23.840  23.511  1.00  0.00     0.243 S 
ATOM     68  O   UNL A   1      34.455  23.362  22.157  1.00  0.00    -0.207 OA
ATOM     69  O   UNL A   1      34.023  25.241  23.790  1.00  0.00    -0.207 OA
BRANCH  67  70
ATOM     70  C   UNL A   1      35.680  23.319  24.446  1.00  0.00     0.082 A 
ATOM     71  C   UNL A   1      36.277  22.077  24.197  1.00  0.00     0.025 A 
ATOM     72  C   UNL A   1      36.232  24.196  25.387  1.00  0.00     0.025 A 
ATOM     73  C   UNL A   1      37.426  21.711  24.899  1.00  0.00     0.040 A 
ATOM     74  C   UNL A   1      37.386  23.828  26.078  1.00  0.00     0.040 A 
ATOM     75  C   UNL A   1      37.972  22.589  25.830  1.00  0.00     0.123 A 
ATOM     76  F   UNL A   1      39.083  22.241  26.489  1.00  0.00    -0.207 F 
ENDBRANCH  67  70
ENDBRANCH  66  67
ENDBRANCH  60  63
ENDBRANCH  58  59
ENDBRANCH  57  58
ENDBRANCH   1  57
TORSDOF 13
ENDMDL
MODEL 2
REMARK VINA RESULT:     -10.6      2.630      7.601
REMARK SMILES O=C(NCCCCNC(=O)C1CN(S(=O)(=O)c2ccc(F)cc2)C1)c1ccc(-c2c3nc(c(-c4ccccc4)c4ccc([nH]4)c(-c4ccccc4)c4nc(c(-c5ccccc5)c5ccc2[nH]5)C=C4)C=C3)cc1
REMARK SMILES IDX 5 1 4 2 3 3 1 4 2 5 25 7 26 8 72 9 27 10 71 11 28 12 29 13
REMARK SMILES IDX 30 14 65 15 31 16 70 17 64 18 66 19 32 20 69 21 63 22 62 23
REMARK SMILES IDX 33 25 55 26 40 27 54 28 41 29 44 30 53 31 67 32 42 33 43 34
REMARK SMILES IDX 52 36 68 37 45 38 34 39 35 40 39 41 36 42 38 43 37 44 56 45
REMARK SMILES IDX 57 46 61 47 58 48 60 49 59 50 46 51 47 52 51 53 48 54 50 55
REMARK SMILES IDX 49 56 6 57 7 58 8 59 9 60 10 62 11 63 12 64 24 65 13 66
REMARK SMILES IDX 14 67 15 68 16 69 17 70 18 71 23 72 19 73 22 74 20 75 21 76
REMARK H PARENT 3 6 66 24 44 35 8 61
REMARK Flexibility Score: inf
ROOT
ATOM      1  C   UNL A   1      37.833  19.989  24.891  1.00  0.00     0.023 C 
ENDROOT
BRANCH   1   2
ATOM      2  C   UNL A   1      38.981  20.356  25.824  1.00  0.00     0.116 C 
BRANCH   2   3
ATOM      3  N   UNL A   1      40.058  19.378  25.826  1.00  0.00    -0.352 N 
ATOM      4  O   UNL A   1      42.186  18.638  25.976  1.00  0.00    -0.269 OA
ATOM      5  C   UNL A   1      41.386  19.553  26.137  1.00  0.00     0.251 C 
ATOM      6  H   UNL A   1      39.799  18.464  25.568  1.00  0.00     0.163 HD
BRANCH   5   7
ATOM      7  C   UNL A   1      41.853  20.864  26.634  1.00  0.00     0.039 A 
ATOM      8  C   UNL A   1      41.834  21.160  27.999  1.00  0.00     0.014 A 
ATOM      9  C   UNL A   1      42.301  21.816  25.713  1.00  0.00     0.014 A 
ATOM     10  C   UNL A   1      42.119  22.451  28.428  1.00  0.00     0.010 A 
ATOM     11  C   UNL A   1      42.662  23.091  26.155  1.00  0.00     0.010 A 
ATOM     12  C   UNL A   1      42.538  23.429  27.512  1.00  0.00    -0.014 A 
BRANCH  12  13
ATOM     13  C   UNL A   1      42.881  24.788  28.000  1.00  0.00     0.031 A 
ATOM     14  C   UNL A   1      41.814  25.817  28.249  1.00  0.00     0.074 A 
ATOM     15  C   UNL A   1      44.172  25.083  28.242  1.00  0.00     0.049 A 
ATOM     16  N   UNL A   1      41.942  27.044  28.687  1.00  0.00    -0.248 NA
ATOM     17  C   UNL A   1      40.425  25.421  27.966  1.00  0.00     0.031 C 
ATOM     18  C   UNL A   1      45.298  24.168  28.040  1.00  0.00     0.029 A 
ATOM     19  N   UNL A   1      44.752  26.225  28.729  1.00  0.00    -0.354 N 
ATOM     20  C   UNL A   1      40.659  27.575  28.713  1.00  0.00     0.074 A 
ATOM     21  C   UNL A   1      39.766  26.543  28.229  1.00  0.00     0.031 C 
ATOM     22  C   UNL A   1      46.428  24.770  28.440  1.00  0.00     0.029 A 
ATOM     23  C   UNL A   1      46.115  26.127  28.872  1.00  0.00     0.049 A 
ATOM     24  H   UNL A   1      44.242  27.036  28.954  1.00  0.00     0.167 HD
ATOM     25  C   UNL A   1      40.260  28.808  29.107  1.00  0.00     0.031 A 
ATOM     26  C   UNL A   1      47.016  27.032  29.292  1.00  0.00     0.031 A 
ATOM     27  C   UNL A   1      41.147  29.833  29.592  1.00  0.00     0.049 A 
ATOM     28  C   UNL A   1      46.551  28.398  29.696  1.00  0.00     0.074 A 
ATOM     29  C   UNL A   1      40.831  31.104  30.043  1.00  0.00     0.029 A 
ATOM     30  N   UNL A   1      42.523  29.707  29.687  1.00  0.00    -0.354 N 
ATOM     31  N   UNL A   1      45.331  28.874  29.737  1.00  0.00    -0.248 NA
ATOM     32  C   UNL A   1      47.589  29.352  30.110  1.00  0.00     0.031 C 
ATOM     33  C   UNL A   1      42.023  31.761  30.372  1.00  0.00     0.029 A 
ATOM     34  C   UNL A   1      43.075  30.883  30.168  1.00  0.00     0.049 A 
ATOM     35  H   UNL A   1      43.035  28.900  29.448  1.00  0.00     0.167 HD
ATOM     36  C   UNL A   1      45.451  30.179  30.192  1.00  0.00     0.074 A 
ATOM     37  C   UNL A   1      46.861  30.412  30.433  1.00  0.00     0.031 C 
ATOM     38  C   UNL A   1      44.480  31.102  30.392  1.00  0.00     0.031 A 
BRANCH  25  39
ATOM     39  C   UNL A   1      38.796  29.130  29.001  1.00  0.00    -0.014 A 
ATOM     40  C   UNL A   1      37.940  28.996  30.105  1.00  0.00     0.009 A 
ATOM     41  C   UNL A   1      38.276  29.616  27.792  1.00  0.00     0.009 A 
ATOM     42  C   UNL A   1      36.584  29.316  29.989  1.00  0.00     0.001 A 
ATOM     43  C   UNL A   1      36.926  29.956  27.686  1.00  0.00     0.001 A 
ATOM     44  C   UNL A   1      36.080  29.798  28.782  1.00  0.00     0.000 A 
ENDBRANCH  25  39
BRANCH  26  45
ATOM     45  C   UNL A   1      48.454  26.665  29.336  1.00  0.00    -0.014 A 
ATOM     46  C   UNL A   1      49.008  26.100  30.493  1.00  0.00     0.009 A 
ATOM     47  C   UNL A   1      49.269  26.854  28.209  1.00  0.00     0.009 A 
ATOM     48  C   UNL A   1      50.359  25.742  30.524  1.00  0.00     0.001 A 
ATOM     49  C   UNL A   1      50.611  26.471  28.235  1.00  0.00     0.001 A 
ATOM     50  C   UNL A   1      51.156  25.921  29.394  1.00  0.00     0.000 A 
ENDBRANCH  26  45
BRANCH  38  51
ATOM     51  C   UNL A   1      44.913  32.441  30.913  1.00  0.00    -0.014 A 
ATOM     52  C   UNL A   1      45.260  33.480  30.037  1.00  0.00     0.009 A 
ATOM     53  C   UNL A   1      44.951  32.670  32.297  1.00  0.00     0.009 A 
ATOM     54  C   UNL A   1      45.667  34.717  30.540  1.00  0.00     0.001 A 
ATOM     55  C   UNL A   1      45.336  33.916  32.795  1.00  0.00     0.001 A 
ATOM     56  C   UNL A   1      45.702  34.935  31.917  1.00  0.00     0.000 A 
ENDBRANCH  38  51
ENDBRANCH  12  13
ENDBRANCH   5   7
ENDBRANCH   2   3
ENDBRANCH   1   2
BRANCH   1  57
ATOM     57  C   UNL A   1      36.833  21.109  24.614  1.00  0.00     0.023 C 
BRANCH  57  58
ATOM     58  C   UNL A   1      35.654  21.172  25.578  1.00  0.00     0.116 C 
BRANCH  58  59
ATOM     59  N   UNL A   1      34.657  20.139  25.329  1.00  0.00    -0.356 N 
ATOM     60  C   UNL A   1      33.520  20.244  24.552  1.00  0.00     0.225 C 
ATOM     61  H   UNL A   1      34.811  19.270  25.763  1.00  0.00     0.163 HD
ATOM     62  O   UNL A   1      32.817  19.244  24.397  1.00  0.00    -0.275 OA
BRANCH  60  63
ATOM     63  C   UNL A   1      33.226  21.617  23.960  1.00  0.00     0.109 C 
ATOM     64  C   UNL A   1      32.349  21.847  22.719  1.00  0.00     0.117 C 
ATOM     65  C   UNL A   1      32.114  22.415  24.679  1.00  0.00     0.117 C 
ATOM     66  N   UNL A   1      31.829  23.126  23.381  1.00  0.00    -0.196 NA
BRANCH  66  67
ATOM     67  S   UNL A   1      32.585  24.647  23.055  1.00  0.00     0.243 S 
ATOM     68  O   UNL A   1      33.447  24.964  24.174  1.00  0.00    -0.207 OA
ATOM     69  O   UNL A   1      33.095  24.590  21.701  1.00  0.00    -0.207 OA
BRANCH  67  70
ATOM     70  C   UNL A   1      31.241  25.809  23.096  1.00  0.00     0.082 A 
ATOM     71  C   UNL A   1      30.091  25.537  23.847  1.00  0.00     0.025 A 
ATOM     72  C   UNL A   1      31.379  27.029  22.424  1.00  0.00     0.025 A 
ATOM     73  C   UNL A   1      29.072  26.488  23.917  1.00  0.00     0.040 A 
ATOM     74  C   UNL A   1      30.360  27.979  22.506  1.00  0.00     0.040 A 
ATOM     75  C   UNL A   1      29.217  27.700  23.249  1.00  0.00     0.123 A 
ATOM     76  F   UNL A   1      28.244  28.616  23.332  1.00  0.00    -0.207 F 
ENDBRANCH  67  70
ENDBRANCH  66  67
ENDBRANCH  60  63
ENDBRANCH  58  59
ENDBRANCH  57  58
ENDBRANCH   1  57
TORSDOF 13
ENDMDL
MODEL 3
REMARK VINA RESULT:     -10.6      2.517      7.737
REMARK SMILES O=C(NCCCCNC(=O)C1CN(S(=O)(=O)c2ccc(F)cc2)C1)c1ccc(-c2c3nc(c(-c4ccccc4)c4ccc([nH]4)c(-c4ccccc4)c4nc(c(-c5ccccc5)c5ccc2[nH]5)C=C4)C=C3)cc1
REMARK SMILES IDX 5 1 4 2 3 3 1 4 2 5 25 7 26 8 72 9 27 10 71 11 28 12 29 13
REMARK SMILES IDX 30 14 65 15 31 16 70 17 64 18 66 19 32 20 69 21 63 22 62 23
REMARK SMILES IDX 33 25 55 26 40 27 54 28 41 29 44 30 53 31 67 32 42 33 43 34
REMARK SMILES IDX 52 36 68 37 45 38 34 39 35 40 39 41 36 42 38 43 37 44 56 45
REMARK SMILES IDX 57 46 61 47 58 48 60 49 59 50 46 51 47 52 51 53 48 54 50 55
REMARK SMILES IDX 49 56 6 57 7 58 8 59 9 60 10 62 11 63 12 64 24 65 13 66
REMARK SMILES IDX 14 67 15 68 16 69 17 70 18 71 23 72 19 73 22 74 20 75 21 76
REMARK H PARENT 3 6 66 24 44 35 8 61
REMARK Flexibility Score: inf
ROOT
ATOM      1  C   UNL A   1      37.650  19.905  24.958  1.00  0.00     0.023 C 
ENDROOT
BRANCH   1   2
ATOM      2  C   UNL A   1      38.870  20.364  25.747  1.00  0.00     0.116 C 
BRANCH   2   3
ATOM      3  N   UNL A   1      39.962  19.403  25.732  1.00  0.00    -0.352 N 
ATOM      4  O   UNL A   1      42.099  18.690  25.894  1.00  0.00    -0.269 OA
ATOM      5  C   UNL A   1      41.281  19.586  26.075  1.00  0.00     0.251 C 
ATOM      6  H   UNL A   1      39.723  18.496  25.434  1.00  0.00     0.163 HD
BRANCH   5   7
ATOM      7  C   UNL A   1      41.719  20.884  26.631  1.00  0.00     0.039 A 
ATOM      8  C   UNL A   1      41.662  21.129  28.005  1.00  0.00     0.014 A 
ATOM      9  C   UNL A   1      42.176  21.875  25.757  1.00  0.00     0.014 A 
ATOM     10  C   UNL A   1      41.919  22.406  28.488  1.00  0.00     0.010 A 
ATOM     11  C   UNL A   1      42.509  23.137  26.255  1.00  0.00     0.010 A 
ATOM     12  C   UNL A   1      42.347  23.423  27.619  1.00  0.00    -0.014 A 
BRANCH  12  13
ATOM     13  C   UNL A   1      42.659  24.767  28.165  1.00  0.00     0.031 A 
ATOM     14  C   UNL A   1      44.067  25.152  28.522  1.00  0.00     0.074 A 
ATOM     15  C   UNL A   1      41.658  25.655  28.315  1.00  0.00     0.049 A 
ATOM     16  N   UNL A   1      44.513  26.288  28.997  1.00  0.00    -0.248 NA
ATOM     17  C   UNL A   1      45.110  24.132  28.327  1.00  0.00     0.031 C 
ATOM     18  C   UNL A   1      40.250  25.399  28.002  1.00  0.00     0.029 A 
ATOM     19  N   UNL A   1      41.674  26.955  28.748  1.00  0.00    -0.354 N 
ATOM     20  C   UNL A   1      45.880  26.115  29.178  1.00  0.00     0.074 A 
ATOM     21  C   UNL A   1      46.189  24.759  28.779  1.00  0.00     0.031 C 
ATOM     22  C   UNL A   1      39.544  26.520  28.214  1.00  0.00     0.029 A 
ATOM     23  C   UNL A   1      40.437  27.551  28.728  1.00  0.00     0.049 A 
ATOM     24  H   UNL A   1      42.491  27.415  29.046  1.00  0.00     0.167 HD
ATOM     25  C   UNL A   1      46.793  27.006  29.632  1.00  0.00     0.031 A 
ATOM     26  C   UNL A   1      40.057  28.788  29.095  1.00  0.00     0.031 A 
ATOM     27  C   UNL A   1      46.487  28.357  30.025  1.00  0.00     0.049 A 
ATOM     28  C   UNL A   1      41.085  29.745  29.619  1.00  0.00     0.074 A 
ATOM     29  C   UNL A   1      47.352  29.343  30.469  1.00  0.00     0.029 A 
ATOM     30  N   UNL A   1      45.217  28.911  30.024  1.00  0.00    -0.354 N 
ATOM     31  N   UNL A   1      42.376  29.572  29.760  1.00  0.00    -0.248 NA
ATOM     32  C   UNL A   1      40.601  31.068  30.036  1.00  0.00     0.031 C 
ATOM     33  C   UNL A   1      46.598  30.482  30.777  1.00  0.00     0.029 A 
ATOM     34  C   UNL A   1      45.270  30.217  30.481  1.00  0.00     0.049 A 
ATOM     35  H   UNL A   1      44.397  28.444  29.740  1.00  0.00     0.167 HD
ATOM     36  C   UNL A   1      42.862  30.766  30.272  1.00  0.00     0.074 A 
ATOM     37  C   UNL A   1      41.730  31.662  30.396  1.00  0.00     0.031 C 
ATOM     38  C   UNL A   1      44.133  31.091  30.609  1.00  0.00     0.031 A 
BRANCH  25  39
ATOM     39  C   UNL A   1      48.216  26.537  29.757  1.00  0.00    -0.014 A 
ATOM     40  C   UNL A   1      48.666  25.879  30.912  1.00  0.00     0.009 A 
ATOM     41  C   UNL A   1      49.105  26.719  28.687  1.00  0.00     0.009 A 
ATOM     42  C   UNL A   1      49.990  25.437  31.002  1.00  0.00     0.001 A 
ATOM     43  C   UNL A   1      50.419  26.257  28.771  1.00  0.00     0.001 A 
ATOM     44  C   UNL A   1      50.862  25.624  29.931  1.00  0.00     0.000 A 
ENDBRANCH  25  39
BRANCH  26  45
ATOM     45  C   UNL A   1      38.630  29.178  28.984  1.00  0.00    -0.014 A 
ATOM     46  C   UNL A   1      37.773  29.064  30.087  1.00  0.00     0.009 A 
ATOM     47  C   UNL A   1      38.127  29.692  27.778  1.00  0.00     0.009 A 
ATOM     48  C   UNL A   1      36.434  29.448  29.981  1.00  0.00     0.001 A 
ATOM     49  C   UNL A   1      36.795  30.099  27.683  1.00  0.00     0.001 A 
ATOM     50  C   UNL A   1      35.949  29.971  28.784  1.00  0.00     0.000 A 
ENDBRANCH  26  45
BRANCH  38  51
ATOM     51  C   UNL A   1      44.364  32.480  31.127  1.00  0.00    -0.014 A 
ATOM     52  C   UNL A   1      44.323  32.756  32.502  1.00  0.00     0.009 A 
ATOM     53  C   UNL A   1      44.650  33.520  30.228  1.00  0.00     0.009 A 
ATOM     54  C   UNL A   1      44.533  34.056  32.966  1.00  0.00     0.001 A 
ATOM     55  C   UNL A   1      44.883  34.814  30.697  1.00  0.00     0.001 A 
ATOM     56  C   UNL A   1      44.815  35.082  32.064  1.00  0.00     0.000 A 
ENDBRANCH  38  51
ENDBRANCH  12  13
ENDBRANCH   5   7
ENDBRANCH   2   3
ENDBRANCH   1   2
BRANCH   1  57
ATOM     57  C   UNL A   1      36.614  20.988  24.669  1.00  0.00     0.023 C 
BRANCH  57  58
ATOM     58  C   UNL A   1      35.564  21.181  25.758  1.00  0.00     0.116 C 
BRANCH  58  59
ATOM     59  N   UNL A   1      34.430  20.277  25.623  1.00  0.00    -0.356 N 
ATOM     60  C   UNL A   1      33.104  20.620  25.439  1.00  0.00     0.225 C 
ATOM     61  H   UNL A   1      34.629  19.315  25.668  1.00  0.00     0.163 HD
ATOM     62  O   UNL A   1      32.279  19.719  25.277  1.00  0.00    -0.275 OA
BRANCH  60  63
ATOM     63  C   UNL A   1      32.777  22.108  25.469  1.00  0.00     0.109 C 
ATOM     64  C   UNL A   1      32.693  22.993  24.215  1.00  0.00     0.117 C 
ATOM     65  C   UNL A   1      31.273  22.444  25.595  1.00  0.00     0.117 C 
ATOM     66  N   UNL A   1      31.537  23.745  24.882  1.00  0.00    -0.196 NA
BRANCH  66  67
ATOM     67  S   UNL A   1      31.843  25.178  25.801  1.00  0.00     0.243 S 
ATOM     68  O   UNL A   1      31.190  25.030  27.085  1.00  0.00    -0.207 OA
ATOM     69  O   UNL A   1      33.261  25.456  25.701  1.00  0.00    -0.207 OA
BRANCH  67  70
ATOM     70  C   UNL A   1      30.963  26.446  24.920  1.00  0.00     0.082 A 
ATOM     71  C   UNL A   1      31.504  27.731  24.798  1.00  0.00     0.025 A 
ATOM     72  C   UNL A   1      29.754  26.121  24.292  1.00  0.00     0.025 A 
ATOM     73  C   UNL A   1      30.828  28.697  24.051  1.00  0.00     0.040 A 
ATOM     74  C   UNL A   1      29.088  27.089  23.539  1.00  0.00     0.040 A 
ATOM     75  C   UNL A   1      29.629  28.366  23.426  1.00  0.00     0.123 A 
ATOM     76  F   UNL A   1      28.992  29.291  22.698  1.00  0.00    -0.207 F 
ENDBRANCH  67  70
ENDBRANCH  66  67
ENDBRANCH  60  63
ENDBRANCH  58  59
ENDBRANCH  57  58
ENDBRANCH   1  57
TORSDOF 13
ENDMDL
