MODEL 1
REMARK VINA RESULT:     -11.4      0.000      0.000
REMARK SMILES C[C@H](Sc1ccccn1)C(=O)N[C@H](C(=O)NCCCCNC(=O)c1ccc(-c2c3nc(c(-c4ccccc4)c4ccc([nH]4)c(-c4ccccc4)c4nc(c(-c5ccccc5)c5ccc2[nH]5)C=C4)C=C3)cc1)c1ccc(F)cc1
REMARK SMILES IDX 17 1 16 2 14 3 15 4 13 6 12 7 10 8 11 9 2 11 1 12 3 13 4 14
REMARK SMILES IDX 5 15 9 16 6 17 8 18 7 19 72 20 73 21 78 22 74 23 77 24 75 25
REMARK SMILES IDX 76 26 18 27 19 28 20 29 21 30 22 31 23 33 24 34 25 35 71 36
REMARK SMILES IDX 26 37 70 38 27 39 28 40 29 41 64 42 30 43 69 44 63 45 65 46
REMARK SMILES IDX 31 47 68 48 62 49 61 50 32 52 54 53 39 54 53 55 40 56 43 57
REMARK SMILES IDX 52 58 66 59 41 60 42 61 51 63 67 64 44 65 33 66 34 67 38 68
REMARK SMILES IDX 35 69 37 70 36 71 55 72 56 73 60 74 57 75 59 76 58 77 45 78
REMARK SMILES IDX 46 79 50 80 47 81 49 82 48 83
REMARK H PARENT 16 5 12 10 21 32 65 51 43 62
REMARK Flexibility Score: inf
ROOT
ATOM      1  C   UNL A   1      33.715  28.070  24.318  1.00  0.00     0.116 C 
ENDROOT
BRANCH   1   2
ATOM      2  N   UNL A   1      33.383  26.888  23.550  1.00  0.00    -0.354 N 
ATOM      3  C   UNL A   1      33.498  25.561  23.832  1.00  0.00     0.247 C 
ATOM      4  O   UNL A   1      33.130  24.788  22.939  1.00  0.00    -0.272 OA
ATOM      5  H   UNL A   1      33.005  27.080  22.661  1.00  0.00     0.163 HD
BRANCH   3   6
ATOM      6  C   UNL A   1      33.969  25.033  25.224  1.00  0.00     0.202 C 
BRANCH   6   7
ATOM      7  N   UNL A   1      32.736  24.450  25.795  1.00  0.00    -0.340 N 
ATOM      8  C   UNL A   1      32.402  23.438  26.622  1.00  0.00     0.234 C 
ATOM      9  O   UNL A   1      31.497  23.727  27.424  1.00  0.00    -0.274 OA
ATOM     10  H   UNL A   1      31.937  24.934  25.486  1.00  0.00     0.164 HD
BRANCH   8  11
ATOM     11  C   UNL A   1      32.898  21.983  26.576  1.00  0.00     0.139 C 
ATOM     12  C   UNL A   1      34.137  21.588  27.347  1.00  0.00     0.030 C 
BRANCH  11  13
ATOM     13  S   UNL A   1      32.583  21.334  24.858  1.00  0.00    -0.093 SA
BRANCH  13  14
ATOM     14  C   UNL A   1      33.072  19.631  24.834  1.00  0.00     0.097 A 
ATOM     15  C   UNL A   1      34.338  19.234  24.428  1.00  0.00     0.035 A 
ATOM     16  N   UNL A   1      32.191  18.760  25.384  1.00  0.00    -0.250 NA
ATOM     17  C   UNL A   1      34.693  17.889  24.536  1.00  0.00     0.004 A 
ATOM     18  C   UNL A   1      32.570  17.468  25.510  1.00  0.00     0.112 A 
ATOM     19  C   UNL A   1      33.793  16.983  25.085  1.00  0.00     0.020 A 
ENDBRANCH  13  14
ENDBRANCH  11  13
ENDBRANCH   8  11
ENDBRANCH   6   7
BRANCH   6  20
ATOM     20  C   UNL A   1      35.176  24.135  25.051  1.00  0.00    -0.016 A 
ATOM     21  C   UNL A   1      36.204  24.166  26.017  1.00  0.00     0.009 A 
ATOM     22  C   UNL A   1      35.337  23.281  23.961  1.00  0.00     0.009 A 
ATOM     23  C   UNL A   1      37.302  23.305  25.943  1.00  0.00     0.039 A 
ATOM     24  C   UNL A   1      36.401  22.375  23.925  1.00  0.00     0.039 A 
ATOM     25  C   UNL A   1      37.366  22.382  24.917  1.00  0.00     0.123 A 
ATOM     26  F   UNL A   1      38.363  21.490  24.880  1.00  0.00    -0.207 F 
ENDBRANCH   6  20
ENDBRANCH   3   6
ENDBRANCH   1   2
BRANCH   1  27
ATOM     27  C   UNL A   1      32.493  28.646  25.035  1.00  0.00     0.023 C 
BRANCH  27  28
ATOM     28  C   UNL A   1      32.368  28.291  26.518  1.00  0.00     0.023 C 
BRANCH  28  29
ATOM     29  C   UNL A   1      33.561  28.666  27.386  1.00  0.00     0.116 C 
BRANCH  29  30
ATOM     30  N   UNL A   1      33.588  30.075  27.740  1.00  0.00    -0.352 N 
ATOM     31  C   UNL A   1      34.624  30.809  28.275  1.00  0.00     0.251 C 
ATOM     32  H   UNL A   1      32.753  30.572  27.575  1.00  0.00     0.163 HD
ATOM     33  O   UNL A   1      34.457  31.962  28.623  1.00  0.00    -0.269 OA
BRANCH  31  34
ATOM     34  C   UNL A   1      35.940  30.156  28.454  1.00  0.00     0.039 A 
ATOM     35  C   UNL A   1      36.870  30.209  27.412  1.00  0.00     0.014 A 
ATOM     36  C   UNL A   1      36.261  29.533  29.661  1.00  0.00     0.014 A 
ATOM     37  C   UNL A   1      38.154  29.697  27.608  1.00  0.00     0.010 A 
ATOM     38  C   UNL A   1      37.560  29.086  29.878  1.00  0.00     0.010 A 
ATOM     39  C   UNL A   1      38.518  29.165  28.854  1.00  0.00    -0.014 A 
BRANCH  39  40
ATOM     40  C   UNL A   1      39.887  28.661  29.125  1.00  0.00     0.031 A 
ATOM     41  C   UNL A   1      40.917  29.593  29.700  1.00  0.00     0.074 A 
ATOM     42  C   UNL A   1      40.232  27.410  28.764  1.00  0.00     0.049 A 
ATOM     43  N   UNL A   1      42.203  29.413  29.852  1.00  0.00    -0.248 NA
ATOM     44  C   UNL A   1      40.438  30.916  30.132  1.00  0.00     0.031 C 
ATOM     45  C   UNL A   1      39.333  26.413  28.180  1.00  0.00     0.029 A 
ATOM     46  N   UNL A   1      41.447  26.773  28.816  1.00  0.00    -0.354 N 
ATOM     47  C   UNL A   1      42.690  30.609  30.362  1.00  0.00     0.074 A 
ATOM     48  C   UNL A   1      41.571  31.519  30.459  1.00  0.00     0.031 C 
ATOM     49  C   UNL A   1      40.025  25.287  27.937  1.00  0.00     0.029 A 
ATOM     50  C   UNL A   1      41.423  25.499  28.301  1.00  0.00     0.049 A 
ATOM     51  H   UNL A   1      42.259  27.188  29.187  1.00  0.00     0.167 HD
ATOM     52  C   UNL A   1      43.957  30.920  30.728  1.00  0.00     0.031 A 
ATOM     53  C   UNL A   1      42.418  24.610  28.123  1.00  0.00     0.031 A 
ATOM     54  C   UNL A   1      45.065  30.008  30.652  1.00  0.00     0.049 A 
ATOM     55  C   UNL A   1      43.819  24.982  28.525  1.00  0.00     0.074 A 
ATOM     56  C   UNL A   1      46.376  30.210  31.047  1.00  0.00     0.029 A 
ATOM     57  N   UNL A   1      44.989  28.717  30.152  1.00  0.00    -0.354 N 
ATOM     58  N   UNL A   1      44.258  26.103  29.045  1.00  0.00    -0.248 NA
ATOM     59  C   UNL A   1      44.861  23.964  28.321  1.00  0.00     0.031 C 
ATOM     60  C   UNL A   1      47.103  29.055  30.745  1.00  0.00     0.029 A 
ATOM     61  C   UNL A   1      46.233  28.116  30.214  1.00  0.00     0.049 A 
ATOM     62  H   UNL A   1      44.171  28.292  29.804  1.00  0.00     0.167 HD
ATOM     63  C   UNL A   1      45.616  25.911  29.266  1.00  0.00     0.074 A 
ATOM     64  C   UNL A   1      45.929  24.568  28.825  1.00  0.00     0.031 C 
ATOM     65  C   UNL A   1      46.521  26.770  29.792  1.00  0.00     0.031 A 
BRANCH  52  66
ATOM     66  C   UNL A   1      44.207  32.312  31.236  1.00  0.00    -0.014 A 
ATOM     67  C   UNL A   1      44.106  32.619  32.602  1.00  0.00     0.009 A 
ATOM     68  C   UNL A   1      44.577  33.325  30.336  1.00  0.00     0.009 A 
ATOM     69  C   UNL A   1      44.331  33.921  33.051  1.00  0.00     0.001 A 
ATOM     70  C   UNL A   1      44.831  34.619  30.793  1.00  0.00     0.001 A 
ATOM     71  C   UNL A   1      44.698  34.918  32.149  1.00  0.00     0.000 A 
ENDBRANCH  52  66
BRANCH  53  72
ATOM     72  C   UNL A   1      42.129  23.273  27.542  1.00  0.00    -0.014 A 
ATOM     73  C   UNL A   1      41.623  22.243  28.350  1.00  0.00     0.009 A 
ATOM     74  C   UNL A   1      42.362  23.015  26.182  1.00  0.00     0.009 A 
ATOM     75  C   UNL A   1      41.381  20.976  27.815  1.00  0.00     0.001 A 
ATOM     76  C   UNL A   1      42.092  21.754  25.644  1.00  0.00     0.001 A 
ATOM     77  C   UNL A   1      41.612  20.733  26.461  1.00  0.00     0.000 A 
ENDBRANCH  53  72
BRANCH  65  78
ATOM     78  C   UNL A   1      47.924  26.271  29.984  1.00  0.00    -0.014 A 
ATOM     79  C   UNL A   1      48.871  26.333  28.952  1.00  0.00     0.009 A 
ATOM     80  C   UNL A   1      48.320  25.803  31.248  1.00  0.00     0.009 A 
ATOM     81  C   UNL A   1      50.184  25.916  29.178  1.00  0.00     0.001 A 
ATOM     82  C   UNL A   1      49.638  25.412  31.478  1.00  0.00     0.001 A 
ATOM     83  C   UNL A   1      50.569  25.464  30.441  1.00  0.00     0.000 A 
ENDBRANCH  65  78
ENDBRANCH  39  40
ENDBRANCH  31  34
ENDBRANCH  29  30
ENDBRANCH  28  29
ENDBRANCH  27  28
ENDBRANCH   1  27
TORSDOF 16
ENDMDL
MODEL 2
REMARK VINA RESULT:     -11.4      2.400      7.426
REMARK SMILES C[C@H](Sc1ccccn1)C(=O)N[C@H](C(=O)NCCCCNC(=O)c1ccc(-c2c3nc(c(-c4ccccc4)c4ccc([nH]4)c(-c4ccccc4)c4nc(c(-c5ccccc5)c5ccc2[nH]5)C=C4)C=C3)cc1)c1ccc(F)cc1
REMARK SMILES IDX 17 1 16 2 14 3 15 4 13 6 12 7 10 8 11 9 2 11 1 12 3 13 4 14
REMARK SMILES IDX 5 15 9 16 6 17 8 18 7 19 72 20 73 21 78 22 74 23 77 24 75 25
REMARK SMILES IDX 76 26 18 27 19 28 20 29 21 30 22 31 23 33 24 34 25 35 71 36
REMARK SMILES IDX 26 37 70 38 27 39 28 40 29 41 64 42 30 43 69 44 63 45 65 46
REMARK SMILES IDX 31 47 68 48 62 49 61 50 32 52 54 53 39 54 53 55 40 56 43 57
REMARK SMILES IDX 52 58 66 59 41 60 42 61 51 63 67 64 44 65 33 66 34 67 38 68
REMARK SMILES IDX 35 69 37 70 36 71 55 72 56 73 60 74 57 75 59 76 58 77 45 78
REMARK SMILES IDX 46 79 50 80 47 81 49 82 48 83
REMARK H PARENT 16 5 12 10 21 32 65 51 43 62
REMARK Flexibility Score: inf
ROOT
ATOM      1  C   UNL A   1      36.710  22.899  25.721  1.00  0.00     0.116 C 
ENDROOT
BRANCH   1   2
ATOM      2  N   UNL A   1      35.722  22.703  26.761  1.00  0.00    -0.354 N 
ATOM      3  C   UNL A   1      34.394  22.997  26.818  1.00  0.00     0.247 C 
ATOM      4  O   UNL A   1      33.824  22.709  27.877  1.00  0.00    -0.272 OA
ATOM      5  H   UNL A   1      36.076  22.279  27.576  1.00  0.00     0.163 HD
BRANCH   3   6
ATOM      6  C   UNL A   1      33.605  23.571  25.599  1.00  0.00     0.202 C 
BRANCH   6   7
ATOM      7  N   UNL A   1      32.604  22.517  25.323  1.00  0.00    -0.340 N 
ATOM      8  C   UNL A   1      32.321  21.647  24.332  1.00  0.00     0.234 C 
ATOM      9  O   UNL A   1      31.993  20.519  24.738  1.00  0.00    -0.274 OA
ATOM     10  H   UNL A   1      31.970  22.425  26.069  1.00  0.00     0.164 HD
BRANCH   8  11
ATOM     11  C   UNL A   1      32.221  21.937  22.826  1.00  0.00     0.139 C 
ATOM     12  C   UNL A   1      31.792  20.841  21.876  1.00  0.00     0.030 C 
BRANCH  11  13
ATOM     13  S   UNL A   1      33.601  23.109  22.384  1.00  0.00    -0.093 SA
BRANCH  13  14
ATOM     14  C   UNL A   1      32.915  24.742  22.327  1.00  0.00     0.097 A 
ATOM     15  C   UNL A   1      31.607  25.005  22.709  1.00  0.00     0.035 A 
ATOM     16  N   UNL A   1      33.791  25.736  22.039  1.00  0.00    -0.250 NA
ATOM     17  C   UNL A   1      31.165  26.328  22.742  1.00  0.00     0.004 A 
ATOM     18  C   UNL A   1      33.349  27.012  22.110  1.00  0.00     0.112 A 
ATOM     19  C   UNL A   1      32.049  27.356  22.435  1.00  0.00     0.020 A 
ENDBRANCH  13  14
ENDBRANCH  11  13
ENDBRANCH   8  11
ENDBRANCH   6   7
BRANCH   6  20
ATOM     20  C   UNL A   1      33.111  24.967  25.917  1.00  0.00    -0.016 A 
ATOM     21  C   UNL A   1      33.984  26.063  25.756  1.00  0.00     0.009 A 
ATOM     22  C   UNL A   1      31.824  25.228  26.386  1.00  0.00     0.009 A 
ATOM     23  C   UNL A   1      33.556  27.376  25.964  1.00  0.00     0.039 A 
ATOM     24  C   UNL A   1      31.378  26.545  26.529  1.00  0.00     0.039 A 
ATOM     25  C   UNL A   1      32.238  27.607  26.305  1.00  0.00     0.123 A 
ATOM     26  F   UNL A   1      31.786  28.862  26.421  1.00  0.00    -0.207 F 
ENDBRANCH   6  20
ENDBRANCH   3   6
ENDBRANCH   1   2
BRANCH   1  27
ATOM     27  C   UNL A   1      36.630  21.814  24.646  1.00  0.00     0.023 C 
BRANCH  27  28
ATOM     28  C   UNL A   1      37.563  20.617  24.844  1.00  0.00     0.023 C 
BRANCH  28  29
ATOM     29  C   UNL A   1      38.790  20.877  25.706  1.00  0.00     0.116 C 
BRANCH  29  30
ATOM     30  N   UNL A   1      39.742  19.779  25.688  1.00  0.00    -0.352 N 
ATOM     31  C   UNL A   1      41.075  19.790  26.037  1.00  0.00     0.251 C 
ATOM     32  H   UNL A   1      39.386  18.912  25.386  1.00  0.00     0.163 HD
ATOM     33  O   UNL A   1      41.774  18.810  25.861  1.00  0.00    -0.269 OA
BRANCH  31  34
ATOM     34  C   UNL A   1      41.654  21.032  26.598  1.00  0.00     0.039 A 
ATOM     35  C   UNL A   1      42.143  22.006  25.723  1.00  0.00     0.014 A 
ATOM     36  C   UNL A   1      41.672  21.242  27.978  1.00  0.00     0.014 A 
ATOM     37  C   UNL A   1      42.587  23.228  26.232  1.00  0.00     0.010 A 
ATOM     38  C   UNL A   1      42.050  22.484  28.476  1.00  0.00     0.010 A 
ATOM     39  C   UNL A   1      42.509  23.488  27.609  1.00  0.00    -0.014 A 
BRANCH  39  40
ATOM     40  C   UNL A   1      42.918  24.792  28.188  1.00  0.00     0.031 A 
ATOM     41  C   UNL A   1      41.876  25.844  28.444  1.00  0.00     0.074 A 
ATOM     42  C   UNL A   1      44.221  25.067  28.385  1.00  0.00     0.049 A 
ATOM     43  N   UNL A   1      42.032  27.099  28.779  1.00  0.00    -0.248 NA
ATOM     44  C   UNL A   1      40.472  25.436  28.270  1.00  0.00     0.031 C 
ATOM     45  C   UNL A   1      45.332  24.140  28.158  1.00  0.00     0.029 A 
ATOM     46  N   UNL A   1      44.833  26.224  28.801  1.00  0.00    -0.354 N 
ATOM     47  C   UNL A   1      40.751  27.637  28.819  1.00  0.00     0.074 A 
ATOM     48  C   UNL A   1      39.835  26.585  28.440  1.00  0.00     0.031 C 
ATOM     49  C   UNL A   1      46.488  24.761  28.448  1.00  0.00     0.029 A 
ATOM     50  C   UNL A   1      46.204  26.141  28.831  1.00  0.00     0.049 A 
ATOM     51  H   UNL A   1      44.337  27.036  29.054  1.00  0.00     0.167 HD
ATOM     52  C   UNL A   1      40.371  28.893  29.153  1.00  0.00     0.031 A 
ATOM     53  C   UNL A   1      47.130  27.077  29.116  1.00  0.00     0.031 A 
ATOM     54  C   UNL A   1      41.281  29.932  29.551  1.00  0.00     0.049 A 
ATOM     55  C   UNL A   1      46.684  28.469  29.471  1.00  0.00     0.074 A 
ATOM     56  C   UNL A   1      40.991  31.222  29.957  1.00  0.00     0.029 A 
ATOM     57  N   UNL A   1      42.660  29.796  29.596  1.00  0.00    -0.354 N 
ATOM     58  N   UNL A   1      45.468  28.952  29.546  1.00  0.00    -0.248 NA
ATOM     59  C   UNL A   1      47.740  29.443  29.787  1.00  0.00     0.031 C 
ATOM     60  C   UNL A   1      42.199  31.881  30.209  1.00  0.00     0.029 A 
ATOM     61  C   UNL A   1      43.236  30.983  30.010  1.00  0.00     0.049 A 
ATOM     62  H   UNL A   1      43.156  28.976  29.367  1.00  0.00     0.167 HD
ATOM     63  C   UNL A   1      45.609  30.272  29.954  1.00  0.00     0.074 A 
ATOM     64  C   UNL A   1      47.028  30.514  30.113  1.00  0.00     0.031 C 
ATOM     65  C   UNL A   1      44.648  31.198  30.183  1.00  0.00     0.031 A 
BRANCH  52  66
ATOM     66  C   UNL A   1      38.904  29.210  29.091  1.00  0.00    -0.014 A 
ATOM     67  C   UNL A   1      38.298  29.625  27.895  1.00  0.00     0.009 A 
ATOM     68  C   UNL A   1      38.111  29.064  30.241  1.00  0.00     0.009 A 
ATOM     69  C   UNL A   1      36.935  29.926  27.862  1.00  0.00     0.001 A 
ATOM     70  C   UNL A   1      36.743  29.336  30.196  1.00  0.00     0.001 A 
ATOM     71  C   UNL A   1      36.158  29.777  29.009  1.00  0.00     0.000 A 
ENDBRANCH  52  66
BRANCH  53  72
ATOM     72  C   UNL A   1      48.575  26.731  29.084  1.00  0.00    -0.014 A 
ATOM     73  C   UNL A   1      49.203  26.207  30.225  1.00  0.00     0.009 A 
ATOM     74  C   UNL A   1      49.336  26.927  27.922  1.00  0.00     0.009 A 
ATOM     75  C   UNL A   1      50.568  25.911  30.210  1.00  0.00     0.001 A 
ATOM     76  C   UNL A   1      50.694  26.604  27.901  1.00  0.00     0.001 A 
ATOM     77  C   UNL A   1      51.312  26.107  29.047  1.00  0.00     0.000 A 
ENDBRANCH  53  72
BRANCH  65  78
ATOM     78  C   UNL A   1      45.085  32.542  30.692  1.00  0.00    -0.014 A 
ATOM     79  C   UNL A   1      45.179  32.810  32.065  1.00  0.00     0.009 A 
ATOM     80  C   UNL A   1      45.482  33.529  29.775  1.00  0.00     0.009 A 
ATOM     81  C   UNL A   1      45.645  34.049  32.509  1.00  0.00     0.001 A 
ATOM     82  C   UNL A   1      45.971  34.756  30.221  1.00  0.00     0.001 A 
ATOM     83  C   UNL A   1      46.048  35.018  31.588  1.00  0.00     0.000 A 
ENDBRANCH  65  78
ENDBRANCH  39  40
ENDBRANCH  31  34
ENDBRANCH  29  30
ENDBRANCH  28  29
ENDBRANCH  27  28
ENDBRANCH   1  27
TORSDOF 16
ENDMDL
MODEL 3
REMARK VINA RESULT:     -11.0      2.218      4.575
REMARK SMILES C[C@H](Sc1ccccn1)C(=O)N[C@H](C(=O)NCCCCNC(=O)c1ccc(-c2c3nc(c(-c4ccccc4)c4ccc([nH]4)c(-c4ccccc4)c4nc(c(-c5ccccc5)c5ccc2[nH]5)C=C4)C=C3)cc1)c1ccc(F)cc1
REMARK SMILES IDX 17 1 16 2 14 3 15 4 13 6 12 7 10 8 11 9 2 11 1 12 3 13 4 14
REMARK SMILES IDX 5 15 9 16 6 17 8 18 7 19 72 20 73 21 78 22 74 23 77 24 75 25
REMARK SMILES IDX 76 26 18 27 19 28 20 29 21 30 22 31 23 33 24 34 25 35 71 36
REMARK SMILES IDX 26 37 70 38 27 39 28 40 29 41 64 42 30 43 69 44 63 45 65 46
REMARK SMILES IDX 31 47 68 48 62 49 61 50 32 52 54 53 39 54 53 55 40 56 43 57
REMARK SMILES IDX 52 58 66 59 41 60 42 61 51 63 67 64 44 65 33 66 34 67 38 68
REMARK SMILES IDX 35 69 37 70 36 71 55 72 56 73 60 74 57 75 59 76 58 77 45 78
REMARK SMILES IDX 46 79 50 80 47 81 49 82 48 83
REMARK H PARENT 16 5 12 10 21 32 65 51 43 62
REMARK Flexibility Score: inf
ROOT
ATOM      1  C   UNL A   1      34.102  25.695  25.682  1.00  0.00     0.116 C 
ENDROOT
BRANCH   1   2
ATOM      2  N   UNL A   1      34.431  25.276  24.335  1.00  0.00    -0.354 N 
ATOM      3  C   UNL A   1      33.742  24.538  23.421  1.00  0.00     0.247 C 
ATOM      4  O   UNL A   1      34.319  24.341  22.345  1.00  0.00    -0.272 OA
ATOM      5  H   UNL A   1      35.314  25.580  24.024  1.00  0.00     0.163 HD
BRANCH   3   6
ATOM      6  C   UNL A   1      32.280  24.048  23.663  1.00  0.00     0.202 C 
BRANCH   6   7
ATOM      7  N   UNL A   1      31.506  24.789  22.643  1.00  0.00    -0.340 N 
ATOM      8  C   UNL A   1      31.054  26.045  22.453  1.00  0.00     0.234 C 
ATOM      9  O   UNL A   1      31.165  26.444  21.281  1.00  0.00    -0.274 OA
ATOM     10  H   UNL A   1      31.252  24.203  21.895  1.00  0.00     0.164 HD
BRANCH   8  11
ATOM     11  C   UNL A   1      30.310  26.939  23.460  1.00  0.00     0.139 C 
ATOM     12  C   UNL A   1      28.834  26.725  23.706  1.00  0.00     0.030 C 
BRANCH  11  13
ATOM     13  S   UNL A   1      31.026  28.654  23.328  1.00  0.00    -0.093 SA
BRANCH  13  14
ATOM     14  C   UNL A   1      29.702  29.754  22.909  1.00  0.00     0.097 A 
ATOM     15  C   UNL A   1      29.333  30.809  23.731  1.00  0.00     0.035 A 
ATOM     16  N   UNL A   1      29.179  29.595  21.669  1.00  0.00    -0.250 NA
ATOM     17  C   UNL A   1      28.354  31.700  23.290  1.00  0.00     0.004 A 
ATOM     18  C   UNL A   1      28.255  30.491  21.250  1.00  0.00     0.112 A 
ATOM     19  C   UNL A   1      27.799  31.541  22.026  1.00  0.00     0.020 A 
ENDBRANCH  13  14
ENDBRANCH  11  13
ENDBRANCH   8  11
ENDBRANCH   6   7
BRANCH   6  20
ATOM     20  C   UNL A   1      32.234  22.535  23.642  1.00  0.00    -0.016 A 
ATOM     21  C   UNL A   1      32.046  21.866  22.415  1.00  0.00     0.009 A 
ATOM     22  C   UNL A   1      32.352  21.756  24.793  1.00  0.00     0.009 A 
ATOM     23  C   UNL A   1      32.071  20.471  22.331  1.00  0.00     0.039 A 
ATOM     24  C   UNL A   1      32.443  20.364  24.698  1.00  0.00     0.039 A 
ATOM     25  C   UNL A   1      32.317  19.733  23.472  1.00  0.00     0.123 A 
ATOM     26  F   UNL A   1      32.434  18.402  23.396  1.00  0.00    -0.207 F 
ENDBRANCH   6  20
ENDBRANCH   3   6
ENDBRANCH   1   2
BRANCH   1  27
ATOM     27  C   UNL A   1      33.259  26.972  25.691  1.00  0.00     0.023 C 
BRANCH  27  28
ATOM     28  C   UNL A   1      33.962  28.224  26.221  1.00  0.00     0.023 C 
BRANCH  28  29
ATOM     29  C   UNL A   1      33.491  28.715  27.582  1.00  0.00     0.116 C 
BRANCH  29  30
ATOM     30  N   UNL A   1      33.574  30.158  27.728  1.00  0.00    -0.352 N 
ATOM     31  C   UNL A   1      34.648  30.922  28.130  1.00  0.00     0.251 C 
ATOM     32  H   UNL A   1      32.753  30.657  27.511  1.00  0.00     0.163 HD
ATOM     33  O   UNL A   1      34.529  32.119  28.311  1.00  0.00    -0.269 OA
BRANCH  31  34
ATOM     34  C   UNL A   1      35.946  30.253  28.374  1.00  0.00     0.039 A 
ATOM     35  C   UNL A   1      36.910  30.255  27.362  1.00  0.00     0.014 A 
ATOM     36  C   UNL A   1      36.215  29.665  29.612  1.00  0.00     0.014 A 
ATOM     37  C   UNL A   1      38.178  29.729  27.618  1.00  0.00     0.010 A 
ATOM     38  C   UNL A   1      37.498  29.204  29.886  1.00  0.00     0.010 A 
ATOM     39  C   UNL A   1      38.491  29.233  28.893  1.00  0.00    -0.014 A 
BRANCH  39  40
ATOM     40  C   UNL A   1      39.841  28.714  29.227  1.00  0.00     0.031 A 
ATOM     41  C   UNL A   1      40.835  29.622  29.895  1.00  0.00     0.074 A 
ATOM     42  C   UNL A   1      40.205  27.476  28.841  1.00  0.00     0.049 A 
ATOM     43  N   UNL A   1      42.110  29.432  30.116  1.00  0.00    -0.248 NA
ATOM     44  C   UNL A   1      40.333  30.930  30.345  1.00  0.00     0.031 C 
ATOM     45  C   UNL A   1      39.341  26.504  28.169  1.00  0.00     0.029 A 
ATOM     46  N   UNL A   1      41.414  26.833  28.942  1.00  0.00    -0.354 N 
ATOM     47  C   UNL A   1      42.568  30.607  30.698  1.00  0.00     0.074 A 
ATOM     48  C   UNL A   1      41.445  31.517  30.760  1.00  0.00     0.031 C 
ATOM     49  C   UNL A   1      40.045  25.385  27.927  1.00  0.00     0.029 A 
ATOM     50  C   UNL A   1      41.419  25.579  28.381  1.00  0.00     0.049 A 
ATOM     51  H   UNL A   1      42.203  27.233  29.375  1.00  0.00     0.167 HD
ATOM     52  C   UNL A   1      43.810  30.900  31.149  1.00  0.00     0.031 A 
ATOM     53  C   UNL A   1      42.422  24.694  28.229  1.00  0.00     0.031 A 
ATOM     54  C   UNL A   1      44.920  29.988  31.106  1.00  0.00     0.049 A 
ATOM     55  C   UNL A   1      43.797  25.047  28.727  1.00  0.00     0.074 A 
ATOM     56  C   UNL A   1      46.206  30.172  31.584  1.00  0.00     0.029 A 
ATOM     57  N   UNL A   1      44.873  28.717  30.555  1.00  0.00    -0.354 N 
ATOM     58  N   UNL A   1      44.206  26.146  29.313  1.00  0.00    -0.248 NA
ATOM     59  C   UNL A   1      44.848  24.033  28.548  1.00  0.00     0.031 C 
ATOM     60  C   UNL A   1      46.948  29.026  31.285  1.00  0.00     0.029 A 
ATOM     61  C   UNL A   1      46.110  28.109  30.669  1.00  0.00     0.049 A 
ATOM     62  H   UNL A   1      44.076  28.307  30.144  1.00  0.00     0.167 HD
ATOM     63  C   UNL A   1      45.547  25.942  29.606  1.00  0.00     0.074 A 
ATOM     64  C   UNL A   1      45.885  24.614  29.137  1.00  0.00     0.031 C 
ATOM     65  C   UNL A   1      46.421  26.779  30.216  1.00  0.00     0.031 A 
BRANCH  52  66
ATOM     66  C   UNL A   1      44.032  32.272  31.721  1.00  0.00    -0.014 A 
ATOM     67  C   UNL A   1      43.851  32.530  33.089  1.00  0.00     0.009 A 
ATOM     68  C   UNL A   1      44.455  33.316  30.882  1.00  0.00     0.009 A 
ATOM     69  C   UNL A   1      44.050  33.814  33.597  1.00  0.00     0.001 A 
ATOM     70  C   UNL A   1      44.683  34.592  31.399  1.00  0.00     0.001 A 
ATOM     71  C   UNL A   1      44.471  34.842  32.755  1.00  0.00     0.000 A 
ENDBRANCH  52  66
BRANCH  53  72
ATOM     72  C   UNL A   1      42.166  23.379  27.584  1.00  0.00    -0.014 A 
ATOM     73  C   UNL A   1      42.457  23.188  26.224  1.00  0.00     0.009 A 
ATOM     74  C   UNL A   1      41.623  22.313  28.317  1.00  0.00     0.009 A 
ATOM     75  C   UNL A   1      42.187  21.966  25.606  1.00  0.00     0.001 A 
ATOM     76  C   UNL A   1      41.380  21.083  27.703  1.00  0.00     0.001 A 
ATOM     77  C   UNL A   1      41.651  20.913  26.347  1.00  0.00     0.000 A 
ENDBRANCH  53  72
BRANCH  65  78
ATOM     78  C   UNL A   1      47.809  26.268  30.473  1.00  0.00    -0.014 A 
ATOM     79  C   UNL A   1      48.815  26.359  29.500  1.00  0.00     0.009 A 
ATOM     80  C   UNL A   1      48.131  25.759  31.742  1.00  0.00     0.009 A 
ATOM     81  C   UNL A   1      50.112  25.930  29.788  1.00  0.00     0.001 A 
ATOM     82  C   UNL A   1      49.433  25.356  32.035  1.00  0.00     0.001 A 
ATOM     83  C   UNL A   1      50.422  25.437  31.056  1.00  0.00     0.000 A 
ENDBRANCH  65  78
ENDBRANCH  39  40
ENDBRANCH  31  34
ENDBRANCH  29  30
ENDBRANCH  28  29
ENDBRANCH  27  28
ENDBRANCH   1  27
TORSDOF 16
ENDMDL
