MODEL 1
REMARK VINA RESULT:     -10.8      0.000      0.000
REMARK SMILES CC(C)C[C@H](CNC(=O)[C@]1([NH3+])CCC[C@@H](C)C1)C(=O)NCCCCNC(=O)c1ccc(-c2c3nc(c(-c4ccccc4)c4ccc([nH]4)c(-c4ccccc4)c4nc(c(-c5ccccc5)c5ccc2[nH]5)C=C4)C=C3)cc1
REMARK SMILES IDX 21 1 20 2 18 3 19 4 5 6 4 7 2 8 1 9 3 10 6 11 7 12 8 13 9 15
REMARK SMILES IDX 10 16 12 17 17 18 13 19 15 20 14 21 16 22 11 23 22 27 23 28
REMARK SMILES IDX 24 29 25 30 26 31 27 33 28 34 29 35 75 36 30 37 74 38 31 39
REMARK SMILES IDX 32 40 33 41 68 42 34 43 73 44 67 45 69 46 35 47 72 48 66 49
REMARK SMILES IDX 65 50 36 52 58 53 43 54 57 55 44 56 47 57 56 58 70 59 45 60
REMARK SMILES IDX 46 61 55 63 71 64 48 65 37 66 38 67 42 68 39 69 41 70 40 71
REMARK SMILES IDX 59 72 60 73 64 74 61 75 63 76 62 77 49 78 50 79 54 80 51 81
REMARK SMILES IDX 53 82 52 83
REMARK H PARENT 20 5 7 14 11 24 11 25 11 26 25 32 69 51 47 62
REMARK Flexibility Score: inf
ROOT
ATOM      1  C   UNL A   1      32.161  27.885  26.380  1.00  0.00     0.116 C 
ENDROOT
BRANCH   1   2
ATOM      2  N   UNL A   1      31.373  26.712  26.699  1.00  0.00    -0.356 N 
ATOM      3  C   UNL A   1      30.628  25.896  25.904  1.00  0.00     0.224 C 
ATOM      4  O   UNL A   1      29.954  25.030  26.470  1.00  0.00    -0.275 OA
ATOM      5  H   UNL A   1      31.376  26.464  27.652  1.00  0.00     0.163 HD
BRANCH   3   6
ATOM      6  C   UNL A   1      30.660  25.986  24.380  1.00  0.00     0.098 C 
BRANCH   6   7
ATOM      7  C   UNL A   1      29.599  26.970  23.835  1.00  0.00     0.018 C 
BRANCH   7   8
ATOM      8  C   UNL A   1      30.138  28.102  22.935  1.00  0.00    -0.017 C 
ATOM      9  C   UNL A   1      29.828  29.485  23.509  1.00  0.00     0.007 C 
ATOM     10  C   UNL A   1      31.652  27.939  22.770  1.00  0.00     0.007 C 
ENDBRANCH   7   8
ENDBRANCH   6   7
BRANCH   6  11
ATOM     11  C   UNL A   1      30.598  24.590  23.732  1.00  0.00     0.129 C 
BRANCH  11  12
ATOM     12  N   UNL A   1      31.517  24.435  22.621  1.00  0.00    -0.350 N 
ATOM     13  C   UNL A   1      32.855  24.227  22.560  1.00  0.00     0.281 C 
ATOM     14  H   UNL A   1      31.084  24.490  21.739  1.00  0.00     0.163 HD
ATOM     15  O   UNL A   1      33.360  24.413  21.445  1.00  0.00    -0.268 OA
BRANCH  13  16
ATOM     16  C   UNL A   1      33.700  23.640  23.731  1.00  0.00     0.174 C 
ATOM     17  C   UNL A   1      34.106  24.801  24.664  1.00  0.00     0.079 C 
ATOM     18  C   UNL A   1      34.962  23.031  23.070  1.00  0.00     0.082 C 
ATOM     19  C   UNL A   1      35.186  24.415  25.675  1.00  0.00     0.007 C 
ATOM     20  C   UNL A   1      36.122  22.692  24.018  1.00  0.00    -0.008 C 
ATOM     21  C   UNL A   1      36.422  23.847  24.985  1.00  0.00     0.004 C 
ATOM     22  C   UNL A   1      35.923  21.362  24.748  1.00  0.00     0.008 C 
BRANCH  16  23
ATOM     23  N   UNL A   1      32.962  22.633  24.517  1.00  0.00    -0.345 N 
ATOM     24  H   UNL A   1      33.473  22.430  25.376  1.00  0.00     0.345 HD
ATOM     25  H   UNL A   1      32.866  21.778  23.969  1.00  0.00     0.345 HD
ATOM     26  H   UNL A   1      32.037  22.994  24.749  1.00  0.00     0.345 HD
ENDBRANCH  16  23
ENDBRANCH  13  16
ENDBRANCH  11  12
ENDBRANCH   6  11
ENDBRANCH   3   6
ENDBRANCH   1   2
BRANCH   1  27
ATOM     27  C   UNL A   1      31.777  29.060  27.281  1.00  0.00     0.023 C 
BRANCH  27  28
ATOM     28  C   UNL A   1      31.805  30.418  26.586  1.00  0.00     0.023 C 
BRANCH  28  29
ATOM     29  C   UNL A   1      32.901  31.353  27.073  1.00  0.00     0.116 C 
BRANCH  29  30
ATOM     30  N   UNL A   1      32.433  32.709  27.332  1.00  0.00    -0.352 N 
ATOM     31  C   UNL A   1      33.038  33.679  28.092  1.00  0.00     0.251 C 
ATOM     32  H   UNL A   1      31.579  32.959  26.911  1.00  0.00     0.163 HD
ATOM     33  O   UNL A   1      32.483  34.750  28.310  1.00  0.00    -0.269 OA
BRANCH  31  34
ATOM     34  C   UNL A   1      34.357  33.384  28.680  1.00  0.00     0.039 A 
ATOM     35  C   UNL A   1      34.414  32.726  29.908  1.00  0.00     0.014 A 
ATOM     36  C   UNL A   1      35.520  33.676  27.964  1.00  0.00     0.014 A 
ATOM     37  C   UNL A   1      35.650  32.295  30.392  1.00  0.00     0.010 A 
ATOM     38  C   UNL A   1      36.736  33.176  28.407  1.00  0.00     0.010 A 
ATOM     39  C   UNL A   1      36.812  32.483  29.626  1.00  0.00    -0.014 A 
BRANCH  39  40
ATOM     40  C   UNL A   1      38.123  31.971  30.083  1.00  0.00     0.031 A 
ATOM     41  C   UNL A   1      38.636  30.661  29.555  1.00  0.00     0.074 A 
ATOM     42  C   UNL A   1      38.815  32.645  31.021  1.00  0.00     0.049 A 
ATOM     43  N   UNL A   1      39.723  30.009  29.880  1.00  0.00    -0.248 NA
ATOM     44  C   UNL A   1      37.802  29.977  28.552  1.00  0.00     0.031 C 
ATOM     45  C   UNL A   1      38.397  33.903  31.647  1.00  0.00     0.029 A 
ATOM     46  N   UNL A   1      40.016  32.360  31.619  1.00  0.00    -0.354 N 
ATOM     47  C   UNL A   1      39.692  28.835  29.140  1.00  0.00     0.074 A 
ATOM     48  C   UNL A   1      38.456  28.837  28.390  1.00  0.00     0.031 C 
ATOM     49  C   UNL A   1      39.341  34.294  32.518  1.00  0.00     0.029 A 
ATOM     50  C   UNL A   1      40.409  33.299  32.540  1.00  0.00     0.049 A 
ATOM     51  H   UNL A   1      40.547  31.558  31.407  1.00  0.00     0.167 HD
ATOM     52  C   UNL A   1      40.620  27.854  29.070  1.00  0.00     0.031 A 
ATOM     53  C   UNL A   1      41.506  33.351  33.318  1.00  0.00     0.031 A 
ATOM     54  C   UNL A   1      41.858  27.862  29.801  1.00  0.00     0.049 A 
ATOM     55  C   UNL A   1      42.525  32.251  33.219  1.00  0.00     0.074 A 
ATOM     56  C   UNL A   1      42.892  26.944  29.757  1.00  0.00     0.029 A 
ATOM     57  N   UNL A   1      42.229  28.843  30.708  1.00  0.00    -0.354 N 
ATOM     58  N   UNL A   1      42.514  31.180  32.461  1.00  0.00    -0.248 NA
ATOM     59  C   UNL A   1      43.714  32.373  34.074  1.00  0.00     0.031 C 
ATOM     60  C   UNL A   1      43.871  27.349  30.669  1.00  0.00     0.029 A 
ATOM     61  C   UNL A   1      43.468  28.544  31.244  1.00  0.00     0.049 A 
ATOM     62  H   UNL A   1      41.690  29.634  30.936  1.00  0.00     0.167 HD
ATOM     63  C   UNL A   1      43.704  30.515  32.729  1.00  0.00     0.074 A 
ATOM     64  C   UNL A   1      44.419  31.311  33.705  1.00  0.00     0.031 C 
ATOM     65  C   UNL A   1      44.163  29.350  32.212  1.00  0.00     0.031 A 
BRANCH  52  66
ATOM     66  C   UNL A   1      40.325  26.689  28.169  1.00  0.00    -0.014 A 
ATOM     67  C   UNL A   1      40.848  26.629  26.866  1.00  0.00     0.009 A 
ATOM     68  C   UNL A   1      39.536  25.626  28.633  1.00  0.00     0.009 A 
ATOM     69  C   UNL A   1      40.553  25.547  26.035  1.00  0.00     0.001 A 
ATOM     70  C   UNL A   1      39.266  24.532  27.809  1.00  0.00     0.001 A 
ATOM     71  C   UNL A   1      39.767  24.498  26.508  1.00  0.00     0.000 A 
ENDBRANCH  52  66
BRANCH  53  72
ATOM     72  C   UNL A   1      41.713  34.495  34.244  1.00  0.00    -0.014 A 
ATOM     73  C   UNL A   1      41.255  34.427  35.568  1.00  0.00     0.009 A 
ATOM     74  C   UNL A   1      42.360  35.660  33.807  1.00  0.00     0.009 A 
ATOM     75  C   UNL A   1      41.416  35.515  36.430  1.00  0.00     0.001 A 
ATOM     76  C   UNL A   1      42.543  36.737  34.679  1.00  0.00     0.001 A 
ATOM     77  C   UNL A   1      42.064  36.667  35.986  1.00  0.00     0.000 A 
ENDBRANCH  53  72
BRANCH  65  78
ATOM     78  C   UNL A   1      45.517  28.886  32.667  1.00  0.00    -0.014 A 
ATOM     79  C   UNL A   1      45.659  28.029  33.769  1.00  0.00     0.009 A 
ATOM     80  C   UNL A   1      46.660  29.279  31.954  1.00  0.00     0.009 A 
ATOM     81  C   UNL A   1      46.928  27.600  34.167  1.00  0.00     0.001 A 
ATOM     82  C   UNL A   1      47.923  28.826  32.338  1.00  0.00     0.001 A 
ATOM     83  C   UNL A   1      48.056  27.994  33.448  1.00  0.00     0.000 A 
ENDBRANCH  65  78
ENDBRANCH  39  40
ENDBRANCH  31  34
ENDBRANCH  29  30
ENDBRANCH  28  29
ENDBRANCH  27  28
ENDBRANCH   1  27
TORSDOF 17
ENDMDL
MODEL 2
REMARK VINA RESULT:     -10.8      2.993      8.436
REMARK SMILES CC(C)C[C@H](CNC(=O)[C@]1([NH3+])CCC[C@@H](C)C1)C(=O)NCCCCNC(=O)c1ccc(-c2c3nc(c(-c4ccccc4)c4ccc([nH]4)c(-c4ccccc4)c4nc(c(-c5ccccc5)c5ccc2[nH]5)C=C4)C=C3)cc1
REMARK SMILES IDX 21 1 20 2 18 3 19 4 5 6 4 7 2 8 1 9 3 10 6 11 7 12 8 13 9 15
REMARK SMILES IDX 10 16 12 17 17 18 13 19 15 20 14 21 16 22 11 23 22 27 23 28
REMARK SMILES IDX 24 29 25 30 26 31 27 33 28 34 29 35 75 36 30 37 74 38 31 39
REMARK SMILES IDX 32 40 33 41 68 42 34 43 73 44 67 45 69 46 35 47 72 48 66 49
REMARK SMILES IDX 65 50 36 52 58 53 43 54 57 55 44 56 47 57 56 58 70 59 45 60
REMARK SMILES IDX 46 61 55 63 71 64 48 65 37 66 38 67 42 68 39 69 41 70 40 71
REMARK SMILES IDX 59 72 60 73 64 74 61 75 63 76 62 77 49 78 50 79 54 80 51 81
REMARK SMILES IDX 53 82 52 83
REMARK H PARENT 20 5 7 14 11 24 11 25 11 26 25 32 69 51 47 62
REMARK Flexibility Score: inf
ROOT
ATOM      1  C   UNL A   1      35.680  22.885  24.424  1.00  0.00     0.116 C 
ENDROOT
BRANCH   1   2
ATOM      2  N   UNL A   1      34.992  23.447  23.280  1.00  0.00    -0.356 N 
ATOM      3  C   UNL A   1      33.705  23.312  22.859  1.00  0.00     0.224 C 
ATOM      4  O   UNL A   1      33.418  23.812  21.767  1.00  0.00    -0.275 OA
ATOM      5  H   UNL A   1      35.550  24.023  22.709  1.00  0.00     0.163 HD
BRANCH   3   6
ATOM      6  C   UNL A   1      32.633  22.634  23.710  1.00  0.00     0.098 C 
BRANCH   6   7
ATOM      7  C   UNL A   1      32.587  21.107  23.478  1.00  0.00     0.018 C 
BRANCH   7   8
ATOM      8  C   UNL A   1      32.762  20.233  24.738  1.00  0.00    -0.017 C 
ATOM      9  C   UNL A   1      33.919  19.244  24.592  1.00  0.00     0.007 C 
ATOM     10  C   UNL A   1      33.005  21.138  25.950  1.00  0.00     0.007 C 
ENDBRANCH   7   8
ENDBRANCH   6   7
BRANCH   6  11
ATOM     11  C   UNL A   1      31.265  23.324  23.547  1.00  0.00     0.129 C 
BRANCH  11  12
ATOM     12  N   UNL A   1      30.629  23.637  24.812  1.00  0.00    -0.350 N 
ATOM     13  C   UNL A   1      30.861  24.594  25.743  1.00  0.00     0.281 C 
ATOM     14  H   UNL A   1      29.882  23.037  25.039  1.00  0.00     0.163 HD
ATOM     15  O   UNL A   1      30.304  24.406  26.833  1.00  0.00    -0.268 OA
BRANCH  13  16
ATOM     16  C   UNL A   1      31.623  25.924  25.455  1.00  0.00     0.174 C 
ATOM     17  C   UNL A   1      33.124  25.690  25.729  1.00  0.00     0.079 C 
ATOM     18  C   UNL A   1      31.059  26.955  26.464  1.00  0.00     0.082 C 
ATOM     19  C   UNL A   1      33.937  26.983  25.783  1.00  0.00     0.007 C 
ATOM     20  C   UNL A   1      31.870  28.248  26.631  1.00  0.00    -0.008 C 
ATOM     21  C   UNL A   1      33.368  27.960  26.807  1.00  0.00     0.004 C 
ATOM     22  C   UNL A   1      31.602  29.264  25.519  1.00  0.00     0.008 C 
BRANCH  16  23
ATOM     23  N   UNL A   1      31.458  26.384  24.062  1.00  0.00    -0.345 N 
ATOM     24  H   UNL A   1      30.471  26.559  23.877  1.00  0.00     0.345 HD
ATOM     25  H   UNL A   1      31.802  25.666  23.425  1.00  0.00     0.345 HD
ATOM     26  H   UNL A   1      31.988  27.244  23.924  1.00  0.00     0.345 HD
ENDBRANCH  16  23
ENDBRANCH  13  16
ENDBRANCH  11  12
ENDBRANCH   6  11
ENDBRANCH   3   6
ENDBRANCH   1   2
BRANCH   1  27
ATOM     27  C   UNL A   1      36.930  22.121  23.987  1.00  0.00     0.023 C 
BRANCH  27  28
ATOM     28  C   UNL A   1      37.267  20.917  24.861  1.00  0.00     0.023 C 
BRANCH  28  29
ATOM     29  C   UNL A   1      38.528  21.076  25.696  1.00  0.00     0.116 C 
BRANCH  29  30
ATOM     30  N   UNL A   1      39.412  19.919  25.639  1.00  0.00    -0.352 N 
ATOM     31  C   UNL A   1      40.735  19.849  25.997  1.00  0.00     0.251 C 
ATOM     32  H   UNL A   1      39.010  19.086  25.301  1.00  0.00     0.163 HD
ATOM     33  O   UNL A   1      41.390  18.831  25.803  1.00  0.00    -0.269 OA
BRANCH  31  34
ATOM     34  C   UNL A   1      41.363  21.046  26.583  1.00  0.00     0.039 A 
ATOM     35  C   UNL A   1      41.953  21.981  25.732  1.00  0.00     0.014 A 
ATOM     36  C   UNL A   1      41.277  21.277  27.958  1.00  0.00     0.014 A 
ATOM     37  C   UNL A   1      42.401  23.192  26.259  1.00  0.00     0.010 A 
ATOM     38  C   UNL A   1      41.648  22.514  28.465  1.00  0.00     0.010 A 
ATOM     39  C   UNL A   1      42.216  23.481  27.621  1.00  0.00    -0.014 A 
BRANCH  39  40
ATOM     40  C   UNL A   1      42.616  24.788  28.189  1.00  0.00     0.031 A 
ATOM     41  C   UNL A   1      41.584  25.861  28.388  1.00  0.00     0.074 A 
ATOM     42  C   UNL A   1      43.913  25.032  28.458  1.00  0.00     0.049 A 
ATOM     43  N   UNL A   1      41.743  27.091  28.806  1.00  0.00    -0.248 NA
ATOM     44  C   UNL A   1      40.194  25.518  28.043  1.00  0.00     0.031 C 
ATOM     45  C   UNL A   1      45.016  24.087  28.259  1.00  0.00     0.029 A 
ATOM     46  N   UNL A   1      44.524  26.157  28.949  1.00  0.00    -0.354 N 
ATOM     47  C   UNL A   1      40.482  27.670  28.755  1.00  0.00     0.074 A 
ATOM     48  C   UNL A   1      39.579  26.678  28.216  1.00  0.00     0.031 C 
ATOM     49  C   UNL A   1      46.163  24.663  28.653  1.00  0.00     0.029 A 
ATOM     50  C   UNL A   1      45.884  26.026  29.094  1.00  0.00     0.049 A 
ATOM     51  H   UNL A   1      44.036  26.981  29.176  1.00  0.00     0.167 HD
ATOM     52  C   UNL A   1      40.102  28.909  29.144  1.00  0.00     0.031 A 
ATOM     53  C   UNL A   1      46.803  26.907  29.532  1.00  0.00     0.031 A 
ATOM     54  C   UNL A   1      40.997  29.888  29.698  1.00  0.00     0.049 A 
ATOM     55  C   UNL A   1      46.355  28.276  29.963  1.00  0.00     0.074 A 
ATOM     56  C   UNL A   1      40.702  31.152  30.177  1.00  0.00     0.029 A 
ATOM     57  N   UNL A   1      42.363  29.709  29.849  1.00  0.00    -0.354 N 
ATOM     58  N   UNL A   1      45.147  28.785  29.972  1.00  0.00    -0.248 NA
ATOM     59  C   UNL A   1      47.399  29.187  30.454  1.00  0.00     0.031 C 
ATOM     60  C   UNL A   1      41.898  31.753  30.580  1.00  0.00     0.029 A 
ATOM     61  C   UNL A   1      42.929  30.845  30.398  1.00  0.00     0.049 A 
ATOM     62  H   UNL A   1      42.857  28.893  29.602  1.00  0.00     0.167 HD
ATOM     63  C   UNL A   1      45.281  30.065  30.495  1.00  0.00     0.074 A 
ATOM     64  C   UNL A   1      46.684  30.247  30.804  1.00  0.00     0.031 C 
ATOM     65  C   UNL A   1      44.326  31.005  30.700  1.00  0.00     0.031 A 
BRANCH  52  66
ATOM     66  C   UNL A   1      38.653  29.269  28.980  1.00  0.00    -0.014 A 
ATOM     67  C   UNL A   1      38.154  29.725  27.748  1.00  0.00     0.009 A 
ATOM     68  C   UNL A   1      37.770  29.131  30.061  1.00  0.00     0.009 A 
ATOM     69  C   UNL A   1      36.809  30.070  27.615  1.00  0.00     0.001 A 
ATOM     70  C   UNL A   1      36.419  29.450  29.917  1.00  0.00     0.001 A 
ATOM     71  C   UNL A   1      35.941  29.928  28.697  1.00  0.00     0.000 A 
ENDBRANCH  52  66
BRANCH  53  72
ATOM     72  C   UNL A   1      48.235  26.518  29.607  1.00  0.00    -0.014 A 
ATOM     73  C   UNL A   1      48.729  25.847  30.736  1.00  0.00     0.009 A 
ATOM     74  C   UNL A   1      49.114  26.820  28.557  1.00  0.00     0.009 A 
ATOM     75  C   UNL A   1      50.083  25.512  30.824  1.00  0.00     0.001 A 
ATOM     76  C   UNL A   1      50.462  26.461  28.636  1.00  0.00     0.001 A 
ATOM     77  C   UNL A   1      50.947  25.815  29.772  1.00  0.00     0.000 A 
ENDBRANCH  53  72
BRANCH  65  78
ATOM     78  C   UNL A   1      44.765  32.301  31.319  1.00  0.00    -0.014 A 
ATOM     79  C   UNL A   1      45.141  33.396  30.526  1.00  0.00     0.009 A 
ATOM     80  C   UNL A   1      44.758  32.439  32.716  1.00  0.00     0.009 A 
ATOM     81  C   UNL A   1      45.533  34.596  31.123  1.00  0.00     0.001 A 
ATOM     82  C   UNL A   1      45.124  33.648  33.308  1.00  0.00     0.001 A 
ATOM     83  C   UNL A   1      45.518  34.722  32.512  1.00  0.00     0.000 A 
ENDBRANCH  65  78
ENDBRANCH  39  40
ENDBRANCH  31  34
ENDBRANCH  29  30
ENDBRANCH  28  29
ENDBRANCH  27  28
ENDBRANCH   1  27
TORSDOF 17
ENDMDL
MODEL 3
REMARK VINA RESULT:     -10.6      3.081      8.516
REMARK SMILES CC(C)C[C@H](CNC(=O)[C@]1([NH3+])CCC[C@@H](C)C1)C(=O)NCCCCNC(=O)c1ccc(-c2c3nc(c(-c4ccccc4)c4ccc([nH]4)c(-c4ccccc4)c4nc(c(-c5ccccc5)c5ccc2[nH]5)C=C4)C=C3)cc1
REMARK SMILES IDX 21 1 20 2 18 3 19 4 5 6 4 7 2 8 1 9 3 10 6 11 7 12 8 13 9 15
REMARK SMILES IDX 10 16 12 17 17 18 13 19 15 20 14 21 16 22 11 23 22 27 23 28
REMARK SMILES IDX 24 29 25 30 26 31 27 33 28 34 29 35 75 36 30 37 74 38 31 39
REMARK SMILES IDX 32 40 33 41 68 42 34 43 73 44 67 45 69 46 35 47 72 48 66 49
REMARK SMILES IDX 65 50 36 52 58 53 43 54 57 55 44 56 47 57 56 58 70 59 45 60
REMARK SMILES IDX 46 61 55 63 71 64 48 65 37 66 38 67 42 68 39 69 41 70 40 71
REMARK SMILES IDX 59 72 60 73 64 74 61 75 63 76 62 77 49 78 50 79 54 80 51 81
REMARK SMILES IDX 53 82 52 83
REMARK H PARENT 20 5 7 14 11 24 11 25 11 26 25 32 69 51 47 62
REMARK Flexibility Score: inf
ROOT
ATOM      1  C   UNL A   1      35.858  22.012  25.465  1.00  0.00     0.116 C 
ENDROOT
BRANCH   1   2
ATOM      2  N   UNL A   1      35.472  22.753  24.282  1.00  0.00    -0.356 N 
ATOM      3  C   UNL A   1      34.313  22.752  23.568  1.00  0.00     0.224 C 
ATOM      4  O   UNL A   1      34.303  23.402  22.518  1.00  0.00    -0.275 OA
ATOM      5  H   UNL A   1      36.165  23.360  23.935  1.00  0.00     0.163 HD
BRANCH   3   6
ATOM      6  C   UNL A   1      33.052  22.042  24.055  1.00  0.00     0.098 C 
BRANCH   6   7
ATOM      7  C   UNL A   1      32.847  20.678  23.358  1.00  0.00     0.018 C 
BRANCH   7   8
ATOM      8  C   UNL A   1      32.499  19.497  24.289  1.00  0.00    -0.017 C 
ATOM      9  C   UNL A   1      33.225  18.215  23.881  1.00  0.00     0.007 C 
ATOM     10  C   UNL A   1      32.868  19.864  25.730  1.00  0.00     0.007 C 
ENDBRANCH   7   8
ENDBRANCH   6   7
BRANCH   6  11
ATOM     11  C   UNL A   1      31.821  22.965  23.980  1.00  0.00     0.129 C 
BRANCH  11  12
ATOM     12  N   UNL A   1      31.130  23.101  25.248  1.00  0.00    -0.350 N 
ATOM     13  C   UNL A   1      31.144  24.065  26.200  1.00  0.00     0.281 C 
ATOM     14  H   UNL A   1      30.534  22.346  25.456  1.00  0.00     0.163 HD
ATOM     15  O   UNL A   1      30.641  23.734  27.283  1.00  0.00    -0.268 OA
BRANCH  13  16
ATOM     16  C   UNL A   1      31.593  25.536  25.946  1.00  0.00     0.174 C 
ATOM     17  C   UNL A   1      31.037  25.981  24.577  1.00  0.00     0.079 C 
ATOM     18  C   UNL A   1      33.141  25.497  25.898  1.00  0.00     0.082 C 
ATOM     19  C   UNL A   1      31.655  27.284  24.068  1.00  0.00     0.007 C 
ATOM     20  C   UNL A   1      33.829  26.744  25.322  1.00  0.00    -0.008 C 
ATOM     21  C   UNL A   1      33.177  27.197  24.008  1.00  0.00     0.004 C 
ATOM     22  C   UNL A   1      33.939  27.883  26.337  1.00  0.00     0.008 C 
BRANCH  16  23
ATOM     23  N   UNL A   1      31.108  26.467  26.984  1.00  0.00    -0.345 N 
ATOM     24  H   UNL A   1      30.984  25.964  27.862  1.00  0.00     0.345 HD
ATOM     25  H   UNL A   1      30.215  26.865  26.691  1.00  0.00     0.345 HD
ATOM     26  H   UNL A   1      31.788  27.215  27.114  1.00  0.00     0.345 HD
ENDBRANCH  16  23
ENDBRANCH  13  16
ENDBRANCH  11  12
ENDBRANCH   6  11
ENDBRANCH   3   6
ENDBRANCH   1   2
BRANCH   1  27
ATOM     27  C   UNL A   1      36.315  20.599  25.096  1.00  0.00     0.023 C 
BRANCH  27  28
ATOM     28  C   UNL A   1      37.765  20.510  24.632  1.00  0.00     0.023 C 
BRANCH  28  29
ATOM     29  C   UNL A   1      38.793  20.608  25.748  1.00  0.00     0.116 C 
BRANCH  29  30
ATOM     30  N   UNL A   1      39.773  19.531  25.730  1.00  0.00    -0.352 N 
ATOM     31  C   UNL A   1      41.098  19.589  26.083  1.00  0.00     0.251 C 
ATOM     32  H   UNL A   1      39.445  18.653  25.426  1.00  0.00     0.163 HD
ATOM     33  O   UNL A   1      41.839  18.625  25.925  1.00  0.00    -0.269 OA
BRANCH  31  34
ATOM     34  C   UNL A   1      41.621  20.858  26.620  1.00  0.00     0.039 A 
ATOM     35  C   UNL A   1      42.144  21.799  25.733  1.00  0.00     0.014 A 
ATOM     36  C   UNL A   1      41.502  21.141  27.983  1.00  0.00     0.014 A 
ATOM     37  C   UNL A   1      42.487  23.064  26.209  1.00  0.00     0.010 A 
ATOM     38  C   UNL A   1      41.767  22.424  28.438  1.00  0.00     0.010 A 
ATOM     39  C   UNL A   1      42.264  23.396  27.555  1.00  0.00    -0.014 A 
BRANCH  39  40
ATOM     40  C   UNL A   1      42.552  24.755  28.068  1.00  0.00     0.031 A 
ATOM     41  C   UNL A   1      43.945  25.107  28.507  1.00  0.00     0.074 A 
ATOM     42  C   UNL A   1      41.550  25.644  28.205  1.00  0.00     0.049 A 
ATOM     43  N   UNL A   1      44.385  26.214  29.046  1.00  0.00    -0.248 NA
ATOM     44  C   UNL A   1      44.974  24.064  28.348  1.00  0.00     0.031 C 
ATOM     45  C   UNL A   1      40.146  25.404  27.861  1.00  0.00     0.029 A 
ATOM     46  N   UNL A   1      41.560  26.931  28.680  1.00  0.00    -0.354 N 
ATOM     47  C   UNL A   1      45.731  25.995  29.307  1.00  0.00     0.074 A 
ATOM     48  C   UNL A   1      46.025  24.634  28.918  1.00  0.00     0.031 C 
ATOM     49  C   UNL A   1      39.437  26.517  28.109  1.00  0.00     0.029 A 
ATOM     50  C   UNL A   1      40.325  27.533  28.663  1.00  0.00     0.049 A 
ATOM     51  H   UNL A   1      42.374  27.381  29.002  1.00  0.00     0.167 HD
ATOM     52  C   UNL A   1      46.649  26.857  29.803  1.00  0.00     0.031 A 
ATOM     53  C   UNL A   1      39.952  28.766  29.054  1.00  0.00     0.031 A 
ATOM     54  C   UNL A   1      46.360  28.216  30.172  1.00  0.00     0.049 A 
ATOM     55  C   UNL A   1      40.991  29.706  29.598  1.00  0.00     0.074 A 
ATOM     56  C   UNL A   1      47.231  29.188  30.630  1.00  0.00     0.029 A 
ATOM     57  N   UNL A   1      45.102  28.795  30.120  1.00  0.00    -0.354 N 
ATOM     58  N   UNL A   1      42.275  29.506  29.774  1.00  0.00    -0.248 NA
ATOM     59  C   UNL A   1      40.530  31.047  29.985  1.00  0.00     0.031 C 
ATOM     60  C   UNL A   1      46.491  30.344  30.895  1.00  0.00     0.029 A 
ATOM     61  C   UNL A   1      45.169  30.106  30.554  1.00  0.00     0.049 A 
ATOM     62  H   UNL A   1      44.283  28.340  29.818  1.00  0.00     0.167 HD
ATOM     63  C   UNL A   1      42.779  30.702  30.268  1.00  0.00     0.074 A 
ATOM     64  C   UNL A   1      41.666  31.626  30.347  1.00  0.00     0.031 C 
ATOM     65  C   UNL A   1      44.051  31.008  30.623  1.00  0.00     0.031 A 
BRANCH  52  66
ATOM     66  C   UNL A   1      48.051  26.347  29.975  1.00  0.00    -0.014 A 
ATOM     67  C   UNL A   1      48.466  25.761  31.183  1.00  0.00     0.009 A 
ATOM     68  C   UNL A   1      48.962  26.430  28.912  1.00  0.00     0.009 A 
ATOM     69  C   UNL A   1      49.777  25.305  31.333  1.00  0.00     0.001 A 
ATOM     70  C   UNL A   1      50.264  25.947  29.056  1.00  0.00     0.001 A 
ATOM     71  C   UNL A   1      50.673  25.394  30.269  1.00  0.00     0.000 A 
ENDBRANCH  52  66
BRANCH  53  72
ATOM     72  C   UNL A   1      38.535  29.193  28.926  1.00  0.00    -0.014 A 
ATOM     73  C   UNL A   1      38.057  29.711  27.712  1.00  0.00     0.009 A 
ATOM     74  C   UNL A   1      37.656  29.092  30.014  1.00  0.00     0.009 A 
ATOM     75  C   UNL A   1      36.735  30.147  27.600  1.00  0.00     0.001 A 
ATOM     76  C   UNL A   1      36.326  29.503  29.891  1.00  0.00     0.001 A 
ATOM     77  C   UNL A   1      35.869  30.038  28.688  1.00  0.00     0.000 A 
ENDBRANCH  53  72
BRANCH  65  78
ATOM     78  C   UNL A   1      44.310  32.410  31.097  1.00  0.00    -0.014 A 
ATOM     79  C   UNL A   1      44.628  33.436  30.194  1.00  0.00     0.009 A 
ATOM     80  C   UNL A   1      44.192  32.713  32.462  1.00  0.00     0.009 A 
ATOM     81  C   UNL A   1      44.852  34.735  30.655  1.00  0.00     0.001 A 
ATOM     82  C   UNL A   1      44.390  34.018  32.916  1.00  0.00     0.001 A 
ATOM     83  C   UNL A   1      44.728  35.025  32.013  1.00  0.00     0.000 A 
ENDBRANCH  65  78
ENDBRANCH  39  40
ENDBRANCH  31  34
ENDBRANCH  29  30
ENDBRANCH  28  29
ENDBRANCH  27  28
ENDBRANCH   1  27
TORSDOF 17
ENDMDL
