MODEL 1
REMARK VINA RESULT:      -9.2      0.000      0.000
REMARK SMILES O=C(/C=C/c1ccc(S(=O)(=O)Nc2ccc3c(c2)OCCO3)cc1)NCCCCNC(=O)c1ccc(-c2c3nc(c(-c4ccccc4)c4ccc([nH]4)c(-c4ccccc4)c4nc(c(-c5ccccc5)c5ccc2[nH]5)C=C4)C=C3)cc1
REMARK SMILES IDX 26 1 25 2 1 3 2 4 3 6 4 7 5 8 6 9 24 10 7 11 23 12 8 13 9 14
REMARK SMILES IDX 10 15 11 16 12 17 13 19 14 20 18 21 15 22 17 23 16 24 19 25
REMARK SMILES IDX 22 26 20 27 21 28 27 29 28 30 29 31 30 32 31 33 32 35 33 36
REMARK SMILES IDX 34 37 80 38 35 39 79 40 36 41 37 42 38 43 73 44 39 45 78 46
REMARK SMILES IDX 72 47 74 48 40 49 77 50 71 51 70 52 41 54 63 55 48 56 62 57
REMARK SMILES IDX 49 58 52 59 61 60 75 61 50 62 51 63 60 65 76 66 53 67 42 68
REMARK SMILES IDX 43 69 47 70 44 71 46 72 45 73 64 74 65 75 69 76 66 77 68 78
REMARK SMILES IDX 67 79 54 80 55 81 59 82 56 83 58 84 57 85
REMARK H PARENT 25 5 12 18 30 34 74 53 52 64
REMARK Flexibility Score: inf
ROOT
ATOM      1  C   UNL A   1      36.515  33.554  31.603  1.00  0.00     0.116 C 
ENDROOT
BRANCH   1   2
ATOM      2  N   UNL A   1      37.413  32.772  30.772  1.00  0.00    -0.353 N 
ATOM      3  O   UNL A   1      36.298  30.798  31.101  1.00  0.00    -0.270 OA
ATOM      4  C   UNL A   1      37.222  31.427  30.595  1.00  0.00     0.243 C 
ATOM      5  H   UNL A   1      38.172  33.215  30.327  1.00  0.00     0.163 HD
BRANCH   4   6
ATOM      6  C   UNL A   1      38.159  30.710  29.689  1.00  0.00     0.072 C 
ATOM      7  C   UNL A   1      38.532  29.419  29.710  1.00  0.00     0.014 C 
BRANCH   7   8
ATOM      8  C   UNL A   1      39.460  28.795  28.734  1.00  0.00    -0.025 A 
ATOM      9  C   UNL A   1      40.560  29.530  28.267  1.00  0.00     0.009 A 
ATOM     10  C   UNL A   1      39.290  27.493  28.234  1.00  0.00     0.009 A 
ATOM     11  C   UNL A   1      41.428  29.001  27.296  1.00  0.00     0.023 A 
ATOM     12  C   UNL A   1      40.188  26.938  27.311  1.00  0.00     0.023 A 
ATOM     13  C   UNL A   1      41.230  27.707  26.803  1.00  0.00     0.087 A 
BRANCH  13  14
ATOM     14  S   UNL A   1      42.308  27.098  25.515  1.00  0.00     0.261 S 
ATOM     15  O   UNL A   1      41.698  25.884  24.997  1.00  0.00    -0.201 OA
ATOM     16  O   UNL A   1      42.599  28.202  24.634  1.00  0.00    -0.201 OA
BRANCH  14  17
ATOM     17  N   UNL A   1      43.808  26.582  26.202  1.00  0.00    -0.279 N 
ATOM     18  H   UNL A   1      44.595  27.173  26.224  1.00  0.00     0.180 HD
BRANCH  17  19
ATOM     19  C   UNL A   1      43.850  25.252  26.737  1.00  0.00     0.053 A 
ATOM     20  C   UNL A   1      43.300  25.058  28.009  1.00  0.00     0.031 A 
ATOM     21  C   UNL A   1      44.278  24.171  25.972  1.00  0.00     0.077 A 
ATOM     22  C   UNL A   1      42.963  23.772  28.424  1.00  0.00     0.052 A 
ATOM     23  C   UNL A   1      43.878  22.899  26.353  1.00  0.00     0.163 A 
ATOM     24  C   UNL A   1      43.169  22.713  27.546  1.00  0.00     0.161 A 
ATOM     25  O   UNL A   1      44.092  21.903  25.436  1.00  0.00    -0.486 OA
ATOM     26  O   UNL A   1      42.545  21.525  27.837  1.00  0.00    -0.486 OA
ATOM     27  C   UNL A   1      43.405  20.685  25.749  1.00  0.00     0.271 C 
ATOM     28  C   UNL A   1      42.162  20.920  26.593  1.00  0.00     0.271 C 
ENDBRANCH  17  19
ENDBRANCH  14  17
ENDBRANCH  13  14
ENDBRANCH   7   8
ENDBRANCH   4   6
ENDBRANCH   1   2
BRANCH   1  29
ATOM     29  C   UNL A   1      37.237  34.232  32.767  1.00  0.00     0.023 C 
BRANCH  29  30
ATOM     30  C   UNL A   1      36.679  33.894  34.152  1.00  0.00     0.023 C 
BRANCH  30  31
ATOM     31  C   UNL A   1      37.669  34.018  35.306  1.00  0.00     0.116 C 
BRANCH  31  32
ATOM     32  N   UNL A   1      37.588  32.918  36.253  1.00  0.00    -0.352 N 
ATOM     33  C   UNL A   1      38.186  31.681  36.204  1.00  0.00     0.251 C 
ATOM     34  H   UNL A   1      37.024  33.082  37.043  1.00  0.00     0.163 HD
ATOM     35  O   UNL A   1      37.906  30.827  37.040  1.00  0.00    -0.269 OA
BRANCH  33  36
ATOM     36  C   UNL A   1      39.144  31.361  35.122  1.00  0.00     0.039 A 
ATOM     37  C   UNL A   1      40.493  31.686  35.301  1.00  0.00     0.014 A 
ATOM     38  C   UNL A   1      38.724  30.747  33.940  1.00  0.00     0.014 A 
ATOM     39  C   UNL A   1      41.429  31.330  34.326  1.00  0.00     0.010 A 
ATOM     40  C   UNL A   1      39.666  30.334  33.000  1.00  0.00     0.010 A 
ATOM     41  C   UNL A   1      41.028  30.618  33.185  1.00  0.00    -0.014 A 
BRANCH  41  42
ATOM     42  C   UNL A   1      42.019  30.148  32.182  1.00  0.00     0.031 A 
ATOM     43  C   UNL A   1      42.677  28.805  32.334  1.00  0.00     0.074 A 
ATOM     44  C   UNL A   1      42.379  30.959  31.168  1.00  0.00     0.049 A 
ATOM     45  N   UNL A   1      43.613  28.256  31.600  1.00  0.00    -0.248 NA
ATOM     46  C   UNL A   1      42.243  27.979  33.473  1.00  0.00     0.031 C 
ATOM     47  C   UNL A   1      41.847  32.302  30.925  1.00  0.00     0.029 A 
ATOM     48  N   UNL A   1      43.287  30.773  30.155  1.00  0.00    -0.354 N 
ATOM     49  C   UNL A   1      43.891  27.032  32.196  1.00  0.00     0.074 A 
ATOM     50  C   UNL A   1      43.058  26.939  33.376  1.00  0.00     0.031 C 
ATOM     51  C   UNL A   1      42.423  32.809  29.824  1.00  0.00     0.029 A 
ATOM     52  C   UNL A   1      43.389  31.848  29.304  1.00  0.00     0.049 A 
ATOM     53  H   UNL A   1      43.816  29.950  30.049  1.00  0.00     0.167 HD
ATOM     54  C   UNL A   1      44.747  26.065  31.789  1.00  0.00     0.031 A 
ATOM     55  C   UNL A   1      44.177  32.042  28.230  1.00  0.00     0.031 A 
ATOM     56  C   UNL A   1      45.569  26.148  30.612  1.00  0.00     0.049 A 
ATOM     57  C   UNL A   1      45.127  30.958  27.804  1.00  0.00     0.074 A 
ATOM     58  C   UNL A   1      46.431  25.197  30.092  1.00  0.00     0.029 A 
ATOM     59  N   UNL A   1      45.633  27.248  29.770  1.00  0.00    -0.354 N 
ATOM     60  N   UNL A   1      45.334  29.782  28.347  1.00  0.00    -0.248 NA
ATOM     61  C   UNL A   1      45.943  31.224  26.612  1.00  0.00     0.031 C 
ATOM     62  C   UNL A   1      47.049  25.739  28.960  1.00  0.00     0.029 A 
ATOM     63  C   UNL A   1      46.534  27.008  28.746  1.00  0.00     0.049 A 
ATOM     64  H   UNL A   1      45.114  28.077  29.883  1.00  0.00     0.167 HD
ATOM     65  C   UNL A   1      46.284  29.160  27.547  1.00  0.00     0.074 A 
ATOM     66  C   UNL A   1      46.601  30.082  26.477  1.00  0.00     0.031 C 
ATOM     67  C   UNL A   1      46.842  27.933  27.689  1.00  0.00     0.031 A 
BRANCH  54  68
ATOM     68  C   UNL A   1      44.839  24.826  32.636  1.00  0.00    -0.014 A 
ATOM     69  C   UNL A   1      44.023  23.712  32.384  1.00  0.00     0.009 A 
ATOM     70  C   UNL A   1      45.775  24.761  33.681  1.00  0.00     0.009 A 
ATOM     71  C   UNL A   1      44.116  22.572  33.185  1.00  0.00     0.001 A 
ATOM     72  C   UNL A   1      45.885  23.609  34.462  1.00  0.00     0.001 A 
ATOM     73  C   UNL A   1      45.048  22.520  34.220  1.00  0.00     0.000 A 
ENDBRANCH  54  68
BRANCH  55  74
ATOM     74  C   UNL A   1      44.094  33.315  27.470  1.00  0.00    -0.014 A 
ATOM     75  C   UNL A   1      44.681  34.485  27.976  1.00  0.00     0.009 A 
ATOM     76  C   UNL A   1      43.425  33.368  26.237  1.00  0.00     0.009 A 
ATOM     77  C   UNL A   1      44.580  35.688  27.273  1.00  0.00     0.001 A 
ATOM     78  C   UNL A   1      43.349  34.566  25.524  1.00  0.00     0.001 A 
ATOM     79  C   UNL A   1      43.918  35.727  26.047  1.00  0.00     0.000 A 
ENDBRANCH  55  74
BRANCH  67  80
ATOM     80  C   UNL A   1      47.832  27.504  26.642  1.00  0.00    -0.014 A 
ATOM     81  C   UNL A   1      49.204  27.759  26.789  1.00  0.00     0.009 A 
ATOM     82  C   UNL A   1      47.385  26.802  25.512  1.00  0.00     0.009 A 
ATOM     83  C   UNL A   1      50.107  27.345  25.808  1.00  0.00     0.001 A 
ATOM     84  C   UNL A   1      48.293  26.367  24.545  1.00  0.00     0.001 A 
ATOM     85  C   UNL A   1      49.652  26.645  24.690  1.00  0.00     0.000 A 
ENDBRANCH  67  80
ENDBRANCH  41  42
ENDBRANCH  33  36
ENDBRANCH  31  32
ENDBRANCH  30  31
ENDBRANCH  29  30
ENDBRANCH   1  29
TORSDOF 15
ENDMDL
MODEL 2
REMARK VINA RESULT:      -9.1      5.675      9.051
REMARK SMILES O=C(/C=C/c1ccc(S(=O)(=O)Nc2ccc3c(c2)OCCO3)cc1)NCCCCNC(=O)c1ccc(-c2c3nc(c(-c4ccccc4)c4ccc([nH]4)c(-c4ccccc4)c4nc(c(-c5ccccc5)c5ccc2[nH]5)C=C4)C=C3)cc1
REMARK SMILES IDX 26 1 25 2 1 3 2 4 3 6 4 7 5 8 6 9 24 10 7 11 23 12 8 13 9 14
REMARK SMILES IDX 10 15 11 16 12 17 13 19 14 20 18 21 15 22 17 23 16 24 19 25
REMARK SMILES IDX 22 26 20 27 21 28 27 29 28 30 29 31 30 32 31 33 32 35 33 36
REMARK SMILES IDX 34 37 80 38 35 39 79 40 36 41 37 42 38 43 73 44 39 45 78 46
REMARK SMILES IDX 72 47 74 48 40 49 77 50 71 51 70 52 41 54 63 55 48 56 62 57
REMARK SMILES IDX 49 58 52 59 61 60 75 61 50 62 51 63 60 65 76 66 53 67 42 68
REMARK SMILES IDX 43 69 47 70 44 71 46 72 45 73 64 74 65 75 69 76 66 77 68 78
REMARK SMILES IDX 67 79 54 80 55 81 59 82 56 83 58 84 57 85
REMARK H PARENT 25 5 12 18 30 34 74 53 52 64
REMARK Flexibility Score: inf
ROOT
ATOM      1  C   UNL A   1      34.622  33.149  28.005  1.00  0.00     0.116 C 
ENDROOT
BRANCH   1   2
ATOM      2  N   UNL A   1      34.102  31.829  27.696  1.00  0.00    -0.353 N 
ATOM      3  O   UNL A   1      36.150  30.804  27.755  1.00  0.00    -0.270 OA
ATOM      4  C   UNL A   1      34.935  30.747  27.591  1.00  0.00     0.243 C 
ATOM      5  H   UNL A   1      33.134  31.709  27.561  1.00  0.00     0.163 HD
BRANCH   4   6
ATOM      6  C   UNL A   1      34.315  29.422  27.321  1.00  0.00     0.072 C 
ATOM      7  C   UNL A   1      33.636  29.013  26.235  1.00  0.00     0.014 C 
BRANCH   7   8
ATOM      8  C   UNL A   1      33.079  27.649  26.055  1.00  0.00    -0.025 A 
ATOM      9  C   UNL A   1      33.919  26.618  25.609  1.00  0.00     0.009 A 
ATOM     10  C   UNL A   1      31.733  27.330  26.298  1.00  0.00     0.009 A 
ATOM     11  C   UNL A   1      33.419  25.327  25.366  1.00  0.00     0.023 A 
ATOM     12  C   UNL A   1      31.242  26.028  26.115  1.00  0.00     0.023 A 
ATOM     13  C   UNL A   1      32.071  25.036  25.602  1.00  0.00     0.087 A 
BRANCH  13  14
ATOM     14  S   UNL A   1      31.457  23.406  25.209  1.00  0.00     0.261 S 
ATOM     15  O   UNL A   1      30.907  22.858  26.439  1.00  0.00    -0.201 OA
ATOM     16  O   UNL A   1      30.633  23.525  24.032  1.00  0.00    -0.201 OA
BRANCH  14  17
ATOM     17  N   UNL A   1      32.775  22.362  24.810  1.00  0.00    -0.279 N 
ATOM     18  H   UNL A   1      33.710  22.662  24.883  1.00  0.00     0.180 HD
BRANCH  17  19
ATOM     19  C   UNL A   1      32.442  21.040  24.367  1.00  0.00     0.053 A 
ATOM     20  C   UNL A   1      32.150  20.876  23.008  1.00  0.00     0.031 A 
ATOM     21  C   UNL A   1      32.550  19.939  25.211  1.00  0.00     0.077 A 
ATOM     22  C   UNL A   1      32.195  19.605  22.443  1.00  0.00     0.052 A 
ATOM     23  C   UNL A   1      32.666  18.681  24.637  1.00  0.00     0.163 A 
ATOM     24  C   UNL A   1      32.550  18.529  23.250  1.00  0.00     0.161 A 
ATOM     25  O   UNL A   1      33.035  17.668  25.482  1.00  0.00    -0.486 OA
ATOM     26  O   UNL A   1      32.899  17.359  22.622  1.00  0.00    -0.486 OA
ATOM     27  C   UNL A   1      33.424  16.471  24.798  1.00  0.00     0.271 C 
ATOM     28  C   UNL A   1      33.940  16.745  23.394  1.00  0.00     0.271 C 
ENDBRANCH  17  19
ENDBRANCH  14  17
ENDBRANCH  13  14
ENDBRANCH   7   8
ENDBRANCH   4   6
ENDBRANCH   1   2
BRANCH   1  29
ATOM     29  C   UNL A   1      34.057  33.711  29.309  1.00  0.00     0.023 C 
BRANCH  29  30
ATOM     30  C   UNL A   1      32.939  34.741  29.133  1.00  0.00     0.023 C 
BRANCH  30  31
ATOM     31  C   UNL A   1      33.224  36.124  29.710  1.00  0.00     0.116 C 
BRANCH  31  32
ATOM     32  N   UNL A   1      32.555  36.367  30.978  1.00  0.00    -0.352 N 
ATOM     33  C   UNL A   1      32.840  35.861  32.224  1.00  0.00     0.251 C 
ATOM     34  H   UNL A   1      31.788  36.983  30.939  1.00  0.00     0.163 HD
ATOM     35  O   UNL A   1      32.087  36.084  33.167  1.00  0.00    -0.269 OA
BRANCH  33  36
ATOM     36  C   UNL A   1      34.037  35.014  32.426  1.00  0.00     0.039 A 
ATOM     37  C   UNL A   1      35.299  35.564  32.178  1.00  0.00     0.014 A 
ATOM     38  C   UNL A   1      33.924  33.689  32.856  1.00  0.00     0.014 A 
ATOM     39  C   UNL A   1      36.448  34.809  32.430  1.00  0.00     0.010 A 
ATOM     40  C   UNL A   1      35.070  32.961  33.169  1.00  0.00     0.010 A 
ATOM     41  C   UNL A   1      36.343  33.514  32.963  1.00  0.00    -0.014 A 
BRANCH  41  42
ATOM     42  C   UNL A   1      37.552  32.730  33.326  1.00  0.00     0.031 A 
ATOM     43  C   UNL A   1      38.279  33.005  34.612  1.00  0.00     0.074 A 
ATOM     44  C   UNL A   1      38.037  31.814  32.465  1.00  0.00     0.049 A 
ATOM     45  N   UNL A   1      39.388  32.472  35.065  1.00  0.00    -0.248 NA
ATOM     46  C   UNL A   1      37.699  34.028  35.497  1.00  0.00     0.031 C 
ATOM     47  C   UNL A   1      37.451  31.475  31.166  1.00  0.00     0.029 A 
ATOM     48  N   UNL A   1      39.142  31.005  32.551  1.00  0.00    -0.354 N 
ATOM     49  C   UNL A   1      39.645  33.106  36.274  1.00  0.00     0.074 A 
ATOM     50  C   UNL A   1      38.603  34.093  36.463  1.00  0.00     0.031 C 
ATOM     51  C   UNL A   1      38.190  30.516  30.588  1.00  0.00     0.029 A 
ATOM     52  C   UNL A   1      39.321  30.198  31.454  1.00  0.00     0.049 A 
ATOM     53  H   UNL A   1      39.751  31.003  33.325  1.00  0.00     0.167 HD
ATOM     54  C   UNL A   1      40.645  32.876  37.157  1.00  0.00     0.031 A 
ATOM     55  C   UNL A   1      40.289  29.306  31.170  1.00  0.00     0.031 A 
ATOM     56  C   UNL A   1      41.677  31.890  36.979  1.00  0.00     0.049 A 
ATOM     57  C   UNL A   1      41.394  29.075  32.162  1.00  0.00     0.074 A 
ATOM     58  C   UNL A   1      42.705  31.549  37.843  1.00  0.00     0.029 A 
ATOM     59  N   UNL A   1      41.814  31.084  35.859  1.00  0.00    -0.354 N 
ATOM     60  N   UNL A   1      41.589  29.642  33.327  1.00  0.00    -0.248 NA
ATOM     61  C   UNL A   1      42.407  28.073  31.801  1.00  0.00     0.031 C 
ATOM     62  C   UNL A   1      43.488  30.569  37.227  1.00  0.00     0.029 A 
ATOM     63  C   UNL A   1      42.919  30.262  36.000  1.00  0.00     0.049 A 
ATOM     64  H   UNL A   1      41.213  31.094  35.079  1.00  0.00     0.167 HD
ATOM     65  C   UNL A   1      42.731  29.048  33.850  1.00  0.00     0.074 A 
ATOM     66  C   UNL A   1      43.175  28.068  32.881  1.00  0.00     0.031 C 
ATOM     67  C   UNL A   1      43.353  29.294  35.029  1.00  0.00     0.031 A 
BRANCH  54  68
ATOM     68  C   UNL A   1      40.672  33.718  38.402  1.00  0.00    -0.014 A 
ATOM     69  C   UNL A   1      41.269  34.989  38.405  1.00  0.00     0.009 A 
ATOM     70  C   UNL A   1      40.069  33.248  39.579  1.00  0.00     0.009 A 
ATOM     71  C   UNL A   1      41.293  35.757  39.571  1.00  0.00     0.001 A 
ATOM     72  C   UNL A   1      40.069  34.030  40.736  1.00  0.00     0.001 A 
ATOM     73  C   UNL A   1      40.691  35.277  40.734  1.00  0.00     0.000 A 
ENDBRANCH  54  68
BRANCH  55  74
ATOM     74  C   UNL A   1      40.250  28.551  29.892  1.00  0.00    -0.014 A 
ATOM     75  C   UNL A   1      40.985  28.994  28.782  1.00  0.00     0.009 A 
ATOM     76  C   UNL A   1      39.477  27.385  29.773  1.00  0.00     0.009 A 
ATOM     77  C   UNL A   1      40.928  28.299  27.572  1.00  0.00     0.001 A 
ATOM     78  C   UNL A   1      39.443  26.677  28.571  1.00  0.00     0.001 A 
ATOM     79  C   UNL A   1      40.161  27.140  27.469  1.00  0.00     0.000 A 
ENDBRANCH  55  74
BRANCH  67  80
ATOM     80  C   UNL A   1      44.566  28.466  35.350  1.00  0.00    -0.014 A 
ATOM     81  C   UNL A   1      45.834  28.812  34.861  1.00  0.00     0.009 A 
ATOM     82  C   UNL A   1      44.439  27.345  36.185  1.00  0.00     0.009 A 
ATOM     83  C   UNL A   1      46.949  28.034  35.178  1.00  0.00     0.001 A 
ATOM     84  C   UNL A   1      45.560  26.584  36.522  1.00  0.00     0.001 A 
ATOM     85  C   UNL A   1      46.812  26.924  36.012  1.00  0.00     0.000 A 
ENDBRANCH  67  80
ENDBRANCH  41  42
ENDBRANCH  33  36
ENDBRANCH  31  32
ENDBRANCH  30  31
ENDBRANCH  29  30
ENDBRANCH   1  29
TORSDOF 15
ENDMDL
MODEL 3
REMARK VINA RESULT:      -9.0      5.544     10.172
REMARK SMILES O=C(/C=C/c1ccc(S(=O)(=O)Nc2ccc3c(c2)OCCO3)cc1)NCCCCNC(=O)c1ccc(-c2c3nc(c(-c4ccccc4)c4ccc([nH]4)c(-c4ccccc4)c4nc(c(-c5ccccc5)c5ccc2[nH]5)C=C4)C=C3)cc1
REMARK SMILES IDX 26 1 25 2 1 3 2 4 3 6 4 7 5 8 6 9 24 10 7 11 23 12 8 13 9 14
REMARK SMILES IDX 10 15 11 16 12 17 13 19 14 20 18 21 15 22 17 23 16 24 19 25
REMARK SMILES IDX 22 26 20 27 21 28 27 29 28 30 29 31 30 32 31 33 32 35 33 36
REMARK SMILES IDX 34 37 80 38 35 39 79 40 36 41 37 42 38 43 73 44 39 45 78 46
REMARK SMILES IDX 72 47 74 48 40 49 77 50 71 51 70 52 41 54 63 55 48 56 62 57
REMARK SMILES IDX 49 58 52 59 61 60 75 61 50 62 51 63 60 65 76 66 53 67 42 68
REMARK SMILES IDX 43 69 47 70 44 71 46 72 45 73 64 74 65 75 69 76 66 77 68 78
REMARK SMILES IDX 67 79 54 80 55 81 59 82 56 83 58 84 57 85
REMARK H PARENT 25 5 12 18 30 34 74 53 52 64
REMARK Flexibility Score: inf
ROOT
ATOM      1  C   UNL A   1      43.811  18.994  25.491  1.00  0.00     0.116 C 
ENDROOT
BRANCH   1   2
ATOM      2  N   UNL A   1      42.440  19.436  25.307  1.00  0.00    -0.353 N 
ATOM      3  O   UNL A   1      42.101  19.916  27.521  1.00  0.00    -0.270 OA
ATOM      4  C   UNL A   1      41.686  19.864  26.368  1.00  0.00     0.243 C 
ATOM      5  H   UNL A   1      42.044  19.429  24.405  1.00  0.00     0.163 HD
BRANCH   4   6
ATOM      6  C   UNL A   1      40.307  20.345  26.085  1.00  0.00     0.072 C 
ATOM      7  C   UNL A   1      39.832  21.602  26.101  1.00  0.00     0.014 C 
BRANCH   7   8
ATOM      8  C   UNL A   1      38.434  21.978  25.773  1.00  0.00    -0.025 A 
ATOM      9  C   UNL A   1      37.599  21.038  25.150  1.00  0.00     0.009 A 
ATOM     10  C   UNL A   1      37.894  23.246  26.044  1.00  0.00     0.009 A 
ATOM     11  C   UNL A   1      36.289  21.371  24.766  1.00  0.00     0.023 A 
ATOM     12  C   UNL A   1      36.567  23.564  25.718  1.00  0.00     0.023 A 
ATOM     13  C   UNL A   1      35.777  22.645  25.035  1.00  0.00     0.087 A 
BRANCH  13  14
ATOM     14  S   UNL A   1      34.135  23.055  24.464  1.00  0.00     0.261 S 
ATOM     15  O   UNL A   1      33.883  24.430  24.866  1.00  0.00    -0.201 OA
ATOM     16  O   UNL A   1      34.050  22.674  23.076  1.00  0.00    -0.201 OA
BRANCH  14  17
ATOM     17  N   UNL A   1      32.964  22.121  25.326  1.00  0.00    -0.279 N 
ATOM     18  H   UNL A   1      32.558  22.446  26.162  1.00  0.00     0.180 HD
BRANCH  17  19
ATOM     19  C   UNL A   1      32.612  20.849  24.765  1.00  0.00     0.053 A 
ATOM     20  C   UNL A   1      32.149  20.840  23.444  1.00  0.00     0.031 A 
ATOM     21  C   UNL A   1      32.859  19.659  25.442  1.00  0.00     0.077 A 
ATOM     22  C   UNL A   1      32.153  19.650  22.721  1.00  0.00     0.052 A 
ATOM     23  C   UNL A   1      32.932  18.487  24.704  1.00  0.00     0.163 A 
ATOM     24  C   UNL A   1      32.640  18.500  23.334  1.00  0.00     0.161 A 
ATOM     25  O   UNL A   1      33.437  17.395  25.360  1.00  0.00    -0.486 OA
ATOM     26  O   UNL A   1      32.935  17.432  22.524  1.00  0.00    -0.486 OA
ATOM     27  C   UNL A   1      33.764  16.308  24.486  1.00  0.00     0.271 C 
ATOM     28  C   UNL A   1      34.085  16.774  23.074  1.00  0.00     0.271 C 
ENDBRANCH  17  19
ENDBRANCH  14  17
ENDBRANCH  13  14
ENDBRANCH   7   8
ENDBRANCH   4   6
ENDBRANCH   1   2
BRANCH   1  29
ATOM     29  C   UNL A   1      44.800  19.782  24.631  1.00  0.00     0.023 C 
BRANCH  29  30
ATOM     30  C   UNL A   1      45.880  20.528  25.417  1.00  0.00     0.023 C 
BRANCH  30  31
ATOM     31  C   UNL A   1      45.558  21.980  25.758  1.00  0.00     0.116 C 
BRANCH  31  32
ATOM     32  N   UNL A   1      44.283  22.142  26.438  1.00  0.00    -0.352 N 
ATOM     33  C   UNL A   1      43.731  23.270  26.996  1.00  0.00     0.251 C 
ATOM     34  H   UNL A   1      43.736  21.326  26.507  1.00  0.00     0.163 HD
ATOM     35  O   UNL A   1      42.689  23.192  27.640  1.00  0.00    -0.269 OA
BRANCH  33  36
ATOM     36  C   UNL A   1      44.409  24.578  26.855  1.00  0.00     0.039 A 
ATOM     37  C   UNL A   1      45.094  25.102  27.956  1.00  0.00     0.014 A 
ATOM     38  C   UNL A   1      44.374  25.287  25.651  1.00  0.00     0.014 A 
ATOM     39  C   UNL A   1      45.802  26.300  27.828  1.00  0.00     0.010 A 
ATOM     40  C   UNL A   1      45.134  26.445  25.506  1.00  0.00     0.010 A 
ATOM     41  C   UNL A   1      45.859  26.962  26.591  1.00  0.00    -0.014 A 
BRANCH  41  42
ATOM     42  C   UNL A   1      46.682  28.185  26.409  1.00  0.00     0.031 A 
ATOM     43  C   UNL A   1      48.165  28.079  26.186  1.00  0.00     0.074 A 
ATOM     44  C   UNL A   1      46.106  29.400  26.510  1.00  0.00     0.049 A 
ATOM     45  N   UNL A   1      49.055  29.034  26.075  1.00  0.00    -0.248 NA
ATOM     46  C   UNL A   1      48.727  26.721  26.099  1.00  0.00     0.031 C 
ATOM     47  C   UNL A   1      44.684  29.646  26.761  1.00  0.00     0.029 A 
ATOM     48  N   UNL A   1      46.650  30.656  26.422  1.00  0.00    -0.354 N 
ATOM     49  C   UNL A   1      50.278  28.395  25.923  1.00  0.00     0.074 A 
ATOM     50  C   UNL A   1      50.024  26.972  26.001  1.00  0.00     0.031 C 
ATOM     51  C   UNL A   1      44.467  30.970  26.788  1.00  0.00     0.029 A 
ATOM     52  C   UNL A   1      45.734  31.666  26.593  1.00  0.00     0.049 A 
ATOM     53  H   UNL A   1      47.606  30.819  26.255  1.00  0.00     0.167 HD
ATOM     54  C   UNL A   1      51.501  28.939  25.718  1.00  0.00     0.031 A 
ATOM     55  C   UNL A   1      45.895  33.003  26.600  1.00  0.00     0.031 A 
ATOM     56  C   UNL A   1      51.759  30.352  25.630  1.00  0.00     0.049 A 
ATOM     57  C   UNL A   1      47.263  33.583  26.381  1.00  0.00     0.074 A 
ATOM     58  C   UNL A   1      52.957  30.997  25.375  1.00  0.00     0.029 A 
ATOM     59  N   UNL A   1      50.800  31.340  25.795  1.00  0.00    -0.354 N 
ATOM     60  N   UNL A   1      48.401  32.963  26.180  1.00  0.00    -0.248 NA
ATOM     61  C   UNL A   1      47.368  35.049  26.378  1.00  0.00     0.031 C 
ATOM     62  C   UNL A   1      52.732  32.376  25.429  1.00  0.00     0.029 A 
ATOM     63  C   UNL A   1      51.384  32.590  25.668  1.00  0.00     0.049 A 
ATOM     64  H   UNL A   1      49.846  31.178  25.976  1.00  0.00     0.167 HD
ATOM     65  C   UNL A   1      49.350  33.962  26.002  1.00  0.00     0.074 A 
ATOM     66  C   UNL A   1      48.652  35.227  26.105  1.00  0.00     0.031 C 
ATOM     67  C   UNL A   1      50.680  33.840  25.774  1.00  0.00     0.031 A 
BRANCH  54  68
ATOM     68  C   UNL A   1      52.662  27.994  25.581  1.00  0.00    -0.014 A 
ATOM     69  C   UNL A   1      53.394  27.576  26.704  1.00  0.00     0.009 A 
ATOM     70  C   UNL A   1      53.010  27.492  24.317  1.00  0.00     0.009 A 
ATOM     71  C   UNL A   1      54.475  26.704  26.559  1.00  0.00     0.001 A 
ATOM     72  C   UNL A   1      54.073  26.597  24.179  1.00  0.00     0.001 A 
ATOM     73  C   UNL A   1      54.811  26.213  25.298  1.00  0.00     0.000 A 
ENDBRANCH  54  68
BRANCH  55  74
ATOM     74  C   UNL A   1      44.722  33.890  26.810  1.00  0.00    -0.014 A 
ATOM     75  C   UNL A   1      44.336  34.262  28.107  1.00  0.00     0.009 A 
ATOM     76  C   UNL A   1      43.982  34.366  25.717  1.00  0.00     0.009 A 
ATOM     77  C   UNL A   1      43.218  35.075  28.306  1.00  0.00     0.001 A 
ATOM     78  C   UNL A   1      42.880  35.200  25.918  1.00  0.00     0.001 A 
ATOM     79  C   UNL A   1      42.494  35.546  27.213  1.00  0.00     0.000 A 
ENDBRANCH  55  74
BRANCH  67  80
ATOM     80  C   UNL A   1      51.464  35.109  25.588  1.00  0.00    -0.014 A 
ATOM     81  C   UNL A   1      51.630  35.683  24.319  1.00  0.00     0.009 A 
ATOM     82  C   UNL A   1      52.011  35.756  26.707  1.00  0.00     0.009 A 
ATOM     83  C   UNL A   1      52.356  36.867  24.170  1.00  0.00     0.001 A 
ATOM     84  C   UNL A   1      52.713  36.953  26.558  1.00  0.00     0.001 A 
ATOM     85  C   UNL A   1      52.892  37.503  25.290  1.00  0.00     0.000 A 
ENDBRANCH  67  80
ENDBRANCH  41  42
ENDBRANCH  33  36
ENDBRANCH  31  32
ENDBRANCH  30  31
ENDBRANCH  29  30
ENDBRANCH   1  29
TORSDOF 15
ENDMDL
