MODEL 1
REMARK VINA RESULT:     -10.6      0.000      0.000
REMARK SMILES O=C(NCCCCNC(=O)[C@@H]1[C@H](C(=O)NCc2ccncc2)[C@H]2C=C[C@@H]1O2)c1ccc(-c2c3nc(c(-c4ccccc4)c4ccc([nH]4)c(-c4ccccc4)c4nc(c(-c5ccccc5)c5ccc2[nH]5)C=C4)C=C3)cc1
REMARK SMILES IDX 6 1 5 2 4 3 3 4 1 5 2 6 28 8 29 9 75 10 30 11 74 12 31 13
REMARK SMILES IDX 32 14 33 15 68 16 34 17 73 18 67 19 69 20 35 21 72 22 66 23
REMARK SMILES IDX 65 24 36 26 58 27 43 28 57 29 44 30 47 31 56 32 70 33 45 34
REMARK SMILES IDX 46 35 55 37 71 38 48 39 37 40 38 41 42 42 39 43 41 44 40 45
REMARK SMILES IDX 59 46 60 47 64 48 61 49 63 50 62 51 49 52 50 53 54 54 51 55
REMARK SMILES IDX 53 56 52 57 7 58 8 59 9 60 10 62 11 63 12 64 26 65 23 66
REMARK SMILES IDX 25 67 27 68 24 69 13 70 14 71 15 72 16 74 17 75 18 76 22 77
REMARK SMILES IDX 19 78 21 79 20 80
REMARK H PARENT 3 7 69 25 47 36 8 61 15 73
REMARK Flexibility Score: inf
ROOT
ATOM      1  C   UNL A   1      36.867  33.688  28.567  1.00  0.00     0.023 C 
ENDROOT
BRANCH   1   2
ATOM      2  C   UNL A   1      35.344  33.635  28.655  1.00  0.00     0.023 C 
BRANCH   2   3
ATOM      3  C   UNL A   1      34.761  32.500  29.487  1.00  0.00     0.116 C 
BRANCH   3   4
ATOM      4  N   UNL A   1      34.132  31.464  28.684  1.00  0.00    -0.352 N 
ATOM      5  O   UNL A   1      33.975  29.649  27.363  1.00  0.00    -0.269 OA
ATOM      6  C   UNL A   1      34.671  30.342  28.106  1.00  0.00     0.251 C 
ATOM      7  H   UNL A   1      33.167  31.587  28.531  1.00  0.00     0.163 HD
BRANCH   6   8
ATOM      8  C   UNL A   1      36.083  29.971  28.337  1.00  0.00     0.039 A 
ATOM      9  C   UNL A   1      37.062  30.165  27.359  1.00  0.00     0.014 A 
ATOM     10  C   UNL A   1      36.441  29.449  29.586  1.00  0.00     0.014 A 
ATOM     11  C   UNL A   1      38.362  29.718  27.578  1.00  0.00     0.010 A 
ATOM     12  C   UNL A   1      37.763  29.068  29.830  1.00  0.00     0.010 A 
ATOM     13  C   UNL A   1      38.728  29.172  28.818  1.00  0.00    -0.014 A 
BRANCH  13  14
ATOM     14  C   UNL A   1      40.134  28.765  29.064  1.00  0.00     0.031 A 
ATOM     15  C   UNL A   1      41.116  29.710  29.697  1.00  0.00     0.074 A 
ATOM     16  C   UNL A   1      40.529  27.533  28.695  1.00  0.00     0.049 A 
ATOM     17  N   UNL A   1      42.385  29.520  29.962  1.00  0.00    -0.248 NA
ATOM     18  C   UNL A   1      40.615  31.040  30.072  1.00  0.00     0.031 C 
ATOM     19  C   UNL A   1      39.675  26.530  28.055  1.00  0.00     0.029 A 
ATOM     20  N   UNL A   1      41.748  26.914  28.802  1.00  0.00    -0.354 N 
ATOM     21  C   UNL A   1      42.838  30.712  30.514  1.00  0.00     0.074 A 
ATOM     22  C   UNL A   1      41.715  31.625  30.526  1.00  0.00     0.031 C 
ATOM     23  C   UNL A   1      40.391  25.415  27.844  1.00  0.00     0.029 A 
ATOM     24  C   UNL A   1      41.762  25.642  28.287  1.00  0.00     0.049 A 
ATOM     25  H   UNL A   1      42.536  27.341  29.211  1.00  0.00     0.167 HD
ATOM     26  C   UNL A   1      44.077  31.016  30.971  1.00  0.00     0.031 A 
ATOM     27  C   UNL A   1      42.769  24.759  28.161  1.00  0.00     0.031 A 
ATOM     28  C   UNL A   1      45.194  30.108  30.960  1.00  0.00     0.049 A 
ATOM     29  C   UNL A   1      44.136  25.125  28.654  1.00  0.00     0.074 A 
ATOM     30  C   UNL A   1      46.473  30.308  31.452  1.00  0.00     0.029 A 
ATOM     31  N   UNL A   1      45.169  28.832  30.419  1.00  0.00    -0.354 N 
ATOM     32  N   UNL A   1      44.535  26.236  29.224  1.00  0.00    -0.248 NA
ATOM     33  C   UNL A   1      45.191  24.117  28.490  1.00  0.00     0.031 C 
ATOM     34  C   UNL A   1      47.236  29.170  31.165  1.00  0.00     0.029 A 
ATOM     35  C   UNL A   1      46.418  28.245  30.536  1.00  0.00     0.049 A 
ATOM     36  H   UNL A   1      44.380  28.407  30.012  1.00  0.00     0.167 HD
ATOM     37  C   UNL A   1      45.883  26.059  29.497  1.00  0.00     0.074 A 
ATOM     38  C   UNL A   1      46.232  24.727  29.044  1.00  0.00     0.031 C 
ATOM     39  C   UNL A   1      46.754  26.924  30.071  1.00  0.00     0.031 A 
BRANCH  26  40
ATOM     40  C   UNL A   1      44.297  32.407  31.495  1.00  0.00    -0.014 A 
ATOM     41  C   UNL A   1      44.691  33.454  30.647  1.00  0.00     0.009 A 
ATOM     42  C   UNL A   1      44.074  32.679  32.854  1.00  0.00     0.009 A 
ATOM     43  C   UNL A   1      44.893  34.739  31.159  1.00  0.00     0.001 A 
ATOM     44  C   UNL A   1      44.254  33.970  33.357  1.00  0.00     0.001 A 
ATOM     45  C   UNL A   1      44.673  34.996  32.512  1.00  0.00     0.000 A 
ENDBRANCH  26  40
BRANCH  27  46
ATOM     46  C   UNL A   1      42.506  23.449  27.516  1.00  0.00    -0.014 A 
ATOM     47  C   UNL A   1      42.756  23.260  26.150  1.00  0.00     0.009 A 
ATOM     48  C   UNL A   1      42.051  22.364  28.283  1.00  0.00     0.009 A 
ATOM     49  C   UNL A   1      42.549  22.009  25.563  1.00  0.00     0.001 A 
ATOM     50  C   UNL A   1      41.869  21.110  27.699  1.00  0.00     0.001 A 
ATOM     51  C   UNL A   1      42.114  20.935  26.338  1.00  0.00     0.000 A 
ENDBRANCH  27  46
BRANCH  39  52
ATOM     52  C   UNL A   1      48.166  26.451  30.254  1.00  0.00    -0.014 A 
ATOM     53  C   UNL A   1      48.557  25.774  31.419  1.00  0.00     0.009 A 
ATOM     54  C   UNL A   1      49.106  26.648  29.232  1.00  0.00     0.009 A 
ATOM     55  C   UNL A   1      49.870  25.323  31.565  1.00  0.00     0.001 A 
ATOM     56  C   UNL A   1      50.412  26.177  29.371  1.00  0.00     0.001 A 
ATOM     57  C   UNL A   1      50.794  25.520  30.540  1.00  0.00     0.000 A 
ENDBRANCH  39  52
ENDBRANCH  13  14
ENDBRANCH   6   8
ENDBRANCH   3   4
ENDBRANCH   2   3
ENDBRANCH   1   2
BRANCH   1  58
ATOM     58  C   UNL A   1      37.633  33.461  29.867  1.00  0.00     0.116 C 
BRANCH  58  59
ATOM     59  N   UNL A   1      37.250  34.333  30.964  1.00  0.00    -0.356 N 
ATOM     60  C   UNL A   1      37.427  34.103  32.302  1.00  0.00     0.227 C 
ATOM     61  H   UNL A   1      36.815  35.181  30.719  1.00  0.00     0.163 HD
ATOM     62  O   UNL A   1      37.554  35.065  33.054  1.00  0.00    -0.275 OA
BRANCH  60  63
ATOM     63  C   UNL A   1      37.523  32.680  32.785  1.00  0.00     0.127 C 
ATOM     64  C   UNL A   1      36.756  32.354  34.090  1.00  0.00     0.127 C 
ATOM     65  C   UNL A   1      38.957  32.262  33.165  1.00  0.00     0.155 C 
ATOM     66  C   UNL A   1      37.857  31.765  34.977  1.00  0.00     0.155 C 
ATOM     67  C   UNL A   1      39.003  30.762  33.281  1.00  0.00     0.004 C 
ATOM     68  O   UNL A   1      38.992  32.572  34.579  1.00  0.00    -0.365 OA
ATOM     69  C   UNL A   1      38.319  30.455  34.395  1.00  0.00     0.004 C 
BRANCH  64  70
ATOM     70  C   UNL A   1      35.897  33.411  34.768  1.00  0.00     0.227 C 
ATOM     71  O   UNL A   1      36.261  33.818  35.881  1.00  0.00    -0.275 OA
ATOM     72  N   UNL A   1      34.771  33.983  34.299  1.00  0.00    -0.352 N 
ATOM     73  H   UNL A   1      34.388  34.632  34.932  1.00  0.00     0.163 HD
BRANCH  72  74
ATOM     74  C   UNL A   1      33.988  33.870  33.080  1.00  0.00     0.151 C 
BRANCH  74  75
ATOM     75  C   UNL A   1      33.732  35.207  32.432  1.00  0.00    -0.026 A 
ATOM     76  C   UNL A   1      33.189  35.261  31.144  1.00  0.00     0.025 A 
ATOM     77  C   UNL A   1      34.042  36.418  33.058  1.00  0.00     0.025 A 
ATOM     78  C   UNL A   1      32.915  36.495  30.576  1.00  0.00     0.111 A 
ATOM     79  C   UNL A   1      33.747  37.606  32.402  1.00  0.00     0.111 A 
ATOM     80  N   UNL A   1      33.182  37.672  31.179  1.00  0.00    -0.265 NA
ENDBRANCH  74  75
ENDBRANCH  72  74
ENDBRANCH  64  70
ENDBRANCH  60  63
ENDBRANCH  58  59
ENDBRANCH   1  58
TORSDOF 14
ENDMDL
MODEL 2
REMARK VINA RESULT:     -10.5      4.443      8.499
REMARK SMILES O=C(NCCCCNC(=O)[C@@H]1[C@H](C(=O)NCc2ccncc2)[C@H]2C=C[C@@H]1O2)c1ccc(-c2c3nc(c(-c4ccccc4)c4ccc([nH]4)c(-c4ccccc4)c4nc(c(-c5ccccc5)c5ccc2[nH]5)C=C4)C=C3)cc1
REMARK SMILES IDX 6 1 5 2 4 3 3 4 1 5 2 6 28 8 29 9 75 10 30 11 74 12 31 13
REMARK SMILES IDX 32 14 33 15 68 16 34 17 73 18 67 19 69 20 35 21 72 22 66 23
REMARK SMILES IDX 65 24 36 26 58 27 43 28 57 29 44 30 47 31 56 32 70 33 45 34
REMARK SMILES IDX 46 35 55 37 71 38 48 39 37 40 38 41 42 42 39 43 41 44 40 45
REMARK SMILES IDX 59 46 60 47 64 48 61 49 63 50 62 51 49 52 50 53 54 54 51 55
REMARK SMILES IDX 53 56 52 57 7 58 8 59 9 60 10 62 11 63 12 64 26 65 23 66
REMARK SMILES IDX 25 67 27 68 24 69 13 70 14 71 15 72 16 74 17 75 18 76 22 77
REMARK SMILES IDX 19 78 21 79 20 80
REMARK H PARENT 3 7 69 25 47 36 8 61 15 73
REMARK Flexibility Score: inf
ROOT
ATOM      1  C   UNL A   1      33.189  28.070  24.781  1.00  0.00     0.023 C 
ENDROOT
BRANCH   1   2
ATOM      2  C   UNL A   1      32.654  28.117  26.209  1.00  0.00     0.023 C 
BRANCH   2   3
ATOM      3  C   UNL A   1      33.660  28.493  27.289  1.00  0.00     0.116 C 
BRANCH   3   4
ATOM      4  N   UNL A   1      33.595  29.895  27.671  1.00  0.00    -0.352 N 
ATOM      5  O   UNL A   1      34.239  31.841  28.600  1.00  0.00    -0.269 OA
ATOM      6  C   UNL A   1      34.542  30.699  28.254  1.00  0.00     0.251 C 
ATOM      7  H   UNL A   1      32.736  30.336  27.481  1.00  0.00     0.163 HD
BRANCH   6   8
ATOM      8  C   UNL A   1      35.914  30.203  28.499  1.00  0.00     0.039 A 
ATOM      9  C   UNL A   1      36.284  29.650  29.728  1.00  0.00     0.014 A 
ATOM     10  C   UNL A   1      36.843  30.262  27.454  1.00  0.00     0.014 A 
ATOM     11  C   UNL A   1      37.607  29.279  29.953  1.00  0.00     0.010 A 
ATOM     12  C   UNL A   1      38.153  29.821  27.660  1.00  0.00     0.010 A 
ATOM     13  C   UNL A   1      38.553  29.355  28.920  1.00  0.00    -0.014 A 
BRANCH  13  14
ATOM     14  C   UNL A   1      39.943  28.890  29.152  1.00  0.00     0.031 A 
ATOM     15  C   UNL A   1      40.975  29.799  29.757  1.00  0.00     0.074 A 
ATOM     16  C   UNL A   1      40.279  27.637  28.794  1.00  0.00     0.049 A 
ATOM     17  N   UNL A   1      42.238  29.558  30.006  1.00  0.00    -0.248 NA
ATOM     18  C   UNL A   1      40.538  31.155  30.121  1.00  0.00     0.031 C 
ATOM     19  C   UNL A   1      39.373  26.663  28.181  1.00  0.00     0.029 A 
ATOM     20  N   UNL A   1      41.472  26.966  28.893  1.00  0.00    -0.354 N 
ATOM     21  C   UNL A   1      42.751  30.736  30.535  1.00  0.00     0.074 A 
ATOM     22  C   UNL A   1      41.669  31.697  30.551  1.00  0.00     0.031 C 
ATOM     23  C   UNL A   1      40.037  25.516  27.975  1.00  0.00     0.029 A 
ATOM     24  C   UNL A   1      41.423  25.689  28.395  1.00  0.00     0.049 A 
ATOM     25  H   UNL A   1      42.284  27.365  29.284  1.00  0.00     0.167 HD
ATOM     26  C   UNL A   1      44.009  30.992  30.970  1.00  0.00     0.031 A 
ATOM     27  C   UNL A   1      42.388  24.761  28.267  1.00  0.00     0.031 A 
ATOM     28  C   UNL A   1      45.085  30.036  30.955  1.00  0.00     0.049 A 
ATOM     29  C   UNL A   1      43.777  25.074  28.735  1.00  0.00     0.074 A 
ATOM     30  C   UNL A   1      46.379  30.187  31.427  1.00  0.00     0.029 A 
ATOM     31  N   UNL A   1      44.997  28.755  30.433  1.00  0.00    -0.354 N 
ATOM     32  N   UNL A   1      44.232  26.174  29.284  1.00  0.00    -0.248 NA
ATOM     33  C   UNL A   1      44.785  24.018  28.570  1.00  0.00     0.031 C 
ATOM     34  C   UNL A   1      47.087  29.012  31.145  1.00  0.00     0.029 A 
ATOM     35  C   UNL A   1      46.221  28.115  30.541  1.00  0.00     0.049 A 
ATOM     36  H   UNL A   1      44.184  28.359  30.044  1.00  0.00     0.167 HD
ATOM     37  C   UNL A   1      45.576  25.942  29.540  1.00  0.00     0.074 A 
ATOM     38  C   UNL A   1      45.859  24.589  29.101  1.00  0.00     0.031 C 
ATOM     39  C   UNL A   1      46.492  26.775  30.089  1.00  0.00     0.031 A 
BRANCH  26  40
ATOM     40  C   UNL A   1      44.297  32.379  31.472  1.00  0.00    -0.014 A 
ATOM     41  C   UNL A   1      44.171  32.705  32.831  1.00  0.00     0.009 A 
ATOM     42  C   UNL A   1      44.734  33.365  30.573  1.00  0.00     0.009 A 
ATOM     43  C   UNL A   1      44.442  34.003  33.273  1.00  0.00     0.001 A 
ATOM     44  C   UNL A   1      45.027  34.654  31.022  1.00  0.00     0.001 A 
ATOM     45  C   UNL A   1      44.871  34.975  32.370  1.00  0.00     0.000 A 
ENDBRANCH  26  40
BRANCH  27  46
ATOM     46  C   UNL A   1      42.060  23.455  27.645  1.00  0.00    -0.014 A 
ATOM     47  C   UNL A   1      41.465  22.433  28.398  1.00  0.00     0.009 A 
ATOM     48  C   UNL A   1      42.295  23.246  26.276  1.00  0.00     0.009 A 
ATOM     49  C   UNL A   1      41.117  21.223  27.792  1.00  0.00     0.001 A 
ATOM     50  C   UNL A   1      41.924  22.046  25.669  1.00  0.00     0.001 A 
ATOM     51  C   UNL A   1      41.339  21.034  26.428  1.00  0.00     0.000 A 
ENDBRANCH  27  46
BRANCH  39  52
ATOM     52  C   UNL A   1      47.884  26.244  30.259  1.00  0.00    -0.014 A 
ATOM     53  C   UNL A   1      48.811  26.295  29.207  1.00  0.00     0.009 A 
ATOM     54  C   UNL A   1      48.287  25.724  31.498  1.00  0.00     0.009 A 
ATOM     55  C   UNL A   1      50.110  25.815  29.388  1.00  0.00     0.001 A 
ATOM     56  C   UNL A   1      49.592  25.264  31.683  1.00  0.00     0.001 A 
ATOM     57  C   UNL A   1      50.500  25.305  30.625  1.00  0.00     0.000 A 
ENDBRANCH  39  52
ENDBRANCH  13  14
ENDBRANCH   6   8
ENDBRANCH   3   4
ENDBRANCH   2   3
ENDBRANCH   1   2
BRANCH   1  58
ATOM     58  C   UNL A   1      33.612  26.701  24.256  1.00  0.00     0.116 C 
BRANCH  58  59
ATOM     59  N   UNL A   1      32.995  25.570  24.928  1.00  0.00    -0.356 N 
ATOM     60  C   UNL A   1      33.632  24.537  25.561  1.00  0.00     0.227 C 
ATOM     61  H   UNL A   1      32.011  25.544  24.928  1.00  0.00     0.163 HD
ATOM     62  O   UNL A   1      33.062  23.972  26.489  1.00  0.00    -0.275 OA
BRANCH  60  63
ATOM     63  C   UNL A   1      35.032  24.179  25.133  1.00  0.00     0.127 C 
ATOM     64  C   UNL A   1      35.150  23.316  23.854  1.00  0.00     0.127 C 
ATOM     65  C   UNL A   1      35.776  23.303  26.159  1.00  0.00     0.155 C 
ATOM     66  C   UNL A   1      35.975  22.121  24.342  1.00  0.00     0.155 C 
ATOM     67  C   UNL A   1      37.242  23.308  25.819  1.00  0.00     0.004 C 
ATOM     68  O   UNL A   1      35.468  21.968  25.689  1.00  0.00    -0.365 OA
ATOM     69  C   UNL A   1      37.364  22.585  24.695  1.00  0.00     0.004 C 
BRANCH  64  70
ATOM     70  C   UNL A   1      33.911  22.943  23.054  1.00  0.00     0.227 C 
ATOM     71  O   UNL A   1      33.705  23.555  21.996  1.00  0.00    -0.275 OA
ATOM     72  N   UNL A   1      32.990  22.005  23.351  1.00  0.00    -0.352 N 
ATOM     73  H   UNL A   1      32.269  21.962  22.682  1.00  0.00     0.163 HD
BRANCH  72  74
ATOM     74  C   UNL A   1      32.809  21.041  24.423  1.00  0.00     0.151 C 
BRANCH  74  75
ATOM     75  C   UNL A   1      33.074  19.625  23.977  1.00  0.00    -0.026 A 
ATOM     76  C   UNL A   1      32.279  19.053  22.978  1.00  0.00     0.025 A 
ATOM     77  C   UNL A   1      34.077  18.834  24.543  1.00  0.00     0.025 A 
ATOM     78  C   UNL A   1      32.560  17.768  22.543  1.00  0.00     0.111 A 
ATOM     79  C   UNL A   1      34.273  17.550  24.053  1.00  0.00     0.111 A 
ATOM     80  N   UNL A   1      33.543  17.002  23.059  1.00  0.00    -0.265 NA
ENDBRANCH  74  75
ENDBRANCH  72  74
ENDBRANCH  64  70
ENDBRANCH  60  63
ENDBRANCH  58  59
ENDBRANCH   1  58
TORSDOF 14
ENDMDL
MODEL 3
REMARK VINA RESULT:     -10.4      5.175     11.180
REMARK SMILES O=C(NCCCCNC(=O)[C@@H]1[C@H](C(=O)NCc2ccncc2)[C@H]2C=C[C@@H]1O2)c1ccc(-c2c3nc(c(-c4ccccc4)c4ccc([nH]4)c(-c4ccccc4)c4nc(c(-c5ccccc5)c5ccc2[nH]5)C=C4)C=C3)cc1
REMARK SMILES IDX 6 1 5 2 4 3 3 4 1 5 2 6 28 8 29 9 75 10 30 11 74 12 31 13
REMARK SMILES IDX 32 14 33 15 68 16 34 17 73 18 67 19 69 20 35 21 72 22 66 23
REMARK SMILES IDX 65 24 36 26 58 27 43 28 57 29 44 30 47 31 56 32 70 33 45 34
REMARK SMILES IDX 46 35 55 37 71 38 48 39 37 40 38 41 42 42 39 43 41 44 40 45
REMARK SMILES IDX 59 46 60 47 64 48 61 49 63 50 62 51 49 52 50 53 54 54 51 55
REMARK SMILES IDX 53 56 52 57 7 58 8 59 9 60 10 62 11 63 12 64 26 65 23 66
REMARK SMILES IDX 25 67 27 68 24 69 13 70 14 71 15 72 16 74 17 75 18 76 22 77
REMARK SMILES IDX 19 78 21 79 20 80
REMARK H PARENT 3 7 69 25 47 36 8 61 15 73
REMARK Flexibility Score: inf
ROOT
ATOM      1  C   UNL A   1      36.304  20.271  24.996  1.00  0.00     0.023 C 
ENDROOT
BRANCH   1   2
ATOM      2  C   UNL A   1      37.722  19.774  24.726  1.00  0.00     0.023 C 
BRANCH   2   3
ATOM      3  C   UNL A   1      38.785  20.205  25.729  1.00  0.00     0.116 C 
BRANCH   3   4
ATOM      4  N   UNL A   1      39.940  19.323  25.755  1.00  0.00    -0.352 N 
ATOM      5  O   UNL A   1      42.096  18.707  25.944  1.00  0.00    -0.269 OA
ATOM      6  C   UNL A   1      41.242  19.580  26.104  1.00  0.00     0.251 C 
ATOM      7  H   UNL A   1      39.760  18.395  25.478  1.00  0.00     0.163 HD
BRANCH   6   8
ATOM      8  C   UNL A   1      41.640  20.899  26.641  1.00  0.00     0.039 A 
ATOM      9  C   UNL A   1      41.692  21.145  28.015  1.00  0.00     0.014 A 
ATOM     10  C   UNL A   1      42.007  21.904  25.739  1.00  0.00     0.014 A 
ATOM     11  C   UNL A   1      41.979  22.426  28.482  1.00  0.00     0.010 A 
ATOM     12  C   UNL A   1      42.367  23.169  26.212  1.00  0.00     0.010 A 
ATOM     13  C   UNL A   1      42.327  23.448  27.586  1.00  0.00    -0.014 A 
BRANCH  13  14
ATOM     14  C   UNL A   1      42.702  24.789  28.099  1.00  0.00     0.031 A 
ATOM     15  C   UNL A   1      41.662  25.846  28.341  1.00  0.00     0.074 A 
ATOM     16  C   UNL A   1      44.000  25.057  28.334  1.00  0.00     0.049 A 
ATOM     17  N   UNL A   1      41.822  27.074  28.766  1.00  0.00    -0.248 NA
ATOM     18  C   UNL A   1      40.265  25.483  28.061  1.00  0.00     0.031 C 
ATOM     19  C   UNL A   1      45.106  24.121  28.122  1.00  0.00     0.029 A 
ATOM     20  N   UNL A   1      44.609  26.194  28.799  1.00  0.00    -0.354 N 
ATOM     21  C   UNL A   1      40.552  27.637  28.785  1.00  0.00     0.074 A 
ATOM     22  C   UNL A   1      39.635  26.624  28.308  1.00  0.00     0.031 C 
ATOM     23  C   UNL A   1      46.256  24.715  28.474  1.00  0.00     0.029 A 
ATOM     24  C   UNL A   1      45.974  26.085  28.888  1.00  0.00     0.049 A 
ATOM     25  H   UNL A   1      44.114  27.009  29.047  1.00  0.00     0.167 HD
ATOM     26  C   UNL A   1      40.184  28.884  29.166  1.00  0.00     0.031 A 
ATOM     27  C   UNL A   1      46.904  26.991  29.240  1.00  0.00     0.031 A 
ATOM     28  C   UNL A   1      41.096  29.892  29.642  1.00  0.00     0.049 A 
ATOM     29  C   UNL A   1      46.476  28.370  29.638  1.00  0.00     0.074 A 
ATOM     30  C   UNL A   1      40.808  31.166  30.104  1.00  0.00     0.029 A 
ATOM     31  N   UNL A   1      42.472  29.745  29.706  1.00  0.00    -0.354 N 
ATOM     32  N   UNL A   1      45.265  28.869  29.703  1.00  0.00    -0.248 NA
ATOM     33  C   UNL A   1      47.539  29.312  30.014  1.00  0.00     0.031 C 
ATOM     34  C   UNL A   1      42.017  31.806  30.402  1.00  0.00     0.029 A 
ATOM     35  C   UNL A   1      43.051  30.915  30.169  1.00  0.00     0.049 A 
ATOM     36  H   UNL A   1      42.965  28.929  29.459  1.00  0.00     0.167 HD
ATOM     37  C   UNL A   1      45.418  30.178  30.136  1.00  0.00     0.074 A 
ATOM     38  C   UNL A   1      46.838  30.392  30.335  1.00  0.00     0.031 C 
ATOM     39  C   UNL A   1      44.466  31.118  30.350  1.00  0.00     0.031 A 
BRANCH  26  40
ATOM     40  C   UNL A   1      38.728  29.239  29.054  1.00  0.00    -0.014 A 
ATOM     41  C   UNL A   1      37.851  29.078  30.138  1.00  0.00     0.009 A 
ATOM     42  C   UNL A   1      38.235  29.774  27.854  1.00  0.00     0.009 A 
ATOM     43  C   UNL A   1      36.500  29.412  30.009  1.00  0.00     0.001 A 
ATOM     44  C   UNL A   1      36.890  30.129  27.736  1.00  0.00     0.001 A 
ATOM     45  C   UNL A   1      36.021  29.939  28.810  1.00  0.00     0.000 A 
ENDBRANCH  26  40
BRANCH  27  46
ATOM     46  C   UNL A   1      48.337  26.607  29.206  1.00  0.00    -0.014 A 
ATOM     47  C   UNL A   1      48.942  25.999  30.315  1.00  0.00     0.009 A 
ATOM     48  C   UNL A   1      49.093  26.805  28.038  1.00  0.00     0.009 A 
ATOM     49  C   UNL A   1      50.279  25.600  30.256  1.00  0.00     0.001 A 
ATOM     50  C   UNL A   1      50.422  26.383  27.976  1.00  0.00     0.001 A 
ATOM     51  C   UNL A   1      51.015  25.785  29.086  1.00  0.00     0.000 A 
ENDBRANCH  27  46
BRANCH  39  52
ATOM     52  C   UNL A   1      44.927  32.460  30.836  1.00  0.00    -0.014 A 
ATOM     53  C   UNL A   1      45.239  33.488  29.934  1.00  0.00     0.009 A 
ATOM     54  C   UNL A   1      45.011  32.712  32.214  1.00  0.00     0.009 A 
ATOM     55  C   UNL A   1      45.648  34.738  30.404  1.00  0.00     0.001 A 
ATOM     56  C   UNL A   1      45.399  33.968  32.681  1.00  0.00     0.001 A 
ATOM     57  C   UNL A   1      45.722  34.979  31.775  1.00  0.00     0.000 A 
ENDBRANCH  39  52
ENDBRANCH  13  14
ENDBRANCH   6   8
ENDBRANCH   3   4
ENDBRANCH   2   3
ENDBRANCH   1   2
BRANCH   1  58
ATOM     58  C   UNL A   1      36.104  21.783  25.013  1.00  0.00     0.116 C 
BRANCH  58  59
ATOM     59  N   UNL A   1      35.561  22.343  23.787  1.00  0.00    -0.356 N 
ATOM     60  C   UNL A   1      34.732  23.426  23.671  1.00  0.00     0.227 C 
ATOM     61  H   UNL A   1      35.816  21.894  22.949  1.00  0.00     0.163 HD
ATOM     62  O   UNL A   1      34.771  24.091  22.639  1.00  0.00    -0.275 OA
BRANCH  60  63
ATOM     63  C   UNL A   1      33.854  23.795  24.838  1.00  0.00     0.127 C 
ATOM     64  C   UNL A   1      32.539  22.991  24.978  1.00  0.00     0.127 C 
ATOM     65  C   UNL A   1      33.319  25.239  24.764  1.00  0.00     0.155 C 
ATOM     66  C   UNL A   1      31.481  24.098  25.008  1.00  0.00     0.155 C 
ATOM     67  C   UNL A   1      32.772  25.616  26.114  1.00  0.00     0.004 C 
ATOM     68  O   UNL A   1      32.054  25.052  24.083  1.00  0.00    -0.365 OA
ATOM     69  C   UNL A   1      31.642  24.907  26.268  1.00  0.00     0.004 C 
BRANCH  64  70
ATOM     70  C   UNL A   1      32.227  21.846  24.026  1.00  0.00     0.227 C 
ATOM     71  O   UNL A   1      31.842  22.137  22.884  1.00  0.00    -0.275 OA
ATOM     72  N   UNL A   1      32.327  20.523  24.267  1.00  0.00    -0.352 N 
ATOM     73  H   UNL A   1      32.052  19.979  23.494  1.00  0.00     0.163 HD
BRANCH  72  74
ATOM     74  C   UNL A   1      32.743  19.710  25.397  1.00  0.00     0.151 C 
BRANCH  74  75
ATOM     75  C   UNL A   1      33.054  18.288  25.001  1.00  0.00    -0.026 A 
ATOM     76  C   UNL A   1      33.713  18.033  23.794  1.00  0.00     0.025 A 
ATOM     77  C   UNL A   1      32.685  17.192  25.785  1.00  0.00     0.025 A 
ATOM     78  C   UNL A   1      34.035  16.727  23.462  1.00  0.00     0.111 A 
ATOM     79  C   UNL A   1      33.036  15.917  25.361  1.00  0.00     0.111 A 
ATOM     80  N   UNL A   1      33.711  15.660  24.222  1.00  0.00    -0.265 NA
ENDBRANCH  74  75
ENDBRANCH  72  74
ENDBRANCH  64  70
ENDBRANCH  60  63
ENDBRANCH  58  59
ENDBRANCH   1  58
TORSDOF 14
ENDMDL
