MODEL 1
REMARK VINA RESULT:     -10.5      0.000      0.000
REMARK SMILES COc1ccc(/C=C2\SC(=S)[NH+]=C2NCCCCNC(=O)c2ccc(-c3c4nc(c(-c5ccccc5)c5ccc([nH]5)c(-c5ccccc5)c5nc(c(-c6ccccc6)c6ccc3[nH]6)C=C5)C=C4)cc2)c(C(=O)[O-])c1OC
REMARK SMILES IDX 17 1 16 2 15 3 14 4 7 5 8 6 9 7 13 8 10 9 12 10 11 11 6 14
REMARK SMILES IDX 3 15 4 16 74 17 5 18 70 19 2 20 1 21 75 22 76 23 71 24 72 25
REMARK SMILES IDX 73 26 18 27 19 28 20 29 21 31 22 32 23 33 69 34 24 35 68 36
REMARK SMILES IDX 25 37 26 38 27 39 62 40 28 41 67 42 61 43 63 44 29 45 66 46
REMARK SMILES IDX 60 47 59 48 30 50 52 51 37 52 51 53 38 54 41 55 50 56 64 57
REMARK SMILES IDX 39 58 40 59 49 61 65 62 42 63 31 64 32 65 36 66 33 67 35 68
REMARK SMILES IDX 34 69 53 70 54 71 58 72 55 73 57 74 56 75 43 76 44 77 48 78
REMARK SMILES IDX 45 79 47 80 46 81
REMARK H PARENT 12 12 14 13 19 30 63 49 41 60
REMARK Flexibility Score: inf
ROOT
ATOM      1  C   UNL A   1      31.406  31.326  26.981  1.00  0.00     0.025 C 
ENDROOT
BRANCH   1   2
ATOM      2  C   UNL A   1      32.060  29.964  27.218  1.00  0.00     0.048 C 
BRANCH   2   3
ATOM      3  C   UNL A   1      33.448  29.803  26.602  1.00  0.00     0.234 C 
BRANCH   3   4
ATOM      4  N   UNL A   1      33.758  28.398  26.365  1.00  0.00    -0.273 N 
ATOM      5  C   UNL A   1      34.356  25.418  25.705  1.00  0.00     0.033 C 
ATOM      6  C   UNL A   1      33.462  26.196  25.058  1.00  0.00     0.106 C 
ATOM      7  S   UNL A   1      32.446  25.773  23.722  1.00  0.00    -0.027 SA
ATOM      8  C   UNL A   1      33.180  27.662  25.355  1.00  0.00     0.288 C 
ATOM      9  C   UNL A   1      31.831  27.414  23.590  1.00  0.00     0.230 C 
ATOM     10  N   UNL A   1      32.310  28.246  24.565  1.00  0.00    -0.225 N 
ATOM     11  S   UNL A   1      30.791  27.872  22.363  1.00  0.00    -0.026 S 
ATOM     12  H   UNL A   1      32.031  29.185  24.665  1.00  0.00     0.314 HD
ATOM     13  H   UNL A   1      34.410  27.955  26.955  1.00  0.00     0.305 HD
BRANCH   5  14
ATOM     14  C   UNL A   1      34.758  23.978  25.518  1.00  0.00    -0.011 A 
ATOM     15  C   UNL A   1      35.594  21.282  25.061  1.00  0.00     0.161 A 
ATOM     16  C   UNL A   1      36.404  22.349  24.694  1.00  0.00     0.051 A 
ATOM     17  C   UNL A   1      34.360  21.520  25.678  1.00  0.00     0.170 A 
ATOM     18  C   UNL A   1      35.979  23.663  24.897  1.00  0.00     0.013 A 
ATOM     19  C   UNL A   1      33.932  22.869  25.884  1.00  0.00     0.050 A 
BRANCH  15  20
ATOM     20  O   UNL A   1      36.083  20.013  24.893  1.00  0.00    -0.493 OA
ATOM     21  C   UNL A   1      37.513  19.990  24.880  1.00  0.00     0.278 C 
ENDBRANCH  15  20
BRANCH  17  22
ATOM     22  O   UNL A   1      33.565  20.521  26.196  1.00  0.00    -0.492 OA
ATOM     23  C   UNL A   1      32.810  19.732  25.283  1.00  0.00     0.278 C 
ENDBRANCH  17  22
BRANCH  19  24
ATOM     24  C   UNL A   1      32.604  23.098  26.520  1.00  0.00     0.076 C 
ATOM     25  O   UNL A   1      32.393  23.329  27.701  1.00  0.00    -0.545 OA
ATOM     26  O   UNL A   1      31.594  23.115  25.631  1.00  0.00    -0.545 OA
ENDBRANCH  19  24
ENDBRANCH   5  14
ENDBRANCH   3   4
ENDBRANCH   2   3
ENDBRANCH   1   2
BRANCH   1  27
ATOM     27  C   UNL A   1      32.348  32.423  26.495  1.00  0.00     0.116 C 
BRANCH  27  28
ATOM     28  N   UNL A   1      32.174  33.683  27.201  1.00  0.00    -0.352 N 
ATOM     29  C   UNL A   1      32.933  34.226  28.211  1.00  0.00     0.251 C 
ATOM     30  H   UNL A   1      31.404  34.225  26.914  1.00  0.00     0.163 HD
ATOM     31  O   UNL A   1      32.559  35.246  28.781  1.00  0.00    -0.269 OA
BRANCH  29  32
ATOM     32  C   UNL A   1      34.184  33.561  28.640  1.00  0.00     0.039 A 
ATOM     33  C   UNL A   1      35.385  33.929  28.028  1.00  0.00     0.014 A 
ATOM     34  C   UNL A   1      34.181  32.589  29.643  1.00  0.00     0.014 A 
ATOM     35  C   UNL A   1      36.588  33.373  28.470  1.00  0.00     0.010 A 
ATOM     36  C   UNL A   1      35.388  32.100  30.140  1.00  0.00     0.010 A 
ATOM     37  C   UNL A   1      36.605  32.484  29.557  1.00  0.00    -0.014 A 
BRANCH  37  38
ATOM     38  C   UNL A   1      37.884  31.955  30.099  1.00  0.00     0.031 A 
ATOM     39  C   UNL A   1      38.460  30.668  29.573  1.00  0.00     0.074 A 
ATOM     40  C   UNL A   1      38.502  32.604  31.106  1.00  0.00     0.049 A 
ATOM     41  N   UNL A   1      39.542  30.033  29.950  1.00  0.00    -0.248 NA
ATOM     42  C   UNL A   1      37.712  29.994  28.500  1.00  0.00     0.031 C 
ATOM     43  C   UNL A   1      38.031  33.840  31.735  1.00  0.00     0.029 A 
ATOM     44  N   UNL A   1      39.662  32.310  31.780  1.00  0.00    -0.354 N 
ATOM     45  C   UNL A   1      39.595  28.882  29.174  1.00  0.00     0.074 A 
ATOM     46  C   UNL A   1      38.410  28.878  28.345  1.00  0.00     0.031 C 
ATOM     47  C   UNL A   1      38.909  34.215  32.679  1.00  0.00     0.029 A 
ATOM     48  C   UNL A   1      39.979  33.226  32.756  1.00  0.00     0.049 A 
ATOM     49  H   UNL A   1      40.214  31.520  31.584  1.00  0.00     0.167 HD
ATOM     50  C   UNL A   1      40.551  27.925  29.137  1.00  0.00     0.031 A 
ATOM     51  C   UNL A   1      41.010  33.263  33.621  1.00  0.00     0.031 A 
ATOM     52  C   UNL A   1      41.733  27.928  29.960  1.00  0.00     0.049 A 
ATOM     53  C   UNL A   1      42.047  32.174  33.578  1.00  0.00     0.074 A 
ATOM     54  C   UNL A   1      42.786  27.030  29.957  1.00  0.00     0.029 A 
ATOM     55  N   UNL A   1      42.015  28.872  30.935  1.00  0.00    -0.354 N 
ATOM     56  N   UNL A   1      42.118  31.130  32.787  1.00  0.00    -0.248 NA
ATOM     57  C   UNL A   1      43.153  32.277  34.540  1.00  0.00     0.031 C 
ATOM     58  C   UNL A   1      43.673  27.393  30.976  1.00  0.00     0.029 A 
ATOM     59  C   UNL A   1      43.210  28.560  31.562  1.00  0.00     0.049 A 
ATOM     60  H   UNL A   1      41.449  29.648  31.150  1.00  0.00     0.167 HD
ATOM     61  C   UNL A   1      43.291  30.472  33.134  1.00  0.00     0.074 A 
ATOM     62  C   UNL A   1      43.907  31.244  34.193  1.00  0.00     0.031 C 
ATOM     63  C   UNL A   1      43.812  29.332  32.618  1.00  0.00     0.031 A 
BRANCH  50  64
ATOM     64  C   UNL A   1      40.353  26.779  28.181  1.00  0.00    -0.014 A 
ATOM     65  C   UNL A   1      39.584  25.658  28.533  1.00  0.00     0.009 A 
ATOM     66  C   UNL A   1      40.912  26.839  26.895  1.00  0.00     0.009 A 
ATOM     67  C   UNL A   1      39.411  24.605  27.632  1.00  0.00     0.001 A 
ATOM     68  C   UNL A   1      40.710  25.801  25.983  1.00  0.00     0.001 A 
ATOM     69  C   UNL A   1      39.969  24.681  26.356  1.00  0.00     0.000 A 
ENDBRANCH  50  64
BRANCH  51  70
ATOM     70  C   UNL A   1      41.122  34.375  34.602  1.00  0.00    -0.014 A 
ATOM     71  C   UNL A   1      40.500  34.287  35.858  1.00  0.00     0.009 A 
ATOM     72  C   UNL A   1      41.842  35.538  34.285  1.00  0.00     0.009 A 
ATOM     73  C   UNL A   1      40.570  35.352  36.760  1.00  0.00     0.001 A 
ATOM     74  C   UNL A   1      41.937  36.588  35.201  1.00  0.00     0.001 A 
ATOM     75  C   UNL A   1      41.292  36.499  36.432  1.00  0.00     0.000 A 
ENDBRANCH  51  70
BRANCH  63  76
ATOM     76  C   UNL A   1      45.137  28.870  33.163  1.00  0.00    -0.014 A 
ATOM     77  C   UNL A   1      45.217  27.997  34.258  1.00  0.00     0.009 A 
ATOM     78  C   UNL A   1      46.324  29.292  32.543  1.00  0.00     0.009 A 
ATOM     79  C   UNL A   1      46.461  27.589  34.747  1.00  0.00     0.001 A 
ATOM     80  C   UNL A   1      47.564  28.854  33.011  1.00  0.00     0.001 A 
ATOM     81  C   UNL A   1      47.631  28.013  34.120  1.00  0.00     0.000 A 
ENDBRANCH  63  76
ENDBRANCH  37  38
ENDBRANCH  29  32
ENDBRANCH  27  28
ENDBRANCH   1  27
TORSDOF 14
ENDMDL
MODEL 2
REMARK VINA RESULT:     -10.5      3.501      8.890
REMARK SMILES COc1ccc(/C=C2\SC(=S)[NH+]=C2NCCCCNC(=O)c2ccc(-c3c4nc(c(-c5ccccc5)c5ccc([nH]5)c(-c5ccccc5)c5nc(c(-c6ccccc6)c6ccc3[nH]6)C=C5)C=C4)cc2)c(C(=O)[O-])c1OC
REMARK SMILES IDX 17 1 16 2 15 3 14 4 7 5 8 6 9 7 13 8 10 9 12 10 11 11 6 14
REMARK SMILES IDX 3 15 4 16 74 17 5 18 70 19 2 20 1 21 75 22 76 23 71 24 72 25
REMARK SMILES IDX 73 26 18 27 19 28 20 29 21 31 22 32 23 33 69 34 24 35 68 36
REMARK SMILES IDX 25 37 26 38 27 39 62 40 28 41 67 42 61 43 63 44 29 45 66 46
REMARK SMILES IDX 60 47 59 48 30 50 52 51 37 52 51 53 38 54 41 55 50 56 64 57
REMARK SMILES IDX 39 58 40 59 49 61 65 62 42 63 31 64 32 65 36 66 33 67 35 68
REMARK SMILES IDX 34 69 53 70 54 71 58 72 55 73 57 74 56 75 43 76 44 77 48 78
REMARK SMILES IDX 45 79 47 80 46 81
REMARK H PARENT 12 12 14 13 19 30 63 49 41 60
REMARK Flexibility Score: inf
ROOT
ATOM      1  C   UNL A   1      38.116  20.328  24.679  1.00  0.00     0.025 C 
ENDROOT
BRANCH   1   2
ATOM      2  C   UNL A   1      37.392  21.665  24.520  1.00  0.00     0.048 C 
BRANCH   2   3
ATOM      3  C   UNL A   1      37.400  22.550  25.764  1.00  0.00     0.234 C 
BRANCH   3   4
ATOM      4  N   UNL A   1      36.464  23.661  25.625  1.00  0.00    -0.273 N 
ATOM      5  C   UNL A   1      34.345  25.922  25.371  1.00  0.00     0.033 C 
ATOM      6  C   UNL A   1      34.083  24.599  25.317  1.00  0.00     0.106 C 
ATOM      7  S   UNL A   1      32.552  23.819  25.111  1.00  0.00    -0.027 SA
ATOM      8  C   UNL A   1      35.108  23.483  25.466  1.00  0.00     0.288 C 
ATOM      9  C   UNL A   1      33.267  22.226  25.301  1.00  0.00     0.230 C 
ATOM     10  N   UNL A   1      34.629  22.262  25.438  1.00  0.00    -0.225 N 
ATOM     11  S   UNL A   1      32.336  20.837  25.334  1.00  0.00    -0.026 S 
ATOM     12  H   UNL A   1      35.191  21.456  25.507  1.00  0.00     0.314 HD
ATOM     13  H   UNL A   1      36.819  24.579  25.646  1.00  0.00     0.305 HD
BRANCH   5  14
ATOM     14  C   UNL A   1      33.450  27.130  25.262  1.00  0.00    -0.011 A 
ATOM     15  C   UNL A   1      31.718  29.404  25.182  1.00  0.00     0.161 A 
ATOM     16  C   UNL A   1      32.302  28.997  26.375  1.00  0.00     0.051 A 
ATOM     17  C   UNL A   1      31.989  28.708  23.998  1.00  0.00     0.170 A 
ATOM     18  C   UNL A   1      33.127  27.871  26.412  1.00  0.00     0.013 A 
ATOM     19  C   UNL A   1      32.836  27.558  24.043  1.00  0.00     0.050 A 
BRANCH  15  20
ATOM     20  O   UNL A   1      30.964  30.548  25.190  1.00  0.00    -0.493 OA
ATOM     21  C   UNL A   1      31.338  31.426  26.256  1.00  0.00     0.278 C 
ENDBRANCH  15  20
BRANCH  17  22
ATOM     22  O   UNL A   1      31.564  29.129  22.757  1.00  0.00    -0.492 OA
ATOM     23  C   UNL A   1      30.194  28.937  22.423  1.00  0.00     0.278 C 
ENDBRANCH  17  22
BRANCH  19  24
ATOM     24  C   UNL A   1      33.091  26.819  22.774  1.00  0.00     0.076 C 
ATOM     25  O   UNL A   1      34.056  26.950  22.038  1.00  0.00    -0.545 OA
ATOM     26  O   UNL A   1      32.164  25.876  22.522  1.00  0.00    -0.545 OA
ENDBRANCH  19  24
ENDBRANCH   5  14
ENDBRANCH   3   4
ENDBRANCH   2   3
ENDBRANCH   1   2
BRANCH   1  27
ATOM     27  C   UNL A   1      38.909  20.168  25.972  1.00  0.00     0.116 C 
BRANCH  27  28
ATOM     28  N   UNL A   1      40.041  19.263  25.844  1.00  0.00    -0.352 N 
ATOM     29  C   UNL A   1      41.378  19.510  26.047  1.00  0.00     0.251 C 
ATOM     30  H   UNL A   1      39.817  18.344  25.572  1.00  0.00     0.163 HD
ATOM     31  O   UNL A   1      42.211  18.655  25.763  1.00  0.00    -0.269 OA
BRANCH  29  32
ATOM     32  C   UNL A   1      41.820  20.820  26.574  1.00  0.00     0.039 A 
ATOM     33  C   UNL A   1      42.126  21.841  25.671  1.00  0.00     0.014 A 
ATOM     34  C   UNL A   1      41.927  21.050  27.948  1.00  0.00     0.014 A 
ATOM     35  C   UNL A   1      42.470  23.109  26.145  1.00  0.00     0.010 A 
ATOM     36  C   UNL A   1      42.187  22.336  28.419  1.00  0.00     0.010 A 
ATOM     37  C   UNL A   1      42.463  23.379  27.523  1.00  0.00    -0.014 A 
BRANCH  37  38
ATOM     38  C   UNL A   1      42.737  24.745  28.042  1.00  0.00     0.031 A 
ATOM     39  C   UNL A   1      44.126  25.134  28.470  1.00  0.00     0.074 A 
ATOM     40  C   UNL A   1      41.722  25.623  28.180  1.00  0.00     0.049 A 
ATOM     41  N   UNL A   1      44.546  26.264  28.982  1.00  0.00    -0.248 NA
ATOM     42  C   UNL A   1      45.177  24.114  28.326  1.00  0.00     0.031 C 
ATOM     43  C   UNL A   1      40.322  25.362  27.841  1.00  0.00     0.029 A 
ATOM     44  N   UNL A   1      41.715  26.914  28.647  1.00  0.00    -0.354 N 
ATOM     45  C   UNL A   1      45.900  26.085  29.234  1.00  0.00     0.074 A 
ATOM     46  C   UNL A   1      46.220  24.723  28.871  1.00  0.00     0.031 C 
ATOM     47  C   UNL A   1      39.598  26.467  28.080  1.00  0.00     0.029 A 
ATOM     48  C   UNL A   1      40.470  27.498  28.632  1.00  0.00     0.049 A 
ATOM     49  H   UNL A   1      42.523  27.377  28.963  1.00  0.00     0.167 HD
ATOM     50  C   UNL A   1      46.802  26.978  29.706  1.00  0.00     0.031 A 
ATOM     51  C   UNL A   1      40.072  28.723  29.024  1.00  0.00     0.031 A 
ATOM     52  C   UNL A   1      46.488  28.336  30.065  1.00  0.00     0.049 A 
ATOM     53  C   UNL A   1      41.089  29.688  29.569  1.00  0.00     0.074 A 
ATOM     54  C   UNL A   1      47.344  29.331  30.502  1.00  0.00     0.029 A 
ATOM     55  N   UNL A   1      45.216  28.886  30.036  1.00  0.00    -0.354 N 
ATOM     56  N   UNL A   1      42.380  29.525  29.733  1.00  0.00    -0.248 NA
ATOM     57  C   UNL A   1      40.594  31.013  29.969  1.00  0.00     0.031 C 
ATOM     58  C   UNL A   1      46.580  30.465  30.800  1.00  0.00     0.029 A 
ATOM     59  C   UNL A   1      45.260  30.199  30.477  1.00  0.00     0.049 A 
ATOM     60  H   UNL A   1      44.402  28.414  29.746  1.00  0.00     0.167 HD
ATOM     61  C   UNL A   1      42.855  30.735  30.224  1.00  0.00     0.074 A 
ATOM     62  C   UNL A   1      41.717  31.626  30.314  1.00  0.00     0.031 C 
ATOM     63  C   UNL A   1      44.121  31.076  30.567  1.00  0.00     0.031 A 
BRANCH  50  64
ATOM     64  C   UNL A   1      48.223  26.508  29.874  1.00  0.00    -0.014 A 
ATOM     65  C   UNL A   1      48.655  25.897  31.062  1.00  0.00     0.009 A 
ATOM     66  C   UNL A   1      49.133  26.646  28.814  1.00  0.00     0.009 A 
ATOM     67  C   UNL A   1      49.977  25.468  31.198  1.00  0.00     0.001 A 
ATOM     68  C   UNL A   1      50.445  26.185  28.940  1.00  0.00     0.001 A 
ATOM     69  C   UNL A   1      50.868  25.607  30.136  1.00  0.00     0.000 A 
ENDBRANCH  50  64
BRANCH  51  70
ATOM     70  C   UNL A   1      38.642  29.115  28.912  1.00  0.00    -0.014 A 
ATOM     71  C   UNL A   1      37.787  29.029  30.023  1.00  0.00     0.009 A 
ATOM     72  C   UNL A   1      38.118  29.566  27.690  1.00  0.00     0.009 A 
ATOM     73  C   UNL A   1      36.433  29.355  29.902  1.00  0.00     0.001 A 
ATOM     74  C   UNL A   1      36.773  29.923  27.581  1.00  0.00     0.001 A 
ATOM     75  C   UNL A   1      35.929  29.806  28.684  1.00  0.00     0.000 A 
ENDBRANCH  51  70
BRANCH  63  76
ATOM     76  C   UNL A   1      44.353  32.489  31.031  1.00  0.00    -0.014 A 
ATOM     77  C   UNL A   1      44.597  33.530  30.123  1.00  0.00     0.009 A 
ATOM     78  C   UNL A   1      44.290  32.784  32.402  1.00  0.00     0.009 A 
ATOM     79  C   UNL A   1      44.815  34.832  30.583  1.00  0.00     0.001 A 
ATOM     80  C   UNL A   1      44.472  34.091  32.856  1.00  0.00     0.001 A 
ATOM     81  C   UNL A   1      44.746  35.112  31.947  1.00  0.00     0.000 A 
ENDBRANCH  63  76
ENDBRANCH  37  38
ENDBRANCH  29  32
ENDBRANCH  27  28
ENDBRANCH   1  27
TORSDOF 14
ENDMDL
MODEL 3
REMARK VINA RESULT:     -10.5      3.511      8.967
REMARK SMILES COc1ccc(/C=C2\SC(=S)[NH+]=C2NCCCCNC(=O)c2ccc(-c3c4nc(c(-c5ccccc5)c5ccc([nH]5)c(-c5ccccc5)c5nc(c(-c6ccccc6)c6ccc3[nH]6)C=C5)C=C4)cc2)c(C(=O)[O-])c1OC
REMARK SMILES IDX 17 1 16 2 15 3 14 4 7 5 8 6 9 7 13 8 10 9 12 10 11 11 6 14
REMARK SMILES IDX 3 15 4 16 74 17 5 18 70 19 2 20 1 21 75 22 76 23 71 24 72 25
REMARK SMILES IDX 73 26 18 27 19 28 20 29 21 31 22 32 23 33 69 34 24 35 68 36
REMARK SMILES IDX 25 37 26 38 27 39 62 40 28 41 67 42 61 43 63 44 29 45 66 46
REMARK SMILES IDX 60 47 59 48 30 50 52 51 37 52 51 53 38 54 41 55 50 56 64 57
REMARK SMILES IDX 39 58 40 59 49 61 65 62 42 63 31 64 32 65 36 66 33 67 35 68
REMARK SMILES IDX 34 69 53 70 54 71 58 72 55 73 57 74 56 75 43 76 44 77 48 78
REMARK SMILES IDX 45 79 47 80 46 81
REMARK H PARENT 12 12 14 13 19 30 63 49 41 60
REMARK Flexibility Score: inf
ROOT
ATOM      1  C   UNL A   1      38.072  20.212  24.582  1.00  0.00     0.025 C 
ENDROOT
BRANCH   1   2
ATOM      2  C   UNL A   1      37.606  21.667  24.542  1.00  0.00     0.048 C 
BRANCH   2   3
ATOM      3  C   UNL A   1      37.258  22.267  25.902  1.00  0.00     0.234 C 
BRANCH   3   4
ATOM      4  N   UNL A   1      36.366  23.412  25.760  1.00  0.00    -0.273 N 
ATOM      5  C   UNL A   1      34.335  25.751  25.488  1.00  0.00     0.033 C 
ATOM      6  C   UNL A   1      34.033  24.440  25.377  1.00  0.00     0.106 C 
ATOM      7  S   UNL A   1      32.488  23.719  25.076  1.00  0.00    -0.027 SA
ATOM      8  C   UNL A   1      35.013  23.286  25.534  1.00  0.00     0.288 C 
ATOM      9  C   UNL A   1      33.142  22.097  25.243  1.00  0.00     0.230 C 
ATOM     10  N   UNL A   1      34.497  22.083  25.442  1.00  0.00    -0.225 N 
ATOM     11  S   UNL A   1      32.167  20.740  25.186  1.00  0.00    -0.026 S 
ATOM     12  H   UNL A   1      35.029  21.257  25.509  1.00  0.00     0.314 HD
ATOM     13  H   UNL A   1      36.748  24.317  25.828  1.00  0.00     0.305 HD
BRANCH   5  14
ATOM     14  C   UNL A   1      33.485  26.991  25.381  1.00  0.00    -0.011 A 
ATOM     15  C   UNL A   1      31.834  29.325  25.302  1.00  0.00     0.161 A 
ATOM     16  C   UNL A   1      32.364  28.869  26.502  1.00  0.00     0.051 A 
ATOM     17  C   UNL A   1      32.120  28.649  24.109  1.00  0.00     0.170 A 
ATOM     18  C   UNL A   1      33.148  27.715  26.537  1.00  0.00     0.013 A 
ATOM     19  C   UNL A   1      32.927  27.469  24.153  1.00  0.00     0.050 A 
BRANCH  15  20
ATOM     20  O   UNL A   1      31.119  30.493  25.313  1.00  0.00    -0.493 OA
ATOM     21  C   UNL A   1      31.509  31.347  26.394  1.00  0.00     0.278 C 
ENDBRANCH  15  20
BRANCH  17  22
ATOM     22  O   UNL A   1      31.752  29.113  22.866  1.00  0.00    -0.492 OA
ATOM     23  C   UNL A   1      30.423  28.852  22.426  1.00  0.00     0.278 C 
ENDBRANCH  17  22
BRANCH  19  24
ATOM     24  C   UNL A   1      33.199  26.752  22.875  1.00  0.00     0.076 C 
ATOM     25  O   UNL A   1      32.547  25.833  22.404  1.00  0.00    -0.545 OA
ATOM     26  O   UNL A   1      34.231  27.278  22.189  1.00  0.00    -0.545 OA
ENDBRANCH  19  24
ENDBRANCH   5  14
ENDBRANCH   3   4
ENDBRANCH   2   3
ENDBRANCH   1   2
BRANCH   1  27
ATOM     27  C   UNL A   1      38.641  19.748  25.919  1.00  0.00     0.116 C 
BRANCH  27  28
ATOM     28  N   UNL A   1      39.900  19.033  25.790  1.00  0.00    -0.352 N 
ATOM     29  C   UNL A   1      41.182  19.486  25.993  1.00  0.00     0.251 C 
ATOM     30  H   UNL A   1      39.824  18.089  25.518  1.00  0.00     0.163 HD
ATOM     31  O   UNL A   1      42.139  18.773  25.708  1.00  0.00    -0.269 OA
BRANCH  29  32
ATOM     32  C   UNL A   1      41.414  20.849  26.521  1.00  0.00     0.039 A 
ATOM     33  C   UNL A   1      41.331  21.060  27.900  1.00  0.00     0.014 A 
ATOM     34  C   UNL A   1      41.718  21.914  25.670  1.00  0.00     0.014 A 
ATOM     35  C   UNL A   1      41.622  22.320  28.429  1.00  0.00     0.010 A 
ATOM     36  C   UNL A   1      42.091  23.146  26.205  1.00  0.00     0.010 A 
ATOM     37  C   UNL A   1      42.044  23.364  27.590  1.00  0.00    -0.014 A 
BRANCH  37  38
ATOM     38  C   UNL A   1      42.446  24.683  28.145  1.00  0.00     0.031 A 
ATOM     39  C   UNL A   1      41.425  25.772  28.338  1.00  0.00     0.074 A 
ATOM     40  C   UNL A   1      43.743  24.923  28.426  1.00  0.00     0.049 A 
ATOM     41  N   UNL A   1      41.596  26.996  28.771  1.00  0.00    -0.248 NA
ATOM     42  C   UNL A   1      40.035  25.452  27.975  1.00  0.00     0.031 C 
ATOM     43  C   UNL A   1      44.840  23.969  28.248  1.00  0.00     0.029 A 
ATOM     44  N   UNL A   1      44.358  26.048  28.918  1.00  0.00    -0.354 N 
ATOM     45  C   UNL A   1      40.343  27.594  28.718  1.00  0.00     0.074 A 
ATOM     46  C   UNL A   1      39.433  26.618  28.161  1.00  0.00     0.031 C 
ATOM     47  C   UNL A   1      45.986  24.537  28.656  1.00  0.00     0.029 A 
ATOM     48  C   UNL A   1      45.716  25.907  29.079  1.00  0.00     0.049 A 
ATOM     49  H   UNL A   1      43.873  26.876  29.135  1.00  0.00     0.167 HD
ATOM     50  C   UNL A   1      39.976  28.835  29.116  1.00  0.00     0.031 A 
ATOM     51  C   UNL A   1      46.643  26.783  29.511  1.00  0.00     0.031 A 
ATOM     52  C   UNL A   1      40.879  29.807  29.675  1.00  0.00     0.049 A 
ATOM     53  C   UNL A   1      46.214  28.164  29.924  1.00  0.00     0.074 A 
ATOM     54  C   UNL A   1      40.591  31.072  30.157  1.00  0.00     0.029 A 
ATOM     55  N   UNL A   1      42.246  29.625  29.819  1.00  0.00    -0.354 N 
ATOM     56  N   UNL A   1      45.012  28.689  29.935  1.00  0.00    -0.248 NA
ATOM     57  C   UNL A   1      47.270  29.070  30.398  1.00  0.00     0.031 C 
ATOM     58  C   UNL A   1      41.794  31.680  30.532  1.00  0.00     0.029 A 
ATOM     59  C   UNL A   1      42.820  30.767  30.354  1.00  0.00     0.049 A 
ATOM     60  H   UNL A   1      42.736  28.807  29.577  1.00  0.00     0.167 HD
ATOM     61  C   UNL A   1      45.163  29.972  30.446  1.00  0.00     0.074 A 
ATOM     62  C   UNL A   1      46.570  30.139  30.748  1.00  0.00     0.031 C 
ATOM     63  C   UNL A   1      44.221  30.924  30.648  1.00  0.00     0.031 A 
BRANCH  50  64
ATOM     64  C   UNL A   1      38.531  29.220  28.949  1.00  0.00    -0.014 A 
ATOM     65  C   UNL A   1      37.622  29.129  30.015  1.00  0.00     0.009 A 
ATOM     66  C   UNL A   1      38.079  29.718  27.717  1.00  0.00     0.009 A 
ATOM     67  C   UNL A   1      36.284  29.491  29.840  1.00  0.00     0.001 A 
ATOM     68  C   UNL A   1      36.750  30.112  27.553  1.00  0.00     0.001 A 
ATOM     69  C   UNL A   1      35.852  29.988  28.612  1.00  0.00     0.000 A 
ENDBRANCH  50  64
BRANCH  51  70
ATOM     70  C   UNL A   1      48.073  26.382  29.585  1.00  0.00    -0.014 A 
ATOM     71  C   UNL A   1      48.601  25.825  30.761  1.00  0.00     0.009 A 
ATOM     72  C   UNL A   1      48.924  26.564  28.483  1.00  0.00     0.009 A 
ATOM     73  C   UNL A   1      49.955  25.490  30.842  1.00  0.00     0.001 A 
ATOM     74  C   UNL A   1      50.270  26.199  28.556  1.00  0.00     0.001 A 
ATOM     75  C   UNL A   1      50.787  25.673  29.738  1.00  0.00     0.000 A 
ENDBRANCH  51  70
BRANCH  63  76
ATOM     76  C   UNL A   1      44.672  32.221  31.265  1.00  0.00    -0.014 A 
ATOM     77  C   UNL A   1      44.766  32.379  32.656  1.00  0.00     0.009 A 
ATOM     78  C   UNL A   1      45.041  33.290  30.434  1.00  0.00     0.009 A 
ATOM     79  C   UNL A   1      45.182  33.596  33.202  1.00  0.00     0.001 A 
ATOM     80  C   UNL A   1      45.491  34.493  30.981  1.00  0.00     0.001 A 
ATOM     81  C   UNL A   1      45.549  34.649  32.365  1.00  0.00     0.000 A 
ENDBRANCH  63  76
ENDBRANCH  37  38
ENDBRANCH  29  32
ENDBRANCH  27  28
ENDBRANCH   1  27
TORSDOF 14
ENDMDL
