MODEL 1
REMARK VINA RESULT:     -13.0      0.000      0.000
REMARK SMILES COc1cccc(-c2nn(-c3cc4c(cc3C(N)=O)OCO4)cc2C(=O)NCCCCNC(=O)c2ccc(-c3c4nc(c(-c5ccccc5)c5ccc([nH]5)c(-c5ccccc5)c5nc(c(-c6ccccc6)c6ccc3[nH]6)C=C5)C=C4)cc2)c1
REMARK SMILES IDX 29 1 28 2 27 3 25 4 26 5 24 7 8 8 9 9 10 10 23 11 7 12 3 13
REMARK SMILES IDX 4 14 83 15 5 16 6 17 2 18 1 19 11 20 12 21 16 22 13 23 15 24
REMARK SMILES IDX 14 25 22 26 20 27 21 28 17 29 18 30 19 31 30 34 31 35 32 36
REMARK SMILES IDX 33 37 34 39 35 40 36 41 82 42 37 43 81 44 38 45 39 46 40 47
REMARK SMILES IDX 75 48 41 49 80 50 74 51 76 52 42 53 79 54 73 55 72 56 43 58
REMARK SMILES IDX 65 59 50 60 64 61 51 62 54 63 63 64 77 65 52 66 53 67 62 69
REMARK SMILES IDX 78 70 55 71 44 72 45 73 49 74 46 75 48 76 47 77 66 78 67 79
REMARK SMILES IDX 71 80 68 81 70 82 69 83 56 84 57 85 61 86 58 87 60 88 59 89
REMARK H PARENT 27 6 18 32 18 33 32 38 76 57 54 68
REMARK Flexibility Score: inf
ROOT
ATOM      1  C   UNL A   1      32.452  30.042  27.056  1.00  0.00     0.023 C 
ENDROOT
BRANCH   1   2
ATOM      2  C   UNL A   1      31.819  29.293  25.881  1.00  0.00     0.116 C 
BRANCH   2   3
ATOM      3  N   UNL A   1      32.641  29.366  24.692  1.00  0.00    -0.352 N 
ATOM      4  C   UNL A   1      32.797  28.543  23.604  1.00  0.00     0.255 C 
ATOM      5  O   UNL A   1      33.572  28.962  22.743  1.00  0.00    -0.269 OA
ATOM      6  H   UNL A   1      33.206  30.172  24.656  1.00  0.00     0.163 HD
BRANCH   4   7
ATOM      7  C   UNL A   1      32.067  27.290  23.452  1.00  0.00     0.086 A 
ATOM      8  C   UNL A   1      30.653  27.104  23.236  1.00  0.00     0.106 A 
ATOM      9  N   UNL A   1      30.311  25.797  23.288  1.00  0.00    -0.167 NA
ATOM     10  N   UNL A   1      31.449  25.191  23.686  1.00  0.00    -0.239 N 
ATOM     11  C   UNL A   1      32.539  25.996  23.465  1.00  0.00     0.129 A 
BRANCH   8  12
ATOM     12  C   UNL A   1      29.651  28.140  22.974  1.00  0.00     0.007 A 
ATOM     13  C   UNL A   1      29.000  30.260  21.989  1.00  0.00     0.119 A 
ATOM     14  C   UNL A   1      27.681  30.041  22.393  1.00  0.00     0.046 A 
ATOM     15  C   UNL A   1      29.990  29.319  22.293  1.00  0.00     0.056 A 
ATOM     16  C   UNL A   1      27.340  28.881  23.082  1.00  0.00     0.005 A 
ATOM     17  C   UNL A   1      28.323  27.939  23.379  1.00  0.00     0.011 A 
BRANCH  13  18
ATOM     18  O   UNL A   1      29.225  31.453  21.357  1.00  0.00    -0.497 OA
ATOM     19  C   UNL A   1      28.079  32.289  21.229  1.00  0.00     0.278 C 
ENDBRANCH  13  18
ENDBRANCH   8  12
BRANCH  10  20
ATOM     20  C   UNL A   1      31.517  23.839  24.105  1.00  0.00     0.081 A 
ATOM     21  C   UNL A   1      31.833  22.862  23.143  1.00  0.00     0.079 A 
ATOM     22  C   UNL A   1      31.373  23.492  25.483  1.00  0.00     0.069 A 
ATOM     23  C   UNL A   1      32.084  21.584  23.599  1.00  0.00     0.167 A 
ATOM     24  C   UNL A   1      31.729  22.199  25.901  1.00  0.00     0.066 A 
ATOM     25  C   UNL A   1      32.060  21.274  24.939  1.00  0.00     0.166 A 
ATOM     26  O   UNL A   1      32.393  20.498  22.838  1.00  0.00    -0.454 OA
ATOM     27  O   UNL A   1      32.349  19.968  25.182  1.00  0.00    -0.454 OA
ATOM     28  C   UNL A   1      32.369  19.454  23.836  1.00  0.00     0.468 C 
BRANCH  22  29
ATOM     29  C   UNL A   1      30.674  24.385  26.471  1.00  0.00     0.251 C 
ATOM     30  N   UNL A   1      29.413  24.035  26.874  1.00  0.00    -0.366 N 
ATOM     31  O   UNL A   1      31.129  25.442  26.885  1.00  0.00    -0.269 OA
ATOM     32  H   UNL A   1      29.014  23.191  26.562  1.00  0.00     0.159 HD
ATOM     33  H   UNL A   1      28.907  24.626  27.477  1.00  0.00     0.159 HD
ENDBRANCH  22  29
ENDBRANCH  10  20
ENDBRANCH   4   7
ENDBRANCH   2   3
ENDBRANCH   1   2
BRANCH   1  34
ATOM     34  C   UNL A   1      33.885  29.607  27.399  1.00  0.00     0.023 C 
BRANCH  34  35
ATOM     35  C   UNL A   1      34.939  30.700  27.252  1.00  0.00     0.116 C 
BRANCH  35  36
ATOM     36  N   UNL A   1      34.745  31.815  28.180  1.00  0.00    -0.352 N 
ATOM     37  C   UNL A   1      35.215  31.937  29.477  1.00  0.00     0.251 C 
ATOM     38  H   UNL A   1      34.214  32.572  27.840  1.00  0.00     0.163 HD
ATOM     39  O   UNL A   1      34.692  32.692  30.276  1.00  0.00    -0.269 OA
BRANCH  37  40
ATOM     40  C   UNL A   1      36.391  31.139  29.864  1.00  0.00     0.039 A 
ATOM     41  C   UNL A   1      36.270  29.850  30.385  1.00  0.00     0.014 A 
ATOM     42  C   UNL A   1      37.641  31.710  29.643  1.00  0.00     0.014 A 
ATOM     43  C   UNL A   1      37.429  29.108  30.600  1.00  0.00     0.010 A 
ATOM     44  C   UNL A   1      38.765  30.928  29.702  1.00  0.00     0.010 A 
ATOM     45  C   UNL A   1      38.673  29.648  30.232  1.00  0.00    -0.014 A 
BRANCH  45  46
ATOM     46  C   UNL A   1      39.885  28.838  30.277  1.00  0.00     0.031 A 
ATOM     47  C   UNL A   1      40.461  28.695  31.638  1.00  0.00     0.074 A 
ATOM     48  C   UNL A   1      40.320  28.094  29.237  1.00  0.00     0.049 A 
ATOM     49  N   UNL A   1      41.521  29.267  32.103  1.00  0.00    -0.248 NA
ATOM     50  C   UNL A   1      39.690  27.956  32.653  1.00  0.00     0.031 C 
ATOM     51  C   UNL A   1      39.639  27.859  27.955  1.00  0.00     0.029 A 
ATOM     52  N   UNL A   1      41.415  27.289  29.142  1.00  0.00    -0.354 N 
ATOM     53  C   UNL A   1      41.690  28.759  33.387  1.00  0.00     0.074 A 
ATOM     54  C   UNL A   1      40.438  28.143  33.744  1.00  0.00     0.031 C 
ATOM     55  C   UNL A   1      40.197  26.798  27.330  1.00  0.00     0.029 A 
ATOM     56  C   UNL A   1      41.390  26.416  28.060  1.00  0.00     0.049 A 
ATOM     57  H   UNL A   1      42.159  27.323  29.785  1.00  0.00     0.167 HD
ATOM     58  C   UNL A   1      42.941  28.595  33.904  1.00  0.00     0.031 A 
ATOM     59  C   UNL A   1      42.291  25.446  27.778  1.00  0.00     0.031 A 
ATOM     60  C   UNL A   1      43.926  29.235  33.070  1.00  0.00     0.049 A 
ATOM     61  C   UNL A   1      43.547  25.798  28.471  1.00  0.00     0.074 A 
ATOM     62  C   UNL A   1      44.341  30.518  32.796  1.00  0.00     0.029 A 
ATOM     63  N   UNL A   1      44.360  28.434  32.045  1.00  0.00    -0.354 N 
ATOM     64  N   UNL A   1      44.249  26.854  28.175  1.00  0.00    -0.248 NA
ATOM     65  C   UNL A   1      43.861  25.174  29.750  1.00  0.00     0.031 C 
ATOM     66  C   UNL A   1      44.868  30.484  31.468  1.00  0.00     0.029 A 
ATOM     67  C   UNL A   1      44.813  29.176  30.991  1.00  0.00     0.049 A 
ATOM     68  H   UNL A   1      44.345  27.450  32.067  1.00  0.00     0.167 HD
ATOM     69  C   UNL A   1      44.752  27.278  29.390  1.00  0.00     0.074 A 
ATOM     70  C   UNL A   1      44.643  26.122  30.272  1.00  0.00     0.031 C 
ATOM     71  C   UNL A   1      44.901  28.606  29.662  1.00  0.00     0.031 A 
BRANCH  58  72
ATOM     72  C   UNL A   1      43.351  27.437  34.794  1.00  0.00    -0.014 A 
ATOM     73  C   UNL A   1      43.308  26.136  34.254  1.00  0.00     0.009 A 
ATOM     74  C   UNL A   1      43.472  27.529  36.193  1.00  0.00     0.009 A 
ATOM     75  C   UNL A   1      43.315  25.000  35.074  1.00  0.00     0.001 A 
ATOM     76  C   UNL A   1      43.513  26.395  37.013  1.00  0.00     0.001 A 
ATOM     77  C   UNL A   1      43.409  25.130  36.455  1.00  0.00     0.000 A 
ENDBRANCH  58  72
BRANCH  59  78
ATOM     78  C   UNL A   1      42.090  24.128  27.141  1.00  0.00    -0.014 A 
ATOM     79  C   UNL A   1      42.648  23.847  25.884  1.00  0.00     0.009 A 
ATOM     80  C   UNL A   1      41.612  23.050  27.905  1.00  0.00     0.009 A 
ATOM     81  C   UNL A   1      42.778  22.526  25.435  1.00  0.00     0.001 A 
ATOM     82  C   UNL A   1      41.741  21.730  27.456  1.00  0.00     0.001 A 
ATOM     83  C   UNL A   1      42.342  21.468  26.229  1.00  0.00     0.000 A 
ENDBRANCH  59  78
BRANCH  71  84
ATOM     84  C   UNL A   1      44.992  29.552  28.499  1.00  0.00    -0.014 A 
ATOM     85  C   UNL A   1      43.879  30.120  27.857  1.00  0.00     0.009 A 
ATOM     86  C   UNL A   1      46.274  29.949  28.092  1.00  0.00     0.009 A 
ATOM     87  C   UNL A   1      44.054  31.043  26.819  1.00  0.00     0.001 A 
ATOM     88  C   UNL A   1      46.448  30.884  27.074  1.00  0.00     0.001 A 
ATOM     89  C   UNL A   1      45.337  31.428  26.433  1.00  0.00     0.000 A 
ENDBRANCH  71  84
ENDBRANCH  45  46
ENDBRANCH  37  40
ENDBRANCH  35  36
ENDBRANCH  34  35
ENDBRANCH   1  34
TORSDOF 15
ENDMDL
MODEL 2
REMARK VINA RESULT:     -12.9      1.722      2.078
REMARK SMILES COc1cccc(-c2nn(-c3cc4c(cc3C(N)=O)OCO4)cc2C(=O)NCCCCNC(=O)c2ccc(-c3c4nc(c(-c5ccccc5)c5ccc([nH]5)c(-c5ccccc5)c5nc(c(-c6ccccc6)c6ccc3[nH]6)C=C5)C=C4)cc2)c1
REMARK SMILES IDX 29 1 28 2 27 3 25 4 26 5 24 7 8 8 9 9 10 10 23 11 7 12 3 13
REMARK SMILES IDX 4 14 83 15 5 16 6 17 2 18 1 19 11 20 12 21 16 22 13 23 15 24
REMARK SMILES IDX 14 25 22 26 20 27 21 28 17 29 18 30 19 31 30 34 31 35 32 36
REMARK SMILES IDX 33 37 34 39 35 40 36 41 82 42 37 43 81 44 38 45 39 46 40 47
REMARK SMILES IDX 75 48 41 49 80 50 74 51 76 52 42 53 79 54 73 55 72 56 43 58
REMARK SMILES IDX 65 59 50 60 64 61 51 62 54 63 63 64 77 65 52 66 53 67 62 69
REMARK SMILES IDX 78 70 55 71 44 72 45 73 49 74 46 75 48 76 47 77 66 78 67 79
REMARK SMILES IDX 71 80 68 81 70 82 69 83 56 84 57 85 61 86 58 87 60 88 59 89
REMARK H PARENT 27 6 18 32 18 33 32 38 76 57 54 68
REMARK Flexibility Score: inf
ROOT
ATOM      1  C   UNL A   1      34.317  30.779  27.483  1.00  0.00     0.023 C 
ENDROOT
BRANCH   1   2
ATOM      2  C   UNL A   1      33.314  30.128  26.527  1.00  0.00     0.116 C 
BRANCH   2   3
ATOM      3  N   UNL A   1      32.259  29.441  27.242  1.00  0.00    -0.352 N 
ATOM      4  C   UNL A   1      31.745  28.170  27.167  1.00  0.00     0.255 C 
ATOM      5  O   UNL A   1      30.859  27.919  27.985  1.00  0.00    -0.269 OA
ATOM      6  H   UNL A   1      31.819  30.001  27.923  1.00  0.00     0.163 HD
BRANCH   4   7
ATOM      7  C   UNL A   1      32.239  27.174  26.223  1.00  0.00     0.086 A 
ATOM      8  C   UNL A   1      31.645  26.757  24.977  1.00  0.00     0.106 A 
ATOM      9  N   UNL A   1      32.308  25.709  24.437  1.00  0.00    -0.167 NA
ATOM     10  N   UNL A   1      33.195  25.372  25.397  1.00  0.00    -0.239 N 
ATOM     11  C   UNL A   1      33.382  26.407  26.280  1.00  0.00     0.129 A 
BRANCH   8  12
ATOM     12  C   UNL A   1      30.484  27.346  24.305  1.00  0.00     0.007 A 
ATOM     13  C   UNL A   1      29.479  29.076  22.932  1.00  0.00     0.119 A 
ATOM     14  C   UNL A   1      28.269  28.378  22.940  1.00  0.00     0.046 A 
ATOM     15  C   UNL A   1      30.583  28.571  23.628  1.00  0.00     0.056 A 
ATOM     16  C   UNL A   1      28.158  27.170  23.622  1.00  0.00     0.005 A 
ATOM     17  C   UNL A   1      29.259  26.660  24.310  1.00  0.00     0.011 A 
BRANCH  13  18
ATOM     18  O   UNL A   1      29.457  30.271  22.265  1.00  0.00    -0.497 OA
ATOM     19  C   UNL A   1      28.211  30.596  21.658  1.00  0.00     0.278 C 
ENDBRANCH  13  18
ENDBRANCH   8  12
BRANCH  10  20
ATOM     20  C   UNL A   1      33.959  24.179  25.381  1.00  0.00     0.081 A 
ATOM     21  C   UNL A   1      35.143  24.159  24.622  1.00  0.00     0.079 A 
ATOM     22  C   UNL A   1      33.591  23.064  26.196  1.00  0.00     0.069 A 
ATOM     23  C   UNL A   1      35.970  23.064  24.768  1.00  0.00     0.167 A 
ATOM     24  C   UNL A   1      34.513  22.020  26.378  1.00  0.00     0.066 A 
ATOM     25  C   UNL A   1      35.674  22.044  25.643  1.00  0.00     0.166 A 
ATOM     26  O   UNL A   1      37.148  22.846  24.121  1.00  0.00    -0.454 OA
ATOM     27  O   UNL A   1      36.621  21.068  25.651  1.00  0.00    -0.454 OA
ATOM     28  C   UNL A   1      37.445  21.499  24.550  1.00  0.00     0.468 C 
BRANCH  22  29
ATOM     29  C   UNL A   1      32.191  22.867  26.709  1.00  0.00     0.251 C 
ATOM     30  N   UNL A   1      31.195  22.657  25.793  1.00  0.00    -0.366 N 
ATOM     31  O   UNL A   1      31.871  22.953  27.885  1.00  0.00    -0.269 OA
ATOM     32  H   UNL A   1      31.415  22.583  24.836  1.00  0.00     0.159 HD
ATOM     33  H   UNL A   1      30.261  22.579  26.092  1.00  0.00     0.159 HD
ENDBRANCH  22  29
ENDBRANCH  10  20
ENDBRANCH   4   7
ENDBRANCH   2   3
ENDBRANCH   1   2
BRANCH   1  34
ATOM     34  C   UNL A   1      34.042  32.259  27.791  1.00  0.00     0.023 C 
BRANCH  34  35
ATOM     35  C   UNL A   1      35.195  32.999  28.462  1.00  0.00     0.116 C 
BRANCH  35  36
ATOM     36  N   UNL A   1      35.036  33.118  29.912  1.00  0.00    -0.352 N 
ATOM     37  C   UNL A   1      35.532  32.279  30.896  1.00  0.00     0.251 C 
ATOM     38  H   UNL A   1      34.511  33.889  30.227  1.00  0.00     0.163 HD
ATOM     39  O   UNL A   1      35.037  32.236  32.007  1.00  0.00    -0.269 OA
BRANCH  37  40
ATOM     40  C   UNL A   1      36.703  31.448  30.569  1.00  0.00     0.039 A 
ATOM     41  C   UNL A   1      37.984  31.991  30.449  1.00  0.00     0.014 A 
ATOM     42  C   UNL A   1      36.488  30.080  30.428  1.00  0.00     0.014 A 
ATOM     43  C   UNL A   1      39.060  31.125  30.272  1.00  0.00     0.010 A 
ATOM     44  C   UNL A   1      37.556  29.222  30.415  1.00  0.00     0.010 A 
ATOM     45  C   UNL A   1      38.839  29.737  30.281  1.00  0.00    -0.014 A 
BRANCH  45  46
ATOM     46  C   UNL A   1      39.955  28.799  30.276  1.00  0.00     0.031 A 
ATOM     47  C   UNL A   1      40.523  28.533  31.621  1.00  0.00     0.074 A 
ATOM     48  C   UNL A   1      40.298  28.059  29.199  1.00  0.00     0.049 A 
ATOM     49  N   UNL A   1      41.642  28.965  32.097  1.00  0.00    -0.248 NA
ATOM     50  C   UNL A   1      39.684  27.837  32.613  1.00  0.00     0.031 C 
ATOM     51  C   UNL A   1      39.585  27.957  27.916  1.00  0.00     0.029 A 
ATOM     52  N   UNL A   1      41.297  27.145  29.055  1.00  0.00    -0.354 N 
ATOM     53  C   UNL A   1      41.765  28.384  33.356  1.00  0.00     0.074 A 
ATOM     54  C   UNL A   1      40.456  27.893  33.702  1.00  0.00     0.031 C 
ATOM     55  C   UNL A   1      40.019  26.870  27.239  1.00  0.00     0.029 A 
ATOM     56  C   UNL A   1      41.169  26.329  27.936  1.00  0.00     0.049 A 
ATOM     57  H   UNL A   1      42.046  27.069  29.689  1.00  0.00     0.167 HD
ATOM     58  C   UNL A   1      42.994  28.063  33.850  1.00  0.00     0.031 A 
ATOM     59  C   UNL A   1      41.956  25.280  27.601  1.00  0.00     0.031 A 
ATOM     60  C   UNL A   1      44.037  28.629  33.031  1.00  0.00     0.049 A 
ATOM     61  C   UNL A   1      43.248  25.462  28.292  1.00  0.00     0.074 A 
ATOM     62  C   UNL A   1      44.587  29.870  32.809  1.00  0.00     0.029 A 
ATOM     63  N   UNL A   1      44.372  27.831  31.968  1.00  0.00    -0.354 N 
ATOM     64  N   UNL A   1      44.060  26.448  28.033  1.00  0.00    -0.248 NA
ATOM     65  C   UNL A   1      43.502  24.751  29.539  1.00  0.00     0.031 C 
ATOM     66  C   UNL A   1      45.097  29.838  31.474  1.00  0.00     0.029 A 
ATOM     67  C   UNL A   1      44.896  28.566  30.941  1.00  0.00     0.049 A 
ATOM     68  H   UNL A   1      44.251  26.855  31.947  1.00  0.00     0.167 HD
ATOM     69  C   UNL A   1      44.615  26.759  29.259  1.00  0.00     0.074 A 
ATOM     70  C   UNL A   1      44.387  25.584  30.092  1.00  0.00     0.031 C 
ATOM     71  C   UNL A   1      44.910  28.050  29.588  1.00  0.00     0.031 A 
BRANCH  58  72
ATOM     72  C   UNL A   1      43.283  26.828  34.683  1.00  0.00    -0.014 A 
ATOM     73  C   UNL A   1      44.047  25.797  34.101  1.00  0.00     0.009 A 
ATOM     74  C   UNL A   1      42.594  26.504  35.866  1.00  0.00     0.009 A 
ATOM     75  C   UNL A   1      44.061  24.502  34.634  1.00  0.00     0.001 A 
ATOM     76  C   UNL A   1      42.633  25.219  36.421  1.00  0.00     0.001 A 
ATOM     77  C   UNL A   1      43.346  24.211  35.791  1.00  0.00     0.000 A 
ENDBRANCH  58  72
BRANCH  59  78
ATOM     78  C   UNL A   1      41.608  24.022  26.910  1.00  0.00    -0.014 A 
ATOM     79  C   UNL A   1      42.547  23.365  26.099  1.00  0.00     0.009 A 
ATOM     80  C   UNL A   1      40.458  23.311  27.294  1.00  0.00     0.009 A 
ATOM     81  C   UNL A   1      42.369  22.023  25.736  1.00  0.00     0.001 A 
ATOM     82  C   UNL A   1      40.280  21.971  26.931  1.00  0.00     0.001 A 
ATOM     83  C   UNL A   1      41.247  21.321  26.169  1.00  0.00     0.000 A 
ENDBRANCH  59  78
BRANCH  71  84
ATOM     84  C   UNL A   1      45.095  29.032  28.466  1.00  0.00    -0.014 A 
ATOM     85  C   UNL A   1      44.072  29.848  27.957  1.00  0.00     0.009 A 
ATOM     86  C   UNL A   1      46.393  29.191  27.959  1.00  0.00     0.009 A 
ATOM     87  C   UNL A   1      44.344  30.783  26.952  1.00  0.00     0.001 A 
ATOM     88  C   UNL A   1      46.668  30.137  26.973  1.00  0.00     0.001 A 
ATOM     89  C   UNL A   1      45.642  30.930  26.464  1.00  0.00     0.000 A 
ENDBRANCH  71  84
ENDBRANCH  45  46
ENDBRANCH  37  40
ENDBRANCH  35  36
ENDBRANCH  34  35
ENDBRANCH   1  34
TORSDOF 15
ENDMDL
MODEL 3
REMARK VINA RESULT:     -12.8      1.557      2.510
REMARK SMILES COc1cccc(-c2nn(-c3cc4c(cc3C(N)=O)OCO4)cc2C(=O)NCCCCNC(=O)c2ccc(-c3c4nc(c(-c5ccccc5)c5ccc([nH]5)c(-c5ccccc5)c5nc(c(-c6ccccc6)c6ccc3[nH]6)C=C5)C=C4)cc2)c1
REMARK SMILES IDX 29 1 28 2 27 3 25 4 26 5 24 7 8 8 9 9 10 10 23 11 7 12 3 13
REMARK SMILES IDX 4 14 83 15 5 16 6 17 2 18 1 19 11 20 12 21 16 22 13 23 15 24
REMARK SMILES IDX 14 25 22 26 20 27 21 28 17 29 18 30 19 31 30 34 31 35 32 36
REMARK SMILES IDX 33 37 34 39 35 40 36 41 82 42 37 43 81 44 38 45 39 46 40 47
REMARK SMILES IDX 75 48 41 49 80 50 74 51 76 52 42 53 79 54 73 55 72 56 43 58
REMARK SMILES IDX 65 59 50 60 64 61 51 62 54 63 63 64 77 65 52 66 53 67 62 69
REMARK SMILES IDX 78 70 55 71 44 72 45 73 49 74 46 75 48 76 47 77 66 78 67 79
REMARK SMILES IDX 71 80 68 81 70 82 69 83 56 84 57 85 61 86 58 87 60 88 59 89
REMARK H PARENT 27 6 18 32 18 33 32 38 76 57 54 68
REMARK Flexibility Score: inf
ROOT
ATOM      1  C   UNL A   1      31.998  29.321  26.972  1.00  0.00     0.023 C 
ENDROOT
BRANCH   1   2
ATOM      2  C   UNL A   1      32.173  27.858  27.387  1.00  0.00     0.116 C 
BRANCH   2   3
ATOM      3  N   UNL A   1      30.977  27.082  27.135  1.00  0.00    -0.352 N 
ATOM      4  C   UNL A   1      30.753  25.864  26.541  1.00  0.00     0.255 C 
ATOM      5  O   UNL A   1      29.580  25.491  26.546  1.00  0.00    -0.269 OA
ATOM      6  H   UNL A   1      30.153  27.518  27.455  1.00  0.00     0.163 HD
BRANCH   4   7
ATOM      7  C   UNL A   1      31.828  25.049  25.987  1.00  0.00     0.086 A 
ATOM      8  C   UNL A   1      32.622  25.302  24.810  1.00  0.00     0.106 A 
ATOM      9  N   UNL A   1      33.429  24.256  24.521  1.00  0.00    -0.167 NA
ATOM     10  N   UNL A   1      33.037  23.307  25.397  1.00  0.00    -0.239 N 
ATOM     11  C   UNL A   1      32.352  23.861  26.450  1.00  0.00     0.129 A 
BRANCH   8  12
ATOM     12  C   UNL A   1      32.625  26.512  23.984  1.00  0.00     0.007 A 
ATOM     13  C   UNL A   1      31.460  28.183  22.665  1.00  0.00     0.119 A 
ATOM     14  C   UNL A   1      32.654  28.891  22.510  1.00  0.00     0.046 A 
ATOM     15  C   UNL A   1      31.446  26.984  23.388  1.00  0.00     0.056 A 
ATOM     16  C   UNL A   1      33.831  28.421  23.086  1.00  0.00     0.005 A 
ATOM     17  C   UNL A   1      33.818  27.231  23.813  1.00  0.00     0.011 A 
BRANCH  13  18
ATOM     18  O   UNL A   1      30.378  28.718  22.020  1.00  0.00    -0.497 OA
ATOM     19  C   UNL A   1      29.182  28.764  22.791  1.00  0.00     0.278 C 
ENDBRANCH  13  18
ENDBRANCH   8  12
BRANCH  10  20
ATOM     20  C   UNL A   1      33.441  21.951  25.323  1.00  0.00     0.081 A 
ATOM     21  C   UNL A   1      32.442  20.960  25.337  1.00  0.00     0.079 A 
ATOM     22  C   UNL A   1      34.814  21.605  25.134  1.00  0.00     0.069 A 
ATOM     23  C   UNL A   1      32.834  19.663  25.073  1.00  0.00     0.167 A 
ATOM     24  C   UNL A   1      35.142  20.287  24.778  1.00  0.00     0.066 A 
ATOM     25  C   UNL A   1      34.139  19.347  24.774  1.00  0.00     0.166 A 
ATOM     26  O   UNL A   1      32.032  18.563  25.050  1.00  0.00    -0.454 OA
ATOM     27  O   UNL A   1      34.316  18.021  24.530  1.00  0.00    -0.454 OA
ATOM     28  C   UNL A   1      33.016  17.517  24.893  1.00  0.00     0.468 C 
BRANCH  22  29
ATOM     29  C   UNL A   1      35.937  22.542  25.488  1.00  0.00     0.251 C 
ATOM     30  N   UNL A   1      35.912  23.138  26.720  1.00  0.00    -0.366 N 
ATOM     31  O   UNL A   1      36.834  22.860  24.721  1.00  0.00    -0.269 OA
ATOM     32  H   UNL A   1      35.204  22.906  27.364  1.00  0.00     0.159 HD
ATOM     33  H   UNL A   1      36.601  23.797  26.961  1.00  0.00     0.159 HD
ENDBRANCH  22  29
ENDBRANCH  10  20
ENDBRANCH   4   7
ENDBRANCH   2   3
ENDBRANCH   1   2
BRANCH   1  34
ATOM     34  C   UNL A   1      33.235  29.956  26.320  1.00  0.00     0.023 C 
BRANCH  34  35
ATOM     35  C   UNL A   1      34.421  30.160  27.257  1.00  0.00     0.116 C 
BRANCH  35  36
ATOM     36  N   UNL A   1      34.592  31.552  27.674  1.00  0.00    -0.352 N 
ATOM     37  C   UNL A   1      35.338  32.039  28.735  1.00  0.00     0.251 C 
ATOM     38  H   UNL A   1      34.117  32.226  27.135  1.00  0.00     0.163 HD
ATOM     39  O   UNL A   1      35.112  33.130  29.226  1.00  0.00    -0.269 OA
BRANCH  37  40
ATOM     40  C   UNL A   1      36.441  31.206  29.243  1.00  0.00     0.039 A 
ATOM     41  C   UNL A   1      36.213  29.973  29.856  1.00  0.00     0.014 A 
ATOM     42  C   UNL A   1      37.735  31.681  29.045  1.00  0.00     0.014 A 
ATOM     43  C   UNL A   1      37.310  29.182  30.189  1.00  0.00     0.010 A 
ATOM     44  C   UNL A   1      38.801  30.840  29.224  1.00  0.00     0.010 A 
ATOM     45  C   UNL A   1      38.603  29.614  29.846  1.00  0.00    -0.014 A 
BRANCH  45  46
ATOM     46  C   UNL A   1      39.756  28.740  30.017  1.00  0.00     0.031 A 
ATOM     47  C   UNL A   1      40.213  28.616  31.425  1.00  0.00     0.074 A 
ATOM     48  C   UNL A   1      40.228  27.933  29.042  1.00  0.00     0.049 A 
ATOM     49  N   UNL A   1      41.264  29.144  31.956  1.00  0.00    -0.248 NA
ATOM     50  C   UNL A   1      39.320  27.960  32.397  1.00  0.00     0.031 C 
ATOM     51  C   UNL A   1      39.639  27.688  27.716  1.00  0.00     0.029 A 
ATOM     52  N   UNL A   1      41.277  27.064  29.064  1.00  0.00    -0.354 N 
ATOM     53  C   UNL A   1      41.299  28.676  33.266  1.00  0.00     0.074 A 
ATOM     54  C   UNL A   1      39.988  28.146  33.539  1.00  0.00     0.031 C 
ATOM     55  C   UNL A   1      40.182  26.575  27.175  1.00  0.00     0.029 A 
ATOM     56  C   UNL A   1      41.287  26.154  28.013  1.00  0.00     0.049 A 
ATOM     57  H   UNL A   1      41.968  27.080  29.764  1.00  0.00     0.167 HD
ATOM     58  C   UNL A   1      42.492  28.461  33.889  1.00  0.00     0.031 A 
ATOM     59  C   UNL A   1      42.149  25.124  27.839  1.00  0.00     0.031 A 
ATOM     60  C   UNL A   1      43.577  29.013  33.118  1.00  0.00     0.049 A 
ATOM     61  C   UNL A   1      43.363  25.430  28.620  1.00  0.00     0.074 A 
ATOM     62  C   UNL A   1      44.089  30.259  32.837  1.00  0.00     0.029 A 
ATOM     63  N   UNL A   1      44.043  28.149  32.160  1.00  0.00    -0.354 N 
ATOM     64  N   UNL A   1      44.149  26.433  28.348  1.00  0.00    -0.248 NA
ATOM     65  C   UNL A   1      43.536  24.839  29.940  1.00  0.00     0.031 C 
ATOM     66  C   UNL A   1      44.718  30.144  31.559  1.00  0.00     0.029 A 
ATOM     67  C   UNL A   1      44.623  28.824  31.122  1.00  0.00     0.049 A 
ATOM     68  H   UNL A   1      43.968  27.170  32.213  1.00  0.00     0.167 HD
ATOM     69  C   UNL A   1      44.577  26.873  29.585  1.00  0.00     0.074 A 
ATOM     70  C   UNL A   1      44.329  25.759  30.493  1.00  0.00     0.031 C 
ATOM     71  C   UNL A   1      44.783  28.200  29.825  1.00  0.00     0.031 A 
BRANCH  58  72
ATOM     72  C   UNL A   1      42.760  27.317  34.848  1.00  0.00    -0.014 A 
ATOM     73  C   UNL A   1      43.034  26.045  34.305  1.00  0.00     0.009 A 
ATOM     74  C   UNL A   1      42.454  27.357  36.221  1.00  0.00     0.009 A 
ATOM     75  C   UNL A   1      42.938  24.880  35.077  1.00  0.00     0.001 A 
ATOM     76  C   UNL A   1      42.389  26.197  37.002  1.00  0.00     0.001 A 
ATOM     77  C   UNL A   1      42.606  24.956  36.425  1.00  0.00     0.000 A 
ENDBRANCH  58  72
BRANCH  59  78
ATOM     78  C   UNL A   1      41.921  23.797  27.232  1.00  0.00    -0.014 A 
ATOM     79  C   UNL A   1      42.977  23.092  26.631  1.00  0.00     0.009 A 
ATOM     80  C   UNL A   1      40.738  23.093  27.515  1.00  0.00     0.009 A 
ATOM     81  C   UNL A   1      42.872  21.717  26.380  1.00  0.00     0.001 A 
ATOM     82  C   UNL A   1      40.633  21.720  27.264  1.00  0.00     0.001 A 
ATOM     83  C   UNL A   1      41.709  21.029  26.715  1.00  0.00     0.000 A 
ENDBRANCH  59  78
BRANCH  71  84
ATOM     84  C   UNL A   1      45.023  29.095  28.643  1.00  0.00    -0.014 A 
ATOM     85  C   UNL A   1      44.018  29.833  27.996  1.00  0.00     0.009 A 
ATOM     86  C   UNL A   1      46.350  29.257  28.219  1.00  0.00     0.009 A 
ATOM     87  C   UNL A   1      44.337  30.693  26.940  1.00  0.00     0.001 A 
ATOM     88  C   UNL A   1      46.671  30.130  27.180  1.00  0.00     0.001 A 
ATOM     89  C   UNL A   1      45.664  30.844  26.536  1.00  0.00     0.000 A 
ENDBRANCH  71  84
ENDBRANCH  45  46
ENDBRANCH  37  40
ENDBRANCH  35  36
ENDBRANCH  34  35
ENDBRANCH   1  34
TORSDOF 15
ENDMDL
