MODEL 1
REMARK VINA RESULT:     -12.7      0.000      0.000
REMARK SMILES C[C@H](C(=O)Nc1ccc(C(F)(F)F)cc1)n1nc(C(=O)NCCCCNC(=O)c2ccc(-c3c4nc(c(-c5ccccc5)c5ccc([nH]5)c(-c5ccccc5)c5nc(c(-c6ccccc6)c6ccc3[nH]6)C=C5)C=C4)cc2)c2ccccc2c1=O
REMARK SMILES IDX 22 1 21 2 19 3 20 4 18 6 16 7 17 8 83 9 82 10 84 11 77 12
REMARK SMILES IDX 81 13 78 14 80 15 79 16 2 17 1 18 3 19 4 20 5 21 6 23 7 24
REMARK SMILES IDX 15 25 8 26 14 27 9 28 10 29 11 30 12 31 13 32 23 33 24 34
REMARK SMILES IDX 25 35 26 36 27 37 28 39 29 40 30 41 76 42 31 43 75 44 32 45
REMARK SMILES IDX 33 46 34 47 69 48 35 49 74 50 68 51 70 52 36 53 73 54 67 55
REMARK SMILES IDX 66 56 37 58 59 59 44 60 58 61 45 62 48 63 57 64 71 65 46 66
REMARK SMILES IDX 47 67 56 69 72 70 49 71 38 72 39 73 43 74 40 75 42 76 41 77
REMARK SMILES IDX 60 78 61 79 65 80 62 81 64 82 63 83 50 84 51 85 55 86 52 87
REMARK SMILES IDX 54 88 53 89
REMARK H PARENT 21 5 5 22 26 38 70 57 48 68
REMARK Flexibility Score: inf
ROOT
ATOM      1  C   UNL A   1      33.685  28.089  23.307  1.00  0.00     0.116 C 
ENDROOT
BRANCH   1   2
ATOM      2  N   UNL A   1      33.273  27.570  22.011  1.00  0.00    -0.351 N 
ATOM      3  C   UNL A   1      33.225  26.249  21.603  1.00  0.00     0.272 C 
ATOM      4  O   UNL A   1      33.048  25.949  20.430  1.00  0.00    -0.267 OA
ATOM      5  H   UNL A   1      32.996  28.240  21.345  1.00  0.00     0.163 HD
BRANCH   3   6
ATOM      6  C   UNL A   1      33.233  25.168  22.685  1.00  0.00     0.156 A 
ATOM      7  N   UNL A   1      34.654  24.057  24.165  1.00  0.00    -0.216 N 
ATOM      8  N   UNL A   1      34.311  24.419  22.815  1.00  0.00    -0.163 NA
ATOM      9  C   UNL A   1      34.016  24.881  25.065  1.00  0.00     0.275 A 
ATOM     10  C   UNL A   1      32.582  24.890  24.988  1.00  0.00     0.051 A 
ATOM     11  O   UNL A   1      34.493  25.911  25.506  1.00  0.00    -0.267 OA
ATOM     12  C   UNL A   1      32.152  25.221  23.715  1.00  0.00     0.020 A 
ATOM     13  C   UNL A   1      31.783  24.974  26.124  1.00  0.00     0.014 A 
ATOM     14  C   UNL A   1      30.842  25.659  23.557  1.00  0.00     0.011 A 
ATOM     15  C   UNL A   1      30.468  25.385  25.960  1.00  0.00     0.001 A 
ATOM     16  C   UNL A   1      30.004  25.736  24.684  1.00  0.00     0.001 A 
BRANCH   7  17
ATOM     17  C   UNL A   1      36.115  23.807  24.378  1.00  0.00     0.197 C 
ATOM     18  C   UNL A   1      36.586  22.885  23.231  1.00  0.00     0.044 C 
BRANCH  17  19
ATOM     19  C   UNL A   1      36.538  23.094  25.716  1.00  0.00     0.249 C 
ATOM     20  O   UNL A   1      37.501  23.513  26.376  1.00  0.00    -0.272 OA
ATOM     21  N   UNL A   1      35.895  21.986  26.246  1.00  0.00    -0.324 N 
ATOM     22  H   UNL A   1      35.901  21.915  27.228  1.00  0.00     0.170 HD
BRANCH  21  23
ATOM     23  C   UNL A   1      35.236  20.949  25.559  1.00  0.00     0.041 A 
ATOM     24  C   UNL A   1      35.936  19.885  25.001  1.00  0.00     0.027 A 
ATOM     25  C   UNL A   1      33.839  20.991  25.442  1.00  0.00     0.027 A 
ATOM     26  C   UNL A   1      35.236  18.759  24.545  1.00  0.00     0.015 A 
ATOM     27  C   UNL A   1      33.138  19.832  25.059  1.00  0.00     0.015 A 
ATOM     28  C   UNL A   1      33.840  18.678  24.683  1.00  0.00     0.056 A 
BRANCH  28  29
ATOM     29  C   UNL A   1      33.135  17.342  24.616  1.00  0.00     0.416 C 
ATOM     30  F   UNL A   1      31.778  17.437  24.626  1.00  0.00    -0.166 F 
ATOM     31  F   UNL A   1      33.452  16.623  23.499  1.00  0.00    -0.166 F 
ATOM     32  F   UNL A   1      33.459  16.532  25.666  1.00  0.00    -0.166 F 
ENDBRANCH  28  29
ENDBRANCH  21  23
ENDBRANCH  17  19
ENDBRANCH   7  17
ENDBRANCH   3   6
ENDBRANCH   1   2
BRANCH   1  33
ATOM     33  C   UNL A   1      32.583  28.983  23.890  1.00  0.00     0.023 C 
BRANCH  33  34
ATOM     34  C   UNL A   1      32.439  28.801  25.400  1.00  0.00     0.023 C 
BRANCH  34  35
ATOM     35  C   UNL A   1      33.710  29.151  26.165  1.00  0.00     0.116 C 
BRANCH  35  36
ATOM     36  N   UNL A   1      33.630  30.447  26.826  1.00  0.00    -0.352 N 
ATOM     37  C   UNL A   1      34.481  30.993  27.768  1.00  0.00     0.251 C 
ATOM     38  H   UNL A   1      32.866  31.009  26.565  1.00  0.00     0.163 HD
ATOM     39  O   UNL A   1      34.219  32.037  28.320  1.00  0.00    -0.269 OA
BRANCH  37  40
ATOM     40  C   UNL A   1      35.709  30.243  28.115  1.00  0.00     0.039 A 
ATOM     41  C   UNL A   1      36.785  30.267  27.227  1.00  0.00     0.014 A 
ATOM     42  C   UNL A   1      35.816  29.597  29.348  1.00  0.00     0.014 A 
ATOM     43  C   UNL A   1      38.005  29.709  27.616  1.00  0.00     0.010 A 
ATOM     44  C   UNL A   1      37.053  29.122  29.766  1.00  0.00     0.010 A 
ATOM     45  C   UNL A   1      38.161  29.175  28.906  1.00  0.00    -0.014 A 
BRANCH  45  46
ATOM     46  C   UNL A   1      39.474  28.669  29.378  1.00  0.00     0.031 A 
ATOM     47  C   UNL A   1      40.299  29.494  30.329  1.00  0.00     0.074 A 
ATOM     48  C   UNL A   1      39.957  27.504  28.902  1.00  0.00     0.049 A 
ATOM     49  N   UNL A   1      41.496  29.256  30.803  1.00  0.00    -0.248 NA
ATOM     50  C   UNL A   1      39.715  30.767  30.781  1.00  0.00     0.031 C 
ATOM     51  C   UNL A   1      39.280  26.632  27.938  1.00  0.00     0.029 A 
ATOM     52  N   UNL A   1      41.138  26.854  29.161  1.00  0.00    -0.354 N 
ATOM     53  C   UNL A   1      41.811  30.355  31.591  1.00  0.00     0.074 A 
ATOM     54  C   UNL A   1      40.709  31.285  31.486  1.00  0.00     0.031 C 
ATOM     55  C   UNL A   1      40.041  25.548  27.715  1.00  0.00     0.029 A 
ATOM     56  C   UNL A   1      41.275  25.666  28.484  1.00  0.00     0.049 A 
ATOM     57  H   UNL A   1      41.822  27.206  29.775  1.00  0.00     0.167 HD
ATOM     58  C   UNL A   1      42.909  30.564  32.356  1.00  0.00     0.031 A 
ATOM     59  C   UNL A   1      42.284  24.774  28.481  1.00  0.00     0.031 A 
ATOM     60  C   UNL A   1      43.997  29.632  32.477  1.00  0.00     0.049 A 
ATOM     61  C   UNL A   1      43.495  25.032  29.333  1.00  0.00     0.074 A 
ATOM     62  C   UNL A   1      45.126  29.725  33.273  1.00  0.00     0.029 A 
ATOM     63  N   UNL A   1      44.090  28.436  31.786  1.00  0.00    -0.354 N 
ATOM     64  N   UNL A   1      43.745  26.044  30.129  1.00  0.00    -0.248 NA
ATOM     65  C   UNL A   1      44.558  24.018  29.296  1.00  0.00     0.031 C 
ATOM     66  C   UNL A   1      45.926  28.606  33.025  1.00  0.00     0.029 A 
ATOM     67  C   UNL A   1      45.269  27.791  32.118  1.00  0.00     0.049 A 
ATOM     68  H   UNL A   1      43.419  28.094  31.151  1.00  0.00     0.167 HD
ATOM     69  C   UNL A   1      44.979  25.774  30.707  1.00  0.00     0.074 A 
ATOM     70  C   UNL A   1      45.417  24.497  30.185  1.00  0.00     0.031 C 
ATOM     71  C   UNL A   1      45.688  26.518  31.592  1.00  0.00     0.031 A 
BRANCH  58  72
ATOM     72  C   UNL A   1      42.981  31.853  33.125  1.00  0.00    -0.014 A 
ATOM     73  C   UNL A   1      42.469  31.951  34.429  1.00  0.00     0.009 A 
ATOM     74  C   UNL A   1      43.599  32.975  32.552  1.00  0.00     0.009 A 
ATOM     75  C   UNL A   1      42.541  33.157  35.128  1.00  0.00     0.001 A 
ATOM     76  C   UNL A   1      43.697  34.171  33.266  1.00  0.00     0.001 A 
ATOM     77  C   UNL A   1      43.160  34.264  34.549  1.00  0.00     0.000 A 
ENDBRANCH  58  72
BRANCH  59  78
ATOM     78  C   UNL A   1      42.192  23.541  27.655  1.00  0.00    -0.014 A 
ATOM     79  C   UNL A   1      41.629  22.369  28.186  1.00  0.00     0.009 A 
ATOM     80  C   UNL A   1      42.689  23.519  26.342  1.00  0.00     0.009 A 
ATOM     81  C   UNL A   1      41.593  21.194  27.430  1.00  0.00     0.001 A 
ATOM     82  C   UNL A   1      42.624  22.351  25.579  1.00  0.00     0.001 A 
ATOM     83  C   UNL A   1      42.087  21.187  26.126  1.00  0.00     0.000 A 
ENDBRANCH  59  78
BRANCH  71  84
ATOM     84  C   UNL A   1      46.991  25.951  32.078  1.00  0.00    -0.014 A 
ATOM     85  C   UNL A   1      48.187  26.169  31.377  1.00  0.00     0.009 A 
ATOM     86  C   UNL A   1      47.026  25.227  33.280  1.00  0.00     0.009 A 
ATOM     87  C   UNL A   1      49.389  25.643  31.855  1.00  0.00     0.001 A 
ATOM     88  C   UNL A   1      48.234  24.727  33.769  1.00  0.00     0.001 A 
ATOM     89  C   UNL A   1      49.412  24.928  33.052  1.00  0.00     0.000 A 
ENDBRANCH  71  84
ENDBRANCH  45  46
ENDBRANCH  37  40
ENDBRANCH  35  36
ENDBRANCH  34  35
ENDBRANCH  33  34
ENDBRANCH   1  33
TORSDOF 15
ENDMDL
MODEL 2
REMARK VINA RESULT:     -12.4      3.514      4.945
REMARK SMILES C[C@H](C(=O)Nc1ccc(C(F)(F)F)cc1)n1nc(C(=O)NCCCCNC(=O)c2ccc(-c3c4nc(c(-c5ccccc5)c5ccc([nH]5)c(-c5ccccc5)c5nc(c(-c6ccccc6)c6ccc3[nH]6)C=C5)C=C4)cc2)c2ccccc2c1=O
REMARK SMILES IDX 22 1 21 2 19 3 20 4 18 6 16 7 17 8 83 9 82 10 84 11 77 12
REMARK SMILES IDX 81 13 78 14 80 15 79 16 2 17 1 18 3 19 4 20 5 21 6 23 7 24
REMARK SMILES IDX 15 25 8 26 14 27 9 28 10 29 11 30 12 31 13 32 23 33 24 34
REMARK SMILES IDX 25 35 26 36 27 37 28 39 29 40 30 41 76 42 31 43 75 44 32 45
REMARK SMILES IDX 33 46 34 47 69 48 35 49 74 50 68 51 70 52 36 53 73 54 67 55
REMARK SMILES IDX 66 56 37 58 59 59 44 60 58 61 45 62 48 63 57 64 71 65 46 66
REMARK SMILES IDX 47 67 56 69 72 70 49 71 38 72 39 73 43 74 40 75 42 76 41 77
REMARK SMILES IDX 60 78 61 79 65 80 62 81 64 82 63 83 50 84 51 85 55 86 52 87
REMARK SMILES IDX 54 88 53 89
REMARK H PARENT 21 5 5 22 26 38 70 57 48 68
REMARK Flexibility Score: inf
ROOT
ATOM      1  C   UNL A   1      34.000  29.031  27.062  1.00  0.00     0.116 C 
ENDROOT
BRANCH   1   2
ATOM      2  N   UNL A   1      32.892  28.660  27.929  1.00  0.00    -0.351 N 
ATOM      3  C   UNL A   1      31.715  28.023  27.576  1.00  0.00     0.272 C 
ATOM      4  O   UNL A   1      30.776  27.937  28.355  1.00  0.00    -0.267 OA
ATOM      5  H   UNL A   1      32.991  28.889  28.881  1.00  0.00     0.163 HD
BRANCH   3   6
ATOM      6  C   UNL A   1      31.680  27.282  26.239  1.00  0.00     0.156 A 
ATOM      7  N   UNL A   1      31.187  25.204  25.297  1.00  0.00    -0.216 N 
ATOM      8  N   UNL A   1      31.951  25.990  26.229  1.00  0.00    -0.163 NA
ATOM      9  C   UNL A   1      30.067  25.893  24.886  1.00  0.00     0.275 A 
ATOM     10  C   UNL A   1      30.315  27.159  24.257  1.00  0.00     0.051 A 
ATOM     11  O   UNL A   1      28.980  25.816  25.430  1.00  0.00    -0.267 OA
ATOM     12  C   UNL A   1      31.058  27.989  25.079  1.00  0.00     0.020 A 
ATOM     13  C   UNL A   1      29.556  27.609  23.181  1.00  0.00     0.014 A 
ATOM     14  C   UNL A   1      31.053  29.353  24.812  1.00  0.00     0.011 A 
ATOM     15  C   UNL A   1      29.574  28.968  22.900  1.00  0.00     0.001 A 
ATOM     16  C   UNL A   1      30.310  29.836  23.720  1.00  0.00     0.001 A 
BRANCH   7  17
ATOM     17  C   UNL A   1      31.003  23.776  25.710  1.00  0.00     0.197 C 
ATOM     18  C   UNL A   1      31.664  23.621  27.097  1.00  0.00     0.044 C 
BRANCH  17  19
ATOM     19  C   UNL A   1      31.644  22.671  24.791  1.00  0.00     0.249 C 
ATOM     20  O   UNL A   1      31.741  21.501  25.187  1.00  0.00    -0.272 OA
ATOM     21  N   UNL A   1      32.133  22.906  23.514  1.00  0.00    -0.324 N 
ATOM     22  H   UNL A   1      32.063  22.153  22.883  1.00  0.00     0.170 HD
BRANCH  21  23
ATOM     23  C   UNL A   1      32.716  24.082  23.006  1.00  0.00     0.041 A 
ATOM     24  C   UNL A   1      32.133  24.793  21.963  1.00  0.00     0.027 A 
ATOM     25  C   UNL A   1      33.912  24.549  23.572  1.00  0.00     0.027 A 
ATOM     26  C   UNL A   1      32.604  26.076  21.650  1.00  0.00     0.015 A 
ATOM     27  C   UNL A   1      34.335  25.866  23.316  1.00  0.00     0.015 A 
ATOM     28  C   UNL A   1      33.629  26.667  22.407  1.00  0.00     0.056 A 
BRANCH  28  29
ATOM     29  C   UNL A   1      33.841  28.164  22.382  1.00  0.00     0.416 C 
ATOM     30  F   UNL A   1      34.884  28.557  21.602  1.00  0.00    -0.166 F 
ATOM     31  F   UNL A   1      32.753  28.853  21.930  1.00  0.00    -0.166 F 
ATOM     32  F   UNL A   1      34.093  28.672  23.624  1.00  0.00    -0.166 F 
ENDBRANCH  28  29
ENDBRANCH  21  23
ENDBRANCH  17  19
ENDBRANCH   7  17
ENDBRANCH   3   6
ENDBRANCH   1   2
BRANCH   1  33
ATOM     33  C   UNL A   1      34.450  30.466  27.369  1.00  0.00     0.023 C 
BRANCH  33  34
ATOM     34  C   UNL A   1      33.272  31.367  27.733  1.00  0.00     0.023 C 
BRANCH  34  35
ATOM     35  C   UNL A   1      33.327  32.726  27.043  1.00  0.00     0.116 C 
BRANCH  35  36
ATOM     36  N   UNL A   1      32.740  33.789  27.848  1.00  0.00    -0.352 N 
ATOM     37  C   UNL A   1      33.215  34.354  29.017  1.00  0.00     0.251 C 
ATOM     38  H   UNL A   1      31.891  34.155  27.514  1.00  0.00     0.163 HD
ATOM     39  O   UNL A   1      32.554  35.151  29.642  1.00  0.00    -0.269 OA
BRANCH  37  40
ATOM     40  C   UNL A   1      34.544  33.926  29.507  1.00  0.00     0.039 A 
ATOM     41  C   UNL A   1      34.613  33.097  30.629  1.00  0.00     0.014 A 
ATOM     42  C   UNL A   1      35.700  34.276  28.807  1.00  0.00     0.014 A 
ATOM     43  C   UNL A   1      35.844  32.549  30.999  1.00  0.00     0.010 A 
ATOM     44  C   UNL A   1      36.905  33.661  29.125  1.00  0.00     0.010 A 
ATOM     45  C   UNL A   1      36.989  32.789  30.222  1.00  0.00    -0.014 A 
BRANCH  45  46
ATOM     46  C   UNL A   1      38.285  32.137  30.537  1.00  0.00     0.031 A 
ATOM     47  C   UNL A   1      39.259  32.812  31.465  1.00  0.00     0.074 A 
ATOM     48  C   UNL A   1      38.617  30.976  29.938  1.00  0.00     0.049 A 
ATOM     49  N   UNL A   1      40.464  32.437  31.811  1.00  0.00    -0.248 NA
ATOM     50  C   UNL A   1      38.834  34.091  32.056  1.00  0.00     0.031 C 
ATOM     51  C   UNL A   1      37.785  30.243  28.981  1.00  0.00     0.029 A 
ATOM     52  N   UNL A   1      39.752  30.210  30.043  1.00  0.00    -0.354 N 
ATOM     53  C   UNL A   1      40.944  33.440  32.643  1.00  0.00     0.074 A 
ATOM     54  C   UNL A   1      39.926  34.466  32.704  1.00  0.00     0.031 C 
ATOM     55  C   UNL A   1      38.422  29.119  28.614  1.00  0.00     0.029 A 
ATOM     56  C   UNL A   1      39.722  29.071  29.275  1.00  0.00     0.049 A 
ATOM     57  H   UNL A   1      40.514  30.453  30.616  1.00  0.00     0.167 HD
ATOM     58  C   UNL A   1      42.116  33.494  33.318  1.00  0.00     0.031 A 
ATOM     59  C   UNL A   1      40.641  28.098  29.118  1.00  0.00     0.031 A 
ATOM     60  C   UNL A   1      43.121  32.466  33.275  1.00  0.00     0.049 A 
ATOM     61  C   UNL A   1      41.937  28.185  29.874  1.00  0.00     0.074 A 
ATOM     62  C   UNL A   1      44.316  32.401  33.970  1.00  0.00     0.029 A 
ATOM     63  N   UNL A   1      43.045  31.324  32.496  1.00  0.00    -0.354 N 
ATOM     64  N   UNL A   1      42.345  29.107  30.713  1.00  0.00    -0.248 NA
ATOM     65  C   UNL A   1      42.896  27.090  29.670  1.00  0.00     0.031 C 
ATOM     66  C   UNL A   1      44.986  31.240  33.573  1.00  0.00     0.029 A 
ATOM     67  C   UNL A   1      44.183  30.557  32.674  1.00  0.00     0.049 A 
ATOM     68  H   UNL A   1      42.295  31.092  31.902  1.00  0.00     0.167 HD
ATOM     69  C   UNL A   1      43.593  28.689  31.157  1.00  0.00     0.074 A 
ATOM     70  C   UNL A   1      43.866  27.423  30.509  1.00  0.00     0.031 C 
ATOM     71  C   UNL A   1      44.438  29.298  32.024  1.00  0.00     0.031 A 
BRANCH  58  72
ATOM     72  C   UNL A   1      42.371  34.708  34.166  1.00  0.00    -0.014 A 
ATOM     73  C   UNL A   1      42.038  34.724  35.531  1.00  0.00     0.009 A 
ATOM     74  C   UNL A   1      42.981  35.840  33.602  1.00  0.00     0.009 A 
ATOM     75  C   UNL A   1      42.278  35.862  36.303  1.00  0.00     0.001 A 
ATOM     76  C   UNL A   1      43.248  36.964  34.386  1.00  0.00     0.001 A 
ATOM     77  C   UNL A   1      42.887  36.978  35.732  1.00  0.00     0.000 A 
ENDBRANCH  58  72
BRANCH  59  78
ATOM     78  C   UNL A   1      40.367  26.946  28.220  1.00  0.00    -0.014 A 
ATOM     79  C   UNL A   1      39.623  25.846  28.678  1.00  0.00     0.009 A 
ATOM     80  C   UNL A   1      40.867  26.925  26.908  1.00  0.00     0.009 A 
ATOM     81  C   UNL A   1      39.414  24.738  27.853  1.00  0.00     0.001 A 
ATOM     82  C   UNL A   1      40.630  25.829  26.076  1.00  0.00     0.001 A 
ATOM     83  C   UNL A   1      39.914  24.732  26.552  1.00  0.00     0.000 A 
ENDBRANCH  59  78
BRANCH  71  84
ATOM     84  C   UNL A   1      45.720  28.586  32.350  1.00  0.00    -0.014 A 
ATOM     85  C   UNL A   1      46.893  28.828  31.620  1.00  0.00     0.009 A 
ATOM     86  C   UNL A   1      45.761  27.694  33.433  1.00  0.00     0.009 A 
ATOM     87  C   UNL A   1      48.077  28.163  31.948  1.00  0.00     0.001 A 
ATOM     88  C   UNL A   1      46.952  27.054  33.777  1.00  0.00     0.001 A 
ATOM     89  C   UNL A   1      48.106  27.282  33.028  1.00  0.00     0.000 A 
ENDBRANCH  71  84
ENDBRANCH  45  46
ENDBRANCH  37  40
ENDBRANCH  35  36
ENDBRANCH  34  35
ENDBRANCH  33  34
ENDBRANCH   1  33
TORSDOF 15
ENDMDL
MODEL 3
REMARK VINA RESULT:     -12.4      0.516      5.683
REMARK SMILES C[C@H](C(=O)Nc1ccc(C(F)(F)F)cc1)n1nc(C(=O)NCCCCNC(=O)c2ccc(-c3c4nc(c(-c5ccccc5)c5ccc([nH]5)c(-c5ccccc5)c5nc(c(-c6ccccc6)c6ccc3[nH]6)C=C5)C=C4)cc2)c2ccccc2c1=O
REMARK SMILES IDX 22 1 21 2 19 3 20 4 18 6 16 7 17 8 83 9 82 10 84 11 77 12
REMARK SMILES IDX 81 13 78 14 80 15 79 16 2 17 1 18 3 19 4 20 5 21 6 23 7 24
REMARK SMILES IDX 15 25 8 26 14 27 9 28 10 29 11 30 12 31 13 32 23 33 24 34
REMARK SMILES IDX 25 35 26 36 27 37 28 39 29 40 30 41 76 42 31 43 75 44 32 45
REMARK SMILES IDX 33 46 34 47 69 48 35 49 74 50 68 51 70 52 36 53 73 54 67 55
REMARK SMILES IDX 66 56 37 58 59 59 44 60 58 61 45 62 48 63 57 64 71 65 46 66
REMARK SMILES IDX 47 67 56 69 72 70 49 71 38 72 39 73 43 74 40 75 42 76 41 77
REMARK SMILES IDX 60 78 61 79 65 80 62 81 64 82 63 83 50 84 51 85 55 86 52 87
REMARK SMILES IDX 54 88 53 89
REMARK H PARENT 21 5 5 22 26 38 70 57 48 68
REMARK Flexibility Score: inf
ROOT
ATOM      1  C   UNL A   1      34.009  27.900  23.057  1.00  0.00     0.116 C 
ENDROOT
BRANCH   1   2
ATOM      2  N   UNL A   1      33.274  27.391  21.909  1.00  0.00    -0.351 N 
ATOM      3  C   UNL A   1      33.016  26.070  21.584  1.00  0.00     0.272 C 
ATOM      4  O   UNL A   1      32.556  25.759  20.494  1.00  0.00    -0.267 OA
ATOM      5  H   UNL A   1      32.918  28.067  21.288  1.00  0.00     0.163 HD
BRANCH   3   6
ATOM      6  C   UNL A   1      33.167  25.024  22.688  1.00  0.00     0.156 A 
ATOM      7  N   UNL A   1      34.759  24.018  24.067  1.00  0.00    -0.216 N 
ATOM      8  N   UNL A   1      34.285  24.326  22.743  1.00  0.00    -0.163 NA
ATOM      9  C   UNL A   1      34.163  24.839  24.998  1.00  0.00     0.275 A 
ATOM     10  C   UNL A   1      32.729  24.784  25.045  1.00  0.00     0.051 A 
ATOM     11  O   UNL A   1      34.629  25.902  25.369  1.00  0.00    -0.267 OA
ATOM     12  C   UNL A   1      32.176  25.060  23.807  1.00  0.00     0.020 A 
ATOM     13  C   UNL A   1      32.027  24.867  26.244  1.00  0.00     0.014 A 
ATOM     14  C   UNL A   1      30.839  25.435  23.752  1.00  0.00     0.011 A 
ATOM     15  C   UNL A   1      30.686  25.215  26.185  1.00  0.00     0.001 A 
ATOM     16  C   UNL A   1      30.098  25.509  24.945  1.00  0.00     0.001 A 
BRANCH   7  17
ATOM     17  C   UNL A   1      36.243  23.838  24.158  1.00  0.00     0.197 C 
ATOM     18  C   UNL A   1      36.635  22.790  23.094  1.00  0.00     0.044 C 
BRANCH  17  19
ATOM     19  C   UNL A   1      36.823  23.316  25.525  1.00  0.00     0.249 C 
ATOM     20  O   UNL A   1      37.912  23.732  25.947  1.00  0.00    -0.272 OA
ATOM     21  N   UNL A   1      36.191  22.386  26.336  1.00  0.00    -0.324 N 
ATOM     22  H   UNL A   1      36.354  22.478  27.303  1.00  0.00     0.170 HD
BRANCH  21  23
ATOM     23  C   UNL A   1      35.347  21.326  25.953  1.00  0.00     0.041 A 
ATOM     24  C   UNL A   1      33.985  21.341  26.234  1.00  0.00     0.027 A 
ATOM     25  C   UNL A   1      35.896  20.232  25.268  1.00  0.00     0.027 A 
ATOM     26  C   UNL A   1      33.143  20.397  25.630  1.00  0.00     0.015 A 
ATOM     27  C   UNL A   1      35.045  19.334  24.598  1.00  0.00     0.015 A 
ATOM     28  C   UNL A   1      33.654  19.463  24.713  1.00  0.00     0.056 A 
BRANCH  28  29
ATOM     29  C   UNL A   1      32.736  18.754  23.742  1.00  0.00     0.416 C 
ATOM     30  F   UNL A   1      31.778  18.001  24.346  1.00  0.00    -0.166 F 
ATOM     31  F   UNL A   1      32.073  19.608  22.909  1.00  0.00    -0.166 F 
ATOM     32  F   UNL A   1      33.413  17.904  22.917  1.00  0.00    -0.166 F 
ENDBRANCH  28  29
ENDBRANCH  21  23
ENDBRANCH  17  19
ENDBRANCH   7  17
ENDBRANCH   3   6
ENDBRANCH   1   2
BRANCH   1  33
ATOM     33  C   UNL A   1      33.243  29.065  23.697  1.00  0.00     0.023 C 
BRANCH  33  34
ATOM     34  C   UNL A   1      32.773  28.731  25.112  1.00  0.00     0.023 C 
BRANCH  34  35
ATOM     35  C   UNL A   1      33.839  28.990  26.170  1.00  0.00     0.116 C 
BRANCH  35  36
ATOM     36  N   UNL A   1      33.706  30.300  26.793  1.00  0.00    -0.352 N 
ATOM     37  C   UNL A   1      34.535  30.908  27.718  1.00  0.00     0.251 C 
ATOM     38  H   UNL A   1      32.920  30.823  26.518  1.00  0.00     0.163 HD
ATOM     39  O   UNL A   1      34.231  31.956  28.240  1.00  0.00    -0.269 OA
BRANCH  37  40
ATOM     40  C   UNL A   1      35.793  30.219  28.083  1.00  0.00     0.039 A 
ATOM     41  C   UNL A   1      36.856  30.234  27.179  1.00  0.00     0.014 A 
ATOM     42  C   UNL A   1      35.939  29.641  29.346  1.00  0.00     0.014 A 
ATOM     43  C   UNL A   1      38.100  29.740  27.578  1.00  0.00     0.010 A 
ATOM     44  C   UNL A   1      37.197  29.231  29.769  1.00  0.00     0.010 A 
ATOM     45  C   UNL A   1      38.292  29.278  28.890  1.00  0.00    -0.014 A 
BRANCH  45  46
ATOM     46  C   UNL A   1      39.628  28.842  29.367  1.00  0.00     0.031 A 
ATOM     47  C   UNL A   1      40.194  27.524  28.912  1.00  0.00     0.074 A 
ATOM     48  C   UNL A   1      40.302  29.594  30.260  1.00  0.00     0.049 A 
ATOM     49  N   UNL A   1      41.311  26.939  29.266  1.00  0.00    -0.248 NA
ATOM     50  C   UNL A   1      39.385  26.748  27.959  1.00  0.00     0.031 C 
ATOM     51  C   UNL A   1      39.844  30.868  30.819  1.00  0.00     0.029 A 
ATOM     52  N   UNL A   1      41.520  29.390  30.860  1.00  0.00    -0.354 N 
ATOM     53  C   UNL A   1      41.326  25.724  28.594  1.00  0.00     0.074 A 
ATOM     54  C   UNL A   1      40.084  25.628  27.858  1.00  0.00     0.031 C 
ATOM     55  C   UNL A   1      40.781  31.346  31.652  1.00  0.00     0.029 A 
ATOM     56  C   UNL A   1      41.887  30.397  31.721  1.00  0.00     0.049 A 
ATOM     57  H   UNL A   1      42.078  28.597  30.690  1.00  0.00     0.167 HD
ATOM     58  C   UNL A   1      42.296  24.780  28.569  1.00  0.00     0.031 A 
ATOM     59  C   UNL A   1      42.990  30.537  32.481  1.00  0.00     0.031 A 
ATOM     60  C   UNL A   1      43.540  24.882  29.283  1.00  0.00     0.049 A 
ATOM     61  C   UNL A   1      44.050  29.472  32.440  1.00  0.00     0.074 A 
ATOM     62  C   UNL A   1      44.612  24.007  29.275  1.00  0.00     0.029 A 
ATOM     63  N   UNL A   1      43.877  25.924  30.132  1.00  0.00    -0.354 N 
ATOM     64  N   UNL A   1      44.081  28.362  31.742  1.00  0.00    -0.248 NA
ATOM     65  C   UNL A   1      45.235  29.686  33.284  1.00  0.00     0.031 C 
ATOM     66  C   UNL A   1      45.579  24.496  30.158  1.00  0.00     0.029 A 
ATOM     67  C   UNL A   1      45.133  25.703  30.671  1.00  0.00     0.049 A 
ATOM     68  H   UNL A   1      43.310  26.705  30.324  1.00  0.00     0.167 HD
ATOM     69  C   UNL A   1      45.296  27.761  32.041  1.00  0.00     0.074 A 
ATOM     70  C   UNL A   1      45.981  28.637  32.969  1.00  0.00     0.031 C 
ATOM     71  C   UNL A   1      45.801  26.587  31.590  1.00  0.00     0.031 A 
BRANCH  58  72
ATOM     72  C   UNL A   1      42.049  23.555  27.734  1.00  0.00    -0.014 A 
ATOM     73  C   UNL A   1      42.482  23.486  26.400  1.00  0.00     0.009 A 
ATOM     74  C   UNL A   1      41.404  22.444  28.298  1.00  0.00     0.009 A 
ATOM     75  C   UNL A   1      42.241  22.341  25.638  1.00  0.00     0.001 A 
ATOM     76  C   UNL A   1      41.192  21.289  27.542  1.00  0.00     0.001 A 
ATOM     77  C   UNL A   1      41.601  21.242  26.210  1.00  0.00     0.000 A 
ENDBRANCH  58  72
BRANCH  59  78
ATOM     78  C   UNL A   1      43.162  31.740  33.338  1.00  0.00    -0.014 A 
ATOM     79  C   UNL A   1      43.800  32.887  32.837  1.00  0.00     0.009 A 
ATOM     80  C   UNL A   1      42.713  31.742  34.668  1.00  0.00     0.009 A 
ATOM     81  C   UNL A   1      44.012  33.997  33.658  1.00  0.00     0.001 A 
ATOM     82  C   UNL A   1      42.900  32.865  35.477  1.00  0.00     0.001 A 
ATOM     83  C   UNL A   1      43.559  33.987  34.976  1.00  0.00     0.000 A 
ENDBRANCH  59  78
BRANCH  71  84
ATOM     84  C   UNL A   1      47.174  26.202  32.062  1.00  0.00    -0.014 A 
ATOM     85  C   UNL A   1      47.356  25.415  33.209  1.00  0.00     0.009 A 
ATOM     86  C   UNL A   1      48.298  26.596  31.319  1.00  0.00     0.009 A 
ATOM     87  C   UNL A   1      48.641  25.059  33.623  1.00  0.00     0.001 A 
ATOM     88  C   UNL A   1      49.579  26.214  31.719  1.00  0.00     0.001 A 
ATOM     89  C   UNL A   1      49.750  25.454  32.876  1.00  0.00     0.000 A 
ENDBRANCH  71  84
ENDBRANCH  45  46
ENDBRANCH  37  40
ENDBRANCH  35  36
ENDBRANCH  34  35
ENDBRANCH  33  34
ENDBRANCH   1  33
TORSDOF 15
ENDMDL
