MODEL 1
REMARK VINA RESULT:     -12.8      0.000      0.000
REMARK SMILES O=C(C[C@H]1C(=O)N[NH+]=C2c3ccc(F)cc3N=CN21)NCCCCNC(=O)c1ccc(-c2c3nc(c(-c4ccccc4)c4ccc([nH]4)c(-c4ccccc4)c4nc(c(-c5ccccc5)c5ccc2[nH]5)C=C4)C=C3)cc1
REMARK SMILES IDX 23 1 22 2 21 3 20 4 1 5 2 6 3 8 4 9 5 10 19 11 6 12 7 13
REMARK SMILES IDX 9 14 18 15 8 16 10 18 17 19 11 21 16 22 12 23 15 24 13 25
REMARK SMILES IDX 14 26 24 27 25 28 26 29 27 31 28 32 29 33 75 34 30 35 74 36
REMARK SMILES IDX 31 37 32 38 33 39 68 40 34 41 73 42 67 43 69 44 35 45 72 46
REMARK SMILES IDX 66 47 65 48 36 50 58 51 43 52 57 53 44 54 47 55 56 56 70 57
REMARK SMILES IDX 45 58 46 59 55 61 71 62 48 63 37 64 38 65 42 66 39 67 41 68
REMARK SMILES IDX 40 69 59 70 60 71 64 72 61 73 63 74 62 75 49 76 50 77 54 78
REMARK SMILES IDX 51 79 53 80 52 81
REMARK H PARENT 20 7 7 17 8 20 25 30 69 49 47 60
REMARK Flexibility Score: inf
ROOT
ATOM      1  C   UNL A   1      31.495  32.078  26.630  1.00  0.00     0.023 C 
ENDROOT
BRANCH   1   2
ATOM      2  C   UNL A   1      31.778  30.618  26.264  1.00  0.00     0.023 C 
BRANCH   2   3
ATOM      3  C   UNL A   1      32.842  29.922  27.115  1.00  0.00     0.116 C 
BRANCH   3   4
ATOM      4  N   UNL A   1      33.227  28.638  26.566  1.00  0.00    -0.356 N 
ATOM      5  O   UNL A   1      31.541  27.426  27.532  1.00  0.00    -0.275 OA
ATOM      6  C   UNL A   1      32.534  27.480  26.816  1.00  0.00     0.224 C 
ATOM      7  H   UNL A   1      34.022  28.595  25.986  1.00  0.00     0.163 HD
BRANCH   6   8
ATOM      8  C   UNL A   1      33.084  26.244  26.127  1.00  0.00     0.160 C 
BRANCH   8   9
ATOM      9  C   UNL A   1      32.001  25.593  25.249  1.00  0.00     0.284 C 
ATOM     10  C   UNL A   1      31.018  24.869  26.180  1.00  0.00     0.300 C 
ATOM     11  N   UNL A   1      31.322  26.571  24.376  1.00  0.00    -0.203 N 
ATOM     12  O   UNL A   1      31.395  24.148  27.108  1.00  0.00    -0.267 OA
ATOM     13  N   UNL A   1      29.683  25.011  25.944  1.00  0.00    -0.193 N 
ATOM     14  C   UNL A   1      29.935  26.630  24.381  1.00  0.00     0.309 C 
ATOM     15  C   UNL A   1      32.056  27.331  23.488  1.00  0.00     0.317 C 
ATOM     16  N   UNL A   1      29.132  25.892  25.086  1.00  0.00    -0.169 N 
ATOM     17  H   UNL A   1      29.072  24.422  26.441  1.00  0.00     0.216 HD
ATOM     18  C   UNL A   1      29.323  27.668  23.502  1.00  0.00     0.092 A 
ATOM     19  N   UNL A   1      31.593  28.241  22.693  1.00  0.00    -0.216 NA
ATOM     20  H   UNL A   1      28.155  25.972  24.996  1.00  0.00     0.340 HD
ATOM     21  C   UNL A   1      27.941  27.895  23.496  1.00  0.00     0.022 A 
ATOM     22  C   UNL A   1      30.199  28.462  22.739  1.00  0.00     0.085 A 
ATOM     23  C   UNL A   1      27.427  28.953  22.752  1.00  0.00     0.040 A 
ATOM     24  C   UNL A   1      29.665  29.518  22.001  1.00  0.00     0.068 A 
ATOM     25  C   UNL A   1      28.293  29.761  22.023  1.00  0.00     0.125 A 
ATOM     26  F   UNL A   1      27.797  30.799  21.337  1.00  0.00    -0.207 F 
ENDBRANCH   8   9
ENDBRANCH   6   8
ENDBRANCH   3   4
ENDBRANCH   2   3
ENDBRANCH   1   2
BRANCH   1  27
ATOM     27  C   UNL A   1      32.645  32.820  27.302  1.00  0.00     0.116 C 
BRANCH  27  28
ATOM     28  N   UNL A   1      32.323  34.202  27.628  1.00  0.00    -0.352 N 
ATOM     29  C   UNL A   1      32.923  35.058  28.528  1.00  0.00     0.251 C 
ATOM     30  H   UNL A   1      31.564  34.582  27.131  1.00  0.00     0.163 HD
ATOM     31  O   UNL A   1      32.435  36.156  28.751  1.00  0.00    -0.269 OA
BRANCH  29  32
ATOM     32  C   UNL A   1      34.136  34.626  29.265  1.00  0.00     0.039 A 
ATOM     33  C   UNL A   1      35.410  34.817  28.729  1.00  0.00     0.014 A 
ATOM     34  C   UNL A   1      33.987  33.990  30.502  1.00  0.00     0.014 A 
ATOM     35  C   UNL A   1      36.507  34.204  29.327  1.00  0.00     0.010 A 
ATOM     36  C   UNL A   1      35.106  33.449  31.147  1.00  0.00     0.010 A 
ATOM     37  C   UNL A   1      36.366  33.496  30.533  1.00  0.00    -0.014 A 
BRANCH  37  38
ATOM     38  C   UNL A   1      37.543  32.791  31.111  1.00  0.00     0.031 A 
ATOM     39  C   UNL A   1      38.095  33.187  32.457  1.00  0.00     0.074 A 
ATOM     40  C   UNL A   1      38.076  31.740  30.455  1.00  0.00     0.049 A 
ATOM     41  N   UNL A   1      39.088  32.655  33.126  1.00  0.00    -0.248 NA
ATOM     42  C   UNL A   1      37.454  34.321  33.144  1.00  0.00     0.031 C 
ATOM     43  C   UNL A   1      37.624  31.242  29.155  1.00  0.00     0.029 A 
ATOM     44  N   UNL A   1      39.093  30.886  30.803  1.00  0.00    -0.354 N 
ATOM     45  C   UNL A   1      39.197  33.394  34.299  1.00  0.00     0.074 A 
ATOM     46  C   UNL A   1      38.191  34.431  34.241  1.00  0.00     0.031 C 
ATOM     47  C   UNL A   1      38.324  30.143  28.839  1.00  0.00     0.029 A 
ATOM     48  C   UNL A   1      39.317  29.894  29.880  1.00  0.00     0.049 A 
ATOM     49  H   UNL A   1      39.613  30.977  31.635  1.00  0.00     0.167 HD
ATOM     50  C   UNL A   1      40.049  33.215  35.336  1.00  0.00     0.031 A 
ATOM     51  C   UNL A   1      40.224  28.898  29.858  1.00  0.00     0.031 A 
ATOM     52  C   UNL A   1      41.041  32.176  35.406  1.00  0.00     0.049 A 
ATOM     53  C   UNL A   1      41.185  28.749  31.004  1.00  0.00     0.074 A 
ATOM     54  C   UNL A   1      41.937  31.917  36.428  1.00  0.00     0.029 A 
ATOM     55  N   UNL A   1      41.265  31.226  34.425  1.00  0.00    -0.354 N 
ATOM     56  N   UNL A   1      41.264  29.453  32.107  1.00  0.00    -0.248 NA
ATOM     57  C   UNL A   1      42.181  27.672  30.905  1.00  0.00     0.031 C 
ATOM     58  C   UNL A   1      42.741  30.842  36.043  1.00  0.00     0.029 A 
ATOM     59  C   UNL A   1      42.301  30.391  34.810  1.00  0.00     0.049 A 
ATOM     60  H   UNL A   1      40.763  31.153  33.580  1.00  0.00     0.167 HD
ATOM     61  C   UNL A   1      42.307  28.897  32.836  1.00  0.00     0.074 A 
ATOM     62  C   UNL A   1      42.815  27.784  32.064  1.00  0.00     0.031 C 
ATOM     63  C   UNL A   1      42.799  29.283  34.038  1.00  0.00     0.031 A 
BRANCH  50  64
ATOM     64  C   UNL A   1      39.960  34.160  36.504  1.00  0.00    -0.014 A 
ATOM     65  C   UNL A   1      39.119  33.852  37.586  1.00  0.00     0.009 A 
ATOM     66  C   UNL A   1      40.600  35.407  36.473  1.00  0.00     0.009 A 
ATOM     67  C   UNL A   1      38.903  34.784  38.602  1.00  0.00     0.001 A 
ATOM     68  C   UNL A   1      40.402  36.328  37.505  1.00  0.00     0.001 A 
ATOM     69  C   UNL A   1      39.546  36.020  38.562  1.00  0.00     0.000 A 
ENDBRANCH  50  64
BRANCH  51  70
ATOM     70  C   UNL A   1      40.263  27.970  28.697  1.00  0.00    -0.014 A 
ATOM     71  C   UNL A   1      39.585  26.741  28.748  1.00  0.00     0.009 A 
ATOM     72  C   UNL A   1      41.005  28.286  27.549  1.00  0.00     0.009 A 
ATOM     73  C   UNL A   1      39.670  25.837  27.688  1.00  0.00     0.001 A 
ATOM     74  C   UNL A   1      41.061  27.394  26.475  1.00  0.00     0.001 A 
ATOM     75  C   UNL A   1      40.403  26.167  26.550  1.00  0.00     0.000 A 
ENDBRANCH  51  70
BRANCH  63  76
ATOM     76  C   UNL A   1      43.943  28.499  34.616  1.00  0.00    -0.014 A 
ATOM     77  C   UNL A   1      43.683  27.416  35.471  1.00  0.00     0.009 A 
ATOM     78  C   UNL A   1      45.271  28.900  34.409  1.00  0.00     0.009 A 
ATOM     79  C   UNL A   1      44.729  26.759  36.120  1.00  0.00     0.001 A 
ATOM     80  C   UNL A   1      46.318  28.223  35.038  1.00  0.00     0.001 A 
ATOM     81  C   UNL A   1      46.046  27.160  35.900  1.00  0.00     0.000 A 
ENDBRANCH  63  76
ENDBRANCH  37  38
ENDBRANCH  29  32
ENDBRANCH  27  28
ENDBRANCH   1  27
TORSDOF 12
ENDMDL
MODEL 2
REMARK VINA RESULT:     -12.6      0.274      5.870
REMARK SMILES O=C(C[C@H]1C(=O)N[NH+]=C2c3ccc(F)cc3N=CN21)NCCCCNC(=O)c1ccc(-c2c3nc(c(-c4ccccc4)c4ccc([nH]4)c(-c4ccccc4)c4nc(c(-c5ccccc5)c5ccc2[nH]5)C=C4)C=C3)cc1
REMARK SMILES IDX 23 1 22 2 21 3 20 4 1 5 2 6 3 8 4 9 5 10 19 11 6 12 7 13
REMARK SMILES IDX 9 14 18 15 8 16 10 18 17 19 11 21 16 22 12 23 15 24 13 25
REMARK SMILES IDX 14 26 24 27 25 28 26 29 27 31 28 32 29 33 75 34 30 35 74 36
REMARK SMILES IDX 31 37 32 38 33 39 68 40 34 41 73 42 67 43 69 44 35 45 72 46
REMARK SMILES IDX 66 47 65 48 36 50 58 51 43 52 57 53 44 54 47 55 56 56 70 57
REMARK SMILES IDX 45 58 46 59 55 61 71 62 48 63 37 64 38 65 42 66 39 67 41 68
REMARK SMILES IDX 40 69 59 70 60 71 64 72 61 73 63 74 62 75 49 76 50 77 54 78
REMARK SMILES IDX 51 79 53 80 52 81
REMARK H PARENT 20 7 7 17 8 20 25 30 69 49 47 60
REMARK Flexibility Score: inf
ROOT
ATOM      1  C   UNL A   1      31.480  32.134  26.566  1.00  0.00     0.023 C 
ENDROOT
BRANCH   1   2
ATOM      2  C   UNL A   1      31.708  30.648  26.276  1.00  0.00     0.023 C 
BRANCH   2   3
ATOM      3  C   UNL A   1      32.753  29.960  27.157  1.00  0.00     0.116 C 
BRANCH   3   4
ATOM      4  N   UNL A   1      33.156  28.675  26.622  1.00  0.00    -0.356 N 
ATOM      5  O   UNL A   1      31.462  27.458  27.566  1.00  0.00    -0.275 OA
ATOM      6  C   UNL A   1      32.468  27.514  26.867  1.00  0.00     0.224 C 
ATOM      7  H   UNL A   1      33.962  28.634  26.057  1.00  0.00     0.163 HD
BRANCH   6   8
ATOM      8  C   UNL A   1      33.038  26.278  26.196  1.00  0.00     0.160 C 
BRANCH   8   9
ATOM      9  C   UNL A   1      31.988  25.635  25.273  1.00  0.00     0.284 C 
ATOM     10  C   UNL A   1      30.976  24.897  26.160  1.00  0.00     0.300 C 
ATOM     11  N   UNL A   1      31.337  26.623  24.390  1.00  0.00    -0.203 N 
ATOM     12  O   UNL A   1      31.324  24.164  27.091  1.00  0.00    -0.267 OA
ATOM     13  N   UNL A   1      29.650  25.038  25.880  1.00  0.00    -0.193 N 
ATOM     14  C   UNL A   1      29.950  26.678  24.348  1.00  0.00     0.309 C 
ATOM     15  C   UNL A   1      32.098  27.397  23.537  1.00  0.00     0.317 C 
ATOM     16  N   UNL A   1      29.126  25.928  25.015  1.00  0.00    -0.169 N 
ATOM     17  H   UNL A   1      29.024  24.441  26.348  1.00  0.00     0.216 HD
ATOM     18  C   UNL A   1      29.366  27.726  23.462  1.00  0.00     0.092 A 
ATOM     19  N   UNL A   1      31.660  28.316  22.739  1.00  0.00    -0.216 NA
ATOM     20  H   UNL A   1      28.152  26.008  24.893  1.00  0.00     0.340 HD
ATOM     21  C   UNL A   1      27.984  27.949  23.412  1.00  0.00     0.022 A 
ATOM     22  C   UNL A   1      30.265  28.532  22.740  1.00  0.00     0.085 A 
ATOM     23  C   UNL A   1      27.492  29.015  22.664  1.00  0.00     0.040 A 
ATOM     24  C   UNL A   1      29.753  29.597  21.998  1.00  0.00     0.068 A 
ATOM     25  C   UNL A   1      28.380  29.835  21.976  1.00  0.00     0.125 A 
ATOM     26  F   UNL A   1      27.905  30.881  21.287  1.00  0.00    -0.207 F 
ENDBRANCH   8   9
ENDBRANCH   6   8
ENDBRANCH   3   4
ENDBRANCH   2   3
ENDBRANCH   1   2
BRANCH   1  27
ATOM     27  C   UNL A   1      32.595  32.830  27.340  1.00  0.00     0.116 C 
BRANCH  27  28
ATOM     28  N   UNL A   1      32.294  34.219  27.654  1.00  0.00    -0.352 N 
ATOM     29  C   UNL A   1      32.907  35.074  28.546  1.00  0.00     0.251 C 
ATOM     30  H   UNL A   1      31.538  34.606  27.155  1.00  0.00     0.163 HD
ATOM     31  O   UNL A   1      32.437  36.181  28.760  1.00  0.00    -0.269 OA
BRANCH  29  32
ATOM     32  C   UNL A   1      34.115  34.631  29.284  1.00  0.00     0.039 A 
ATOM     33  C   UNL A   1      35.368  34.609  28.669  1.00  0.00     0.014 A 
ATOM     34  C   UNL A   1      33.981  34.200  30.608  1.00  0.00     0.014 A 
ATOM     35  C   UNL A   1      36.435  33.979  29.302  1.00  0.00     0.010 A 
ATOM     36  C   UNL A   1      35.079  33.645  31.275  1.00  0.00     0.010 A 
ATOM     37  C   UNL A   1      36.300  33.472  30.606  1.00  0.00    -0.014 A 
BRANCH  37  38
ATOM     38  C   UNL A   1      37.436  32.740  31.230  1.00  0.00     0.031 A 
ATOM     39  C   UNL A   1      38.061  31.554  30.540  1.00  0.00     0.074 A 
ATOM     40  C   UNL A   1      37.957  33.188  32.389  1.00  0.00     0.049 A 
ATOM     41  N   UNL A   1      39.081  30.826  30.922  1.00  0.00    -0.248 NA
ATOM     42  C   UNL A   1      37.472  31.128  29.259  1.00  0.00     0.031 C 
ATOM     43  C   UNL A   1      37.459  34.336  33.150  1.00  0.00     0.029 A 
ATOM     44  N   UNL A   1      39.036  32.750  33.119  1.00  0.00    -0.354 N 
ATOM     45  C   UNL A   1      39.247  29.855  29.941  1.00  0.00     0.074 A 
ATOM     46  C   UNL A   1      38.206  30.064  28.959  1.00  0.00     0.031 C 
ATOM     47  C   UNL A   1      38.258  34.542  34.206  1.00  0.00     0.029 A 
ATOM     48  C   UNL A   1      39.286  33.506  34.237  1.00  0.00     0.049 A 
ATOM     49  H   UNL A   1      39.577  31.967  32.863  1.00  0.00     0.167 HD
ATOM     50  C   UNL A   1      40.189  28.886  29.857  1.00  0.00     0.031 A 
ATOM     51  C   UNL A   1      40.226  33.381  35.194  1.00  0.00     0.031 A 
ATOM     52  C   UNL A   1      41.236  28.684  30.823  1.00  0.00     0.049 A 
ATOM     53  C   UNL A   1      41.234  32.270  35.098  1.00  0.00     0.074 A 
ATOM     54  C   UNL A   1      42.240  27.731  30.808  1.00  0.00     0.029 A 
ATOM     55  N   UNL A   1      41.419  29.442  31.966  1.00  0.00    -0.354 N 
ATOM     56  N   UNL A   1      41.377  31.369  34.156  1.00  0.00    -0.248 NA
ATOM     57  C   UNL A   1      42.209  32.157  36.193  1.00  0.00     0.031 C 
ATOM     58  C   UNL A   1      42.999  27.879  31.970  1.00  0.00     0.029 A 
ATOM     59  C   UNL A   1      42.508  28.964  32.675  1.00  0.00     0.049 A 
ATOM     60  H   UNL A   1      40.859  30.206  32.236  1.00  0.00     0.167 HD
ATOM     61  C   UNL A   1      42.463  30.593  34.539  1.00  0.00     0.074 A 
ATOM     62  C   UNL A   1      42.956  31.141  35.784  1.00  0.00     0.031 C 
ATOM     63  C   UNL A   1      42.996  29.516  33.912  1.00  0.00     0.031 A 
BRANCH  50  64
ATOM     64  C   UNL A   1      40.151  27.954  28.678  1.00  0.00    -0.014 A 
ATOM     65  C   UNL A   1      39.528  26.700  28.800  1.00  0.00     0.009 A 
ATOM     66  C   UNL A   1      40.842  28.257  27.496  1.00  0.00     0.009 A 
ATOM     67  C   UNL A   1      39.618  25.762  27.771  1.00  0.00     0.001 A 
ATOM     68  C   UNL A   1      40.909  27.325  26.458  1.00  0.00     0.001 A 
ATOM     69  C   UNL A   1      40.307  26.075  26.601  1.00  0.00     0.000 A 
ENDBRANCH  50  64
BRANCH  51  70
ATOM     70  C   UNL A   1      40.244  34.339  36.331  1.00  0.00    -0.014 A 
ATOM     71  C   UNL A   1      39.502  34.073  37.494  1.00  0.00     0.009 A 
ATOM     72  C   UNL A   1      40.968  35.537  36.249  1.00  0.00     0.009 A 
ATOM     73  C   UNL A   1      39.462  34.997  38.539  1.00  0.00     0.001 A 
ATOM     74  C   UNL A   1      40.953  36.446  37.311  1.00  0.00     0.001 A 
ATOM     75  C   UNL A   1      40.193  36.180  38.449  1.00  0.00     0.000 A 
ENDBRANCH  51  70
BRANCH  63  76
ATOM     76  C   UNL A   1      44.186  28.850  34.542  1.00  0.00    -0.014 A 
ATOM     77  C   UNL A   1      43.993  27.836  35.495  1.00  0.00     0.009 A 
ATOM     78  C   UNL A   1      45.488  29.302  34.282  1.00  0.00     0.009 A 
ATOM     79  C   UNL A   1      45.080  27.298  36.186  1.00  0.00     0.001 A 
ATOM     80  C   UNL A   1      46.576  28.741  34.954  1.00  0.00     0.001 A 
ATOM     81  C   UNL A   1      46.370  27.749  35.912  1.00  0.00     0.000 A 
ENDBRANCH  63  76
ENDBRANCH  37  38
ENDBRANCH  29  32
ENDBRANCH  27  28
ENDBRANCH   1  27
TORSDOF 12
ENDMDL
MODEL 3
REMARK VINA RESULT:     -12.6      5.084      9.437
REMARK SMILES O=C(C[C@H]1C(=O)N[NH+]=C2c3ccc(F)cc3N=CN21)NCCCCNC(=O)c1ccc(-c2c3nc(c(-c4ccccc4)c4ccc([nH]4)c(-c4ccccc4)c4nc(c(-c5ccccc5)c5ccc2[nH]5)C=C4)C=C3)cc1
REMARK SMILES IDX 23 1 22 2 21 3 20 4 1 5 2 6 3 8 4 9 5 10 19 11 6 12 7 13
REMARK SMILES IDX 9 14 18 15 8 16 10 18 17 19 11 21 16 22 12 23 15 24 13 25
REMARK SMILES IDX 14 26 24 27 25 28 26 29 27 31 28 32 29 33 75 34 30 35 74 36
REMARK SMILES IDX 31 37 32 38 33 39 68 40 34 41 73 42 67 43 69 44 35 45 72 46
REMARK SMILES IDX 66 47 65 48 36 50 58 51 43 52 57 53 44 54 47 55 56 56 70 57
REMARK SMILES IDX 45 58 46 59 55 61 71 62 48 63 37 64 38 65 42 66 39 67 41 68
REMARK SMILES IDX 40 69 59 70 60 71 64 72 61 73 63 74 62 75 49 76 50 77 54 78
REMARK SMILES IDX 51 79 53 80 52 81
REMARK H PARENT 20 7 7 17 8 20 25 30 69 49 47 60
REMARK Flexibility Score: inf
ROOT
ATOM      1  C   UNL A   1      38.060  20.112  24.932  1.00  0.00     0.023 C 
ENDROOT
BRANCH   1   2
ATOM      2  C   UNL A   1      36.997  21.213  24.882  1.00  0.00     0.023 C 
BRANCH   2   3
ATOM      3  C   UNL A   1      35.547  20.727  24.933  1.00  0.00     0.116 C 
BRANCH   3   4
ATOM      4  N   UNL A   1      34.705  21.605  25.720  1.00  0.00    -0.356 N 
ATOM      5  O   UNL A   1      32.849  20.264  25.708  1.00  0.00    -0.275 OA
ATOM      6  C   UNL A   1      33.410  21.298  26.054  1.00  0.00     0.224 C 
ATOM      7  H   UNL A   1      35.080  22.462  26.030  1.00  0.00     0.163 HD
BRANCH   6   8
ATOM      8  C   UNL A   1      32.705  22.338  26.905  1.00  0.00     0.160 C 
BRANCH   8   9
ATOM      9  C   UNL A   1      31.908  23.308  26.017  1.00  0.00     0.284 C 
ATOM     10  C   UNL A   1      30.432  23.212  26.428  1.00  0.00     0.300 C 
ATOM     11  N   UNL A   1      32.418  24.690  26.095  1.00  0.00    -0.203 N 
ATOM     12  O   UNL A   1      29.863  22.131  26.605  1.00  0.00    -0.267 OA
ATOM     13  N   UNL A   1      29.726  24.369  26.569  1.00  0.00    -0.193 N 
ATOM     14  C   UNL A   1      31.531  25.721  26.374  1.00  0.00     0.309 C 
ATOM     15  C   UNL A   1      33.735  24.960  25.782  1.00  0.00     0.317 C 
ATOM     16  N   UNL A   1      30.253  25.609  26.575  1.00  0.00    -0.169 N 
ATOM     17  H   UNL A   1      28.750  24.293  26.675  1.00  0.00     0.216 HD
ATOM     18  C   UNL A   1      32.127  27.085  26.475  1.00  0.00     0.092 A 
ATOM     19  N   UNL A   1      34.316  26.115  25.839  1.00  0.00    -0.216 NA
ATOM     20  H   UNL A   1      29.689  26.402  26.726  1.00  0.00     0.340 HD
ATOM     21  C   UNL A   1      31.355  28.191  26.852  1.00  0.00     0.022 A 
ATOM     22  C   UNL A   1      33.512  27.199  26.254  1.00  0.00     0.085 A 
ATOM     23  C   UNL A   1      31.976  29.421  27.050  1.00  0.00     0.040 A 
ATOM     24  C   UNL A   1      34.117  28.440  26.459  1.00  0.00     0.068 A 
ATOM     25  C   UNL A   1      33.351  29.531  26.865  1.00  0.00     0.125 A 
ATOM     26  F   UNL A   1      33.949  30.708  27.091  1.00  0.00    -0.207 F 
ENDBRANCH   8   9
ENDBRANCH   6   8
ENDBRANCH   3   4
ENDBRANCH   2   3
ENDBRANCH   1   2
BRANCH   1  27
ATOM     27  C   UNL A   1      39.206  20.351  25.909  1.00  0.00     0.116 C 
BRANCH  27  28
ATOM     28  N   UNL A   1      40.200  19.286  25.899  1.00  0.00    -0.352 N 
ATOM     29  C   UNL A   1      41.557  19.345  26.140  1.00  0.00     0.251 C 
ATOM     30  H   UNL A   1      39.850  18.391  25.689  1.00  0.00     0.163 HD
ATOM     31  O   UNL A   1      42.255  18.357  25.970  1.00  0.00    -0.269 OA
BRANCH  29  32
ATOM     32  C   UNL A   1      42.179  20.624  26.559  1.00  0.00     0.039 A 
ATOM     33  C   UNL A   1      42.215  21.003  27.901  1.00  0.00     0.014 A 
ATOM     34  C   UNL A   1      42.709  21.473  25.581  1.00  0.00     0.014 A 
ATOM     35  C   UNL A   1      42.593  22.298  28.242  1.00  0.00     0.010 A 
ATOM     36  C   UNL A   1      43.172  22.745  25.938  1.00  0.00     0.010 A 
ATOM     37  C   UNL A   1      43.059  23.192  27.263  1.00  0.00    -0.014 A 
BRANCH  37  38
ATOM     38  C   UNL A   1      43.390  24.592  27.646  1.00  0.00     0.031 A 
ATOM     39  C   UNL A   1      42.298  25.587  27.950  1.00  0.00     0.074 A 
ATOM     40  C   UNL A   1      44.680  24.954  27.791  1.00  0.00     0.049 A 
ATOM     41  N   UNL A   1      42.407  26.834  28.336  1.00  0.00    -0.248 NA
ATOM     42  C   UNL A   1      40.906  25.128  27.807  1.00  0.00     0.031 C 
ATOM     43  C   UNL A   1      45.832  24.083  27.547  1.00  0.00     0.029 A 
ATOM     44  N   UNL A   1      45.241  26.138  28.204  1.00  0.00    -0.354 N 
ATOM     45  C   UNL A   1      41.107  27.309  28.468  1.00  0.00     0.074 A 
ATOM     46  C   UNL A   1      40.222  26.228  28.094  1.00  0.00     0.031 C 
ATOM     47  C   UNL A   1      46.955  24.743  27.863  1.00  0.00     0.029 A 
ATOM     48  C   UNL A   1      46.611  26.103  28.270  1.00  0.00     0.049 A 
ATOM     49  H   UNL A   1      44.709  26.936  28.431  1.00  0.00     0.167 HD
ATOM     50  C   UNL A   1      40.689  28.529  28.878  1.00  0.00     0.031 A 
ATOM     51  C   UNL A   1      47.503  27.055  28.607  1.00  0.00     0.031 A 
ATOM     52  C   UNL A   1      41.564  29.602  29.267  1.00  0.00     0.049 A 
ATOM     53  C   UNL A   1      47.011  28.415  29.017  1.00  0.00     0.074 A 
ATOM     54  C   UNL A   1      41.221  30.869  29.708  1.00  0.00     0.029 A 
ATOM     55  N   UNL A   1      42.947  29.537  29.269  1.00  0.00    -0.354 N 
ATOM     56  N   UNL A   1      45.777  28.839  29.145  1.00  0.00    -0.248 NA
ATOM     57  C   UNL A   1      48.030  29.427  29.332  1.00  0.00     0.031 C 
ATOM     58  C   UNL A   1      42.397  31.589  29.925  1.00  0.00     0.029 A 
ATOM     59  C   UNL A   1      43.472  30.750  29.683  1.00  0.00     0.049 A 
ATOM     60  H   UNL A   1      43.478  28.748  29.014  1.00  0.00     0.167 HD
ATOM     61  C   UNL A   1      45.872  30.159  29.565  1.00  0.00     0.074 A 
ATOM     62  C   UNL A   1      47.282  30.460  29.694  1.00  0.00     0.031 C 
ATOM     63  C   UNL A   1      44.875  31.042  29.813  1.00  0.00     0.031 A 
BRANCH  50  64
ATOM     64  C   UNL A   1      39.209  28.793  28.939  1.00  0.00    -0.014 A 
ATOM     65  C   UNL A   1      38.553  29.344  27.826  1.00  0.00     0.009 A 
ATOM     66  C   UNL A   1      38.495  28.621  30.134  1.00  0.00     0.009 A 
ATOM     67  C   UNL A   1      37.218  29.740  27.916  1.00  0.00     0.001 A 
ATOM     68  C   UNL A   1      37.150  28.994  30.212  1.00  0.00     0.001 A 
ATOM     69  C   UNL A   1      36.517  29.563  29.108  1.00  0.00     0.000 A 
ENDBRANCH  50  64
BRANCH  51  70
ATOM     70  C   UNL A   1      48.956  26.747  28.557  1.00  0.00    -0.014 A 
ATOM     71  C   UNL A   1      49.675  26.908  27.361  1.00  0.00     0.009 A 
ATOM     72  C   UNL A   1      49.626  26.256  29.688  1.00  0.00     0.009 A 
ATOM     73  C   UNL A   1      51.024  26.559  27.289  1.00  0.00     0.001 A 
ATOM     74  C   UNL A   1      50.986  25.939  29.622  1.00  0.00     0.001 A 
ATOM     75  C   UNL A   1      51.680  26.080  28.422  1.00  0.00     0.000 A 
ENDBRANCH  51  70
BRANCH  63  76
ATOM     76  C   UNL A   1      45.253  32.424  30.264  1.00  0.00    -0.014 A 
ATOM     77  C   UNL A   1      45.345  32.707  31.637  1.00  0.00     0.009 A 
ATOM     78  C   UNL A   1      45.405  33.469  29.341  1.00  0.00     0.009 A 
ATOM     79  C   UNL A   1      45.566  34.013  32.077  1.00  0.00     0.001 A 
ATOM     80  C   UNL A   1      45.655  34.770  29.784  1.00  0.00     0.001 A 
ATOM     81  C   UNL A   1      45.724  35.042  31.150  1.00  0.00     0.000 A 
ENDBRANCH  63  76
ENDBRANCH  37  38
ENDBRANCH  29  32
ENDBRANCH  27  28
ENDBRANCH   1  27
TORSDOF 12
ENDMDL
