MODEL 1
REMARK VINA RESULT:     -11.5      0.000      0.000
REMARK SMILES COc1ccc(C(=O)NCCCCNC(=O)c2ccc(-c3c4nc(c(-c5ccccc5)c5ccc([nH]5)c(-c5ccccc5)c5nc(c(-c6ccccc6)c6ccc3[nH]6)C=C5)C=C4)cc2)cc1NC(=S)NC(=O)c1cccc(C)c1OC
REMARK SMILES IDX 10 1 9 2 7 3 8 4 6 6 3 7 4 8 66 9 5 10 65 11 2 12 1 13 67 14
REMARK SMILES IDX 68 16 69 17 70 18 71 19 72 21 73 22 74 23 79 24 75 25 77 26
REMARK SMILES IDX 76 27 78 28 80 29 81 30 11 31 12 32 13 33 14 34 15 35 16 37
REMARK SMILES IDX 17 38 18 39 64 40 19 41 63 42 20 43 21 44 22 45 57 46 23 47
REMARK SMILES IDX 62 48 56 49 58 50 24 51 61 52 55 53 54 54 25 56 47 57 32 58
REMARK SMILES IDX 46 59 33 60 36 61 45 62 59 63 34 64 35 65 44 67 60 68 37 69
REMARK SMILES IDX 26 70 27 71 31 72 28 73 30 74 29 75 48 76 49 77 53 78 50 79
REMARK SMILES IDX 52 80 51 81 38 82 39 83 43 84 40 85 42 86 41 87
REMARK H PARENT 9 5 67 15 70 20 14 36 58 55 36 66
REMARK Flexibility Score: inf
ROOT
ATOM      1  C   UNL A   1      39.890  22.449  26.831  1.00  0.00     0.116 C 
ENDROOT
BRANCH   1   2
ATOM      2  N   UNL A   1      38.974  21.603  26.031  1.00  0.00    -0.352 N 
ATOM      3  C   UNL A   1      37.759  21.499  25.157  1.00  0.00     0.251 C 
ATOM      4  O   UNL A   1      38.033  20.248  25.009  1.00  0.00    -0.269 OA
ATOM      5  H   UNL A   1      39.324  20.686  26.109  1.00  0.00     0.163 HD
BRANCH   3   6
ATOM      6  C   UNL A   1      36.194  22.792  24.460  1.00  0.00     0.042 A 
ATOM      7  C   UNL A   1      33.845  24.646  23.750  1.00  0.00     0.142 A 
ATOM      8  C   UNL A   1      34.449  23.878  22.776  1.00  0.00     0.049 A 
ATOM      9  C   UNL A   1      34.209  24.408  25.036  1.00  0.00     0.084 A 
ATOM     10  C   UNL A   1      35.492  22.955  23.128  1.00  0.00     0.018 A 
ATOM     11  C   UNL A   1      35.447  23.841  25.200  1.00  0.00     0.044 A 
BRANCH   7  12
ATOM     12  O   UNL A   1      33.069  25.716  23.410  1.00  0.00    -0.495 OA
ATOM     13  C   UNL A   1      33.265  25.981  22.004  1.00  0.00     0.278 C 
ENDBRANCH   7  12
BRANCH   9  14
ATOM     14  N   UNL A   1      33.552  24.837  26.198  1.00  0.00    -0.329 N 
ATOM     15  H   UNL A   1      34.105  25.356  26.827  1.00  0.00     0.169 HD
BRANCH  14  16
ATOM     16  C   UNL A   1      32.259  24.642  26.586  1.00  0.00     0.177 C 
ATOM     17  S   UNL A   1      31.739  23.063  26.805  1.00  0.00    -0.040 S 
BRANCH  16  18
ATOM     18  N   UNL A   1      31.338  25.643  26.876  1.00  0.00    -0.299 N 
ATOM     19  C   UNL A   1      31.213  27.039  26.737  1.00  0.00     0.261 C 
ATOM     20  H   UNL A   1      30.538  25.265  27.306  1.00  0.00     0.172 HD
ATOM     21  O   UNL A   1      31.367  27.728  27.748  1.00  0.00    -0.269 OA
BRANCH  19  22
ATOM     22  C   UNL A   1      30.927  27.758  25.430  1.00  0.00     0.082 A 
ATOM     23  C   UNL A   1      29.832  26.705  24.416  1.00  0.00     0.018 A 
ATOM     24  C   UNL A   1      31.029  29.575  25.040  1.00  0.00     0.134 A 
ATOM     25  C   UNL A   1      28.785  27.415  23.126  1.00  0.00     0.001 A 
ATOM     26  C   UNL A   1      29.889  30.286  23.808  1.00  0.00    -0.008 A 
ATOM     27  C   UNL A   1      28.773  29.229  22.850  1.00  0.00     0.007 A 
ATOM     28  C   UNL A   1      29.502  31.739  23.908  1.00  0.00     0.048 C 
BRANCH  24  29
ATOM     29  O   UNL A   1      31.611  30.586  25.771  1.00  0.00    -0.496 OA
ATOM     30  C   UNL A   1      32.946  30.486  26.216  1.00  0.00     0.278 C 
ENDBRANCH  24  29
ENDBRANCH  19  22
ENDBRANCH  16  18
ENDBRANCH  14  16
ENDBRANCH   9  14
ENDBRANCH   3   6
ENDBRANCH   1   2
BRANCH   1  31
ATOM     31  C   UNL A   1      41.311  21.901  26.970  1.00  0.00     0.023 C 
BRANCH  31  32
ATOM     32  C   UNL A   1      41.806  20.995  25.857  1.00  0.00     0.023 C 
BRANCH  32  33
ATOM     33  C   UNL A   1      42.660  19.826  26.309  1.00  0.00     0.116 C 
BRANCH  33  34
ATOM     34  N   UNL A   1      43.370  19.120  25.248  1.00  0.00    -0.352 N 
ATOM     35  C   UNL A   1      44.426  19.592  24.494  1.00  0.00     0.251 C 
ATOM     36  H   UNL A   1      43.063  18.207  25.049  1.00  0.00     0.163 HD
ATOM     37  O   UNL A   1      44.925  18.917  23.603  1.00  0.00    -0.269 OA
BRANCH  35  38
ATOM     38  C   UNL A   1      44.899  20.971  24.749  1.00  0.00     0.039 A 
ATOM     39  C   UNL A   1      44.532  21.989  23.866  1.00  0.00     0.014 A 
ATOM     40  C   UNL A   1      45.558  21.269  25.943  1.00  0.00     0.014 A 
ATOM     41  C   UNL A   1      44.737  23.319  24.235  1.00  0.00     0.010 A 
ATOM     42  C   UNL A   1      45.650  22.590  26.357  1.00  0.00     0.010 A 
ATOM     43  C   UNL A   1      45.241  23.632  25.510  1.00  0.00    -0.014 A 
BRANCH  43  44
ATOM     44  C   UNL A   1      45.352  25.037  25.981  1.00  0.00     0.031 A 
ATOM     45  C   UNL A   1      46.689  25.726  25.968  1.00  0.00     0.074 A 
ATOM     46  C   UNL A   1      44.272  25.667  26.487  1.00  0.00     0.049 A 
ATOM     47  N   UNL A   1      47.006  26.924  26.392  1.00  0.00    -0.248 NA
ATOM     48  C   UNL A   1      47.830  24.957  25.441  1.00  0.00     0.031 C 
ATOM     49  C   UNL A   1      42.929  25.094  26.608  1.00  0.00     0.029 A 
ATOM     50  N   UNL A   1      44.135  26.935  26.999  1.00  0.00    -0.354 N 
ATOM     51  C   UNL A   1      48.377  27.039  26.198  1.00  0.00     0.074 A 
ATOM     52  C   UNL A   1      48.843  25.771  25.686  1.00  0.00     0.031 C 
ATOM     53  C   UNL A   1      42.099  26.018  27.119  1.00  0.00     0.029 A 
ATOM     54  C   UNL A   1      42.856  27.233  27.406  1.00  0.00     0.049 A 
ATOM     55  H   UNL A   1      44.883  27.571  27.067  1.00  0.00     0.167 HD
ATOM     56  C   UNL A   1      49.175  28.114  26.398  1.00  0.00     0.031 A 
ATOM     57  C   UNL A   1      42.351  28.356  27.952  1.00  0.00     0.031 A 
ATOM     58  C   UNL A   1      48.710  29.380  26.894  1.00  0.00     0.049 A 
ATOM     59  C   UNL A   1      43.262  29.531  28.180  1.00  0.00     0.074 A 
ATOM     60  C   UNL A   1      49.426  30.548  27.079  1.00  0.00     0.029 A 
ATOM     61  N   UNL A   1      47.406  29.641  27.287  1.00  0.00    -0.354 N 
ATOM     62  N   UNL A   1      44.541  29.650  27.918  1.00  0.00    -0.248 NA
ATOM     63  C   UNL A   1      42.655  30.733  28.771  1.00  0.00     0.031 C 
ATOM     64  C   UNL A   1      48.570  31.499  27.641  1.00  0.00     0.029 A 
ATOM     65  C   UNL A   1      47.304  30.944  27.740  1.00  0.00     0.049 A 
ATOM     66  H   UNL A   1      46.664  28.995  27.249  1.00  0.00     0.167 HD
ATOM     67  C   UNL A   1      44.884  30.947  28.278  1.00  0.00     0.074 A 
ATOM     68  C   UNL A   1      43.675  31.581  28.761  1.00  0.00     0.031 C 
ATOM     69  C   UNL A   1      46.091  31.560  28.213  1.00  0.00     0.031 A 
BRANCH  56  70
ATOM     70  C   UNL A   1      50.637  27.960  26.079  1.00  0.00    -0.014 A 
ATOM     71  C   UNL A   1      51.509  27.290  26.953  1.00  0.00     0.009 A 
ATOM     72  C   UNL A   1      51.144  28.465  24.871  1.00  0.00     0.009 A 
ATOM     73  C   UNL A   1      52.865  27.167  26.644  1.00  0.00     0.001 A 
ATOM     74  C   UNL A   1      52.493  28.309  24.549  1.00  0.00     0.001 A 
ATOM     75  C   UNL A   1      53.355  27.669  25.440  1.00  0.00     0.000 A 
ENDBRANCH  56  70
BRANCH  57  76
ATOM     76  C   UNL A   1      40.908  28.436  28.308  1.00  0.00    -0.014 A 
ATOM     77  C   UNL A   1      39.979  28.986  27.410  1.00  0.00     0.009 A 
ATOM     78  C   UNL A   1      40.452  27.984  29.557  1.00  0.00     0.009 A 
ATOM     79  C   UNL A   1      38.633  29.111  27.767  1.00  0.00     0.001 A 
ATOM     80  C   UNL A   1      39.100  28.079  29.898  1.00  0.00     0.001 A 
ATOM     81  C   UNL A   1      38.194  28.654  29.008  1.00  0.00     0.000 A 
ENDBRANCH  57  76
BRANCH  69  82
ATOM     82  C   UNL A   1      46.157  33.003  28.633  1.00  0.00    -0.014 A 
ATOM     83  C   UNL A   1      46.478  33.371  29.948  1.00  0.00     0.009 A 
ATOM     84  C   UNL A   1      45.940  34.009  27.678  1.00  0.00     0.009 A 
ATOM     85  C   UNL A   1      46.544  34.719  30.306  1.00  0.00     0.001 A 
ATOM     86  C   UNL A   1      46.041  35.355  28.031  1.00  0.00     0.001 A 
ATOM     87  C   UNL A   1      46.331  35.709  29.346  1.00  0.00     0.000 A 
ENDBRANCH  69  82
ENDBRANCH  43  44
ENDBRANCH  35  38
ENDBRANCH  33  34
ENDBRANCH  32  33
ENDBRANCH  31  32
ENDBRANCH   1  31
TORSDOF 17
ENDMDL
MODEL 2
REMARK VINA RESULT:     -11.4      4.524      6.703
REMARK SMILES COc1ccc(C(=O)NCCCCNC(=O)c2ccc(-c3c4nc(c(-c5ccccc5)c5ccc([nH]5)c(-c5ccccc5)c5nc(c(-c6ccccc6)c6ccc3[nH]6)C=C5)C=C4)cc2)cc1NC(=S)NC(=O)c1cccc(C)c1OC
REMARK SMILES IDX 10 1 9 2 7 3 8 4 6 6 3 7 4 8 66 9 5 10 65 11 2 12 1 13 67 14
REMARK SMILES IDX 68 16 69 17 70 18 71 19 72 21 73 22 74 23 79 24 75 25 77 26
REMARK SMILES IDX 76 27 78 28 80 29 81 30 11 31 12 32 13 33 14 34 15 35 16 37
REMARK SMILES IDX 17 38 18 39 64 40 19 41 63 42 20 43 21 44 22 45 57 46 23 47
REMARK SMILES IDX 62 48 56 49 58 50 24 51 61 52 55 53 54 54 25 56 47 57 32 58
REMARK SMILES IDX 46 59 33 60 36 61 45 62 59 63 34 64 35 65 44 67 60 68 37 69
REMARK SMILES IDX 26 70 27 71 31 72 28 73 30 74 29 75 48 76 49 77 53 78 50 79
REMARK SMILES IDX 52 80 51 81 38 82 39 83 43 84 40 85 42 86 41 87
REMARK H PARENT 9 5 67 15 70 20 14 36 58 55 36 66
REMARK Flexibility Score: inf
ROOT
ATOM      1  C   UNL A   1      40.400  21.201  26.532  1.00  0.00     0.116 C 
ENDROOT
BRANCH   1   2
ATOM      2  N   UNL A   1      39.538  22.383  26.297  1.00  0.00    -0.352 N 
ATOM      3  C   UNL A   1      38.196  22.938  25.920  1.00  0.00     0.251 C 
ATOM      4  O   UNL A   1      38.669  24.113  26.157  1.00  0.00    -0.269 OA
ATOM      5  H   UNL A   1      40.110  23.167  26.466  1.00  0.00     0.163 HD
BRANCH   3   6
ATOM      6  C   UNL A   1      36.305  22.183  25.238  1.00  0.00     0.042 A 
ATOM      7  C   UNL A   1      33.503  21.397  24.243  1.00  0.00     0.142 A 
ATOM      8  C   UNL A   1      34.268  20.501  24.961  1.00  0.00     0.049 A 
ATOM      9  C   UNL A   1      33.963  22.672  24.162  1.00  0.00     0.084 A 
ATOM     10  C   UNL A   1      35.542  20.901  25.492  1.00  0.00     0.018 A 
ATOM     11  C   UNL A   1      35.316  22.820  24.331  1.00  0.00     0.044 A 
BRANCH   7  12
ATOM     12  O   UNL A   1      32.444  20.966  23.499  1.00  0.00    -0.495 OA
ATOM     13  C   UNL A   1      32.425  19.523  23.542  1.00  0.00     0.278 C 
ENDBRANCH   7  12
BRANCH   9  14
ATOM     14  N   UNL A   1      33.250  23.806  23.749  1.00  0.00    -0.329 N 
ATOM     15  H   UNL A   1      33.095  23.876  22.779  1.00  0.00     0.169 HD
BRANCH  14  16
ATOM     16  C   UNL A   1      32.742  24.830  24.495  1.00  0.00     0.177 C 
ATOM     17  S   UNL A   1      33.782  26.069  24.934  1.00  0.00    -0.040 S 
BRANCH  16  18
ATOM     18  N   UNL A   1      31.412  24.972  24.878  1.00  0.00    -0.299 N 
ATOM     19  C   UNL A   1      30.520  25.998  25.245  1.00  0.00     0.261 C 
ATOM     20  H   UNL A   1      30.962  24.098  24.899  1.00  0.00     0.172 HD
ATOM     21  O   UNL A   1      30.245  26.111  26.442  1.00  0.00    -0.269 OA
BRANCH  19  22
ATOM     22  C   UNL A   1      29.895  26.989  24.279  1.00  0.00     0.082 A 
ATOM     23  C   UNL A   1      28.145  26.530  24.029  1.00  0.00     0.018 A 
ATOM     24  C   UNL A   1      30.431  28.722  23.860  1.00  0.00     0.134 A 
ATOM     25  C   UNL A   1      26.927  27.749  23.484  1.00  0.00     0.001 A 
ATOM     26  C   UNL A   1      29.170  29.961  23.415  1.00  0.00    -0.008 A 
ATOM     27  C   UNL A   1      27.430  29.494  23.223  1.00  0.00     0.007 A 
ATOM     28  C   UNL A   1      29.439  31.420  23.678  1.00  0.00     0.048 C 
BRANCH  24  29
ATOM     29  O   UNL A   1      31.620  29.353  24.147  1.00  0.00    -0.496 OA
ATOM     30  C   UNL A   1      32.052  29.522  25.480  1.00  0.00     0.278 C 
ENDBRANCH  24  29
ENDBRANCH  19  22
ENDBRANCH  16  18
ENDBRANCH  14  16
ENDBRANCH   9  14
ENDBRANCH   3   6
ENDBRANCH   1   2
BRANCH   1  31
ATOM     31  C   UNL A   1      41.848  21.527  26.898  1.00  0.00     0.023 C 
BRANCH  31  32
ATOM     32  C   UNL A   1      42.857  21.527  25.764  1.00  0.00     0.023 C 
BRANCH  32  33
ATOM     33  C   UNL A   1      42.959  22.830  24.992  1.00  0.00     0.116 C 
BRANCH  33  34
ATOM     34  N   UNL A   1      44.305  23.378  24.863  1.00  0.00    -0.352 N 
ATOM     35  C   UNL A   1      44.806  24.511  25.473  1.00  0.00     0.251 C 
ATOM     36  H   UNL A   1      44.923  22.886  24.278  1.00  0.00     0.163 HD
ATOM     37  O   UNL A   1      45.950  24.895  25.264  1.00  0.00    -0.269 OA
BRANCH  35  38
ATOM     38  C   UNL A   1      43.897  25.292  26.342  1.00  0.00     0.039 A 
ATOM     39  C   UNL A   1      43.196  24.635  27.355  1.00  0.00     0.014 A 
ATOM     40  C   UNL A   1      43.878  26.685  26.251  1.00  0.00     0.014 A 
ATOM     41  C   UNL A   1      42.558  25.389  28.342  1.00  0.00     0.010 A 
ATOM     42  C   UNL A   1      43.347  27.426  27.296  1.00  0.00     0.010 A 
ATOM     43  C   UNL A   1      42.680  26.789  28.355  1.00  0.00    -0.014 A 
BRANCH  43  44
ATOM     44  C   UNL A   1      42.121  27.611  29.460  1.00  0.00     0.031 A 
ATOM     45  C   UNL A   1      42.769  27.578  30.817  1.00  0.00     0.074 A 
ATOM     46  C   UNL A   1      40.994  28.326  29.266  1.00  0.00     0.049 A 
ATOM     47  N   UNL A   1      42.400  28.173  31.923  1.00  0.00    -0.248 NA
ATOM     48  C   UNL A   1      43.971  26.738  30.961  1.00  0.00     0.031 C 
ATOM     49  C   UNL A   1      40.235  28.401  28.014  1.00  0.00     0.029 A 
ATOM     50  N   UNL A   1      40.285  29.129  30.127  1.00  0.00    -0.354 N 
ATOM     51  C   UNL A   1      43.311  27.766  32.890  1.00  0.00     0.074 A 
ATOM     52  C   UNL A   1      44.205  26.821  32.261  1.00  0.00     0.031 C 
ATOM     53  C   UNL A   1      39.196  29.235  28.178  1.00  0.00     0.029 A 
ATOM     54  C   UNL A   1      39.183  29.718  29.555  1.00  0.00     0.049 A 
ATOM     55  H   UNL A   1      40.544  29.269  31.066  1.00  0.00     0.167 HD
ATOM     56  C   UNL A   1      43.415  28.162  34.180  1.00  0.00     0.031 A 
ATOM     57  C   UNL A   1      38.264  30.550  30.081  1.00  0.00     0.031 A 
ATOM     58  C   UNL A   1      42.534  29.112  34.802  1.00  0.00     0.049 A 
ATOM     59  C   UNL A   1      38.392  30.964  31.522  1.00  0.00     0.074 A 
ATOM     60  C   UNL A   1      42.589  29.624  36.086  1.00  0.00     0.029 A 
ATOM     61  N   UNL A   1      41.436  29.690  34.185  1.00  0.00    -0.354 N 
ATOM     62  N   UNL A   1      39.306  30.631  32.400  1.00  0.00    -0.248 NA
ATOM     63  C   UNL A   1      37.366  31.880  32.040  1.00  0.00     0.031 C 
ATOM     64  C   UNL A   1      41.488  30.466  36.265  1.00  0.00     0.029 A 
ATOM     65  C   UNL A   1      40.789  30.533  35.071  1.00  0.00     0.049 A 
ATOM     66  H   UNL A   1      41.158  29.525  33.255  1.00  0.00     0.167 HD
ATOM     67  C   UNL A   1      38.986  31.321  33.562  1.00  0.00     0.074 A 
ATOM     68  C   UNL A   1      37.804  32.105  33.272  1.00  0.00     0.031 C 
ATOM     69  C   UNL A   1      39.615  31.309  34.763  1.00  0.00     0.031 A 
BRANCH  56  70
ATOM     70  C   UNL A   1      44.526  27.566  35.000  1.00  0.00    -0.014 A 
ATOM     71  C   UNL A   1      45.796  28.164  35.055  1.00  0.00     0.009 A 
ATOM     72  C   UNL A   1      44.291  26.404  35.752  1.00  0.00     0.009 A 
ATOM     73  C   UNL A   1      46.818  27.590  35.814  1.00  0.00     0.001 A 
ATOM     74  C   UNL A   1      45.304  25.852  36.537  1.00  0.00     0.001 A 
ATOM     75  C   UNL A   1      46.570  26.438  36.559  1.00  0.00     0.000 A 
ENDBRANCH  56  70
BRANCH  57  76
ATOM     76  C   UNL A   1      37.147  31.065  29.242  1.00  0.00    -0.014 A 
ATOM     77  C   UNL A   1      37.182  32.371  28.727  1.00  0.00     0.009 A 
ATOM     78  C   UNL A   1      36.028  30.262  28.968  1.00  0.00     0.009 A 
ATOM     79  C   UNL A   1      36.108  32.872  27.986  1.00  0.00     0.001 A 
ATOM     80  C   UNL A   1      34.971  30.754  28.198  1.00  0.00     0.001 A 
ATOM     81  C   UNL A   1      35.006  32.062  27.718  1.00  0.00     0.000 A 
ENDBRANCH  57  76
BRANCH  69  82
ATOM     82  C   UNL A   1      39.065  32.203  35.840  1.00  0.00    -0.014 A 
ATOM     83  C   UNL A   1      39.471  33.541  35.961  1.00  0.00     0.009 A 
ATOM     84  C   UNL A   1      38.088  31.706  36.717  1.00  0.00     0.009 A 
ATOM     85  C   UNL A   1      38.934  34.351  36.964  1.00  0.00     0.001 A 
ATOM     86  C   UNL A   1      37.529  32.528  37.696  1.00  0.00     0.001 A 
ATOM     87  C   UNL A   1      37.960  33.846  37.826  1.00  0.00     0.000 A 
ENDBRANCH  69  82
ENDBRANCH  43  44
ENDBRANCH  35  38
ENDBRANCH  33  34
ENDBRANCH  32  33
ENDBRANCH  31  32
ENDBRANCH   1  31
TORSDOF 17
ENDMDL
MODEL 3
REMARK VINA RESULT:     -11.4      4.568      6.938
REMARK SMILES COc1ccc(C(=O)NCCCCNC(=O)c2ccc(-c3c4nc(c(-c5ccccc5)c5ccc([nH]5)c(-c5ccccc5)c5nc(c(-c6ccccc6)c6ccc3[nH]6)C=C5)C=C4)cc2)cc1NC(=S)NC(=O)c1cccc(C)c1OC
REMARK SMILES IDX 10 1 9 2 7 3 8 4 6 6 3 7 4 8 66 9 5 10 65 11 2 12 1 13 67 14
REMARK SMILES IDX 68 16 69 17 70 18 71 19 72 21 73 22 74 23 79 24 75 25 77 26
REMARK SMILES IDX 76 27 78 28 80 29 81 30 11 31 12 32 13 33 14 34 15 35 16 37
REMARK SMILES IDX 17 38 18 39 64 40 19 41 63 42 20 43 21 44 22 45 57 46 23 47
REMARK SMILES IDX 62 48 56 49 58 50 24 51 61 52 55 53 54 54 25 56 47 57 32 58
REMARK SMILES IDX 46 59 33 60 36 61 45 62 59 63 34 64 35 65 44 67 60 68 37 69
REMARK SMILES IDX 26 70 27 71 31 72 28 73 30 74 29 75 48 76 49 77 53 78 50 79
REMARK SMILES IDX 52 80 51 81 38 82 39 83 43 84 40 85 42 86 41 87
REMARK H PARENT 9 5 67 15 70 20 14 36 58 55 36 66
REMARK Flexibility Score: inf
ROOT
ATOM      1  C   UNL A   1      40.568  20.789  26.559  1.00  0.00     0.116 C 
ENDROOT
BRANCH   1   2
ATOM      2  N   UNL A   1      39.479  21.716  26.169  1.00  0.00    -0.352 N 
ATOM      3  C   UNL A   1      38.056  21.913  25.739  1.00  0.00     0.251 C 
ATOM      4  O   UNL A   1      38.266  23.184  25.794  1.00  0.00    -0.269 OA
ATOM      5  H   UNL A   1      39.870  22.618  26.213  1.00  0.00     0.163 HD
BRANCH   3   6
ATOM      6  C   UNL A   1      36.378  20.684  25.206  1.00  0.00     0.042 A 
ATOM      7  C   UNL A   1      33.801  19.109  24.622  1.00  0.00     0.142 A 
ATOM      8  C   UNL A   1      35.036  18.509  24.481  1.00  0.00     0.049 A 
ATOM      9  C   UNL A   1      33.777  20.339  25.195  1.00  0.00     0.084 A 
ATOM     10  C   UNL A   1      36.231  19.224  24.833  1.00  0.00     0.018 A 
ATOM     11  C   UNL A   1      34.942  21.055  25.100  1.00  0.00     0.044 A 
BRANCH   7  12
ATOM     12  O   UNL A   1      32.695  18.567  24.036  1.00  0.00    -0.495 OA
ATOM     13  C   UNL A   1      32.215  17.503  24.886  1.00  0.00     0.278 C 
ENDBRANCH   7  12
BRANCH   9  14
ATOM     14  N   UNL A   1      32.659  21.018  25.700  1.00  0.00    -0.329 N 
ATOM     15  H   UNL A   1      31.969  20.447  26.110  1.00  0.00     0.169 HD
BRANCH  14  16
ATOM     16  C   UNL A   1      32.386  22.355  25.707  1.00  0.00     0.177 C 
ATOM     17  S   UNL A   1      31.188  22.903  26.743  1.00  0.00    -0.040 S 
BRANCH  16  18
ATOM     18  N   UNL A   1      33.058  23.324  24.969  1.00  0.00    -0.299 N 
ATOM     19  C   UNL A   1      32.760  24.473  24.211  1.00  0.00     0.261 C 
ATOM     20  H   UNL A   1      34.028  23.158  24.979  1.00  0.00     0.172 HD
ATOM     21  O   UNL A   1      32.808  24.372  22.983  1.00  0.00    -0.269 OA
BRANCH  19  22
ATOM     22  C   UNL A   1      32.360  25.817  24.794  1.00  0.00     0.082 A 
ATOM     23  C   UNL A   1      33.816  26.550  25.616  1.00  0.00     0.018 A 
ATOM     24  C   UNL A   1      30.950  26.934  24.316  1.00  0.00     0.134 A 
ATOM     25  C   UNL A   1      33.945  28.334  25.874  1.00  0.00     0.001 A 
ATOM     26  C   UNL A   1      31.145  28.738  24.488  1.00  0.00    -0.008 A 
ATOM     27  C   UNL A   1      32.622  29.447  25.261  1.00  0.00     0.007 A 
ATOM     28  C   UNL A   1      30.362  29.657  23.588  1.00  0.00     0.048 C 
BRANCH  24  29
ATOM     29  O   UNL A   1      29.859  26.659  23.522  1.00  0.00    -0.496 OA
ATOM     30  C   UNL A   1      28.629  26.258  24.087  1.00  0.00     0.278 C 
ENDBRANCH  24  29
ENDBRANCH  19  22
ENDBRANCH  16  18
ENDBRANCH  14  16
ENDBRANCH   9  14
ENDBRANCH   3   6
ENDBRANCH   1   2
BRANCH   1  31
ATOM     31  C   UNL A   1      41.889  21.470  26.917  1.00  0.00     0.023 C 
BRANCH  31  32
ATOM     32  C   UNL A   1      42.900  21.634  25.796  1.00  0.00     0.023 C 
BRANCH  32  33
ATOM     33  C   UNL A   1      42.803  22.939  25.027  1.00  0.00     0.116 C 
BRANCH  33  34
ATOM     34  N   UNL A   1      44.077  23.556  24.677  1.00  0.00    -0.352 N 
ATOM     35  C   UNL A   1      44.555  24.781  25.099  1.00  0.00     0.251 C 
ATOM     36  H   UNL A   1      44.660  23.043  24.073  1.00  0.00     0.163 HD
ATOM     37  O   UNL A   1      45.634  25.212  24.711  1.00  0.00    -0.269 OA
BRANCH  35  38
ATOM     38  C   UNL A   1      43.695  25.593  25.988  1.00  0.00     0.039 A 
ATOM     39  C   UNL A   1      42.827  24.946  26.869  1.00  0.00     0.014 A 
ATOM     40  C   UNL A   1      43.879  26.975  26.058  1.00  0.00     0.014 A 
ATOM     41  C   UNL A   1      42.219  25.679  27.890  1.00  0.00     0.010 A 
ATOM     42  C   UNL A   1      43.370  27.674  27.142  1.00  0.00     0.010 A 
ATOM     43  C   UNL A   1      42.534  27.037  28.073  1.00  0.00    -0.014 A 
BRANCH  43  44
ATOM     44  C   UNL A   1      42.005  27.812  29.224  1.00  0.00     0.031 A 
ATOM     45  C   UNL A   1      42.687  27.724  30.562  1.00  0.00     0.074 A 
ATOM     46  C   UNL A   1      40.874  28.535  29.088  1.00  0.00     0.049 A 
ATOM     47  N   UNL A   1      42.347  28.274  31.701  1.00  0.00    -0.248 NA
ATOM     48  C   UNL A   1      43.891  26.879  30.641  1.00  0.00     0.031 C 
ATOM     49  C   UNL A   1      40.084  28.661  27.860  1.00  0.00     0.029 A 
ATOM     50  N   UNL A   1      40.189  29.303  30.000  1.00  0.00    -0.354 N 
ATOM     51  C   UNL A   1      43.283  27.827  32.626  1.00  0.00     0.074 A 
ATOM     52  C   UNL A   1      44.159  26.908  31.936  1.00  0.00     0.031 C 
ATOM     53  C   UNL A   1      39.050  29.489  28.085  1.00  0.00     0.029 A 
ATOM     54  C   UNL A   1      39.073  29.915  29.480  1.00  0.00     0.049 A 
ATOM     55  H   UNL A   1      40.472  29.404  30.937  1.00  0.00     0.167 HD
ATOM     56  C   UNL A   1      43.420  28.171  33.928  1.00  0.00     0.031 A 
ATOM     57  C   UNL A   1      38.169  30.725  30.063  1.00  0.00     0.031 A 
ATOM     58  C   UNL A   1      42.557  29.094  34.611  1.00  0.00     0.049 A 
ATOM     59  C   UNL A   1      38.334  31.080  31.516  1.00  0.00     0.074 A 
ATOM     60  C   UNL A   1      42.645  29.553  35.912  1.00  0.00     0.029 A 
ATOM     61  N   UNL A   1      41.444  29.697  34.046  1.00  0.00    -0.354 N 
ATOM     62  N   UNL A   1      39.270  30.711  32.356  1.00  0.00    -0.248 NA
ATOM     63  C   UNL A   1      37.323  31.975  32.097  1.00  0.00     0.031 C 
ATOM     64  C   UNL A   1      41.550  30.388  36.154  1.00  0.00     0.029 A 
ATOM     65  C   UNL A   1      40.820  30.504  34.982  1.00  0.00     0.049 A 
ATOM     66  H   UNL A   1      41.142  29.570  33.118  1.00  0.00     0.167 HD
ATOM     67  C   UNL A   1      38.981  31.353  33.553  1.00  0.00     0.074 A 
ATOM     68  C   UNL A   1      37.793  32.149  33.325  1.00  0.00     0.031 C 
ATOM     69  C   UNL A   1      39.640  31.292  34.736  1.00  0.00     0.031 A 
BRANCH  56  70
ATOM     70  C   UNL A   1      44.551  27.541  34.694  1.00  0.00    -0.014 A 
ATOM     71  C   UNL A   1      44.380  26.328  35.382  1.00  0.00     0.009 A 
ATOM     72  C   UNL A   1      45.814  28.154  34.705  1.00  0.00     0.009 A 
ATOM     73  C   UNL A   1      45.438  25.763  36.098  1.00  0.00     0.001 A 
ATOM     74  C   UNL A   1      46.879  27.569  35.392  1.00  0.00     0.001 A 
ATOM     75  C   UNL A   1      46.688  26.380  36.096  1.00  0.00     0.000 A 
ENDBRANCH  56  70
BRANCH  57  76
ATOM     76  C   UNL A   1      37.031  31.274  29.275  1.00  0.00    -0.014 A 
ATOM     77  C   UNL A   1      35.911  30.479  28.987  1.00  0.00     0.009 A 
ATOM     78  C   UNL A   1      37.067  32.591  28.787  1.00  0.00     0.009 A 
ATOM     79  C   UNL A   1      34.868  30.978  28.201  1.00  0.00     0.001 A 
ATOM     80  C   UNL A   1      36.008  33.098  28.030  1.00  0.00     0.001 A 
ATOM     81  C   UNL A   1      34.915  32.288  27.727  1.00  0.00     0.000 A 
ENDBRANCH  57  76
BRANCH  69  82
ATOM     82  C   UNL A   1      39.120  32.142  35.862  1.00  0.00    -0.014 A 
ATOM     83  C   UNL A   1      39.502  33.484  36.007  1.00  0.00     0.009 A 
ATOM     84  C   UNL A   1      38.192  31.597  36.765  1.00  0.00     0.009 A 
ATOM     85  C   UNL A   1      38.993  34.252  37.056  1.00  0.00     0.001 A 
ATOM     86  C   UNL A   1      37.659  32.378  37.791  1.00  0.00     0.001 A 
ATOM     87  C   UNL A   1      38.068  33.701  37.943  1.00  0.00     0.000 A 
ENDBRANCH  69  82
ENDBRANCH  43  44
ENDBRANCH  35  38
ENDBRANCH  33  34
ENDBRANCH  32  33
ENDBRANCH  31  32
ENDBRANCH   1  31
TORSDOF 17
ENDMDL
