MODEL 1
REMARK VINA RESULT:     -11.3      0.000      0.000
REMARK SMILES CC(C)c1noc(C[N@H+]2CCCC[C@H]2C(=O)NCCCCNC(=O)c2ccc(-c3c4nc(c(-c5ccccc5)c5ccc([nH]5)c(-c5ccccc5)c5nc(c(-c6ccccc6)c6ccc3[nH]6)C=C5)C=C4)cc2)n1
REMARK SMILES IDX 19 1 18 2 17 3 15 4 16 5 14 7 9 8 10 9 11 11 13 12 12 13
REMARK SMILES IDX 8 14 7 15 4 16 5 17 73 18 6 19 2 20 1 21 3 22 20 23 21 24
REMARK SMILES IDX 22 25 23 26 24 28 25 29 26 30 72 31 27 32 71 33 28 34 29 35
REMARK SMILES IDX 30 36 65 37 31 38 70 39 64 40 66 41 32 42 69 43 63 44 62 45
REMARK SMILES IDX 33 47 55 48 40 49 54 50 41 51 44 52 53 53 67 54 42 55 43 56
REMARK SMILES IDX 52 58 68 59 45 60 34 61 35 62 39 63 36 64 38 65 37 66 56 67
REMARK SMILES IDX 57 68 61 69 58 70 60 71 59 72 46 73 47 74 51 75 48 76 50 77
REMARK SMILES IDX 49 78
REMARK H PARENT 17 6 9 10 22 27 66 46 44 57
REMARK Flexibility Score: inf
ROOT
ATOM      1  C   UNL A   1      31.492  30.557  25.859  1.00  0.00     0.023 C 
ENDROOT
BRANCH   1   2
ATOM      2  C   UNL A   1      32.927  30.020  25.896  1.00  0.00     0.116 C 
BRANCH   2   3
ATOM      3  N   UNL A   1      33.365  29.687  24.559  1.00  0.00    -0.351 N 
ATOM      4  C   UNL A   1      33.508  28.453  24.001  1.00  0.00     0.278 C 
ATOM      5  O   UNL A   1      34.404  28.327  23.166  1.00  0.00    -0.268 OA
ATOM      6  H   UNL A   1      33.588  30.450  23.978  1.00  0.00     0.163 HD
BRANCH   4   7
ATOM      7  C   UNL A   1      32.527  27.325  24.409  1.00  0.00     0.274 C 
ATOM      8  N   UNL A   1      32.286  26.319  23.343  1.00  0.00    -0.317 N 
ATOM      9  C   UNL A   1      33.464  25.518  23.001  1.00  0.00     0.263 C 
ATOM     10  H   UNL A   1      31.636  25.667  23.784  1.00  0.00     0.349 HD
ATOM     11  C   UNL A   1      34.059  24.837  24.239  1.00  0.00     0.062 C 
ATOM     12  C   UNL A   1      33.024  26.619  25.676  1.00  0.00     0.076 C 
ATOM     13  C   UNL A   1      34.277  25.793  25.406  1.00  0.00     0.012 C 
BRANCH   8  14
ATOM     14  C   UNL A   1      31.542  26.810  22.164  1.00  0.00     0.364 C 
BRANCH  14  15
ATOM     15  C   UNL A   1      30.485  27.841  22.383  1.00  0.00     0.281 A 
ATOM     16  C   UNL A   1      29.260  29.523  22.618  1.00  0.00     0.174 A 
ATOM     17  N   UNL A   1      28.562  28.548  23.219  1.00  0.00    -0.062 NA
ATOM     18  N   UNL A   1      30.435  29.107  22.033  1.00  0.00    -0.191 NA
ATOM     19  O   UNL A   1      29.374  27.427  23.062  1.00  0.00    -0.333 OA
BRANCH  16  20
ATOM     20  C   UNL A   1      28.775  30.938  22.522  1.00  0.00     0.055 C 
ATOM     21  C   UNL A   1      28.241  31.302  21.131  1.00  0.00     0.016 C 
ATOM     22  C   UNL A   1      27.696  31.242  23.565  1.00  0.00     0.016 C 
ENDBRANCH  16  20
ENDBRANCH  14  15
ENDBRANCH   8  14
ENDBRANCH   4   7
ENDBRANCH   2   3
ENDBRANCH   1   2
BRANCH   1  23
ATOM     23  C   UNL A   1      31.296  31.910  26.557  1.00  0.00     0.023 C 
BRANCH  23  24
ATOM     24  C   UNL A   1      32.551  32.494  27.199  1.00  0.00     0.116 C 
BRANCH  24  25
ATOM     25  N   UNL A   1      32.381  33.889  27.570  1.00  0.00    -0.352 N 
ATOM     26  C   UNL A   1      33.106  34.644  28.458  1.00  0.00     0.251 C 
ATOM     27  H   UNL A   1      31.641  34.359  27.124  1.00  0.00     0.163 HD
ATOM     28  O   UNL A   1      32.710  35.763  28.780  1.00  0.00    -0.269 OA
BRANCH  26  29
ATOM     29  C   UNL A   1      34.349  34.104  29.054  1.00  0.00     0.039 A 
ATOM     30  C   UNL A   1      34.263  33.371  30.240  1.00  0.00     0.014 A 
ATOM     31  C   UNL A   1      35.591  34.317  28.450  1.00  0.00     0.014 A 
ATOM     32  C   UNL A   1      35.412  32.792  30.782  1.00  0.00     0.010 A 
ATOM     33  C   UNL A   1      36.724  33.680  28.953  1.00  0.00     0.010 A 
ATOM     34  C   UNL A   1      36.647  32.907  30.121  1.00  0.00    -0.014 A 
BRANCH  34  35
ATOM     35  C   UNL A   1      37.861  32.214  30.629  1.00  0.00     0.031 A 
ATOM     36  C   UNL A   1      38.674  32.820  31.740  1.00  0.00     0.074 A 
ATOM     37  C   UNL A   1      38.263  31.064  30.051  1.00  0.00     0.049 A 
ATOM     38  N   UNL A   1      39.799  32.401  32.263  1.00  0.00    -0.248 NA
ATOM     39  C   UNL A   1      38.164  34.068  32.333  1.00  0.00     0.031 C 
ATOM     40  C   UNL A   1      37.579  30.379  28.952  1.00  0.00     0.029 A 
ATOM     41  N   UNL A   1      39.353  30.269  30.308  1.00  0.00    -0.354 N 
ATOM     42  C   UNL A   1      40.131  33.330  33.241  1.00  0.00     0.074 A 
ATOM     43  C   UNL A   1      39.121  34.365  33.200  1.00  0.00     0.031 C 
ATOM     44  C   UNL A   1      38.250  29.256  28.648  1.00  0.00     0.029 A 
ATOM     45  C   UNL A   1      39.437  29.166  29.491  1.00  0.00     0.049 A 
ATOM     46  H   UNL A   1      40.013  30.469  31.011  1.00  0.00     0.167 HD
ATOM     47  C   UNL A   1      41.168  33.313  34.113  1.00  0.00     0.031 A 
ATOM     48  C   UNL A   1      40.373  28.199  29.418  1.00  0.00     0.031 A 
ATOM     49  C   UNL A   1      42.179  32.291  34.152  1.00  0.00     0.049 A 
ATOM     50  C   UNL A   1      41.552  28.246  30.350  1.00  0.00     0.074 A 
ATOM     51  C   UNL A   1      43.259  32.179  35.011  1.00  0.00     0.029 A 
ATOM     52  N   UNL A   1      42.235  31.203  33.295  1.00  0.00    -0.354 N 
ATOM     53  N   UNL A   1      41.821  29.105  31.303  1.00  0.00    -0.248 NA
ATOM     54  C   UNL A   1      42.556  27.182  30.200  1.00  0.00     0.031 C 
ATOM     55  C   UNL A   1      43.998  31.052  34.641  1.00  0.00     0.029 A 
ATOM     56  C   UNL A   1      43.343  30.427  33.593  1.00  0.00     0.049 A 
ATOM     57  H   UNL A   1      41.585  31.010  32.582  1.00  0.00     0.167 HD
ATOM     58  C   UNL A   1      43.003  28.665  31.888  1.00  0.00     0.074 A 
ATOM     59  C   UNL A   1      43.387  27.452  31.196  1.00  0.00     0.031 C 
ATOM     60  C   UNL A   1      43.707  29.215  32.906  1.00  0.00     0.031 A 
BRANCH  47  61
ATOM     61  C   UNL A   1      41.258  34.439  35.106  1.00  0.00    -0.014 A 
ATOM     62  C   UNL A   1      40.625  34.349  36.358  1.00  0.00     0.009 A 
ATOM     63  C   UNL A   1      42.029  35.575  34.817  1.00  0.00     0.009 A 
ATOM     64  C   UNL A   1      40.738  35.387  37.284  1.00  0.00     0.001 A 
ATOM     65  C   UNL A   1      42.165  36.598  35.758  1.00  0.00     0.001 A 
ATOM     66  C   UNL A   1      41.513  36.506  36.986  1.00  0.00     0.000 A 
ENDBRANCH  47  61
BRANCH  48  67
ATOM     67  C   UNL A   1      40.251  27.101  28.420  1.00  0.00    -0.014 A 
ATOM     68  C   UNL A   1      40.809  27.235  27.139  1.00  0.00     0.009 A 
ATOM     69  C   UNL A   1      39.530  25.935  28.725  1.00  0.00     0.009 A 
ATOM     70  C   UNL A   1      40.608  26.247  26.171  1.00  0.00     0.001 A 
ATOM     71  C   UNL A   1      39.362  24.934  27.766  1.00  0.00     0.001 A 
ATOM     72  C   UNL A   1      39.886  25.097  26.486  1.00  0.00     0.000 A 
ENDBRANCH  48  67
BRANCH  60  73
ATOM     73  C   UNL A   1      44.936  28.484  33.370  1.00  0.00    -0.014 A 
ATOM     74  C   UNL A   1      46.200  28.753  32.822  1.00  0.00     0.009 A 
ATOM     75  C   UNL A   1      44.831  27.540  34.404  1.00  0.00     0.009 A 
ATOM     76  C   UNL A   1      47.328  28.066  33.276  1.00  0.00     0.001 A 
ATOM     77  C   UNL A   1      45.964  26.879  34.879  1.00  0.00     0.001 A 
ATOM     78  C   UNL A   1      47.209  27.135  34.308  1.00  0.00     0.000 A 
ENDBRANCH  60  73
ENDBRANCH  34  35
ENDBRANCH  26  29
ENDBRANCH  24  25
ENDBRANCH  23  24
ENDBRANCH   1  23
TORSDOF 14
ENDMDL
MODEL 2
REMARK VINA RESULT:     -11.3      4.567      9.702
REMARK SMILES CC(C)c1noc(C[N@H+]2CCCC[C@H]2C(=O)NCCCCNC(=O)c2ccc(-c3c4nc(c(-c5ccccc5)c5ccc([nH]5)c(-c5ccccc5)c5nc(c(-c6ccccc6)c6ccc3[nH]6)C=C5)C=C4)cc2)n1
REMARK SMILES IDX 19 1 18 2 17 3 15 4 16 5 14 7 9 8 10 9 11 11 13 12 12 13
REMARK SMILES IDX 8 14 7 15 4 16 5 17 73 18 6 19 2 20 1 21 3 22 20 23 21 24
REMARK SMILES IDX 22 25 23 26 24 28 25 29 26 30 72 31 27 32 71 33 28 34 29 35
REMARK SMILES IDX 30 36 65 37 31 38 70 39 64 40 66 41 32 42 69 43 63 44 62 45
REMARK SMILES IDX 33 47 55 48 40 49 54 50 41 51 44 52 53 53 67 54 42 55 43 56
REMARK SMILES IDX 52 58 68 59 45 60 34 61 35 62 39 63 36 64 38 65 37 66 56 67
REMARK SMILES IDX 57 68 61 69 58 70 60 71 59 72 46 73 47 74 51 75 48 76 50 77
REMARK SMILES IDX 49 78
REMARK H PARENT 17 6 9 10 22 27 66 46 44 57
REMARK Flexibility Score: inf
ROOT
ATOM      1  C   UNL A   1      36.480  20.462  24.942  1.00  0.00     0.023 C 
ENDROOT
BRANCH   1   2
ATOM      2  C   UNL A   1      36.587  21.772  25.732  1.00  0.00     0.116 C 
BRANCH   2   3
ATOM      3  N   UNL A   1      35.521  21.849  26.706  1.00  0.00    -0.351 N 
ATOM      4  C   UNL A   1      34.443  22.682  26.714  1.00  0.00     0.278 C 
ATOM      5  O   UNL A   1      34.022  23.027  27.819  1.00  0.00    -0.268 OA
ATOM      6  H   UNL A   1      35.582  21.219  27.460  1.00  0.00     0.163 HD
BRANCH   4   7
ATOM      7  C   UNL A   1      33.802  23.094  25.365  1.00  0.00     0.274 C 
ATOM      8  N   UNL A   1      32.323  23.225  25.414  1.00  0.00    -0.317 N 
ATOM      9  C   UNL A   1      31.848  24.318  26.265  1.00  0.00     0.263 C 
ATOM     10  H   UNL A   1      32.084  23.502  24.461  1.00  0.00     0.349 HD
ATOM     11  C   UNL A   1      32.479  25.657  25.863  1.00  0.00     0.062 C 
ATOM     12  C   UNL A   1      34.415  24.407  24.863  1.00  0.00     0.076 C 
ATOM     13  C   UNL A   1      33.996  25.591  25.726  1.00  0.00     0.012 C 
BRANCH   8  14
ATOM     14  C   UNL A   1      31.581  21.960  25.606  1.00  0.00     0.364 C 
BRANCH  14  15
ATOM     15  C   UNL A   1      32.138  20.721  24.989  1.00  0.00     0.281 A 
ATOM     16  C   UNL A   1      33.079  18.933  24.439  1.00  0.00     0.174 A 
ATOM     17  N   UNL A   1      32.733  19.474  23.260  1.00  0.00    -0.062 NA
ATOM     18  N   UNL A   1      32.671  19.653  25.539  1.00  0.00    -0.191 NA
ATOM     19  O   UNL A   1      32.105  20.662  23.624  1.00  0.00    -0.333 OA
BRANCH  16  20
ATOM     20  C   UNL A   1      33.788  17.618  24.560  1.00  0.00     0.055 C 
ATOM     21  C   UNL A   1      33.074  16.630  25.491  1.00  0.00     0.016 C 
ATOM     22  C   UNL A   1      33.994  16.955  23.195  1.00  0.00     0.016 C 
ENDBRANCH  16  20
ENDBRANCH  14  15
ENDBRANCH   8  14
ENDBRANCH   4   7
ENDBRANCH   2   3
ENDBRANCH   1   2
BRANCH   1  23
ATOM     23  C   UNL A   1      37.804  19.700  24.788  1.00  0.00     0.023 C 
BRANCH  23  24
ATOM     24  C   UNL A   1      38.949  20.208  25.657  1.00  0.00     0.116 C 
BRANCH  24  25
ATOM     25  N   UNL A   1      40.035  19.247  25.756  1.00  0.00    -0.352 N 
ATOM     26  C   UNL A   1      41.347  19.453  26.103  1.00  0.00     0.251 C 
ATOM     27  H   UNL A   1      39.796  18.316  25.543  1.00  0.00     0.163 HD
ATOM     28  O   UNL A   1      42.168  18.550  25.962  1.00  0.00    -0.269 OA
BRANCH  26  29
ATOM     29  C   UNL A   1      41.783  20.771  26.616  1.00  0.00     0.039 A 
ATOM     30  C   UNL A   1      42.294  21.709  25.716  1.00  0.00     0.014 A 
ATOM     31  C   UNL A   1      41.690  21.083  27.975  1.00  0.00     0.014 A 
ATOM     32  C   UNL A   1      42.645  22.983  26.166  1.00  0.00     0.010 A 
ATOM     33  C   UNL A   1      41.973  22.377  28.410  1.00  0.00     0.010 A 
ATOM     34  C   UNL A   1      42.449  23.342  27.511  1.00  0.00    -0.014 A 
BRANCH  34  35
ATOM     35  C   UNL A   1      42.723  24.723  27.988  1.00  0.00     0.031 A 
ATOM     36  C   UNL A   1      44.117  25.132  28.377  1.00  0.00     0.074 A 
ATOM     37  C   UNL A   1      41.704  25.596  28.123  1.00  0.00     0.049 A 
ATOM     38  N   UNL A   1      44.535  26.265  28.882  1.00  0.00    -0.248 NA
ATOM     39  C   UNL A   1      45.181  24.132  28.186  1.00  0.00     0.031 C 
ATOM     40  C   UNL A   1      40.302  25.323  27.801  1.00  0.00     0.029 A 
ATOM     41  N   UNL A   1      41.693  26.894  28.573  1.00  0.00    -0.354 N 
ATOM     42  C   UNL A   1      45.903  26.115  29.071  1.00  0.00     0.074 A 
ATOM     43  C   UNL A   1      46.236  24.762  28.681  1.00  0.00     0.031 C 
ATOM     44  C   UNL A   1      39.572  26.426  28.040  1.00  0.00     0.029 A 
ATOM     45  C   UNL A   1      40.442  27.466  28.579  1.00  0.00     0.049 A 
ATOM     46  H   UNL A   1      42.504  27.370  28.865  1.00  0.00     0.167 HD
ATOM     47  C   UNL A   1      46.807  27.026  29.505  1.00  0.00     0.031 A 
ATOM     48  C   UNL A   1      40.038  28.684  28.987  1.00  0.00     0.031 A 
ATOM     49  C   UNL A   1      46.479  28.370  29.901  1.00  0.00     0.049 A 
ATOM     50  C   UNL A   1      41.054  29.650  29.533  1.00  0.00     0.074 A 
ATOM     51  C   UNL A   1      47.328  29.371  30.339  1.00  0.00     0.029 A 
ATOM     52  N   UNL A   1      45.199  28.900  29.908  1.00  0.00    -0.354 N 
ATOM     53  N   UNL A   1      42.351  29.507  29.655  1.00  0.00    -0.248 NA
ATOM     54  C   UNL A   1      40.547  30.952  29.993  1.00  0.00     0.031 C 
ATOM     55  C   UNL A   1      46.557  30.491  30.660  1.00  0.00     0.029 A 
ATOM     56  C   UNL A   1      45.234  30.208  30.362  1.00  0.00     0.049 A 
ATOM     57  H   UNL A   1      44.385  28.420  29.631  1.00  0.00     0.167 HD
ATOM     58  C   UNL A   1      42.818  30.711  30.169  1.00  0.00     0.074 A 
ATOM     59  C   UNL A   1      41.669  31.579  30.317  1.00  0.00     0.031 C 
ATOM     60  C   UNL A   1      44.085  31.066  30.491  1.00  0.00     0.031 A 
BRANCH  47  61
ATOM     61  C   UNL A   1      48.247  26.599  29.569  1.00  0.00    -0.014 A 
ATOM     62  C   UNL A   1      48.761  25.965  30.713  1.00  0.00     0.009 A 
ATOM     63  C   UNL A   1      49.086  26.776  28.458  1.00  0.00     0.009 A 
ATOM     64  C   UNL A   1      50.092  25.546  30.753  1.00  0.00     0.001 A 
ATOM     65  C   UNL A   1      50.409  26.330  28.490  1.00  0.00     0.001 A 
ATOM     66  C   UNL A   1      50.912  25.723  29.640  1.00  0.00     0.000 A 
ENDBRANCH  47  61
BRANCH  48  67
ATOM     67  C   UNL A   1      38.603  29.073  28.910  1.00  0.00    -0.014 A 
ATOM     68  C   UNL A   1      38.077  29.631  27.734  1.00  0.00     0.009 A 
ATOM     69  C   UNL A   1      37.765  28.938  30.028  1.00  0.00     0.009 A 
ATOM     70  C   UNL A   1      36.757  30.089  27.696  1.00  0.00     0.001 A 
ATOM     71  C   UNL A   1      36.436  29.362  29.974  1.00  0.00     0.001 A 
ATOM     72  C   UNL A   1      35.938  29.952  28.815  1.00  0.00     0.000 A 
ENDBRANCH  48  67
BRANCH  60  73
ATOM     73  C   UNL A   1      44.305  32.469  30.986  1.00  0.00    -0.014 A 
ATOM     74  C   UNL A   1      44.192  32.793  32.346  1.00  0.00     0.009 A 
ATOM     75  C   UNL A   1      44.674  33.473  30.076  1.00  0.00     0.009 A 
ATOM     76  C   UNL A   1      44.410  34.103  32.781  1.00  0.00     0.001 A 
ATOM     77  C   UNL A   1      44.923  34.773  30.517  1.00  0.00     0.001 A 
ATOM     78  C   UNL A   1      44.781  35.089  31.867  1.00  0.00     0.000 A 
ENDBRANCH  60  73
ENDBRANCH  34  35
ENDBRANCH  26  29
ENDBRANCH  24  25
ENDBRANCH  23  24
ENDBRANCH   1  23
TORSDOF 14
ENDMDL
MODEL 3
REMARK VINA RESULT:     -11.1      5.465     10.006
REMARK SMILES CC(C)c1noc(C[N@H+]2CCCC[C@H]2C(=O)NCCCCNC(=O)c2ccc(-c3c4nc(c(-c5ccccc5)c5ccc([nH]5)c(-c5ccccc5)c5nc(c(-c6ccccc6)c6ccc3[nH]6)C=C5)C=C4)cc2)n1
REMARK SMILES IDX 19 1 18 2 17 3 15 4 16 5 14 7 9 8 10 9 11 11 13 12 12 13
REMARK SMILES IDX 8 14 7 15 4 16 5 17 73 18 6 19 2 20 1 21 3 22 20 23 21 24
REMARK SMILES IDX 22 25 23 26 24 28 25 29 26 30 72 31 27 32 71 33 28 34 29 35
REMARK SMILES IDX 30 36 65 37 31 38 70 39 64 40 66 41 32 42 69 43 63 44 62 45
REMARK SMILES IDX 33 47 55 48 40 49 54 50 41 51 44 52 53 53 67 54 42 55 43 56
REMARK SMILES IDX 52 58 68 59 45 60 34 61 35 62 39 63 36 64 38 65 37 66 56 67
REMARK SMILES IDX 57 68 61 69 58 70 60 71 59 72 46 73 47 74 51 75 48 76 50 77
REMARK SMILES IDX 49 78
REMARK H PARENT 17 6 9 10 22 27 66 46 44 57
REMARK Flexibility Score: inf
ROOT
ATOM      1  C   UNL A   1      36.620  20.467  25.013  1.00  0.00     0.023 C 
ENDROOT
BRANCH   1   2
ATOM      2  C   UNL A   1      36.608  21.811  25.750  1.00  0.00     0.116 C 
BRANCH   2   3
ATOM      3  N   UNL A   1      35.527  21.839  26.709  1.00  0.00    -0.351 N 
ATOM      4  C   UNL A   1      34.428  22.645  26.719  1.00  0.00     0.278 C 
ATOM      5  O   UNL A   1      33.983  22.953  27.825  1.00  0.00    -0.268 OA
ATOM      6  H   UNL A   1      35.592  21.193  27.449  1.00  0.00     0.163 HD
BRANCH   4   7
ATOM      7  C   UNL A   1      33.797  23.072  25.370  1.00  0.00     0.274 C 
ATOM      8  N   UNL A   1      32.316  23.191  25.407  1.00  0.00    -0.317 N 
ATOM      9  C   UNL A   1      31.826  24.270  26.269  1.00  0.00     0.263 C 
ATOM     10  H   UNL A   1      32.085  23.480  24.456  1.00  0.00     0.349 HD
ATOM     11  C   UNL A   1      32.452  25.618  25.892  1.00  0.00     0.062 C 
ATOM     12  C   UNL A   1      34.405  24.395  24.893  1.00  0.00     0.076 C 
ATOM     13  C   UNL A   1      33.970  25.564  25.769  1.00  0.00     0.012 C 
BRANCH   8  14
ATOM     14  C   UNL A   1      31.582  21.920  25.574  1.00  0.00     0.364 C 
BRANCH  14  15
ATOM     15  C   UNL A   1      32.154  20.692  24.949  1.00  0.00     0.281 A 
ATOM     16  C   UNL A   1      33.116  18.919  24.387  1.00  0.00     0.174 A 
ATOM     17  N   UNL A   1      32.775  19.470  23.212  1.00  0.00    -0.062 NA
ATOM     18  N   UNL A   1      32.692  19.623  25.491  1.00  0.00    -0.191 NA
ATOM     19  O   UNL A   1      32.134  20.648  23.583  1.00  0.00    -0.333 OA
BRANCH  16  20
ATOM     20  C   UNL A   1      33.835  17.608  24.500  1.00  0.00     0.055 C 
ATOM     21  C   UNL A   1      33.138  16.614  25.436  1.00  0.00     0.016 C 
ATOM     22  C   UNL A   1      34.034  16.949  23.132  1.00  0.00     0.016 C 
ENDBRANCH  16  20
ENDBRANCH  14  15
ENDBRANCH   8  14
ENDBRANCH   4   7
ENDBRANCH   2   3
ENDBRANCH   1   2
BRANCH   1  23
ATOM     23  C   UNL A   1      38.020  19.926  24.692  1.00  0.00     0.023 C 
BRANCH  23  24
ATOM     24  C   UNL A   1      39.086  20.225  25.741  1.00  0.00     0.116 C 
BRANCH  24  25
ATOM     25  N   UNL A   1      40.057  19.150  25.862  1.00  0.00    -0.352 N 
ATOM     26  C   UNL A   1      41.409  19.224  26.086  1.00  0.00     0.251 C 
ATOM     27  H   UNL A   1      39.694  18.240  25.770  1.00  0.00     0.163 HD
ATOM     28  O   UNL A   1      42.105  18.216  25.983  1.00  0.00    -0.269 OA
BRANCH  26  29
ATOM     29  C   UNL A   1      42.038  20.521  26.420  1.00  0.00     0.039 A 
ATOM     30  C   UNL A   1      42.497  21.335  25.380  1.00  0.00     0.014 A 
ATOM     31  C   UNL A   1      42.177  20.936  27.747  1.00  0.00     0.014 A 
ATOM     32  C   UNL A   1      43.030  22.593  25.668  1.00  0.00     0.010 A 
ATOM     33  C   UNL A   1      42.642  22.220  28.027  1.00  0.00     0.010 A 
ATOM     34  C   UNL A   1      43.069  23.064  26.991  1.00  0.00    -0.014 A 
BRANCH  34  35
ATOM     35  C   UNL A   1      43.539  24.439  27.306  1.00  0.00     0.031 A 
ATOM     36  C   UNL A   1      42.557  25.504  27.713  1.00  0.00     0.074 A 
ATOM     37  C   UNL A   1      44.845  24.745  27.173  1.00  0.00     0.049 A 
ATOM     38  N   UNL A   1      42.769  26.773  27.955  1.00  0.00    -0.248 NA
ATOM     39  C   UNL A   1      41.150  25.093  27.854  1.00  0.00     0.031 C 
ATOM     40  C   UNL A   1      45.900  23.814  26.767  1.00  0.00     0.029 A 
ATOM     41  N   UNL A   1      45.509  25.933  27.362  1.00  0.00    -0.354 N 
ATOM     42  C   UNL A   1      41.528  27.310  28.274  1.00  0.00     0.074 A 
ATOM     43  C   UNL A   1      40.559  26.244  28.138  1.00  0.00     0.031 C 
ATOM     44  C   UNL A   1      47.079  24.458  26.762  1.00  0.00     0.029 A 
ATOM     45  C   UNL A   1      46.859  25.856  27.114  1.00  0.00     0.049 A 
ATOM     46  H   UNL A   1      45.061  26.761  27.649  1.00  0.00     0.167 HD
ATOM     47  C   UNL A   1      41.222  28.570  28.669  1.00  0.00     0.031 A 
ATOM     48  C   UNL A   1      47.812  26.809  27.149  1.00  0.00     0.031 A 
ATOM     49  C   UNL A   1      42.180  29.635  28.797  1.00  0.00     0.049 A 
ATOM     50  C   UNL A   1      47.430  28.216  27.520  1.00  0.00     0.074 A 
ATOM     51  C   UNL A   1      41.968  30.941  29.206  1.00  0.00     0.029 A 
ATOM     52  N   UNL A   1      43.533  29.518  28.518  1.00  0.00    -0.354 N 
ATOM     53  N   UNL A   1      46.260  28.692  27.868  1.00  0.00    -0.248 NA
ATOM     54  C   UNL A   1      48.507  29.217  27.509  1.00  0.00     0.031 C 
ATOM     55  C   UNL A   1      43.182  31.628  29.126  1.00  0.00     0.029 A 
ATOM     56  C   UNL A   1      44.163  30.734  28.727  1.00  0.00     0.049 A 
ATOM     57  H   UNL A   1      43.980  28.695  28.217  1.00  0.00     0.167 HD
ATOM     58  C   UNL A   1      46.467  30.037  28.153  1.00  0.00     0.074 A 
ATOM     59  C   UNL A   1      47.878  30.294  27.956  1.00  0.00     0.031 C 
ATOM     60  C   UNL A   1      45.570  30.974  28.541  1.00  0.00     0.031 A 
BRANCH  47  61
ATOM     61  C   UNL A   1      39.785  28.865  28.997  1.00  0.00    -0.014 A 
ATOM     62  C   UNL A   1      38.890  29.292  28.001  1.00  0.00     0.009 A 
ATOM     63  C   UNL A   1      39.302  28.659  30.299  1.00  0.00     0.009 A 
ATOM     64  C   UNL A   1      37.551  29.537  28.310  1.00  0.00     0.001 A 
ATOM     65  C   UNL A   1      37.955  28.876  30.597  1.00  0.00     0.001 A 
ATOM     66  C   UNL A   1      37.083  29.321  29.605  1.00  0.00     0.000 A 
ENDBRANCH  47  61
BRANCH  48  67
ATOM     67  C   UNL A   1      49.225  26.480  26.816  1.00  0.00    -0.014 A 
ATOM     68  C   UNL A   1      49.689  26.582  25.495  1.00  0.00     0.009 A 
ATOM     69  C   UNL A   1      50.103  26.012  27.806  1.00  0.00     0.009 A 
ATOM     70  C   UNL A   1      50.985  26.176  25.165  1.00  0.00     0.001 A 
ATOM     71  C   UNL A   1      51.409  25.643  27.480  1.00  0.00     0.001 A 
ATOM     72  C   UNL A   1      51.844  25.710  26.158  1.00  0.00     0.000 A 
ENDBRANCH  48  67
BRANCH  60  73
ATOM     73  C   UNL A   1      46.094  32.354  28.831  1.00  0.00    -0.014 A 
ATOM     74  C   UNL A   1      46.086  33.361  27.854  1.00  0.00     0.009 A 
ATOM     75  C   UNL A   1      46.562  32.659  30.119  1.00  0.00     0.009 A 
ATOM     76  C   UNL A   1      46.571  34.636  28.150  1.00  0.00     0.001 A 
ATOM     77  C   UNL A   1      47.016  33.944  30.422  1.00  0.00     0.001 A 
ATOM     78  C   UNL A   1      47.029  34.928  29.436  1.00  0.00     0.000 A 
ENDBRANCH  60  73
ENDBRANCH  34  35
ENDBRANCH  26  29
ENDBRANCH  24  25
ENDBRANCH  23  24
ENDBRANCH   1  23
TORSDOF 14
ENDMDL
