MODEL 1
REMARK VINA RESULT:     -12.5      0.000      0.000
REMARK SMILES COc1ccc2c(CC(=O)NCCCCNC(=O)c3ccc(-c4c5nc(c(-c6ccccc6)c6ccc([nH]6)c(-c6ccccc6)c6nc(c(-c7ccccc7)c7ccc4[nH]7)C=C6)C=C5)cc3)c(C(=O)c3cc(C)ccn3)[nH]c2c1
REMARK SMILES IDX 13 1 12 2 11 3 9 4 10 5 8 7 7 8 3 9 4 10 79 11 5 12 78 13
REMARK SMILES IDX 6 14 77 15 67 16 2 18 1 19 68 20 69 21 70 22 71 23 76 24
REMARK SMILES IDX 72 25 75 26 73 27 74 28 14 29 15 30 16 31 17 32 18 34 19 35
REMARK SMILES IDX 20 36 66 37 21 38 65 39 22 40 23 41 24 42 59 43 25 44 64 45
REMARK SMILES IDX 58 46 60 47 26 48 63 49 57 50 56 51 27 53 49 54 34 55 48 56
REMARK SMILES IDX 35 57 38 58 47 59 61 60 36 61 37 62 46 64 62 65 39 66 28 67
REMARK SMILES IDX 29 68 33 69 30 70 32 71 31 72 50 73 51 74 55 75 52 76 54 77
REMARK SMILES IDX 53 78 40 79 41 80 45 81 42 82 44 83 43 84
REMARK H PARENT 11 6 77 17 16 33 60 52 38 63
REMARK Flexibility Score: inf
ROOT
ATOM      1  C   UNL A   1      31.915  30.312  26.864  1.00  0.00     0.023 C 
ENDROOT
BRANCH   1   2
ATOM      2  C   UNL A   1      33.375  29.888  27.002  1.00  0.00     0.116 C 
BRANCH   2   3
ATOM      3  N   UNL A   1      33.883  29.248  25.809  1.00  0.00    -0.356 N 
ATOM      4  C   UNL A   1      33.585  28.020  25.289  1.00  0.00     0.224 C 
ATOM      5  O   UNL A   1      33.985  27.792  24.143  1.00  0.00    -0.275 OA
ATOM      6  H   UNL A   1      34.539  29.773  25.297  1.00  0.00     0.163 HD
BRANCH   4   7
ATOM      7  C   UNL A   1      32.680  27.038  26.026  1.00  0.00     0.138 C 
BRANCH   7   8
ATOM      8  C   UNL A   1      31.380  26.712  25.336  1.00  0.00    -0.002 A 
ATOM      9  C   UNL A   1      28.708  28.882  22.903  1.00  0.00     0.120 A 
ATOM     10  C   UNL A   1      29.861  29.567  23.276  1.00  0.00     0.047 A 
ATOM     11  C   UNL A   1      28.472  27.577  23.349  1.00  0.00     0.073 A 
ATOM     12  C   UNL A   1      30.831  28.941  24.065  1.00  0.00     0.014 A 
ATOM     13  C   UNL A   1      29.460  26.966  24.133  1.00  0.00     0.050 A 
ATOM     14  C   UNL A   1      30.634  27.614  24.504  1.00  0.00     0.004 A 
ATOM     15  N   UNL A   1      29.503  25.709  24.686  1.00  0.00    -0.351 N 
ATOM     16  C   UNL A   1      30.696  25.494  25.345  1.00  0.00     0.093 A 
ATOM     17  H   UNL A   1      28.777  25.047  24.619  1.00  0.00     0.167 HD
BRANCH   9  18
ATOM     18  O   UNL A   1      27.716  29.439  22.138  1.00  0.00    -0.497 OA
ATOM     19  C   UNL A   1      28.173  30.501  21.302  1.00  0.00     0.278 C 
ENDBRANCH   9  18
BRANCH  16  20
ATOM     20  C   UNL A   1      31.113  24.234  25.954  1.00  0.00     0.227 C 
ATOM     21  O   UNL A   1      31.120  24.045  27.168  1.00  0.00    -0.285 OA
BRANCH  20  22
ATOM     22  C   UNL A   1      31.613  23.130  25.090  1.00  0.00     0.113 A 
ATOM     23  C   UNL A   1      31.973  21.912  25.658  1.00  0.00     0.036 A 
ATOM     24  N   UNL A   1      31.645  23.383  23.757  1.00  0.00    -0.253 NA
ATOM     25  C   UNL A   1      32.394  20.885  24.810  1.00  0.00    -0.047 A 
ATOM     26  C   UNL A   1      32.023  22.365  22.960  1.00  0.00     0.112 A 
ATOM     27  C   UNL A   1      32.800  19.547  25.349  1.00  0.00     0.044 C 
ATOM     28  C   UNL A   1      32.407  21.119  23.432  1.00  0.00     0.023 A 
ENDBRANCH  20  22
ENDBRANCH  16  20
ENDBRANCH   7   8
ENDBRANCH   4   7
ENDBRANCH   2   3
ENDBRANCH   1   2
BRANCH   1  29
ATOM     29  C   UNL A   1      31.695  31.826  26.808  1.00  0.00     0.023 C 
BRANCH  29  30
ATOM     30  C   UNL A   1      32.850  32.673  27.329  1.00  0.00     0.116 C 
BRANCH  30  31
ATOM     31  N   UNL A   1      32.464  34.041  27.643  1.00  0.00    -0.352 N 
ATOM     32  C   UNL A   1      33.015  34.904  28.561  1.00  0.00     0.251 C 
ATOM     33  H   UNL A   1      31.704  34.396  27.129  1.00  0.00     0.163 HD
ATOM     34  O   UNL A   1      32.491  35.992  28.783  1.00  0.00    -0.269 OA
BRANCH  32  35
ATOM     35  C   UNL A   1      34.220  34.499  29.313  1.00  0.00     0.039 A 
ATOM     36  C   UNL A   1      34.065  33.956  30.591  1.00  0.00     0.014 A 
ATOM     37  C   UNL A   1      35.493  34.621  28.748  1.00  0.00     0.014 A 
ATOM     38  C   UNL A   1      35.179  33.462  31.270  1.00  0.00     0.010 A 
ATOM     39  C   UNL A   1      36.591  34.065  29.397  1.00  0.00     0.010 A 
ATOM     40  C   UNL A   1      36.444  33.471  30.661  1.00  0.00    -0.014 A 
BRANCH  40  41
ATOM     41  C   UNL A   1      37.619  32.839  31.313  1.00  0.00     0.031 A 
ATOM     42  C   UNL A   1      38.268  31.630  30.700  1.00  0.00     0.074 A 
ATOM     43  C   UNL A   1      38.056  33.312  32.495  1.00  0.00     0.049 A 
ATOM     44  N   UNL A   1      39.257  30.904  31.158  1.00  0.00    -0.248 NA
ATOM     45  C   UNL A   1      37.723  31.161  29.416  1.00  0.00     0.031 C 
ATOM     46  C   UNL A   1      37.489  34.456  33.214  1.00  0.00     0.029 A 
ATOM     47  N   UNL A   1      39.074  32.881  33.309  1.00  0.00    -0.354 N 
ATOM     48  C   UNL A   1      39.442  29.888  30.229  1.00  0.00     0.074 A 
ATOM     49  C   UNL A   1      38.433  30.064  29.205  1.00  0.00     0.031 C 
ATOM     50  C   UNL A   1      38.183  34.650  34.347  1.00  0.00     0.029 A 
ATOM     51  C   UNL A   1      39.209  33.620  34.459  1.00  0.00     0.049 A 
ATOM     52  H   UNL A   1      39.652  32.115  33.089  1.00  0.00     0.167 HD
ATOM     53  C   UNL A   1      40.376  28.908  30.218  1.00  0.00     0.031 A 
ATOM     54  C   UNL A   1      40.057  33.478  35.496  1.00  0.00     0.031 A 
ATOM     55  C   UNL A   1      41.378  28.733  31.236  1.00  0.00     0.049 A 
ATOM     56  C   UNL A   1      41.061  32.359  35.477  1.00  0.00     0.074 A 
ATOM     57  C   UNL A   1      42.402  27.802  31.286  1.00  0.00     0.029 A 
ATOM     58  N   UNL A   1      41.479  29.499  32.387  1.00  0.00    -0.354 N 
ATOM     59  N   UNL A   1      41.269  31.451  34.555  1.00  0.00    -0.248 NA
ATOM     60  C   UNL A   1      41.953  32.253  36.641  1.00  0.00     0.031 C 
ATOM     61  C   UNL A   1      43.085  27.967  32.495  1.00  0.00     0.029 A 
ATOM     62  C   UNL A   1      42.526  29.041  33.169  1.00  0.00     0.049 A 
ATOM     63  H   UNL A   1      40.891  30.255  32.615  1.00  0.00     0.167 HD
ATOM     64  C   UNL A   1      42.329  30.681  35.015  1.00  0.00     0.074 A 
ATOM     65  C   UNL A   1      42.735  31.243  36.288  1.00  0.00     0.031 C 
ATOM     66  C   UNL A   1      42.914  29.604  34.436  1.00  0.00     0.031 A 
BRANCH  53  67
ATOM     67  C   UNL A   1      40.348  27.936  29.071  1.00  0.00    -0.014 A 
ATOM     68  C   UNL A   1      39.613  26.742  29.147  1.00  0.00     0.009 A 
ATOM     69  C   UNL A   1      41.035  28.235  27.885  1.00  0.00     0.009 A 
ATOM     70  C   UNL A   1      39.598  25.850  28.071  1.00  0.00     0.001 A 
ATOM     71  C   UNL A   1      40.993  27.357  26.800  1.00  0.00     0.001 A 
ATOM     72  C   UNL A   1      40.283  26.162  26.898  1.00  0.00     0.000 A 
ENDBRANCH  53  67
BRANCH  54  73
ATOM     73  C   UNL A   1      39.996  34.421  36.645  1.00  0.00    -0.014 A 
ATOM     74  C   UNL A   1      40.753  35.603  36.637  1.00  0.00     0.009 A 
ATOM     75  C   UNL A   1      39.189  34.140  37.759  1.00  0.00     0.009 A 
ATOM     76  C   UNL A   1      40.726  36.468  37.733  1.00  0.00     0.001 A 
ATOM     77  C   UNL A   1      39.140  35.022  38.840  1.00  0.00     0.001 A 
ATOM     78  C   UNL A   1      39.917  36.180  38.830  1.00  0.00     0.000 A 
ENDBRANCH  54  73
BRANCH  66  79
ATOM     79  C   UNL A   1      44.075  28.980  35.160  1.00  0.00    -0.014 A 
ATOM     80  C   UNL A   1      43.886  27.934  36.077  1.00  0.00     0.009 A 
ATOM     81  C   UNL A   1      45.381  29.423  34.894  1.00  0.00     0.009 A 
ATOM     82  C   UNL A   1      44.979  27.369  36.738  1.00  0.00     0.001 A 
ATOM     83  C   UNL A   1      46.473  28.835  35.532  1.00  0.00     0.001 A 
ATOM     84  C   UNL A   1      46.271  27.815  36.461  1.00  0.00     0.000 A 
ENDBRANCH  66  79
ENDBRANCH  40  41
ENDBRANCH  32  35
ENDBRANCH  30  31
ENDBRANCH  29  30
ENDBRANCH   1  29
TORSDOF 15
ENDMDL
MODEL 2
REMARK VINA RESULT:     -12.5      5.375     10.508
REMARK SMILES COc1ccc2c(CC(=O)NCCCCNC(=O)c3ccc(-c4c5nc(c(-c6ccccc6)c6ccc([nH]6)c(-c6ccccc6)c6nc(c(-c7ccccc7)c7ccc4[nH]7)C=C6)C=C5)cc3)c(C(=O)c3cc(C)ccn3)[nH]c2c1
REMARK SMILES IDX 13 1 12 2 11 3 9 4 10 5 8 7 7 8 3 9 4 10 79 11 5 12 78 13
REMARK SMILES IDX 6 14 77 15 67 16 2 18 1 19 68 20 69 21 70 22 71 23 76 24
REMARK SMILES IDX 72 25 75 26 73 27 74 28 14 29 15 30 16 31 17 32 18 34 19 35
REMARK SMILES IDX 20 36 66 37 21 38 65 39 22 40 23 41 24 42 59 43 25 44 64 45
REMARK SMILES IDX 58 46 60 47 26 48 63 49 57 50 56 51 27 53 49 54 34 55 48 56
REMARK SMILES IDX 35 57 38 58 47 59 61 60 36 61 37 62 46 64 62 65 39 66 28 67
REMARK SMILES IDX 29 68 33 69 30 70 32 71 31 72 50 73 51 74 55 75 52 76 54 77
REMARK SMILES IDX 53 78 40 79 41 80 45 81 42 82 44 83 43 84
REMARK H PARENT 11 6 77 17 16 33 60 52 38 63
REMARK Flexibility Score: inf
ROOT
ATOM      1  C   UNL A   1      37.402  21.587  24.531  1.00  0.00     0.023 C 
ENDROOT
BRANCH   1   2
ATOM      2  C   UNL A   1      37.708  22.762  25.457  1.00  0.00     0.116 C 
BRANCH   2   3
ATOM      3  N   UNL A   1      36.560  23.169  26.235  1.00  0.00    -0.356 N 
ATOM      4  C   UNL A   1      35.360  23.670  25.816  1.00  0.00     0.224 C 
ATOM      5  O   UNL A   1      34.461  23.736  26.660  1.00  0.00    -0.275 OA
ATOM      6  H   UNL A   1      36.656  23.072  27.210  1.00  0.00     0.163 HD
BRANCH   4   7
ATOM      7  C   UNL A   1      35.098  23.994  24.349  1.00  0.00     0.138 C 
BRANCH   7   8
ATOM      8  C   UNL A   1      33.989  23.206  23.699  1.00  0.00    -0.002 A 
ATOM      9  C   UNL A   1      32.693  19.202  23.926  1.00  0.00     0.120 A 
ATOM     10  C   UNL A   1      33.742  19.535  24.778  1.00  0.00     0.047 A 
ATOM     11  C   UNL A   1      32.153  20.148  23.049  1.00  0.00     0.073 A 
ATOM     12  C   UNL A   1      34.242  20.841  24.807  1.00  0.00     0.014 A 
ATOM     13  C   UNL A   1      32.663  21.452  23.097  1.00  0.00     0.050 A 
ATOM     14  C   UNL A   1      33.695  21.824  23.953  1.00  0.00     0.004 A 
ATOM     15  N   UNL A   1      32.317  22.568  22.376  1.00  0.00    -0.351 N 
ATOM     16  C   UNL A   1      33.042  23.670  22.782  1.00  0.00     0.093 A 
ATOM     17  H   UNL A   1      31.639  22.581  21.662  1.00  0.00     0.167 HD
BRANCH   9  18
ATOM     18  O   UNL A   1      32.161  17.941  23.845  1.00  0.00    -0.497 OA
ATOM     19  C   UNL A   1      32.511  17.106  24.948  1.00  0.00     0.278 C 
ENDBRANCH   9  18
BRANCH  16  20
ATOM     20  C   UNL A   1      32.853  25.035  22.300  1.00  0.00     0.227 C 
ATOM     21  O   UNL A   1      33.653  25.602  21.559  1.00  0.00    -0.285 OA
BRANCH  20  22
ATOM     22  C   UNL A   1      31.673  25.819  22.756  1.00  0.00     0.113 A 
ATOM     23  C   UNL A   1      31.520  27.143  22.355  1.00  0.00     0.036 A 
ATOM     24  N   UNL A   1      30.776  25.154  23.526  1.00  0.00    -0.253 NA
ATOM     25  C   UNL A   1      30.378  27.832  22.766  1.00  0.00    -0.047 A 
ATOM     26  C   UNL A   1      29.667  25.831  23.881  1.00  0.00     0.112 A 
ATOM     27  C   UNL A   1      30.146  29.260  22.376  1.00  0.00     0.044 C 
ATOM     28  C   UNL A   1      29.429  27.153  23.537  1.00  0.00     0.023 A 
ENDBRANCH  20  22
ENDBRANCH  16  20
ENDBRANCH   7   8
ENDBRANCH   4   7
ENDBRANCH   2   3
ENDBRANCH   1   2
BRANCH   1  29
ATOM     29  C   UNL A   1      37.966  20.244  25.001  1.00  0.00     0.023 C 
BRANCH  29  30
ATOM     30  C   UNL A   1      39.102  20.331  26.014  1.00  0.00     0.116 C 
BRANCH  30  31
ATOM     31  N   UNL A   1      40.050  19.232  25.911  1.00  0.00    -0.352 N 
ATOM     32  C   UNL A   1      41.420  19.260  26.029  1.00  0.00     0.251 C 
ATOM     33  H   UNL A   1      39.658  18.348  25.732  1.00  0.00     0.163 HD
ATOM     34  O   UNL A   1      42.084  18.254  25.798  1.00  0.00    -0.269 OA
BRANCH  32  35
ATOM     35  C   UNL A   1      42.096  20.522  26.394  1.00  0.00     0.039 A 
ATOM     36  C   UNL A   1      42.614  21.327  25.376  1.00  0.00     0.014 A 
ATOM     37  C   UNL A   1      42.187  20.926  27.729  1.00  0.00     0.014 A 
ATOM     38  C   UNL A   1      43.153  22.575  25.691  1.00  0.00     0.010 A 
ATOM     39  C   UNL A   1      42.661  22.199  28.033  1.00  0.00     0.010 A 
ATOM     40  C   UNL A   1      43.140  23.040  27.016  1.00  0.00    -0.014 A 
BRANCH  40  41
ATOM     41  C   UNL A   1      43.593  24.413  27.355  1.00  0.00     0.031 A 
ATOM     42  C   UNL A   1      42.596  25.469  27.740  1.00  0.00     0.074 A 
ATOM     43  C   UNL A   1      44.899  24.726  27.247  1.00  0.00     0.049 A 
ATOM     44  N   UNL A   1      42.796  26.736  28.004  1.00  0.00    -0.248 NA
ATOM     45  C   UNL A   1      41.186  25.054  27.819  1.00  0.00     0.031 C 
ATOM     46  C   UNL A   1      45.964  23.803  26.848  1.00  0.00     0.029 A 
ATOM     47  N   UNL A   1      45.552  25.916  27.455  1.00  0.00    -0.354 N 
ATOM     48  C   UNL A   1      41.541  27.270  28.264  1.00  0.00     0.074 A 
ATOM     49  C   UNL A   1      40.581  26.202  28.082  1.00  0.00     0.031 C 
ATOM     50  C   UNL A   1      47.138  24.454  26.863  1.00  0.00     0.029 A 
ATOM     51  C   UNL A   1      46.905  25.847  27.226  1.00  0.00     0.049 A 
ATOM     52  H   UNL A   1      45.094  26.740  27.739  1.00  0.00     0.167 HD
ATOM     53  C   UNL A   1      41.217  28.531  28.638  1.00  0.00     0.031 A 
ATOM     54  C   UNL A   1      47.852  26.802  27.290  1.00  0.00     0.031 A 
ATOM     55  C   UNL A   1      42.171  29.593  28.818  1.00  0.00     0.049 A 
ATOM     56  C   UNL A   1      47.461  28.202  27.672  1.00  0.00     0.074 A 
ATOM     57  C   UNL A   1      41.945  30.890  29.248  1.00  0.00     0.029 A 
ATOM     58  N   UNL A   1      43.530  29.485  28.573  1.00  0.00    -0.354 N 
ATOM     59  N   UNL A   1      46.279  28.673  27.985  1.00  0.00    -0.248 NA
ATOM     60  C   UNL A   1      48.539  29.200  27.716  1.00  0.00     0.031 C 
ATOM     61  C   UNL A   1      43.160  31.582  29.205  1.00  0.00     0.029 A 
ATOM     62  C   UNL A   1      44.152  30.700  28.809  1.00  0.00     0.049 A 
ATOM     63  H   UNL A   1      43.987  28.665  28.273  1.00  0.00     0.167 HD
ATOM     64  C   UNL A   1      46.474  30.015  28.286  1.00  0.00     0.074 A 
ATOM     65  C   UNL A   1      47.892  30.276  28.139  1.00  0.00     0.031 C 
ATOM     66  C   UNL A   1      45.561  30.948  28.652  1.00  0.00     0.031 A 
BRANCH  53  67
ATOM     67  C   UNL A   1      39.761  28.834  28.864  1.00  0.00    -0.014 A 
ATOM     68  C   UNL A   1      39.170  28.667  30.127  1.00  0.00     0.009 A 
ATOM     69  C   UNL A   1      38.979  29.328  27.809  1.00  0.00     0.009 A 
ATOM     70  C   UNL A   1      37.816  28.953  30.318  1.00  0.00     0.001 A 
ATOM     71  C   UNL A   1      37.634  29.644  28.011  1.00  0.00     0.001 A 
ATOM     72  C   UNL A   1      37.052  29.446  29.262  1.00  0.00     0.000 A 
ENDBRANCH  53  67
BRANCH  54  73
ATOM     73  C   UNL A   1      49.270  26.468  26.984  1.00  0.00    -0.014 A 
ATOM     74  C   UNL A   1      49.748  26.531  25.666  1.00  0.00     0.009 A 
ATOM     75  C   UNL A   1      50.148  26.074  28.006  1.00  0.00     0.009 A 
ATOM     76  C   UNL A   1      51.067  26.178  25.374  1.00  0.00     0.001 A 
ATOM     77  C   UNL A   1      51.475  25.752  27.716  1.00  0.00     0.001 A 
ATOM     78  C   UNL A   1      51.930  25.794  26.399  1.00  0.00     0.000 A 
ENDBRANCH  54  73
BRANCH  66  79
ATOM     79  C   UNL A   1      46.072  32.331  28.946  1.00  0.00    -0.014 A 
ATOM     80  C   UNL A   1      46.120  33.318  27.949  1.00  0.00     0.009 A 
ATOM     81  C   UNL A   1      46.478  32.661  30.249  1.00  0.00     0.009 A 
ATOM     82  C   UNL A   1      46.598  34.597  28.245  1.00  0.00     0.001 A 
ATOM     83  C   UNL A   1      46.924  33.948  30.549  1.00  0.00     0.001 A 
ATOM     84  C   UNL A   1      46.993  34.913  29.545  1.00  0.00     0.000 A 
ENDBRANCH  66  79
ENDBRANCH  40  41
ENDBRANCH  32  35
ENDBRANCH  30  31
ENDBRANCH  29  30
ENDBRANCH   1  29
TORSDOF 15
ENDMDL
MODEL 3
REMARK VINA RESULT:     -12.4      1.730      6.916
REMARK SMILES COc1ccc2c(CC(=O)NCCCCNC(=O)c3ccc(-c4c5nc(c(-c6ccccc6)c6ccc([nH]6)c(-c6ccccc6)c6nc(c(-c7ccccc7)c7ccc4[nH]7)C=C6)C=C5)cc3)c(C(=O)c3cc(C)ccn3)[nH]c2c1
REMARK SMILES IDX 13 1 12 2 11 3 9 4 10 5 8 7 7 8 3 9 4 10 79 11 5 12 78 13
REMARK SMILES IDX 6 14 77 15 67 16 2 18 1 19 68 20 69 21 70 22 71 23 76 24
REMARK SMILES IDX 72 25 75 26 73 27 74 28 14 29 15 30 16 31 17 32 18 34 19 35
REMARK SMILES IDX 20 36 66 37 21 38 65 39 22 40 23 41 24 42 59 43 25 44 64 45
REMARK SMILES IDX 58 46 60 47 26 48 63 49 57 50 56 51 27 53 49 54 34 55 48 56
REMARK SMILES IDX 35 57 38 58 47 59 61 60 36 61 37 62 46 64 62 65 39 66 28 67
REMARK SMILES IDX 29 68 33 69 30 70 32 71 31 72 50 73 51 74 55 75 52 76 54 77
REMARK SMILES IDX 53 78 40 79 41 80 45 81 42 82 44 83 43 84
REMARK H PARENT 11 6 77 17 16 33 60 52 38 63
REMARK Flexibility Score: inf
ROOT
ATOM      1  C   UNL A   1      31.820  30.360  26.093  1.00  0.00     0.023 C 
ENDROOT
BRANCH   1   2
ATOM      2  C   UNL A   1      32.244  29.393  27.196  1.00  0.00     0.116 C 
BRANCH   2   3
ATOM      3  N   UNL A   1      31.620  28.095  27.068  1.00  0.00    -0.356 N 
ATOM      4  C   UNL A   1      32.133  26.929  26.574  1.00  0.00     0.224 C 
ATOM      5  O   UNL A   1      31.473  25.905  26.774  1.00  0.00    -0.275 OA
ATOM      6  H   UNL A   1      30.688  28.044  27.382  1.00  0.00     0.163 HD
BRANCH   4   7
ATOM      7  C   UNL A   1      33.518  26.873  25.938  1.00  0.00     0.138 C 
BRANCH   7   8
ATOM      8  C   UNL A   1      33.720  25.781  24.919  1.00  0.00    -0.002 A 
ATOM      9  C   UNL A   1      34.691  21.685  25.139  1.00  0.00     0.120 A 
ATOM     10  C   UNL A   1      34.526  22.322  26.365  1.00  0.00     0.047 A 
ATOM     11  C   UNL A   1      34.567  22.394  23.939  1.00  0.00     0.073 A 
ATOM     12  C   UNL A   1      34.181  23.677  26.418  1.00  0.00     0.014 A 
ATOM     13  C   UNL A   1      34.214  23.747  24.013  1.00  0.00     0.050 A 
ATOM     14  C   UNL A   1      34.018  24.409  25.221  1.00  0.00     0.004 A 
ATOM     15  N   UNL A   1      34.009  24.668  23.014  1.00  0.00    -0.351 N 
ATOM     16  C   UNL A   1      33.619  25.886  23.529  1.00  0.00     0.093 A 
ATOM     17  H   UNL A   1      34.124  24.480  22.054  1.00  0.00     0.167 HD
BRANCH   9  18
ATOM     18  O   UNL A   1      35.036  20.363  25.018  1.00  0.00    -0.497 OA
ATOM     19  C   UNL A   1      33.932  19.516  24.705  1.00  0.00     0.278 C 
ENDBRANCH   9  18
BRANCH  16  20
ATOM     20  C   UNL A   1      33.221  27.052  22.744  1.00  0.00     0.227 C 
ATOM     21  O   UNL A   1      33.997  27.668  22.018  1.00  0.00    -0.285 OA
BRANCH  20  22
ATOM     22  C   UNL A   1      31.831  27.571  22.854  1.00  0.00     0.113 A 
ATOM     23  C   UNL A   1      30.816  26.745  23.329  1.00  0.00     0.036 A 
ATOM     24  N   UNL A   1      31.649  28.870  22.510  1.00  0.00    -0.253 NA
ATOM     25  C   UNL A   1      29.533  27.280  23.461  1.00  0.00    -0.047 A 
ATOM     26  C   UNL A   1      30.410  29.371  22.679  1.00  0.00     0.112 A 
ATOM     27  C   UNL A   1      28.391  26.451  23.963  1.00  0.00     0.044 C 
ATOM     28  C   UNL A   1      29.335  28.626  23.138  1.00  0.00     0.023 A 
ENDBRANCH  20  22
ENDBRANCH  16  20
ENDBRANCH   7   8
ENDBRANCH   4   7
ENDBRANCH   2   3
ENDBRANCH   1   2
BRANCH   1  29
ATOM     29  C   UNL A   1      31.557  31.791  26.568  1.00  0.00     0.023 C 
BRANCH  29  30
ATOM     30  C   UNL A   1      32.723  32.466  27.281  1.00  0.00     0.116 C 
BRANCH  30  31
ATOM     31  N   UNL A   1      32.441  33.840  27.670  1.00  0.00    -0.352 N 
ATOM     32  C   UNL A   1      33.118  34.642  28.558  1.00  0.00     0.251 C 
ATOM     33  H   UNL A   1      31.658  34.251  27.239  1.00  0.00     0.163 HD
ATOM     34  O   UNL A   1      32.676  35.747  28.860  1.00  0.00    -0.269 OA
BRANCH  32  35
ATOM     35  C   UNL A   1      34.363  34.150  29.184  1.00  0.00     0.039 A 
ATOM     36  C   UNL A   1      34.278  33.438  30.383  1.00  0.00     0.014 A 
ATOM     37  C   UNL A   1      35.603  34.359  28.574  1.00  0.00     0.014 A 
ATOM     38  C   UNL A   1      35.428  32.867  30.929  1.00  0.00     0.010 A 
ATOM     39  C   UNL A   1      36.736  33.731  29.082  1.00  0.00     0.010 A 
ATOM     40  C   UNL A   1      36.659  32.971  30.260  1.00  0.00    -0.014 A 
BRANCH  40  41
ATOM     41  C   UNL A   1      37.867  32.267  30.758  1.00  0.00     0.031 A 
ATOM     42  C   UNL A   1      38.681  32.852  31.877  1.00  0.00     0.074 A 
ATOM     43  C   UNL A   1      38.272  31.134  30.151  1.00  0.00     0.049 A 
ATOM     44  N   UNL A   1      39.801  32.416  32.398  1.00  0.00    -0.248 NA
ATOM     45  C   UNL A   1      38.184  34.101  32.477  1.00  0.00     0.031 C 
ATOM     46  C   UNL A   1      37.592  30.482  29.029  1.00  0.00     0.029 A 
ATOM     47  N   UNL A   1      39.363  30.335  30.388  1.00  0.00    -0.354 N 
ATOM     48  C   UNL A   1      40.149  33.342  33.373  1.00  0.00     0.074 A 
ATOM     49  C   UNL A   1      39.147  34.387  33.340  1.00  0.00     0.031 C 
ATOM     50  C   UNL A   1      38.267  29.371  28.692  1.00  0.00     0.029 A 
ATOM     51  C   UNL A   1      39.449  29.257  29.539  1.00  0.00     0.049 A 
ATOM     52  H   UNL A   1      40.020  30.516  31.097  1.00  0.00     0.167 HD
ATOM     53  C   UNL A   1      41.197  33.318  34.230  1.00  0.00     0.031 A 
ATOM     54  C   UNL A   1      40.382  28.291  29.445  1.00  0.00     0.031 A 
ATOM     55  C   UNL A   1      42.193  32.280  34.262  1.00  0.00     0.049 A 
ATOM     56  C   UNL A   1      41.555  28.307  30.384  1.00  0.00     0.074 A 
ATOM     57  C   UNL A   1      43.263  32.140  35.130  1.00  0.00     0.029 A 
ATOM     58  N   UNL A   1      42.248  31.209  33.384  1.00  0.00    -0.354 N 
ATOM     59  N   UNL A   1      41.830  29.151  31.349  1.00  0.00    -0.248 NA
ATOM     60  C   UNL A   1      42.543  27.230  30.225  1.00  0.00     0.031 C 
ATOM     61  C   UNL A   1      43.998  31.016  34.739  1.00  0.00     0.029 A 
ATOM     62  C   UNL A   1      43.352  30.422  33.668  1.00  0.00     0.049 A 
ATOM     63  H   UNL A   1      41.599  31.035  32.664  1.00  0.00     0.167 HD
ATOM     64  C   UNL A   1      43.008  28.694  31.926  1.00  0.00     0.074 A 
ATOM     65  C   UNL A   1      43.382  27.487  31.218  1.00  0.00     0.031 C 
ATOM     66  C   UNL A   1      43.717  29.228  32.951  1.00  0.00     0.031 A 
BRANCH  53  67
ATOM     67  C   UNL A   1      41.327  34.462  35.198  1.00  0.00    -0.014 A 
ATOM     68  C   UNL A   1      40.705  34.424  36.457  1.00  0.00     0.009 A 
ATOM     69  C   UNL A   1      42.111  35.576  34.863  1.00  0.00     0.009 A 
ATOM     70  C   UNL A   1      40.837  35.496  37.344  1.00  0.00     0.001 A 
ATOM     71  C   UNL A   1      42.267  36.631  35.763  1.00  0.00     0.001 A 
ATOM     72  C   UNL A   1      41.621  36.595  36.998  1.00  0.00     0.000 A 
ENDBRANCH  53  67
BRANCH  54  73
ATOM     73  C   UNL A   1      40.247  27.221  28.419  1.00  0.00    -0.014 A 
ATOM     74  C   UNL A   1      40.841  27.367  27.157  1.00  0.00     0.009 A 
ATOM     75  C   UNL A   1      39.514  26.056  28.694  1.00  0.00     0.009 A 
ATOM     76  C   UNL A   1      40.680  26.380  26.180  1.00  0.00     0.001 A 
ATOM     77  C   UNL A   1      39.381  25.058  27.727  1.00  0.00     0.001 A 
ATOM     78  C   UNL A   1      39.955  25.226  26.468  1.00  0.00     0.000 A 
ENDBRANCH  54  73
BRANCH  66  79
ATOM     79  C   UNL A   1      44.953  28.492  33.388  1.00  0.00    -0.014 A 
ATOM     80  C   UNL A   1      44.893  27.469  34.347  1.00  0.00     0.009 A 
ATOM     81  C   UNL A   1      46.192  28.805  32.805  1.00  0.00     0.009 A 
ATOM     82  C   UNL A   1      46.054  26.798  34.738  1.00  0.00     0.001 A 
ATOM     83  C   UNL A   1      47.345  28.111  33.174  1.00  0.00     0.001 A 
ATOM     84  C   UNL A   1      47.277  27.115  34.147  1.00  0.00     0.000 A 
ENDBRANCH  66  79
ENDBRANCH  40  41
ENDBRANCH  32  35
ENDBRANCH  30  31
ENDBRANCH  29  30
ENDBRANCH   1  29
TORSDOF 15
ENDMDL
