MODEL 1
REMARK VINA RESULT:     -14.1      0.000      0.000
REMARK SMILES COc1ccc(/C=C2/C(=O)N(c3ccccc3)C(=O)[NH+]=C2NCCCCNC(=O)c2ccc(-c3c4nc(c(-c5ccccc5)c5ccc([nH]5)c(-c5ccccc5)c5nc(c(-c6ccccc6)c6ccc3[nH]6)C=C5)C=C4)cc2)cc1C(=O)[O-]
REMARK SMILES IDX 25 1 24 2 23 3 22 4 7 5 8 6 9 7 21 8 10 9 11 10 20 11 18 12
REMARK SMILES IDX 19 15 6 16 3 17 4 18 79 19 5 20 78 21 2 22 1 23 80 24 81 25
REMARK SMILES IDX 82 26 12 27 13 28 17 29 14 30 16 31 15 32 26 33 27 34 28 35
REMARK SMILES IDX 29 37 30 38 31 39 77 40 32 41 76 42 33 43 34 44 35 45 70 46
REMARK SMILES IDX 36 47 75 48 69 49 71 50 37 51 74 52 68 53 67 54 38 56 60 57
REMARK SMILES IDX 45 58 59 59 46 60 49 61 58 62 72 63 47 64 48 65 57 67 73 68
REMARK SMILES IDX 50 69 39 70 40 71 44 72 41 73 43 74 42 75 61 76 62 77 66 78
REMARK SMILES IDX 63 79 65 80 64 81 51 82 52 83 56 84 53 85 55 86 54 87
REMARK H PARENT 20 13 22 14 27 36 71 55 49 66
REMARK Flexibility Score: inf
ROOT
ATOM      1  C   UNL A   1      33.042  30.639  26.110  1.00  0.00     0.024 C 
ENDROOT
BRANCH   1   2
ATOM      2  C   UNL A   1      33.620  28.975  25.747  1.00  0.00     0.039 C 
BRANCH   2   3
ATOM      3  C   UNL A   1      32.708  27.129  24.971  1.00  0.00     0.194 C 
BRANCH   3   4
ATOM      4  N   UNL A   1      32.423  25.704  25.744  1.00  0.00    -0.305 N 
ATOM      5  C   UNL A   1      32.283  24.946  22.815  1.00  0.00     0.030 C 
ATOM      6  C   UNL A   1      32.672  24.125  23.796  1.00  0.00     0.129 C 
ATOM      7  C   UNL A   1      33.294  22.822  23.527  1.00  0.00     0.328 C 
ATOM      8  C   UNL A   1      32.383  24.425  25.214  1.00  0.00     0.236 C 
ATOM      9  O   UNL A   1      34.065  22.676  22.584  1.00  0.00    -0.249 OA
ATOM     10  N   UNL A   1      32.872  21.859  24.423  1.00  0.00    -0.155 N 
ATOM     11  N   UNL A   1      32.016  23.429  25.972  1.00  0.00    -0.209 N 
ATOM     12  C   UNL A   1      31.915  22.175  25.385  1.00  0.00     0.448 C 
ATOM     13  H   UNL A   1      31.817  23.563  26.927  1.00  0.00     0.270 HD
ATOM     14  H   UNL A   1      32.258  25.770  26.713  1.00  0.00     0.256 HD
ATOM     15  O   UNL A   1      30.997  21.412  25.681  1.00  0.00    -0.212 OA
BRANCH   5  16
ATOM     16  C   UNL A   1      31.896  26.284  23.235  1.00  0.00    -0.024 A 
ATOM     17  C   UNL A   1      30.022  29.322  22.795  1.00  0.00     0.127 A 
ATOM     18  C   UNL A   1      31.801  29.302  22.395  1.00  0.00     0.048 A 
ATOM     19  C   UNL A   1      29.200  27.832  23.310  1.00  0.00     0.040 A 
ATOM     20  C   UNL A   1      32.778  27.792  22.719  1.00  0.00     0.012 A 
ATOM     21  C   UNL A   1      30.136  26.350  23.589  1.00  0.00     0.022 A 
BRANCH  17  22
ATOM     22  O   UNL A   1      29.380  30.532  22.910  1.00  0.00    -0.496 OA
ATOM     23  C   UNL A   1      28.863  31.000  21.635  1.00  0.00     0.278 C 
ENDBRANCH  17  22
BRANCH  19  24
ATOM     24  C   UNL A   1      27.751  27.775  23.512  1.00  0.00     0.075 C 
ATOM     25  O   UNL A   1      26.958  28.630  23.176  1.00  0.00    -0.545 OA
ATOM     26  O   UNL A   1      27.400  26.658  24.161  1.00  0.00    -0.545 OA
ENDBRANCH  19  24
ENDBRANCH   5  16
BRANCH  10  27
ATOM     27  C   UNL A   1      33.163  20.514  24.104  1.00  0.00     0.111 A 
ATOM     28  C   UNL A   1      34.181  19.823  24.769  1.00  0.00     0.044 A 
ATOM     29  C   UNL A   1      32.307  19.834  23.232  1.00  0.00     0.044 A 
ATOM     30  C   UNL A   1      34.332  18.451  24.568  1.00  0.00     0.004 A 
ATOM     31  C   UNL A   1      32.466  18.465  23.028  1.00  0.00     0.004 A 
ATOM     32  C   UNL A   1      33.473  17.772  23.701  1.00  0.00     0.000 A 
ENDBRANCH  10  27
ENDBRANCH   3   4
ENDBRANCH   2   3
ENDBRANCH   1   2
BRANCH   1  33
ATOM     33  C   UNL A   1      32.301  31.250  27.348  1.00  0.00     0.116 C 
BRANCH  33  34
ATOM     34  N   UNL A   1      32.264  32.699  27.418  1.00  0.00    -0.352 N 
ATOM     35  C   UNL A   1      33.048  33.642  27.999  1.00  0.00     0.251 C 
ATOM     36  H   UNL A   1      31.497  33.085  26.935  1.00  0.00     0.163 HD
ATOM     37  O   UNL A   1      32.773  34.836  27.988  1.00  0.00    -0.269 OA
BRANCH  35  38
ATOM     38  C   UNL A   1      34.308  33.234  28.557  1.00  0.00     0.039 A 
ATOM     39  C   UNL A   1      35.479  33.518  27.860  1.00  0.00     0.014 A 
ATOM     40  C   UNL A   1      34.260  32.470  29.723  1.00  0.00     0.014 A 
ATOM     41  C   UNL A   1      36.664  33.042  28.376  1.00  0.00     0.010 A 
ATOM     42  C   UNL A   1      35.443  32.033  30.257  1.00  0.00     0.010 A 
ATOM     43  C   UNL A   1      36.636  32.315  29.576  1.00  0.00    -0.014 A 
BRANCH  43  44
ATOM     44  C   UNL A   1      37.876  31.828  30.168  1.00  0.00     0.031 A 
ATOM     45  C   UNL A   1      38.499  30.597  29.607  1.00  0.00     0.074 A 
ATOM     46  C   UNL A   1      38.314  32.465  31.263  1.00  0.00     0.049 A 
ATOM     47  N   UNL A   1      39.541  29.944  30.035  1.00  0.00    -0.248 NA
ATOM     48  C   UNL A   1      37.839  29.995  28.434  1.00  0.00     0.031 C 
ATOM     49  C   UNL A   1      37.676  33.641  31.870  1.00  0.00     0.029 A 
ATOM     50  N   UNL A   1      39.384  32.211  32.065  1.00  0.00    -0.354 N 
ATOM     51  C   UNL A   1      39.649  28.841  29.200  1.00  0.00     0.074 A 
ATOM     52  C   UNL A   1      38.540  28.884  28.275  1.00  0.00     0.031 C 
ATOM     53  C   UNL A   1      38.392  34.024  32.936  1.00  0.00     0.029 A 
ATOM     54  C   UNL A   1      39.507  33.103  33.099  1.00  0.00     0.049 A 
ATOM     55  H   UNL A   1      40.006  31.464  31.917  1.00  0.00     0.167 HD
ATOM     56  C   UNL A   1      40.612  27.892  29.212  1.00  0.00     0.031 A 
ATOM     57  C   UNL A   1      40.438  33.153  34.064  1.00  0.00     0.031 A 
ATOM     58  C   UNL A   1      41.691  27.904  30.160  1.00  0.00     0.049 A 
ATOM     59  C   UNL A   1      41.518  32.114  34.027  1.00  0.00     0.074 A 
ATOM     60  C   UNL A   1      42.766  27.045  30.266  1.00  0.00     0.029 A 
ATOM     61  N   UNL A   1      41.821  28.845  31.177  1.00  0.00    -0.354 N 
ATOM     62  N   UNL A   1      41.662  31.108  33.193  1.00  0.00    -0.248 NA
ATOM     63  C   UNL A   1      42.569  32.223  35.040  1.00  0.00     0.031 C 
ATOM     64  C   UNL A   1      43.526  27.447  31.371  1.00  0.00     0.029 A 
ATOM     65  C   UNL A   1      42.954  28.585  31.924  1.00  0.00     0.049 A 
ATOM     66  H   UNL A   1      41.196  29.590  31.340  1.00  0.00     0.167 HD
ATOM     67  C   UNL A   1      42.834  30.471  33.567  1.00  0.00     0.074 A 
ATOM     68  C   UNL A   1      43.367  31.223  34.691  1.00  0.00     0.031 C 
ATOM     69  C   UNL A   1      43.422  29.368  33.041  1.00  0.00     0.031 A 
BRANCH  56  70
ATOM     70  C   UNL A   1      40.507  26.793  28.192  1.00  0.00    -0.014 A 
ATOM     71  C   UNL A   1      41.138  26.897  26.939  1.00  0.00     0.009 A 
ATOM     72  C   UNL A   1      39.745  25.650  28.470  1.00  0.00     0.009 A 
ATOM     73  C   UNL A   1      40.965  25.904  25.972  1.00  0.00     0.001 A 
ATOM     74  C   UNL A   1      39.601  24.642  27.512  1.00  0.00     0.001 A 
ATOM     75  C   UNL A   1      40.199  24.776  26.260  1.00  0.00     0.000 A 
ENDBRANCH  56  70
BRANCH  57  76
ATOM     76  C   UNL A   1      40.402  34.245  35.065  1.00  0.00    -0.014 A 
ATOM     77  C   UNL A   1      41.023  35.474  34.793  1.00  0.00     0.009 A 
ATOM     78  C   UNL A   1      39.688  34.099  36.266  1.00  0.00     0.009 A 
ATOM     79  C   UNL A   1      40.949  36.524  35.710  1.00  0.00     0.001 A 
ATOM     80  C   UNL A   1      39.594  35.160  37.169  1.00  0.00     0.001 A 
ATOM     81  C   UNL A   1      40.230  36.368  36.894  1.00  0.00     0.000 A 
ENDBRANCH  57  76
BRANCH  69  82
ATOM     82  C   UNL A   1      44.708  28.939  33.679  1.00  0.00    -0.014 A 
ATOM     83  C   UNL A   1      44.717  28.019  34.738  1.00  0.00     0.009 A 
ATOM     84  C   UNL A   1      45.923  29.436  33.186  1.00  0.00     0.009 A 
ATOM     85  C   UNL A   1      45.924  27.630  35.317  1.00  0.00     0.001 A 
ATOM     86  C   UNL A   1      47.129  29.022  33.746  1.00  0.00     0.001 A 
ATOM     87  C   UNL A   1      47.129  28.127  34.816  1.00  0.00     0.000 A 
ENDBRANCH  69  82
ENDBRANCH  43  44
ENDBRANCH  35  38
ENDBRANCH  33  34
ENDBRANCH   1  33
TORSDOF 14
ENDMDL
MODEL 2
REMARK VINA RESULT:     -13.9      1.216      5.946
REMARK SMILES COc1ccc(/C=C2/C(=O)N(c3ccccc3)C(=O)[NH+]=C2NCCCCNC(=O)c2ccc(-c3c4nc(c(-c5ccccc5)c5ccc([nH]5)c(-c5ccccc5)c5nc(c(-c6ccccc6)c6ccc3[nH]6)C=C5)C=C4)cc2)cc1C(=O)[O-]
REMARK SMILES IDX 25 1 24 2 23 3 22 4 7 5 8 6 9 7 21 8 10 9 11 10 20 11 18 12
REMARK SMILES IDX 19 15 6 16 3 17 4 18 79 19 5 20 78 21 2 22 1 23 80 24 81 25
REMARK SMILES IDX 82 26 12 27 13 28 17 29 14 30 16 31 15 32 26 33 27 34 28 35
REMARK SMILES IDX 29 37 30 38 31 39 77 40 32 41 76 42 33 43 34 44 35 45 70 46
REMARK SMILES IDX 36 47 75 48 69 49 71 50 37 51 74 52 68 53 67 54 38 56 60 57
REMARK SMILES IDX 45 58 59 59 46 60 49 61 58 62 72 63 47 64 48 65 57 67 73 68
REMARK SMILES IDX 50 69 39 70 40 71 44 72 41 73 43 74 42 75 61 76 62 77 66 78
REMARK SMILES IDX 63 79 65 80 64 81 51 82 52 83 56 84 53 85 55 86 54 87
REMARK H PARENT 20 13 22 14 27 36 71 55 49 66
REMARK Flexibility Score: inf
ROOT
ATOM      1  C   UNL A   1      31.354  32.067  26.592  1.00  0.00     0.024 C 
ENDROOT
BRANCH   1   2
ATOM      2  C   UNL A   1      31.048  30.803  25.348  1.00  0.00     0.039 C 
BRANCH   2   3
ATOM      3  C   UNL A   1      31.759  28.754  24.982  1.00  0.00     0.194 C 
BRANCH   3   4
ATOM      4  N   UNL A   1      31.797  27.466  26.006  1.00  0.00    -0.305 N 
ATOM      5  C   UNL A   1      32.123  26.193  23.277  1.00  0.00     0.030 C 
ATOM      6  C   UNL A   1      32.629  25.700  24.412  1.00  0.00     0.129 C 
ATOM      7  C   UNL A   1      33.597  24.596  24.425  1.00  0.00     0.328 C 
ATOM      8  C   UNL A   1      32.147  26.154  25.733  1.00  0.00     0.236 C 
ATOM      9  O   UNL A   1      34.460  24.505  23.556  1.00  0.00    -0.249 OA
ATOM     10  N   UNL A   1      33.371  23.728  25.474  1.00  0.00    -0.155 N 
ATOM     11  N   UNL A   1      31.993  25.246  26.657  1.00  0.00    -0.209 N 
ATOM     12  C   UNL A   1      32.283  23.929  26.322  1.00  0.00     0.448 C 
ATOM     13  H   UNL A   1      31.683  25.485  27.560  1.00  0.00     0.270 HD
ATOM     14  H   UNL A   1      31.537  27.653  26.937  1.00  0.00     0.256 HD
ATOM     15  O   UNL A   1      31.579  23.006  26.728  1.00  0.00    -0.212 OA
BRANCH   5  16
ATOM     16  C   UNL A   1      31.358  27.422  23.415  1.00  0.00    -0.024 A 
ATOM     17  C   UNL A   1      28.657  29.595  22.455  1.00  0.00     0.127 A 
ATOM     18  C   UNL A   1      30.356  29.993  21.927  1.00  0.00     0.048 A 
ATOM     19  C   UNL A   1      28.323  28.099  23.357  1.00  0.00     0.040 A 
ATOM     20  C   UNL A   1      31.744  28.952  22.503  1.00  0.00     0.012 A 
ATOM     21  C   UNL A   1      29.663  27.061  23.885  1.00  0.00     0.022 A 
BRANCH  17  22
ATOM     22  O   UNL A   1      27.684  30.559  22.346  1.00  0.00    -0.496 OA
ATOM     23  C   UNL A   1      27.720  31.501  23.453  1.00  0.00     0.278 C 
ENDBRANCH  17  22
BRANCH  19  24
ATOM     24  C   UNL A   1      26.959  27.676  23.682  1.00  0.00     0.075 C 
ATOM     25  O   UNL A   1      25.954  28.328  23.489  1.00  0.00    -0.545 OA
ATOM     26  O   UNL A   1      26.957  26.473  24.268  1.00  0.00    -0.545 OA
ENDBRANCH  19  24
ENDBRANCH   5  16
BRANCH  10  27
ATOM     27  C   UNL A   1      34.036  22.482  25.433  1.00  0.00     0.111 A 
ATOM     28  C   UNL A   1      33.452  21.377  24.806  1.00  0.00     0.044 A 
ATOM     29  C   UNL A   1      35.359  22.417  25.881  1.00  0.00     0.044 A 
ATOM     30  C   UNL A   1      34.197  20.213  24.619  1.00  0.00     0.004 A 
ATOM     31  C   UNL A   1      36.098  21.249  25.700  1.00  0.00     0.004 A 
ATOM     32  C   UNL A   1      35.520  20.151  25.063  1.00  0.00     0.000 A 
ENDBRANCH  10  27
ENDBRANCH   3   4
ENDBRANCH   2   3
ENDBRANCH   1   2
BRANCH   1  33
ATOM     33  C   UNL A   1      32.678  32.645  27.200  1.00  0.00     0.116 C 
BRANCH  33  34
ATOM     34  N   UNL A   1      32.607  34.007  27.699  1.00  0.00    -0.352 N 
ATOM     35  C   UNL A   1      33.278  34.706  28.649  1.00  0.00     0.251 C 
ATOM     36  H   UNL A   1      31.915  34.543  27.247  1.00  0.00     0.163 HD
ATOM     37  O   UNL A   1      32.988  35.855  28.960  1.00  0.00    -0.269 OA
BRANCH  35  38
ATOM     38  C   UNL A   1      34.446  34.110  29.238  1.00  0.00     0.039 A 
ATOM     39  C   UNL A   1      35.698  34.417  28.713  1.00  0.00     0.014 A 
ATOM     40  C   UNL A   1      34.230  33.164  30.240  1.00  0.00     0.014 A 
ATOM     41  C   UNL A   1      36.792  33.768  29.241  1.00  0.00     0.010 A 
ATOM     42  C   UNL A   1      35.323  32.550  30.792  1.00  0.00     0.010 A 
ATOM     43  C   UNL A   1      36.595  32.850  30.284  1.00  0.00    -0.014 A 
BRANCH  43  44
ATOM     44  C   UNL A   1      37.735  32.173  30.891  1.00  0.00     0.031 A 
ATOM     45  C   UNL A   1      38.275  32.697  32.176  1.00  0.00     0.074 A 
ATOM     46  C   UNL A   1      38.296  31.182  30.184  1.00  0.00     0.049 A 
ATOM     47  N   UNL A   1      39.328  32.310  32.836  1.00  0.00    -0.248 NA
ATOM     48  C   UNL A   1      37.561  33.838  32.779  1.00  0.00     0.031 C 
ATOM     49  C   UNL A   1      37.817  30.694  28.884  1.00  0.00     0.029 A 
ATOM     50  N   UNL A   1      39.391  30.418  30.448  1.00  0.00    -0.354 N 
ATOM     51  C   UNL A   1      39.419  33.172  33.919  1.00  0.00     0.074 A 
ATOM     52  C   UNL A   1      38.348  34.134  33.801  1.00  0.00     0.031 C 
ATOM     53  C   UNL A   1      38.603  29.687  28.479  1.00  0.00     0.029 A 
ATOM     54  C   UNL A   1      39.649  29.490  29.473  1.00  0.00     0.049 A 
ATOM     55  H   UNL A   1      39.941  30.521  31.257  1.00  0.00     0.167 HD
ATOM     56  C   UNL A   1      40.320  33.136  34.926  1.00  0.00     0.031 A 
ATOM     57  C   UNL A   1      40.634  28.580  29.412  1.00  0.00     0.031 A 
ATOM     58  C   UNL A   1      41.365  32.152  34.986  1.00  0.00     0.049 A 
ATOM     59  C   UNL A   1      41.593  28.534  30.564  1.00  0.00     0.074 A 
ATOM     60  C   UNL A   1      42.320  31.954  35.964  1.00  0.00     0.029 A 
ATOM     61  N   UNL A   1      41.584  31.190  34.005  1.00  0.00    -0.354 N 
ATOM     62  N   UNL A   1      41.639  29.305  31.626  1.00  0.00    -0.248 NA
ATOM     63  C   UNL A   1      42.618  27.489  30.522  1.00  0.00     0.031 C 
ATOM     64  C   UNL A   1      43.137  30.894  35.554  1.00  0.00     0.029 A 
ATOM     65  C   UNL A   1      42.664  30.399  34.347  1.00  0.00     0.049 A 
ATOM     66  H   UNL A   1      41.046  31.087  33.186  1.00  0.00     0.167 HD
ATOM     67  C   UNL A   1      42.687  28.828  32.396  1.00  0.00     0.074 A 
ATOM     68  C   UNL A   1      43.233  27.687  31.680  1.00  0.00     0.031 C 
ATOM     69  C   UNL A   1      43.164  29.283  33.581  1.00  0.00     0.031 A 
BRANCH  56  70
ATOM     70  C   UNL A   1      40.202  34.188  35.993  1.00  0.00    -0.014 A 
ATOM     71  C   UNL A   1      39.415  33.981  37.140  1.00  0.00     0.009 A 
ATOM     72  C   UNL A   1      40.861  35.416  35.842  1.00  0.00     0.009 A 
ATOM     73  C   UNL A   1      39.251  34.997  38.083  1.00  0.00     0.001 A 
ATOM     74  C   UNL A   1      40.722  36.420  36.803  1.00  0.00     0.001 A 
ATOM     75  C   UNL A   1      39.907  36.215  37.916  1.00  0.00     0.000 A 
ENDBRANCH  56  70
BRANCH  57  76
ATOM     76  C   UNL A   1      40.694  27.636  28.272  1.00  0.00    -0.014 A 
ATOM     77  C   UNL A   1      39.988  26.424  28.320  1.00  0.00     0.009 A 
ATOM     78  C   UNL A   1      41.395  27.965  27.100  1.00  0.00     0.009 A 
ATOM     79  C   UNL A   1      40.000  25.554  27.228  1.00  0.00     0.001 A 
ATOM     80  C   UNL A   1      41.382  27.105  26.000  1.00  0.00     0.001 A 
ATOM     81  C   UNL A   1      40.692  25.897  26.068  1.00  0.00     0.000 A 
ENDBRANCH  57  76
BRANCH  69  82
ATOM     82  C   UNL A   1      44.318  28.524  34.163  1.00  0.00    -0.014 A 
ATOM     83  C   UNL A   1      45.641  28.899  33.886  1.00  0.00     0.009 A 
ATOM     84  C   UNL A   1      44.071  27.447  35.026  1.00  0.00     0.009 A 
ATOM     85  C   UNL A   1      46.701  28.181  34.438  1.00  0.00     0.001 A 
ATOM     86  C   UNL A   1      45.133  26.752  35.601  1.00  0.00     0.001 A 
ATOM     87  C   UNL A   1      46.445  27.113  35.300  1.00  0.00     0.000 A 
ENDBRANCH  69  82
ENDBRANCH  43  44
ENDBRANCH  35  38
ENDBRANCH  33  34
ENDBRANCH   1  33
TORSDOF 14
ENDMDL
MODEL 3
REMARK VINA RESULT:     -13.9      2.191      8.096
REMARK SMILES COc1ccc(/C=C2/C(=O)N(c3ccccc3)C(=O)[NH+]=C2NCCCCNC(=O)c2ccc(-c3c4nc(c(-c5ccccc5)c5ccc([nH]5)c(-c5ccccc5)c5nc(c(-c6ccccc6)c6ccc3[nH]6)C=C5)C=C4)cc2)cc1C(=O)[O-]
REMARK SMILES IDX 25 1 24 2 23 3 22 4 7 5 8 6 9 7 21 8 10 9 11 10 20 11 18 12
REMARK SMILES IDX 19 15 6 16 3 17 4 18 79 19 5 20 78 21 2 22 1 23 80 24 81 25
REMARK SMILES IDX 82 26 12 27 13 28 17 29 14 30 16 31 15 32 26 33 27 34 28 35
REMARK SMILES IDX 29 37 30 38 31 39 77 40 32 41 76 42 33 43 34 44 35 45 70 46
REMARK SMILES IDX 36 47 75 48 69 49 71 50 37 51 74 52 68 53 67 54 38 56 60 57
REMARK SMILES IDX 45 58 59 59 46 60 49 61 58 62 72 63 47 64 48 65 57 67 73 68
REMARK SMILES IDX 50 69 39 70 40 71 44 72 41 73 43 74 42 75 61 76 62 77 66 78
REMARK SMILES IDX 63 79 65 80 64 81 51 82 52 83 56 84 53 85 55 86 54 87
REMARK H PARENT 20 13 22 14 27 36 71 55 49 66
REMARK Flexibility Score: inf
ROOT
ATOM      1  C   UNL A   1      37.887  22.908  26.031  1.00  0.00     0.024 C 
ENDROOT
BRANCH   1   2
ATOM      2  C   UNL A   1      36.301  22.584  25.247  1.00  0.00     0.039 C 
BRANCH   2   3
ATOM      3  C   UNL A   1      34.419  23.693  24.989  1.00  0.00     0.194 C 
BRANCH   3   4
ATOM      4  N   UNL A   1      34.008  24.793  23.836  1.00  0.00    -0.305 N 
ATOM      5  C   UNL A   1      31.387  24.269  25.261  1.00  0.00     0.030 C 
ATOM      6  C   UNL A   1      31.714  25.422  24.670  1.00  0.00     0.129 C 
ATOM      7  C   UNL A   1      30.920  26.645  24.843  1.00  0.00     0.328 C 
ATOM      8  C   UNL A   1      32.827  25.504  23.701  1.00  0.00     0.236 C 
ATOM      9  O   UNL A   1      30.398  26.909  25.923  1.00  0.00    -0.249 OA
ATOM     10  N   UNL A   1      30.837  27.373  23.673  1.00  0.00    -0.155 N 
ATOM     11  N   UNL A   1      32.643  26.243  22.641  1.00  0.00    -0.209 N 
ATOM     12  C   UNL A   1      31.416  26.880  22.505  1.00  0.00     0.448 C 
ATOM     13  H   UNL A   1      33.349  26.345  21.963  1.00  0.00     0.270 HD
ATOM     14  H   UNL A   1      34.693  24.969  23.151  1.00  0.00     0.256 HD
ATOM     15  O   UNL A   1      30.866  26.959  21.408  1.00  0.00    -0.212 OA
BRANCH   5  16
ATOM     16  C   UNL A   1      32.388  23.216  25.177  1.00  0.00    -0.024 A 
ATOM     17  C   UNL A   1      33.334  19.747  25.091  1.00  0.00     0.127 A 
ATOM     18  C   UNL A   1      33.590  20.707  26.620  1.00  0.00     0.048 A 
ATOM     19  C   UNL A   1      32.539  20.492  23.685  1.00  0.00     0.040 A 
ATOM     20  C   UNL A   1      33.211  22.495  26.633  1.00  0.00     0.012 A 
ATOM     21  C   UNL A   1      32.131  22.219  23.705  1.00  0.00     0.022 A 
BRANCH  17  22
ATOM     22  O   UNL A   1      33.954  18.527  24.960  1.00  0.00    -0.496 OA
ATOM     23  C   UNL A   1      33.138  17.440  25.475  1.00  0.00     0.278 C 
ENDBRANCH  17  22
BRANCH  19  24
ATOM     24  C   UNL A   1      32.194  19.719  22.489  1.00  0.00     0.075 C 
ATOM     25  O   UNL A   1      32.195  18.509  22.407  1.00  0.00    -0.545 OA
ATOM     26  O   UNL A   1      31.908  20.529  21.462  1.00  0.00    -0.545 OA
ENDBRANCH  19  24
ENDBRANCH   5  16
BRANCH  10  27
ATOM     27  C   UNL A   1      29.874  28.405  23.625  1.00  0.00     0.111 A 
ATOM     28  C   UNL A   1      30.251  29.745  23.767  1.00  0.00     0.044 A 
ATOM     29  C   UNL A   1      28.563  28.079  23.264  1.00  0.00     0.044 A 
ATOM     30  C   UNL A   1      29.316  30.755  23.537  1.00  0.00     0.004 A 
ATOM     31  C   UNL A   1      27.630  29.091  23.044  1.00  0.00     0.004 A 
ATOM     32  C   UNL A   1      28.008  30.427  23.172  1.00  0.00     0.000 A 
ENDBRANCH  10  27
ENDBRANCH   3   4
ENDBRANCH   2   3
ENDBRANCH   1   2
BRANCH   1  33
ATOM     33  C   UNL A   1      38.550  24.227  26.558  1.00  0.00     0.116 C 
BRANCH  33  34
ATOM     34  N   UNL A   1      39.755  24.653  25.871  1.00  0.00    -0.352 N 
ATOM     35  C   UNL A   1      40.616  25.692  26.018  1.00  0.00     0.251 C 
ATOM     36  H   UNL A   1      40.004  24.053  25.130  1.00  0.00     0.163 HD
ATOM     37  O   UNL A   1      41.550  25.897  25.253  1.00  0.00    -0.269 OA
BRANCH  35  38
ATOM     38  C   UNL A   1      40.490  26.523  27.184  1.00  0.00     0.039 A 
ATOM     39  C   UNL A   1      39.741  26.062  28.263  1.00  0.00     0.014 A 
ATOM     40  C   UNL A   1      41.043  27.801  27.107  1.00  0.00     0.014 A 
ATOM     41  C   UNL A   1      39.567  26.912  29.334  1.00  0.00     0.010 A 
ATOM     42  C   UNL A   1      40.903  28.630  28.188  1.00  0.00     0.010 A 
ATOM     43  C   UNL A   1      40.160  28.183  29.290  1.00  0.00    -0.014 A 
BRANCH  43  44
ATOM     44  C   UNL A   1      40.026  29.094  30.421  1.00  0.00     0.031 A 
ATOM     45  C   UNL A   1      38.988  30.160  30.359  1.00  0.00     0.074 A 
ATOM     46  C   UNL A   1      40.933  28.978  31.401  1.00  0.00     0.049 A 
ATOM     47  N   UNL A   1      38.759  31.125  31.202  1.00  0.00    -0.248 NA
ATOM     48  C   UNL A   1      38.118  30.169  29.168  1.00  0.00     0.031 C 
ATOM     49  C   UNL A   1      42.005  27.976  31.448  1.00  0.00     0.029 A 
ATOM     50  N   UNL A   1      41.108  29.712  32.534  1.00  0.00    -0.354 N 
ATOM     51  C   UNL A   1      37.736  31.871  30.636  1.00  0.00     0.074 A 
ATOM     52  C   UNL A   1      37.423  31.281  29.355  1.00  0.00     0.031 C 
ATOM     53  C   UNL A   1      42.708  28.142  32.577  1.00  0.00     0.029 A 
ATOM     54  C   UNL A   1      42.156  29.277  33.303  1.00  0.00     0.049 A 
ATOM     55  H   UNL A   1      40.539  30.477  32.778  1.00  0.00     0.167 HD
ATOM     56  C   UNL A   1      37.112  32.948  31.165  1.00  0.00     0.031 A 
ATOM     57  C   UNL A   1      42.603  29.758  34.473  1.00  0.00     0.031 A 
ATOM     58  C   UNL A   1      37.472  33.489  32.447  1.00  0.00     0.049 A 
ATOM     59  C   UNL A   1      41.865  30.925  35.058  1.00  0.00     0.074 A 
ATOM     60  C   UNL A   1      36.901  34.540  33.138  1.00  0.00     0.029 A 
ATOM     61  N   UNL A   1      38.513  33.004  33.231  1.00  0.00    -0.354 N 
ATOM     62  N   UNL A   1      40.849  31.590  34.556  1.00  0.00    -0.248 NA
ATOM     63  C   UNL A   1      42.315  31.394  36.370  1.00  0.00     0.031 C 
ATOM     64  C   UNL A   1      37.624  34.711  34.325  1.00  0.00     0.029 A 
ATOM     65  C   UNL A   1      38.611  33.738  34.398  1.00  0.00     0.049 A 
ATOM     66  H   UNL A   1      39.095  32.246  32.991  1.00  0.00     0.167 HD
ATOM     67  C   UNL A   1      40.521  32.549  35.500  1.00  0.00     0.074 A 
ATOM     68  C   UNL A   1      41.438  32.359  36.611  1.00  0.00     0.031 C 
ATOM     69  C   UNL A   1      39.557  33.503  35.461  1.00  0.00     0.031 A 
BRANCH  56  70
ATOM     70  C   UNL A   1      36.021  33.581  30.349  1.00  0.00    -0.014 A 
ATOM     71  C   UNL A   1      34.711  33.700  30.846  1.00  0.00     0.009 A 
ATOM     72  C   UNL A   1      36.294  34.042  29.053  1.00  0.00     0.009 A 
ATOM     73  C   UNL A   1      33.691  34.218  30.046  1.00  0.00     0.001 A 
ATOM     74  C   UNL A   1      35.278  34.590  28.266  1.00  0.00     0.001 A 
ATOM     75  C   UNL A   1      33.976  34.666  28.757  1.00  0.00     0.000 A 
ENDBRANCH  56  70
BRANCH  57  76
ATOM     76  C   UNL A   1      43.737  29.094  35.157  1.00  0.00    -0.014 A 
ATOM     77  C   UNL A   1      43.507  28.001  36.007  1.00  0.00     0.009 A 
ATOM     78  C   UNL A   1      45.061  29.495  34.913  1.00  0.00     0.009 A 
ATOM     79  C   UNL A   1      44.576  27.339  36.614  1.00  0.00     0.001 A 
ATOM     80  C   UNL A   1      46.128  28.814  35.501  1.00  0.00     0.001 A 
ATOM     81  C   UNL A   1      45.885  27.742  36.357  1.00  0.00     0.000 A 
ENDBRANCH  57  76
BRANCH  69  82
ATOM     82  C   UNL A   1      39.456  34.386  36.668  1.00  0.00    -0.014 A 
ATOM     83  C   UNL A   1      38.768  33.963  37.815  1.00  0.00     0.009 A 
ATOM     84  C   UNL A   1      40.090  35.637  36.664  1.00  0.00     0.009 A 
ATOM     85  C   UNL A   1      38.687  34.798  38.928  1.00  0.00     0.001 A 
ATOM     86  C   UNL A   1      40.033  36.455  37.790  1.00  0.00     0.001 A 
ATOM     87  C   UNL A   1      39.325  36.040  38.917  1.00  0.00     0.000 A 
ENDBRANCH  69  82
ENDBRANCH  43  44
ENDBRANCH  35  38
ENDBRANCH  33  34
ENDBRANCH   1  33
TORSDOF 14
ENDMDL
