MODEL 1
REMARK VINA RESULT:     -11.7      0.000      0.000
REMARK SMILES CC(C)CN(C)c1cc2c(cc1Cl)C=C(C(=O)NCCCCNC(=O)c1ccc(-c3c4nc(c(-c5ccccc5)c5ccc([nH]5)c(-c5ccccc5)c5nc(c(-c6ccccc6)c6ccc3[nH]6)C=C5)C=C4)cc1)[C@@H](C(F)(F)F)O2
REMARK SMILES IDX 20 1 19 2 18 3 16 4 17 5 15 7 7 8 8 9 12 10 9 11 11 12 13 13
REMARK SMILES IDX 10 14 79 15 14 16 74 17 5 18 6 19 4 20 2 21 1 22 3 23 75 24
REMARK SMILES IDX 76 25 77 26 78 27 21 28 22 29 23 30 24 31 25 33 26 34 27 35
REMARK SMILES IDX 73 36 28 37 72 38 29 39 30 40 31 41 66 42 32 43 71 44 65 45
REMARK SMILES IDX 67 46 33 47 70 48 64 49 63 50 34 52 56 53 41 54 55 55 42 56
REMARK SMILES IDX 45 57 54 58 68 59 43 60 44 61 53 63 69 64 46 65 35 66 36 67
REMARK SMILES IDX 40 68 37 69 39 70 38 71 57 72 58 73 62 74 59 75 61 76 60 77
REMARK SMILES IDX 47 78 48 79 52 80 49 81 51 82 50 83
REMARK H PARENT 18 6 23 32 67 51 45 62
REMARK Flexibility Score: inf
ROOT
ATOM      1  C   UNL A   1      36.306  20.261  24.990  1.00  0.00     0.023 C 
ENDROOT
BRANCH   1   2
ATOM      2  C   UNL A   1      34.947  20.797  25.430  1.00  0.00     0.116 C 
BRANCH   2   3
ATOM      3  N   UNL A   1      33.884  20.354  24.549  1.00  0.00    -0.352 N 
ATOM      4  C   UNL A   1      32.824  20.924  23.930  1.00  0.00     0.251 C 
ATOM      5  O   UNL A   1      32.159  20.166  23.216  1.00  0.00    -0.270 OA
ATOM      6  H   UNL A   1      33.949  19.392  24.352  1.00  0.00     0.163 HD
BRANCH   4   7
ATOM      7  C   UNL A   1      32.422  22.352  24.061  1.00  0.00     0.067 C 
ATOM      8  C   UNL A   1      31.586  27.263  23.256  1.00  0.00     0.059 A 
ATOM      9  C   UNL A   1      30.862  26.227  23.867  1.00  0.00     0.074 A 
ATOM     10  C   UNL A   1      32.849  26.943  22.704  1.00  0.00     0.065 A 
ATOM     11  C   UNL A   1      31.367  24.930  23.893  1.00  0.00     0.130 A 
ATOM     12  C   UNL A   1      33.307  25.621  22.654  1.00  0.00     0.034 A 
ATOM     13  Cl  UNL A   1      33.911  28.161  22.082  1.00  0.00    -0.082 Cl
ATOM     14  C   UNL A   1      32.556  24.606  23.238  1.00  0.00     0.019 A 
ATOM     15  O   UNL A   1      30.649  23.988  24.583  1.00  0.00    -0.475 OA
ATOM     16  C   UNL A   1      32.961  23.207  23.171  1.00  0.00     0.025 C 
ATOM     17  C   UNL A   1      31.466  22.891  25.088  1.00  0.00     0.314 C 
BRANCH   8  18
ATOM     18  N   UNL A   1      31.043  28.555  23.185  1.00  0.00    -0.373 N 
ATOM     19  C   UNL A   1      31.179  29.350  24.403  1.00  0.00     0.143 C 
BRANCH  18  20
ATOM     20  C   UNL A   1      29.763  28.687  22.457  1.00  0.00     0.119 C 
BRANCH  20  21
ATOM     21  C   UNL A   1      28.936  29.903  22.923  1.00  0.00     0.002 C 
ATOM     22  C   UNL A   1      29.037  31.081  21.948  1.00  0.00     0.009 C 
ATOM     23  C   UNL A   1      27.461  29.529  23.093  1.00  0.00     0.009 C 
ENDBRANCH  20  21
ENDBRANCH  18  20
ENDBRANCH   8  18
BRANCH  17  24
ATOM     24  C   UNL A   1      32.188  23.296  26.396  1.00  0.00     0.429 C 
ATOM     25  F   UNL A   1      31.516  24.294  27.019  1.00  0.00    -0.167 F 
ATOM     26  F   UNL A   1      32.258  22.270  27.280  1.00  0.00    -0.167 F 
ATOM     27  F   UNL A   1      33.456  23.722  26.201  1.00  0.00    -0.167 F 
ENDBRANCH  17  24
ENDBRANCH   4   7
ENDBRANCH   2   3
ENDBRANCH   1   2
BRANCH   1  28
ATOM     28  C   UNL A   1      37.355  21.346  24.747  1.00  0.00     0.023 C 
BRANCH  28  29
ATOM     29  C   UNL A   1      38.552  21.311  25.693  1.00  0.00     0.116 C 
BRANCH  29  30
ATOM     30  N   UNL A   1      39.366  20.107  25.584  1.00  0.00    -0.352 N 
ATOM     31  C   UNL A   1      40.681  19.948  25.963  1.00  0.00     0.251 C 
ATOM     32  H   UNL A   1      38.925  19.317  25.196  1.00  0.00     0.163 HD
ATOM     33  O   UNL A   1      41.280  18.899  25.760  1.00  0.00    -0.269 OA
BRANCH  31  34
ATOM     34  C   UNL A   1      41.366  21.102  26.571  1.00  0.00     0.039 A 
ATOM     35  C   UNL A   1      41.316  21.284  27.955  1.00  0.00     0.014 A 
ATOM     36  C   UNL A   1      41.939  22.066  25.740  1.00  0.00     0.014 A 
ATOM     37  C   UNL A   1      41.685  22.510  28.490  1.00  0.00     0.010 A 
ATOM     38  C   UNL A   1      42.386  23.268  26.293  1.00  0.00     0.010 A 
ATOM     39  C   UNL A   1      42.213  23.518  27.664  1.00  0.00    -0.014 A 
BRANCH  39  40
ATOM     40  C   UNL A   1      42.574  24.827  28.259  1.00  0.00     0.031 A 
ATOM     41  C   UNL A   1      44.005  25.162  28.582  1.00  0.00     0.074 A 
ATOM     42  C   UNL A   1      41.605  25.743  28.445  1.00  0.00     0.049 A 
ATOM     43  N   UNL A   1      44.493  26.266  29.088  1.00  0.00    -0.248 NA
ATOM     44  C   UNL A   1      45.020  24.132  28.303  1.00  0.00     0.031 C 
ATOM     45  C   UNL A   1      40.187  25.541  28.136  1.00  0.00     0.029 A 
ATOM     46  N   UNL A   1      41.667  27.033  28.903  1.00  0.00    -0.354 N 
ATOM     47  C   UNL A   1      45.862  26.057  29.209  1.00  0.00     0.074 A 
ATOM     48  C   UNL A   1      46.129  24.715  28.739  1.00  0.00     0.031 C 
ATOM     49  C   UNL A   1      39.525  26.687  28.351  1.00  0.00     0.029 A 
ATOM     50  C   UNL A   1      40.454  27.679  28.883  1.00  0.00     0.049 A 
ATOM     51  H   UNL A   1      42.498  27.456  29.217  1.00  0.00     0.167 HD
ATOM     52  C   UNL A   1      46.807  26.911  29.665  1.00  0.00     0.031 A 
ATOM     53  C   UNL A   1      40.118  28.924  29.264  1.00  0.00     0.031 A 
ATOM     54  C   UNL A   1      46.539  28.252  30.114  1.00  0.00     0.049 A 
ATOM     55  C   UNL A   1      41.177  29.828  29.819  1.00  0.00     0.074 A 
ATOM     56  C   UNL A   1      47.439  29.199  30.575  1.00  0.00     0.029 A 
ATOM     57  N   UNL A   1      45.284  28.836  30.158  1.00  0.00    -0.354 N 
ATOM     58  N   UNL A   1      42.465  29.610  29.936  1.00  0.00    -0.248 NA
ATOM     59  C   UNL A   1      40.739  31.141  30.309  1.00  0.00     0.031 C 
ATOM     60  C   UNL A   1      46.720  30.338  30.945  1.00  0.00     0.029 A 
ATOM     61  C   UNL A   1      45.382  30.122  30.664  1.00  0.00     0.049 A 
ATOM     62  H   UNL A   1      44.447  28.403  29.871  1.00  0.00     0.167 HD
ATOM     63  C   UNL A   1      42.991  30.758  30.510  1.00  0.00     0.074 A 
ATOM     64  C   UNL A   1      41.889  31.679  30.696  1.00  0.00     0.031 C 
ATOM     65  C   UNL A   1      44.274  31.020  30.855  1.00  0.00     0.031 A 
BRANCH  52  66
ATOM     66  C   UNL A   1      48.231  26.433  29.725  1.00  0.00    -0.014 A 
ATOM     67  C   UNL A   1      48.709  25.821  30.896  1.00  0.00     0.009 A 
ATOM     68  C   UNL A   1      49.126  26.683  28.674  1.00  0.00     0.009 A 
ATOM     69  C   UNL A   1      50.058  25.484  31.020  1.00  0.00     0.001 A 
ATOM     70  C   UNL A   1      50.471  26.323  28.793  1.00  0.00     0.001 A 
ATOM     71  C   UNL A   1      50.937  25.734  29.968  1.00  0.00     0.000 A 
ENDBRANCH  52  66
BRANCH  53  72
ATOM     72  C   UNL A   1      38.707  29.368  29.136  1.00  0.00    -0.014 A 
ATOM     73  C   UNL A   1      37.829  29.273  30.230  1.00  0.00     0.009 A 
ATOM     74  C   UNL A   1      38.215  29.831  27.908  1.00  0.00     0.009 A 
ATOM     75  C   UNL A   1      36.480  29.603  30.086  1.00  0.00     0.001 A 
ATOM     76  C   UNL A   1      36.872  30.189  27.776  1.00  0.00     0.001 A 
ATOM     77  C   UNL A   1      36.004  30.063  28.861  1.00  0.00     0.000 A 
ENDBRANCH  53  72
BRANCH  65  78
ATOM     78  C   UNL A   1      44.566  32.354  31.476  1.00  0.00    -0.014 A 
ATOM     79  C   UNL A   1      44.935  33.438  30.663  1.00  0.00     0.009 A 
ATOM     80  C   UNL A   1      44.567  32.513  32.870  1.00  0.00     0.009 A 
ATOM     81  C   UNL A   1      45.311  34.653  31.237  1.00  0.00     0.001 A 
ATOM     82  C   UNL A   1      44.919  33.738  33.439  1.00  0.00     0.001 A 
ATOM     83  C   UNL A   1      45.300  34.804  32.622  1.00  0.00     0.000 A 
ENDBRANCH  65  78
ENDBRANCH  39  40
ENDBRANCH  31  34
ENDBRANCH  29  30
ENDBRANCH  28  29
ENDBRANCH   1  28
TORSDOF 15
ENDMDL
MODEL 2
REMARK VINA RESULT:     -11.4      0.653      5.902
REMARK SMILES CC(C)CN(C)c1cc2c(cc1Cl)C=C(C(=O)NCCCCNC(=O)c1ccc(-c3c4nc(c(-c5ccccc5)c5ccc([nH]5)c(-c5ccccc5)c5nc(c(-c6ccccc6)c6ccc3[nH]6)C=C5)C=C4)cc1)[C@@H](C(F)(F)F)O2
REMARK SMILES IDX 20 1 19 2 18 3 16 4 17 5 15 7 7 8 8 9 12 10 9 11 11 12 13 13
REMARK SMILES IDX 10 14 79 15 14 16 74 17 5 18 6 19 4 20 2 21 1 22 3 23 75 24
REMARK SMILES IDX 76 25 77 26 78 27 21 28 22 29 23 30 24 31 25 33 26 34 27 35
REMARK SMILES IDX 73 36 28 37 72 38 29 39 30 40 31 41 66 42 32 43 71 44 65 45
REMARK SMILES IDX 67 46 33 47 70 48 64 49 63 50 34 52 56 53 41 54 55 55 42 56
REMARK SMILES IDX 45 57 54 58 68 59 43 60 44 61 53 63 69 64 46 65 35 66 36 67
REMARK SMILES IDX 40 68 37 69 39 70 38 71 57 72 58 73 62 74 59 75 61 76 60 77
REMARK SMILES IDX 47 78 48 79 52 80 49 81 51 82 50 83
REMARK H PARENT 18 6 23 32 67 51 45 62
REMARK Flexibility Score: inf
ROOT
ATOM      1  C   UNL A   1      36.711  20.330  24.840  1.00  0.00     0.023 C 
ENDROOT
BRANCH   1   2
ATOM      2  C   UNL A   1      35.390  20.772  25.462  1.00  0.00     0.116 C 
BRANCH   2   3
ATOM      3  N   UNL A   1      34.253  20.325  24.681  1.00  0.00    -0.352 N 
ATOM      4  C   UNL A   1      33.127  20.886  24.181  1.00  0.00     0.251 C 
ATOM      5  O   UNL A   1      32.408  20.128  23.521  1.00  0.00    -0.270 OA
ATOM      6  H   UNL A   1      34.315  19.369  24.459  1.00  0.00     0.163 HD
BRANCH   4   7
ATOM      7  C   UNL A   1      32.715  22.303  24.380  1.00  0.00     0.067 C 
ATOM      8  C   UNL A   1      31.777  27.225  23.782  1.00  0.00     0.059 A 
ATOM      9  C   UNL A   1      31.100  26.161  24.397  1.00  0.00     0.074 A 
ATOM     10  C   UNL A   1      33.011  26.941  23.152  1.00  0.00     0.065 A 
ATOM     11  C   UNL A   1      31.622  24.871  24.354  1.00  0.00     0.130 A 
ATOM     12  C   UNL A   1      33.482  25.628  23.034  1.00  0.00     0.034 A 
ATOM     13  Cl  UNL A   1      34.023  28.193  22.513  1.00  0.00    -0.082 Cl
ATOM     14  C   UNL A   1      32.777  24.585  23.624  1.00  0.00     0.019 A 
ATOM     15  O   UNL A   1      30.954  23.898  25.051  1.00  0.00    -0.475 OA
ATOM     16  C   UNL A   1      33.195  23.194  23.490  1.00  0.00     0.025 C 
ATOM     17  C   UNL A   1      31.811  22.796  25.474  1.00  0.00     0.314 C 
BRANCH   8  18
ATOM     18  N   UNL A   1      31.214  28.511  23.783  1.00  0.00    -0.373 N 
ATOM     19  C   UNL A   1      30.582  28.910  22.528  1.00  0.00     0.143 C 
BRANCH  18  20
ATOM     20  C   UNL A   1      31.981  29.558  24.491  1.00  0.00     0.119 C 
BRANCH  20  21
ATOM     21  C   UNL A   1      31.828  29.472  26.024  1.00  0.00     0.002 C 
ATOM     22  C   UNL A   1      32.964  28.676  26.676  1.00  0.00     0.009 C 
ATOM     23  C   UNL A   1      31.784  30.870  26.649  1.00  0.00     0.009 C 
ENDBRANCH  20  21
ENDBRANCH  18  20
ENDBRANCH   8  18
BRANCH  17  24
ATOM     24  C   UNL A   1      32.598  23.169  26.754  1.00  0.00     0.429 C 
ATOM     25  F   UNL A   1      31.941  24.126  27.454  1.00  0.00    -0.167 F 
ATOM     26  F   UNL A   1      32.744  22.113  27.591  1.00  0.00    -0.167 F 
ATOM     27  F   UNL A   1      33.842  23.635  26.503  1.00  0.00    -0.167 F 
ENDBRANCH  17  24
ENDBRANCH   4   7
ENDBRANCH   2   3
ENDBRANCH   1   2
BRANCH   1  28
ATOM     28  C   UNL A   1      37.810  21.392  24.888  1.00  0.00     0.023 C 
BRANCH  28  29
ATOM     29  C   UNL A   1      38.844  21.203  25.993  1.00  0.00     0.116 C 
BRANCH  29  30
ATOM     30  N   UNL A   1      39.722  20.056  25.803  1.00  0.00    -0.352 N 
ATOM     31  C   UNL A   1      41.075  19.988  26.048  1.00  0.00     0.251 C 
ATOM     32  H   UNL A   1      39.299  19.237  25.459  1.00  0.00     0.163 HD
ATOM     33  O   UNL A   1      41.721  18.981  25.785  1.00  0.00    -0.269 OA
BRANCH  31  34
ATOM     34  C   UNL A   1      41.739  21.189  26.587  1.00  0.00     0.039 A 
ATOM     35  C   UNL A   1      41.741  21.417  27.965  1.00  0.00     0.014 A 
ATOM     36  C   UNL A   1      42.236  22.145  25.700  1.00  0.00     0.014 A 
ATOM     37  C   UNL A   1      42.082  22.674  28.442  1.00  0.00     0.010 A 
ATOM     38  C   UNL A   1      42.657  23.382  26.192  1.00  0.00     0.010 A 
ATOM     39  C   UNL A   1      42.532  23.672  27.560  1.00  0.00    -0.014 A 
BRANCH  39  40
ATOM     40  C   UNL A   1      42.865  25.015  28.095  1.00  0.00     0.031 A 
ATOM     41  C   UNL A   1      41.793  26.046  28.321  1.00  0.00     0.074 A 
ATOM     42  C   UNL A   1      44.141  25.277  28.439  1.00  0.00     0.049 A 
ATOM     43  N   UNL A   1      41.911  27.259  28.798  1.00  0.00    -0.248 NA
ATOM     44  C   UNL A   1      40.412  25.673  27.972  1.00  0.00     0.031 C 
ATOM     45  C   UNL A   1      45.258  24.341  28.296  1.00  0.00     0.029 A 
ATOM     46  N   UNL A   1      44.705  26.387  29.011  1.00  0.00    -0.354 N 
ATOM     47  C   UNL A   1      40.631  27.800  28.785  1.00  0.00     0.074 A 
ATOM     48  C   UNL A   1      39.750  26.791  28.239  1.00  0.00     0.031 C 
ATOM     49  C   UNL A   1      46.360  24.891  28.827  1.00  0.00     0.029 A 
ATOM     50  C   UNL A   1      46.045  26.243  29.277  1.00  0.00     0.049 A 
ATOM     51  H   UNL A   1      44.200  27.208  29.210  1.00  0.00     0.167 HD
ATOM     52  C   UNL A   1      40.230  29.025  29.198  1.00  0.00     0.031 A 
ATOM     53  C   UNL A   1      46.930  27.104  29.809  1.00  0.00     0.031 A 
ATOM     54  C   UNL A   1      41.107  30.018  29.758  1.00  0.00     0.049 A 
ATOM     55  C   UNL A   1      46.468  28.475  30.204  1.00  0.00     0.074 A 
ATOM     56  C   UNL A   1      40.785  31.283  30.224  1.00  0.00     0.029 A 
ATOM     57  N   UNL A   1      42.473  29.863  29.931  1.00  0.00    -0.354 N 
ATOM     58  N   UNL A   1      45.255  28.972  30.175  1.00  0.00    -0.248 NA
ATOM     59  C   UNL A   1      47.494  29.407  30.689  1.00  0.00     0.031 C 
ATOM     60  C   UNL A   1      41.965  31.910  30.632  1.00  0.00     0.029 A 
ATOM     61  C   UNL A   1      43.013  31.018  30.470  1.00  0.00     0.049 A 
ATOM     62  H   UNL A   1      42.983  29.052  29.704  1.00  0.00     0.167 HD
ATOM     63  C   UNL A   1      45.371  30.274  30.639  1.00  0.00     0.074 A 
ATOM     64  C   UNL A   1      46.767  30.482  30.967  1.00  0.00     0.031 C 
ATOM     65  C   UNL A   1      44.405  31.213  30.777  1.00  0.00     0.031 A 
BRANCH  52  66
ATOM     66  C   UNL A   1      38.779  29.386  29.052  1.00  0.00    -0.014 A 
ATOM     67  C   UNL A   1      37.907  29.216  30.141  1.00  0.00     0.009 A 
ATOM     68  C   UNL A   1      38.250  29.789  27.816  1.00  0.00     0.009 A 
ATOM     69  C   UNL A   1      36.536  29.425  29.992  1.00  0.00     0.001 A 
ATOM     70  C   UNL A   1      36.879  30.019  27.676  1.00  0.00     0.001 A 
ATOM     71  C   UNL A   1      36.023  29.828  28.760  1.00  0.00     0.000 A 
ENDBRANCH  52  66
BRANCH  53  72
ATOM     72  C   UNL A   1      48.343  26.681  29.982  1.00  0.00    -0.014 A 
ATOM     73  C   UNL A   1      49.283  26.903  28.960  1.00  0.00     0.009 A 
ATOM     74  C   UNL A   1      48.746  26.003  31.140  1.00  0.00     0.009 A 
ATOM     75  C   UNL A   1      50.588  26.425  29.082  1.00  0.00     0.001 A 
ATOM     76  C   UNL A   1      50.061  25.552  31.272  1.00  0.00     0.001 A 
ATOM     77  C   UNL A   1      50.977  25.753  30.239  1.00  0.00     0.000 A 
ENDBRANCH  53  72
BRANCH  65  78
ATOM     78  C   UNL A   1      44.815  32.559  31.300  1.00  0.00    -0.014 A 
ATOM     79  C   UNL A   1      44.765  32.818  32.679  1.00  0.00     0.009 A 
ATOM     80  C   UNL A   1      45.161  33.596  30.420  1.00  0.00     0.009 A 
ATOM     81  C   UNL A   1      45.043  34.096  33.166  1.00  0.00     0.001 A 
ATOM     82  C   UNL A   1      45.461  34.866  30.914  1.00  0.00     0.001 A 
ATOM     83  C   UNL A   1      45.393  35.117  32.285  1.00  0.00     0.000 A 
ENDBRANCH  65  78
ENDBRANCH  39  40
ENDBRANCH  31  34
ENDBRANCH  29  30
ENDBRANCH  28  29
ENDBRANCH   1  28
TORSDOF 15
ENDMDL
MODEL 3
REMARK VINA RESULT:     -11.4      1.455      2.066
REMARK SMILES CC(C)CN(C)c1cc2c(cc1Cl)C=C(C(=O)NCCCCNC(=O)c1ccc(-c3c4nc(c(-c5ccccc5)c5ccc([nH]5)c(-c5ccccc5)c5nc(c(-c6ccccc6)c6ccc3[nH]6)C=C5)C=C4)cc1)[C@@H](C(F)(F)F)O2
REMARK SMILES IDX 20 1 19 2 18 3 16 4 17 5 15 7 7 8 8 9 12 10 9 11 11 12 13 13
REMARK SMILES IDX 10 14 79 15 14 16 74 17 5 18 6 19 4 20 2 21 1 22 3 23 75 24
REMARK SMILES IDX 76 25 77 26 78 27 21 28 22 29 23 30 24 31 25 33 26 34 27 35
REMARK SMILES IDX 73 36 28 37 72 38 29 39 30 40 31 41 66 42 32 43 71 44 65 45
REMARK SMILES IDX 67 46 33 47 70 48 64 49 63 50 34 52 56 53 41 54 55 55 42 56
REMARK SMILES IDX 45 57 54 58 68 59 43 60 44 61 53 63 69 64 46 65 35 66 36 67
REMARK SMILES IDX 40 68 37 69 39 70 38 71 57 72 58 73 62 74 59 75 61 76 60 77
REMARK SMILES IDX 47 78 48 79 52 80 49 81 51 82 50 83
REMARK H PARENT 18 6 23 32 67 51 45 62
REMARK Flexibility Score: inf
ROOT
ATOM      1  C   UNL A   1      36.223  20.328  24.981  1.00  0.00     0.023 C 
ENDROOT
BRANCH   1   2
ATOM      2  C   UNL A   1      35.251  20.851  26.034  1.00  0.00     0.116 C 
BRANCH   2   3
ATOM      3  N   UNL A   1      33.884  20.469  25.739  1.00  0.00    -0.352 N 
ATOM      4  C   UNL A   1      32.776  21.085  25.261  1.00  0.00     0.251 C 
ATOM      5  O   UNL A   1      31.785  20.359  25.129  1.00  0.00    -0.270 OA
ATOM      6  H   UNL A   1      33.717  19.519  25.937  1.00  0.00     0.163 HD
BRANCH   4   7
ATOM      7  C   UNL A   1      32.684  22.529  24.910  1.00  0.00     0.067 C 
ATOM      8  C   UNL A   1      31.176  27.312  24.358  1.00  0.00     0.059 A 
ATOM      9  C   UNL A   1      32.404  26.693  24.639  1.00  0.00     0.074 A 
ATOM     10  C   UNL A   1      30.046  26.480  24.182  1.00  0.00     0.065 A 
ATOM     11  C   UNL A   1      32.484  25.309  24.769  1.00  0.00     0.130 A 
ATOM     12  C   UNL A   1      30.118  25.100  24.405  1.00  0.00     0.034 A 
ATOM     13  Cl  UNL A   1      28.519  27.108  23.660  1.00  0.00    -0.082 Cl
ATOM     14  C   UNL A   1      31.339  24.512  24.714  1.00  0.00     0.019 A 
ATOM     15  O   UNL A   1      33.729  24.765  24.955  1.00  0.00    -0.475 OA
ATOM     16  C   UNL A   1      31.462  23.088  25.004  1.00  0.00     0.025 C 
ATOM     17  C   UNL A   1      33.838  23.390  24.481  1.00  0.00     0.314 C 
BRANCH   8  18
ATOM     18  N   UNL A   1      31.095  28.712  24.285  1.00  0.00    -0.373 N 
ATOM     19  C   UNL A   1      30.700  29.240  22.981  1.00  0.00     0.143 C 
BRANCH  18  20
ATOM     20  C   UNL A   1      32.141  29.465  25.007  1.00  0.00     0.119 C 
BRANCH  20  21
ATOM     21  C   UNL A   1      31.690  29.909  26.414  1.00  0.00     0.002 C 
ATOM     22  C   UNL A   1      31.733  28.759  27.427  1.00  0.00     0.009 C 
ATOM     23  C   UNL A   1      32.563  31.055  26.933  1.00  0.00     0.009 C 
ENDBRANCH  20  21
ENDBRANCH  18  20
ENDBRANCH   8  18
BRANCH  17  24
ATOM     24  C   UNL A   1      34.052  23.350  22.948  1.00  0.00     0.429 C 
ATOM     25  F   UNL A   1      35.292  22.887  22.655  1.00  0.00    -0.167 F 
ATOM     26  F   UNL A   1      33.176  22.520  22.331  1.00  0.00    -0.167 F 
ATOM     27  F   UNL A   1      33.920  24.557  22.355  1.00  0.00    -0.167 F 
ENDBRANCH  17  24
ENDBRANCH   4   7
ENDBRANCH   2   3
ENDBRANCH   1   2
BRANCH   1  28
ATOM     28  C   UNL A   1      37.380  21.279  24.672  1.00  0.00     0.023 C 
BRANCH  28  29
ATOM     29  C   UNL A   1      38.532  21.241  25.671  1.00  0.00     0.116 C 
BRANCH  29  30
ATOM     30  N   UNL A   1      39.371  20.053  25.573  1.00  0.00    -0.352 N 
ATOM     31  C   UNL A   1      40.683  19.919  25.969  1.00  0.00     0.251 C 
ATOM     32  H   UNL A   1      38.951  19.255  25.177  1.00  0.00     0.163 HD
ATOM     33  O   UNL A   1      41.306  18.883  25.774  1.00  0.00    -0.269 OA
BRANCH  31  34
ATOM     34  C   UNL A   1      41.338  21.086  26.588  1.00  0.00     0.039 A 
ATOM     35  C   UNL A   1      41.239  21.282  27.967  1.00  0.00     0.014 A 
ATOM     36  C   UNL A   1      41.930  22.047  25.767  1.00  0.00     0.014 A 
ATOM     37  C   UNL A   1      41.578  22.516  28.501  1.00  0.00     0.010 A 
ATOM     38  C   UNL A   1      42.347  23.258  26.322  1.00  0.00     0.010 A 
ATOM     39  C   UNL A   1      42.125  23.521  27.683  1.00  0.00    -0.014 A 
BRANCH  39  40
ATOM     40  C   UNL A   1      42.454  24.839  28.276  1.00  0.00     0.031 A 
ATOM     41  C   UNL A   1      43.870  25.190  28.645  1.00  0.00     0.074 A 
ATOM     42  C   UNL A   1      41.471  25.749  28.419  1.00  0.00     0.049 A 
ATOM     43  N   UNL A   1      44.331  26.303  29.156  1.00  0.00    -0.248 NA
ATOM     44  C   UNL A   1      44.903  24.166  28.413  1.00  0.00     0.031 C 
ATOM     45  C   UNL A   1      40.067  25.531  28.063  1.00  0.00     0.029 A 
ATOM     46  N   UNL A   1      41.506  27.044  28.865  1.00  0.00    -0.354 N 
ATOM     47  C   UNL A   1      45.697  26.108  29.327  1.00  0.00     0.074 A 
ATOM     48  C   UNL A   1      45.991  24.764  28.880  1.00  0.00     0.031 C 
ATOM     49  C   UNL A   1      39.388  26.673  28.243  1.00  0.00     0.029 A 
ATOM     50  C   UNL A   1      40.289  27.678  28.796  1.00  0.00     0.049 A 
ATOM     51  H   UNL A   1      42.323  27.477  29.203  1.00  0.00     0.167 HD
ATOM     52  C   UNL A   1      46.618  26.975  29.806  1.00  0.00     0.031 A 
ATOM     53  C   UNL A   1      39.930  28.925  29.152  1.00  0.00     0.031 A 
ATOM     54  C   UNL A   1      46.323  28.319  30.231  1.00  0.00     0.049 A 
ATOM     55  C   UNL A   1      40.962  29.844  29.734  1.00  0.00     0.074 A 
ATOM     56  C   UNL A   1      47.199  29.278  30.712  1.00  0.00     0.029 A 
ATOM     57  N   UNL A   1      45.062  28.892  30.224  1.00  0.00    -0.354 N 
ATOM     58  N   UNL A   1      42.246  29.638  29.897  1.00  0.00    -0.248 NA
ATOM     59  C   UNL A   1      40.495  31.158  30.194  1.00  0.00     0.031 C 
ATOM     60  C   UNL A   1      46.458  30.415  31.044  1.00  0.00     0.029 A 
ATOM     61  C   UNL A   1      45.132  30.183  30.720  1.00  0.00     0.049 A 
ATOM     62  H   UNL A   1      44.240  28.448  29.914  1.00  0.00     0.167 HD
ATOM     63  C   UNL A   1      42.742  30.797  30.476  1.00  0.00     0.074 A 
ATOM     64  C   UNL A   1      41.627  31.710  30.614  1.00  0.00     0.031 C 
ATOM     65  C   UNL A   1      44.010  31.074  30.863  1.00  0.00     0.031 A 
BRANCH  52  66
ATOM     66  C   UNL A   1      48.043  26.511  29.920  1.00  0.00    -0.014 A 
ATOM     67  C   UNL A   1      48.897  26.610  28.808  1.00  0.00     0.009 A 
ATOM     68  C   UNL A   1      48.510  25.877  31.081  1.00  0.00     0.009 A 
ATOM     69  C   UNL A   1      50.183  26.071  28.851  1.00  0.00     0.001 A 
ATOM     70  C   UNL A   1      49.806  25.359  31.129  1.00  0.00     0.001 A 
ATOM     71  C   UNL A   1      50.637  25.447  30.012  1.00  0.00     0.000 A 
ENDBRANCH  52  66
BRANCH  53  72
ATOM     72  C   UNL A   1      38.520  29.354  28.971  1.00  0.00    -0.014 A 
ATOM     73  C   UNL A   1      37.610  29.280  30.039  1.00  0.00     0.009 A 
ATOM     74  C   UNL A   1      38.063  29.783  27.717  1.00  0.00     0.009 A 
ATOM     75  C   UNL A   1      36.265  29.596  29.847  1.00  0.00     0.001 A 
ATOM     76  C   UNL A   1      36.722  30.127  27.536  1.00  0.00     0.001 A 
ATOM     77  C   UNL A   1      35.822  30.023  28.597  1.00  0.00     0.000 A 
ENDBRANCH  53  72
BRANCH  65  78
ATOM     78  C   UNL A   1      44.270  32.417  31.479  1.00  0.00    -0.014 A 
ATOM     79  C   UNL A   1      44.651  33.497  30.668  1.00  0.00     0.009 A 
ATOM     80  C   UNL A   1      44.226  32.589  32.871  1.00  0.00     0.009 A 
ATOM     81  C   UNL A   1      44.997  34.722  31.240  1.00  0.00     0.001 A 
ATOM     82  C   UNL A   1      44.549  33.823  33.438  1.00  0.00     0.001 A 
ATOM     83  C   UNL A   1      44.942  34.885  32.623  1.00  0.00     0.000 A 
ENDBRANCH  65  78
ENDBRANCH  39  40
ENDBRANCH  31  34
ENDBRANCH  29  30
ENDBRANCH  28  29
ENDBRANCH   1  28
TORSDOF 15
ENDMDL
