MODEL 1
REMARK VINA RESULT:     -11.2      0.000      0.000
REMARK SMILES CSc1ccc(NS(=O)(=O)c2ccc(C(=O)NCCCCNC(=O)c3ccc(-c4c5nc(c(-c6ccccc6)c6ccc([nH]6)c(-c6ccccc6)c6nc(c(-c7ccccc7)c7ccc4[nH]7)C=C6)C=C5)cc3)cc2)cc1
REMARK SMILES IDX 18 1 17 2 15 3 16 4 14 6 11 7 12 8 74 9 13 10 73 11 8 12
REMARK SMILES IDX 9 13 10 14 7 15 6 17 3 18 4 19 76 20 5 21 75 22 2 23 1 24
REMARK SMILES IDX 19 25 20 26 21 27 22 28 23 29 24 31 25 32 26 33 72 34 27 35
REMARK SMILES IDX 71 36 28 37 29 38 30 39 65 40 31 41 70 42 64 43 66 44 32 45
REMARK SMILES IDX 69 46 63 47 62 48 33 50 55 51 40 52 54 53 41 54 44 55 53 56
REMARK SMILES IDX 67 57 42 58 43 59 52 61 68 62 45 63 34 64 35 65 39 66 36 67
REMARK SMILES IDX 38 68 37 69 56 70 57 71 61 72 58 73 60 74 59 75 46 76 47 77
REMARK SMILES IDX 51 78 48 79 50 80 49 81
REMARK H PARENT 17 5 7 16 22 30 66 49 44 60
REMARK Flexibility Score: inf
ROOT
ATOM      1  C   UNL A   1      33.457  28.531  23.333  1.00  0.00     0.116 C 
ENDROOT
BRANCH   1   2
ATOM      2  N   UNL A   1      32.238  28.728  22.577  1.00  0.00    -0.352 N 
ATOM      3  C   UNL A   1      31.032  28.084  22.643  1.00  0.00     0.251 C 
ATOM      4  O   UNL A   1      30.117  28.473  21.919  1.00  0.00    -0.269 OA
ATOM      5  H   UNL A   1      32.283  29.445  21.903  1.00  0.00     0.163 HD
BRANCH   3   6
ATOM      6  C   UNL A   1      30.781  26.953  23.574  1.00  0.00     0.039 A 
ATOM      7  C   UNL A   1      30.623  24.744  25.274  1.00  0.00     0.087 A 
ATOM      8  C   UNL A   1      30.965  24.558  23.933  1.00  0.00     0.023 A 
ATOM      9  C   UNL A   1      30.292  26.013  25.761  1.00  0.00     0.023 A 
ATOM     10  C   UNL A   1      31.052  25.665  23.090  1.00  0.00     0.015 A 
ATOM     11  C   UNL A   1      30.403  27.120  24.914  1.00  0.00     0.015 A 
BRANCH   7  12
ATOM     12  S   UNL A   1      30.764  23.380  26.403  1.00  0.00     0.261 S 
ATOM     13  O   UNL A   1      30.951  22.164  25.639  1.00  0.00    -0.201 OA
ATOM     14  O   UNL A   1      29.686  23.493  27.361  1.00  0.00    -0.201 OA
BRANCH  12  15
ATOM     15  N   UNL A   1      32.209  23.680  27.264  1.00  0.00    -0.280 N 
ATOM     16  H   UNL A   1      32.188  24.136  28.135  1.00  0.00     0.180 HD
BRANCH  15  17
ATOM     17  C   UNL A   1      33.454  23.253  26.693  1.00  0.00     0.049 A 
ATOM     18  C   UNL A   1      35.878  22.359  25.581  1.00  0.00     0.007 A 
ATOM     19  C   UNL A   1      35.109  21.509  26.374  1.00  0.00     0.017 A 
ATOM     20  C   UNL A   1      35.432  23.668  25.363  1.00  0.00     0.017 A 
ATOM     21  C   UNL A   1      33.888  21.943  26.888  1.00  0.00     0.028 A 
ATOM     22  C   UNL A   1      34.230  24.122  25.929  1.00  0.00     0.028 A 
BRANCH  18  23
ATOM     23  S   UNL A   1      37.414  21.814  24.860  1.00  0.00    -0.130 SA
ATOM     24  C   UNL A   1      38.598  22.535  26.033  1.00  0.00     0.091 C 
ENDBRANCH  18  23
ENDBRANCH  15  17
ENDBRANCH  12  15
ENDBRANCH   7  12
ENDBRANCH   3   6
ENDBRANCH   1   2
BRANCH   1  25
ATOM     25  C   UNL A   1      33.308  29.103  24.743  1.00  0.00     0.023 C 
BRANCH  25  26
ATOM     26  C   UNL A   1      33.873  28.204  25.847  1.00  0.00     0.023 C 
BRANCH  26  27
ATOM     27  C   UNL A   1      33.433  28.570  27.259  1.00  0.00     0.116 C 
BRANCH  27  28
ATOM     28  N   UNL A   1      33.442  30.002  27.511  1.00  0.00    -0.352 N 
ATOM     29  C   UNL A   1      34.464  30.773  28.010  1.00  0.00     0.251 C 
ATOM     30  H   UNL A   1      32.609  30.481  27.297  1.00  0.00     0.163 HD
ATOM     31  O   UNL A   1      34.282  31.956  28.273  1.00  0.00    -0.269 OA
BRANCH  29  32
ATOM     32  C   UNL A   1      35.775  30.146  28.266  1.00  0.00     0.039 A 
ATOM     33  C   UNL A   1      36.740  30.170  27.258  1.00  0.00     0.014 A 
ATOM     34  C   UNL A   1      36.062  29.582  29.511  1.00  0.00     0.014 A 
ATOM     35  C   UNL A   1      38.021  29.687  27.522  1.00  0.00     0.010 A 
ATOM     36  C   UNL A   1      37.358  29.167  29.795  1.00  0.00     0.010 A 
ATOM     37  C   UNL A   1      38.351  29.217  28.804  1.00  0.00    -0.014 A 
BRANCH  37  38
ATOM     38  C   UNL A   1      39.730  28.780  29.130  1.00  0.00     0.031 A 
ATOM     39  C   UNL A   1      40.670  29.716  29.837  1.00  0.00     0.074 A 
ATOM     40  C   UNL A   1      40.154  27.565  28.731  1.00  0.00     0.049 A 
ATOM     41  N   UNL A   1      41.926  29.535  30.156  1.00  0.00    -0.248 NA
ATOM     42  C   UNL A   1      40.138  31.035  30.213  1.00  0.00     0.031 C 
ATOM     43  C   UNL A   1      39.351  26.582  27.999  1.00  0.00     0.029 A 
ATOM     44  N   UNL A   1      41.373  26.952  28.880  1.00  0.00    -0.354 N 
ATOM     45  C   UNL A   1      42.337  30.720  30.753  1.00  0.00     0.074 A 
ATOM     46  C   UNL A   1      41.213  31.630  30.708  1.00  0.00     0.031 C 
ATOM     47  C   UNL A   1      40.090  25.481  27.789  1.00  0.00     0.029 A 
ATOM     48  C   UNL A   1      41.427  25.693  28.331  1.00  0.00     0.049 A 
ATOM     49  H   UNL A   1      42.137  27.374  29.337  1.00  0.00     0.167 HD
ATOM     50  C   UNL A   1      43.536  31.018  31.307  1.00  0.00     0.031 A 
ATOM     51  C   UNL A   1      42.443  24.812  28.267  1.00  0.00     0.031 A 
ATOM     52  C   UNL A   1      44.648  30.109  31.364  1.00  0.00     0.049 A 
ATOM     53  C   UNL A   1      43.768  25.174  28.881  1.00  0.00     0.074 A 
ATOM     54  C   UNL A   1      45.885  30.298  31.956  1.00  0.00     0.029 A 
ATOM     55  N   UNL A   1      44.659  28.840  30.808  1.00  0.00    -0.354 N 
ATOM     56  N   UNL A   1      44.116  26.272  29.507  1.00  0.00    -0.248 NA
ATOM     57  C   UNL A   1      44.835  24.167  28.790  1.00  0.00     0.031 C 
ATOM     58  C   UNL A   1      46.662  29.161  31.714  1.00  0.00     0.029 A 
ATOM     59  C   UNL A   1      45.890  28.243  31.022  1.00  0.00     0.049 A 
ATOM     60  H   UNL A   1      43.904  28.426  30.331  1.00  0.00     0.167 HD
ATOM     61  C   UNL A   1      45.430  26.076  29.912  1.00  0.00     0.074 A 
ATOM     62  C   UNL A   1      45.810  24.749  29.474  1.00  0.00     0.031 C 
ATOM     63  C   UNL A   1      46.249  26.919  30.585  1.00  0.00     0.031 A 
BRANCH  50  64
ATOM     64  C   UNL A   1      43.706  32.391  31.895  1.00  0.00    -0.014 A 
ATOM     65  C   UNL A   1      44.176  33.462  31.117  1.00  0.00     0.009 A 
ATOM     66  C   UNL A   1      43.348  32.629  33.231  1.00  0.00     0.009 A 
ATOM     67  C   UNL A   1      44.315  34.735  31.675  1.00  0.00     0.001 A 
ATOM     68  C   UNL A   1      43.459  33.909  33.778  1.00  0.00     0.001 A 
ATOM     69  C   UNL A   1      43.950  34.957  33.002  1.00  0.00     0.000 A 
ENDBRANCH  50  64
BRANCH  51  70
ATOM     70  C   UNL A   1      42.251  23.493  27.609  1.00  0.00    -0.014 A 
ATOM     71  C   UNL A   1      41.783  22.392  28.342  1.00  0.00     0.009 A 
ATOM     72  C   UNL A   1      42.556  23.323  26.249  1.00  0.00     0.009 A 
ATOM     73  C   UNL A   1      41.656  21.140  27.735  1.00  0.00     0.001 A 
ATOM     74  C   UNL A   1      42.399  22.077  25.638  1.00  0.00     0.001 A 
ATOM     75  C   UNL A   1      41.961  20.985  26.384  1.00  0.00     0.000 A 
ENDBRANCH  51  70
BRANCH  63  76
ATOM     76  C   UNL A   1      47.623  26.416  30.928  1.00  0.00    -0.014 A 
ATOM     77  C   UNL A   1      47.895  25.820  32.168  1.00  0.00     0.009 A 
ATOM     78  C   UNL A   1      48.650  26.503  29.974  1.00  0.00     0.009 A 
ATOM     79  C   UNL A   1      49.177  25.351  32.459  1.00  0.00     0.001 A 
ATOM     80  C   UNL A   1      49.922  26.006  30.255  1.00  0.00     0.001 A 
ATOM     81  C   UNL A   1      50.188  25.440  31.501  1.00  0.00     0.000 A 
ENDBRANCH  63  76
ENDBRANCH  37  38
ENDBRANCH  29  32
ENDBRANCH  27  28
ENDBRANCH  26  27
ENDBRANCH  25  26
ENDBRANCH   1  25
TORSDOF 15
ENDMDL
MODEL 2
REMARK VINA RESULT:     -10.8      5.157      9.764
REMARK SMILES CSc1ccc(NS(=O)(=O)c2ccc(C(=O)NCCCCNC(=O)c3ccc(-c4c5nc(c(-c6ccccc6)c6ccc([nH]6)c(-c6ccccc6)c6nc(c(-c7ccccc7)c7ccc4[nH]7)C=C6)C=C5)cc3)cc2)cc1
REMARK SMILES IDX 18 1 17 2 15 3 16 4 14 6 11 7 12 8 74 9 13 10 73 11 8 12
REMARK SMILES IDX 9 13 10 14 7 15 6 17 3 18 4 19 76 20 5 21 75 22 2 23 1 24
REMARK SMILES IDX 19 25 20 26 21 27 22 28 23 29 24 31 25 32 26 33 72 34 27 35
REMARK SMILES IDX 71 36 28 37 29 38 30 39 65 40 31 41 70 42 64 43 66 44 32 45
REMARK SMILES IDX 69 46 63 47 62 48 33 50 55 51 40 52 54 53 41 54 44 55 53 56
REMARK SMILES IDX 67 57 42 58 43 59 52 61 68 62 45 63 34 64 35 65 39 66 36 67
REMARK SMILES IDX 38 68 37 69 56 70 57 71 61 72 58 73 60 74 59 75 46 76 47 77
REMARK SMILES IDX 51 78 48 79 50 80 49 81
REMARK H PARENT 17 5 7 16 22 30 66 49 44 60
REMARK Flexibility Score: inf
ROOT
ATOM      1  C   UNL A   1      35.692  34.582  33.453  1.00  0.00     0.116 C 
ENDROOT
BRANCH   1   2
ATOM      2  N   UNL A   1      35.877  34.353  34.871  1.00  0.00    -0.352 N 
ATOM      3  C   UNL A   1      36.660  33.448  35.535  1.00  0.00     0.251 C 
ATOM      4  O   UNL A   1      36.686  33.483  36.764  1.00  0.00    -0.269 OA
ATOM      5  H   UNL A   1      35.352  34.947  35.455  1.00  0.00     0.163 HD
BRANCH   3   6
ATOM      6  C   UNL A   1      37.498  32.446  34.827  1.00  0.00     0.039 A 
ATOM      7  C   UNL A   1      39.115  30.418  33.791  1.00  0.00     0.087 A 
ATOM      8  C   UNL A   1      39.624  31.272  34.772  1.00  0.00     0.023 A 
ATOM      9  C   UNL A   1      37.830  30.608  33.271  1.00  0.00     0.023 A 
ATOM     10  C   UNL A   1      38.810  32.277  35.293  1.00  0.00     0.015 A 
ATOM     11  C   UNL A   1      37.013  31.604  33.815  1.00  0.00     0.015 A 
BRANCH   7  12
ATOM     12  S   UNL A   1      40.051  28.987  33.315  1.00  0.00     0.261 S 
ATOM     13  O   UNL A   1      40.981  29.367  32.271  1.00  0.00    -0.201 OA
ATOM     14  O   UNL A   1      39.117  27.901  33.113  1.00  0.00    -0.201 OA
BRANCH  12  15
ATOM     15  N   UNL A   1      40.964  28.587  34.702  1.00  0.00    -0.280 N 
ATOM     16  H   UNL A   1      40.951  29.169  35.495  1.00  0.00     0.180 HD
BRANCH  15  17
ATOM     17  C   UNL A   1      41.749  27.387  34.690  1.00  0.00     0.049 A 
ATOM     18  C   UNL A   1      43.242  25.002  34.688  1.00  0.00     0.007 A 
ATOM     19  C   UNL A   1      42.097  25.118  35.475  1.00  0.00     0.017 A 
ATOM     20  C   UNL A   1      43.645  26.098  33.915  1.00  0.00     0.017 A 
ATOM     21  C   UNL A   1      41.337  26.287  35.440  1.00  0.00     0.028 A 
ATOM     22  C   UNL A   1      42.910  27.294  33.926  1.00  0.00     0.028 A 
BRANCH  18  23
ATOM     23  S   UNL A   1      44.200  23.500  34.665  1.00  0.00    -0.130 SA
ATOM     24  C   UNL A   1      45.867  24.181  34.424  1.00  0.00     0.091 C 
ENDBRANCH  18  23
ENDBRANCH  15  17
ENDBRANCH  12  15
ENDBRANCH   7  12
ENDBRANCH   3   6
ENDBRANCH   1   2
BRANCH   1  25
ATOM     25  C   UNL A   1      34.576  35.599  33.218  1.00  0.00     0.023 C 
BRANCH  25  26
ATOM     26  C   UNL A   1      33.538  35.162  32.180  1.00  0.00     0.023 C 
BRANCH  26  27
ATOM     27  C   UNL A   1      33.662  35.845  30.823  1.00  0.00     0.116 C 
BRANCH  27  28
ATOM     28  N   UNL A   1      32.862  35.211  29.786  1.00  0.00    -0.352 N 
ATOM     29  C   UNL A   1      33.215  34.183  28.946  1.00  0.00     0.251 C 
ATOM     30  H   UNL A   1      31.950  35.565  29.671  1.00  0.00     0.163 HD
ATOM     31  O   UNL A   1      32.467  33.830  28.042  1.00  0.00    -0.269 OA
BRANCH  29  32
ATOM     32  C   UNL A   1      34.530  33.536  29.120  1.00  0.00     0.039 A 
ATOM     33  C   UNL A   1      35.597  33.956  28.324  1.00  0.00     0.014 A 
ATOM     34  C   UNL A   1      34.715  32.555  30.098  1.00  0.00     0.014 A 
ATOM     35  C   UNL A   1      36.871  33.437  28.554  1.00  0.00     0.010 A 
ATOM     36  C   UNL A   1      35.997  32.094  30.374  1.00  0.00     0.010 A 
ATOM     37  C   UNL A   1      37.088  32.531  29.606  1.00  0.00    -0.014 A 
BRANCH  37  38
ATOM     38  C   UNL A   1      38.449  32.036  29.923  1.00  0.00     0.031 A 
ATOM     39  C   UNL A   1      38.920  30.719  29.374  1.00  0.00     0.074 A 
ATOM     40  C   UNL A   1      39.235  32.742  30.760  1.00  0.00     0.049 A 
ATOM     41  N   UNL A   1      40.052  30.096  29.584  1.00  0.00    -0.248 NA
ATOM     42  C   UNL A   1      37.991  29.995  28.492  1.00  0.00     0.031 C 
ATOM     43  C   UNL A   1      38.876  34.013  31.394  1.00  0.00     0.029 A 
ATOM     44  N   UNL A   1      40.500  32.485  31.226  1.00  0.00    -0.354 N 
ATOM     45  C   UNL A   1      39.962  28.904  28.876  1.00  0.00     0.074 A 
ATOM     46  C   UNL A   1      38.649  28.868  28.271  1.00  0.00     0.031 C 
ATOM     47  C   UNL A   1      39.906  34.437  32.143  1.00  0.00     0.029 A 
ATOM     48  C   UNL A   1      40.980  33.452  32.077  1.00  0.00     0.049 A 
ATOM     49  H   UNL A   1      41.014  31.683  30.976  1.00  0.00     0.167 HD
ATOM     50  C   UNL A   1      40.896  27.935  28.727  1.00  0.00     0.031 A 
ATOM     51  C   UNL A   1      42.153  33.532  32.734  1.00  0.00     0.031 A 
ATOM     52  C   UNL A   1      42.206  27.979  29.318  1.00  0.00     0.049 A 
ATOM     53  C   UNL A   1      43.168  32.436  32.559  1.00  0.00     0.074 A 
ATOM     54  C   UNL A   1      43.244  27.073  29.178  1.00  0.00     0.029 A 
ATOM     55  N   UNL A   1      42.658  28.979  30.163  1.00  0.00    -0.354 N 
ATOM     56  N   UNL A   1      43.095  31.351  31.826  1.00  0.00    -0.248 NA
ATOM     57  C   UNL A   1      44.433  32.584  33.293  1.00  0.00     0.031 C 
ATOM     58  C   UNL A   1      44.307  27.502  29.978  1.00  0.00     0.029 A 
ATOM     59  C   UNL A   1      43.952  28.703  30.570  1.00  0.00     0.049 A 
ATOM     60  H   UNL A   1      42.137  29.770  30.432  1.00  0.00     0.167 HD
ATOM     61  C   UNL A   1      44.313  30.704  31.985  1.00  0.00     0.074 A 
ATOM     62  C   UNL A   1      45.112  31.527  32.871  1.00  0.00     0.031 C 
ATOM     63  C   UNL A   1      44.734  29.534  31.447  1.00  0.00     0.031 A 
BRANCH  50  64
ATOM     64  C   UNL A   1      40.530  26.741  27.891  1.00  0.00    -0.014 A 
ATOM     65  C   UNL A   1      40.968  26.623  26.562  1.00  0.00     0.009 A 
ATOM     66  C   UNL A   1      39.778  25.698  28.454  1.00  0.00     0.009 A 
ATOM     67  C   UNL A   1      40.631  25.499  25.803  1.00  0.00     0.001 A 
ATOM     68  C   UNL A   1      39.468  24.562  27.703  1.00  0.00     0.001 A 
ATOM     69  C   UNL A   1      39.887  24.468  26.377  1.00  0.00     0.000 A 
ENDBRANCH  50  64
BRANCH  51  70
ATOM     70  C   UNL A   1      42.442  34.696  33.611  1.00  0.00    -0.014 A 
ATOM     71  C   UNL A   1      42.130  34.654  34.979  1.00  0.00     0.009 A 
ATOM     72  C   UNL A   1      43.012  35.865  33.082  1.00  0.00     0.009 A 
ATOM     73  C   UNL A   1      42.352  35.769  35.791  1.00  0.00     0.001 A 
ATOM     74  C   UNL A   1      43.261  36.967  33.902  1.00  0.00     0.001 A 
ATOM     75  C   UNL A   1      42.920  36.922  35.252  1.00  0.00     0.000 A 
ENDBRANCH  51  70
BRANCH  63  76
ATOM     76  C   UNL A   1      46.135  29.095  31.766  1.00  0.00    -0.014 A 
ATOM     77  C   UNL A   1      46.412  28.277  32.871  1.00  0.00     0.009 A 
ATOM     78  C   UNL A   1      47.189  29.473  30.917  1.00  0.00     0.009 A 
ATOM     79  C   UNL A   1      47.721  27.874  33.140  1.00  0.00     0.001 A 
ATOM     80  C   UNL A   1      48.491  29.044  31.171  1.00  0.00     0.001 A 
ATOM     81  C   UNL A   1      48.758  28.253  32.287  1.00  0.00     0.000 A 
ENDBRANCH  63  76
ENDBRANCH  37  38
ENDBRANCH  29  32
ENDBRANCH  27  28
ENDBRANCH  26  27
ENDBRANCH  25  26
ENDBRANCH   1  25
TORSDOF 15
ENDMDL
MODEL 3
REMARK VINA RESULT:     -10.6      1.853      2.300
REMARK SMILES CSc1ccc(NS(=O)(=O)c2ccc(C(=O)NCCCCNC(=O)c3ccc(-c4c5nc(c(-c6ccccc6)c6ccc([nH]6)c(-c6ccccc6)c6nc(c(-c7ccccc7)c7ccc4[nH]7)C=C6)C=C5)cc3)cc2)cc1
REMARK SMILES IDX 18 1 17 2 15 3 16 4 14 6 11 7 12 8 74 9 13 10 73 11 8 12
REMARK SMILES IDX 9 13 10 14 7 15 6 17 3 18 4 19 76 20 5 21 75 22 2 23 1 24
REMARK SMILES IDX 19 25 20 26 21 27 22 28 23 29 24 31 25 32 26 33 72 34 27 35
REMARK SMILES IDX 71 36 28 37 29 38 30 39 65 40 31 41 70 42 64 43 66 44 32 45
REMARK SMILES IDX 69 46 63 47 62 48 33 50 55 51 40 52 54 53 41 54 44 55 53 56
REMARK SMILES IDX 67 57 42 58 43 59 52 61 68 62 45 63 34 64 35 65 39 66 36 67
REMARK SMILES IDX 38 68 37 69 56 70 57 71 61 72 58 73 60 74 59 75 46 76 47 77
REMARK SMILES IDX 51 78 48 79 50 80 49 81
REMARK H PARENT 17 5 7 16 22 30 66 49 44 60
REMARK Flexibility Score: inf
ROOT
ATOM      1  C   UNL A   1      31.151  29.709  25.106  1.00  0.00     0.116 C 
ENDROOT
BRANCH   1   2
ATOM      2  N   UNL A   1      30.743  29.988  23.745  1.00  0.00    -0.352 N 
ATOM      3  C   UNL A   1      30.740  29.190  22.633  1.00  0.00     0.251 C 
ATOM      4  O   UNL A   1      30.290  29.647  21.583  1.00  0.00    -0.269 OA
ATOM      5  H   UNL A   1      30.412  30.902  23.595  1.00  0.00     0.163 HD
BRANCH   3   6
ATOM      6  C   UNL A   1      31.233  27.789  22.654  1.00  0.00     0.039 A 
ATOM      7  C   UNL A   1      32.400  25.263  22.892  1.00  0.00     0.087 A 
ATOM      8  C   UNL A   1      33.148  26.320  22.368  1.00  0.00     0.023 A 
ATOM      9  C   UNL A   1      31.055  25.435  23.234  1.00  0.00     0.023 A 
ATOM     10  C   UNL A   1      32.564  27.582  22.261  1.00  0.00     0.015 A 
ATOM     11  C   UNL A   1      30.484  26.709  23.142  1.00  0.00     0.015 A 
BRANCH   7  12
ATOM     12  S   UNL A   1      33.213  23.730  23.271  1.00  0.00     0.261 S 
ATOM     13  O   UNL A   1      33.984  23.903  24.485  1.00  0.00    -0.201 OA
ATOM     14  O   UNL A   1      33.841  23.257  22.057  1.00  0.00    -0.201 OA
BRANCH  12  15
ATOM     15  N   UNL A   1      31.942  22.641  23.614  1.00  0.00    -0.280 N 
ATOM     16  H   UNL A   1      31.004  22.928  23.542  1.00  0.00     0.180 HD
BRANCH  15  17
ATOM     17  C   UNL A   1      32.269  21.302  24.009  1.00  0.00     0.049 A 
ATOM     18  C   UNL A   1      32.920  18.661  24.725  1.00  0.00     0.007 A 
ATOM     19  C   UNL A   1      32.557  18.967  23.415  1.00  0.00     0.017 A 
ATOM     20  C   UNL A   1      32.936  19.684  25.680  1.00  0.00     0.017 A 
ATOM     21  C   UNL A   1      32.277  20.285  23.055  1.00  0.00     0.028 A 
ATOM     22  C   UNL A   1      32.597  21.000  25.329  1.00  0.00     0.028 A 
BRANCH  18  23
ATOM     23  S   UNL A   1      33.342  16.996  25.202  1.00  0.00    -0.130 SA
ATOM     24  C   UNL A   1      33.883  16.326  23.603  1.00  0.00     0.091 C 
ENDBRANCH  18  23
ENDBRANCH  15  17
ENDBRANCH  12  15
ENDBRANCH   7  12
ENDBRANCH   3   6
ENDBRANCH   1   2
BRANCH   1  25
ATOM     25  C   UNL A   1      32.675  29.723  25.219  1.00  0.00     0.023 C 
BRANCH  25  26
ATOM     26  C   UNL A   1      33.266  28.477  25.885  1.00  0.00     0.023 C 
BRANCH  26  27
ATOM     27  C   UNL A   1      33.673  28.660  27.342  1.00  0.00     0.116 C 
BRANCH  27  28
ATOM     28  N   UNL A   1      33.664  30.050  27.770  1.00  0.00    -0.352 N 
ATOM     29  C   UNL A   1      34.680  30.769  28.351  1.00  0.00     0.251 C 
ATOM     30  H   UNL A   1      32.822  30.539  27.626  1.00  0.00     0.163 HD
ATOM     31  O   UNL A   1      34.484  31.907  28.762  1.00  0.00    -0.269 OA
BRANCH  29  32
ATOM     32  C   UNL A   1      36.003  30.136  28.514  1.00  0.00     0.039 A 
ATOM     33  C   UNL A   1      36.908  30.184  27.452  1.00  0.00     0.014 A 
ATOM     34  C   UNL A   1      36.362  29.541  29.727  1.00  0.00     0.014 A 
ATOM     35  C   UNL A   1      38.201  29.694  27.628  1.00  0.00     0.010 A 
ATOM     36  C   UNL A   1      37.671  29.119  29.924  1.00  0.00     0.010 A 
ATOM     37  C   UNL A   1      38.604  29.193  28.878  1.00  0.00    -0.014 A 
BRANCH  37  38
ATOM     38  C   UNL A   1      40.000  28.749  29.111  1.00  0.00     0.031 A 
ATOM     39  C   UNL A   1      40.999  29.690  29.722  1.00  0.00     0.074 A 
ATOM     40  C   UNL A   1      40.381  27.520  28.713  1.00  0.00     0.049 A 
ATOM     41  N   UNL A   1      42.274  29.503  29.952  1.00  0.00    -0.248 NA
ATOM     42  C   UNL A   1      40.510  31.025  30.103  1.00  0.00     0.031 C 
ATOM     43  C   UNL A   1      39.517  26.528  28.068  1.00  0.00     0.029 A 
ATOM     44  N   UNL A   1      41.602  26.896  28.786  1.00  0.00    -0.354 N 
ATOM     45  C   UNL A   1      42.739  30.697  30.487  1.00  0.00     0.074 A 
ATOM     46  C   UNL A   1      41.624  31.619  30.502  1.00  0.00     0.031 C 
ATOM     47  C   UNL A   1      40.227  25.413  27.831  1.00  0.00     0.029 A 
ATOM     48  C   UNL A   1      41.603  25.623  28.267  1.00  0.00     0.049 A 
ATOM     49  H   UNL A   1      42.401  27.320  29.174  1.00  0.00     0.167 HD
ATOM     50  C   UNL A   1      43.979  30.995  30.943  1.00  0.00     0.031 A 
ATOM     51  C   UNL A   1      42.602  24.729  28.150  1.00  0.00     0.031 A 
ATOM     52  C   UNL A   1      45.083  30.074  30.940  1.00  0.00     0.049 A 
ATOM     53  C   UNL A   1      43.972  25.090  28.655  1.00  0.00     0.074 A 
ATOM     54  C   UNL A   1      46.363  30.263  31.434  1.00  0.00     0.029 A 
ATOM     55  N   UNL A   1      45.041  28.792  30.416  1.00  0.00    -0.354 N 
ATOM     56  N   UNL A   1      44.377  26.199  29.225  1.00  0.00    -0.248 NA
ATOM     57  C   UNL A   1      45.020  24.069  28.510  1.00  0.00     0.031 C 
ATOM     58  C   UNL A   1      47.108  29.111  31.164  1.00  0.00     0.029 A 
ATOM     59  C   UNL A   1      46.278  28.186  30.554  1.00  0.00     0.049 A 
ATOM     60  H   UNL A   1      44.248  28.375  30.008  1.00  0.00     0.167 HD
ATOM     61  C   UNL A   1      45.715  25.998  29.536  1.00  0.00     0.074 A 
ATOM     62  C   UNL A   1      46.049  24.656  29.105  1.00  0.00     0.031 C 
ATOM     63  C   UNL A   1      46.591  26.848  30.125  1.00  0.00     0.031 A 
BRANCH  50  64
ATOM     64  C   UNL A   1      44.206  32.379  31.481  1.00  0.00    -0.014 A 
ATOM     65  C   UNL A   1      44.664  33.416  30.652  1.00  0.00     0.009 A 
ATOM     66  C   UNL A   1      43.913  32.664  32.824  1.00  0.00     0.009 A 
ATOM     67  C   UNL A   1      44.857  34.701  31.165  1.00  0.00     0.001 A 
ATOM     68  C   UNL A   1      44.077  33.956  33.327  1.00  0.00     0.001 A 
ATOM     69  C   UNL A   1      44.557  34.970  32.500  1.00  0.00     0.000 A 
ENDBRANCH  50  64
BRANCH  51  70
ATOM     70  C   UNL A   1      42.349  23.397  27.541  1.00  0.00    -0.014 A 
ATOM     71  C   UNL A   1      42.638  23.165  26.187  1.00  0.00     0.009 A 
ATOM     72  C   UNL A   1      41.796  22.356  28.304  1.00  0.00     0.009 A 
ATOM     73  C   UNL A   1      42.348  21.930  25.603  1.00  0.00     0.001 A 
ATOM     74  C   UNL A   1      41.535  21.113  27.724  1.00  0.00     0.001 A 
ATOM     75  C   UNL A   1      41.800  20.905  26.372  1.00  0.00     0.000 A 
ENDBRANCH  51  70
BRANCH  63  76
ATOM     76  C   UNL A   1      47.981  26.337  30.378  1.00  0.00    -0.014 A 
ATOM     77  C   UNL A   1      48.341  25.776  31.612  1.00  0.00     0.009 A 
ATOM     78  C   UNL A   1      48.933  26.381  29.346  1.00  0.00     0.009 A 
ATOM     79  C   UNL A   1      49.637  25.300  31.819  1.00  0.00     0.001 A 
ATOM     80  C   UNL A   1      50.218  25.876  29.545  1.00  0.00     0.001 A 
ATOM     81  C   UNL A   1      50.572  25.345  30.784  1.00  0.00     0.000 A 
ENDBRANCH  63  76
ENDBRANCH  37  38
ENDBRANCH  29  32
ENDBRANCH  27  28
ENDBRANCH  26  27
ENDBRANCH  25  26
ENDBRANCH   1  25
TORSDOF 15
ENDMDL
