MODEL 1
REMARK VINA RESULT:     -11.6      0.000      0.000
REMARK SMILES Cc1ccc(NC(=O)NC[C@@H]2CC[C@@H](C(=O)NCCCCNC(=O)c3ccc(-c4c5nc(c(-c6ccccc6)c6ccc([nH]6)c(-c6ccccc6)c6nc(c(-c7ccccc7)c7ccc4[nH]7)C=C6)C=C5)cc3)O2)c(F)c1
REMARK SMILES IDX 19 1 18 2 17 3 15 4 16 5 14 7 11 8 12 9 73 10 13 11 10 12
REMARK SMILES IDX 9 13 6 14 7 15 8 17 5 19 1 20 2 21 3 22 76 23 4 24 74 25
REMARK SMILES IDX 75 26 20 27 21 28 22 29 23 30 24 32 25 33 26 34 72 35 27 36
REMARK SMILES IDX 71 37 28 38 29 39 30 40 65 41 31 42 70 43 64 44 66 45 32 46
REMARK SMILES IDX 69 47 63 48 62 49 33 51 55 52 40 53 54 54 41 55 44 56 53 57
REMARK SMILES IDX 67 58 42 59 43 60 52 62 68 63 45 64 34 65 35 66 39 67 36 68
REMARK SMILES IDX 38 69 37 70 56 71 57 72 61 73 58 74 60 75 59 76 46 77 47 78
REMARK SMILES IDX 51 79 48 80 50 81 49 82
REMARK H PARENT 17 6 6 16 9 18 22 31 66 50 44 61
REMARK Flexibility Score: inf
ROOT
ATOM      1  C   UNL A   1      39.107  22.595  26.366  1.00  0.00     0.023 C 
ENDROOT
BRANCH   1   2
ATOM      2  C   UNL A   1      37.893  23.454  26.039  1.00  0.00     0.116 C 
BRANCH   2   3
ATOM      3  N   UNL A   1      37.640  23.477  24.611  1.00  0.00    -0.354 N 
ATOM      4  C   UNL A   1      36.472  23.154  23.976  1.00  0.00     0.249 C 
ATOM      5  O   UNL A   1      36.453  23.105  22.747  1.00  0.00    -0.272 OA
ATOM      6  H   UNL A   1      38.390  23.757  24.037  1.00  0.00     0.163 HD
BRANCH   4   7
ATOM      7  C   UNL A   1      35.267  22.824  24.860  1.00  0.00     0.207 C 
ATOM      8  C   UNL A   1      33.054  22.609  24.127  1.00  0.00     0.138 C 
ATOM      9  C   UNL A   1      33.397  21.419  25.005  1.00  0.00     0.037 C 
ATOM     10  O   UNL A   1      34.101  23.550  24.409  1.00  0.00    -0.363 OA
ATOM     11  C   UNL A   1      34.896  21.355  24.866  1.00  0.00     0.045 C 
BRANCH   8  12
ATOM     12  C   UNL A   1      31.680  23.258  24.388  1.00  0.00     0.149 C 
BRANCH  12  13
ATOM     13  N   UNL A   1      31.223  23.009  25.757  1.00  0.00    -0.335 N 
ATOM     14  N   UNL A   1      29.766  24.788  26.422  1.00  0.00    -0.305 N 
ATOM     15  C   UNL A   1      30.368  23.598  26.606  1.00  0.00     0.319 C 
ATOM     16  H   UNL A   1      28.960  24.893  26.978  1.00  0.00     0.171 HD
ATOM     17  O   UNL A   1      30.028  22.939  27.596  1.00  0.00    -0.249 OA
ATOM     18  H   UNL A   1      31.646  22.212  26.151  1.00  0.00     0.165 HD
BRANCH  14  19
ATOM     19  C   UNL A   1      30.021  25.913  25.625  1.00  0.00     0.078 A 
ATOM     20  C   UNL A   1      31.175  28.758  22.608  1.00  0.00     0.044 C 
ATOM     21  C   UNL A   1      30.676  27.883  23.717  1.00  0.00    -0.048 A 
ATOM     22  C   UNL A   1      29.510  27.124  23.581  1.00  0.00     0.006 A 
ATOM     23  C   UNL A   1      31.414  27.757  24.892  1.00  0.00     0.045 A 
ATOM     24  C   UNL A   1      29.179  26.150  24.534  1.00  0.00     0.029 A 
ATOM     25  C   UNL A   1      31.041  26.823  25.856  1.00  0.00     0.147 A 
ATOM     26  F   UNL A   1      31.671  26.839  27.036  1.00  0.00    -0.205 F 
ENDBRANCH  14  19
ENDBRANCH  12  13
ENDBRANCH   8  12
ENDBRANCH   4   7
ENDBRANCH   2   3
ENDBRANCH   1   2
BRANCH   1  27
ATOM     27  C   UNL A   1      39.119  21.252  25.641  1.00  0.00     0.023 C 
BRANCH  27  28
ATOM     28  C   UNL A   1      39.597  20.086  26.494  1.00  0.00     0.116 C 
BRANCH  28  29
ATOM     29  N   UNL A   1      40.737  19.396  25.910  1.00  0.00    -0.352 N 
ATOM     30  C   UNL A   1      42.026  19.848  25.761  1.00  0.00     0.251 C 
ATOM     31  H   UNL A   1      40.562  18.487  25.578  1.00  0.00     0.163 HD
ATOM     32  O   UNL A   1      42.837  19.215  25.103  1.00  0.00    -0.269 OA
BRANCH  30  33
ATOM     33  C   UNL A   1      42.404  21.134  26.381  1.00  0.00     0.039 A 
ATOM     34  C   UNL A   1      42.742  22.205  25.553  1.00  0.00     0.014 A 
ATOM     35  C   UNL A   1      42.385  21.289  27.770  1.00  0.00     0.014 A 
ATOM     36  C   UNL A   1      43.011  23.449  26.120  1.00  0.00     0.010 A 
ATOM     37  C   UNL A   1      42.560  22.550  28.325  1.00  0.00     0.010 A 
ATOM     38  C   UNL A   1      42.889  23.640  27.508  1.00  0.00    -0.014 A 
BRANCH  38  39
ATOM     39  C   UNL A   1      43.112  24.979  28.109  1.00  0.00     0.031 A 
ATOM     40  C   UNL A   1      44.489  25.397  28.544  1.00  0.00     0.074 A 
ATOM     41  C   UNL A   1      42.064  25.805  28.297  1.00  0.00     0.049 A 
ATOM     42  N   UNL A   1      44.879  26.535  29.062  1.00  0.00    -0.248 NA
ATOM     43  C   UNL A   1      45.565  24.401  28.409  1.00  0.00     0.031 C 
ATOM     44  C   UNL A   1      40.669  25.492  27.975  1.00  0.00     0.029 A 
ATOM     45  N   UNL A   1      42.011  27.080  28.799  1.00  0.00    -0.354 N 
ATOM     46  C   UNL A   1      46.235  26.384  29.325  1.00  0.00     0.074 A 
ATOM     47  C   UNL A   1      46.588  25.029  28.969  1.00  0.00     0.031 C 
ATOM     48  C   UNL A   1      39.905  26.561  28.249  1.00  0.00     0.029 A 
ATOM     49  C   UNL A   1      40.747  27.618  28.800  1.00  0.00     0.049 A 
ATOM     50  H   UNL A   1      42.802  27.563  29.129  1.00  0.00     0.167 HD
ATOM     51  C   UNL A   1      47.113  27.298  29.800  1.00  0.00     0.031 A 
ATOM     52  C   UNL A   1      40.313  28.831  29.195  1.00  0.00     0.031 A 
ATOM     53  C   UNL A   1      46.761  28.649  30.148  1.00  0.00     0.049 A 
ATOM     54  C   UNL A   1      41.308  29.832  29.711  1.00  0.00     0.074 A 
ATOM     55  C   UNL A   1      47.590  29.674  30.570  1.00  0.00     0.029 A 
ATOM     56  N   UNL A   1      45.472  29.158  30.125  1.00  0.00    -0.354 N 
ATOM     57  N   UNL A   1      42.605  29.707  29.860  1.00  0.00    -0.248 NA
ATOM     58  C   UNL A   1      40.781  31.149  30.094  1.00  0.00     0.031 C 
ATOM     59  C   UNL A   1      46.793  30.784  30.864  1.00  0.00     0.029 A 
ATOM     60  C   UNL A   1      45.478  30.475  30.556  1.00  0.00     0.049 A 
ATOM     61  H   UNL A   1      44.671  28.660  29.844  1.00  0.00     0.167 HD
ATOM     62  C   UNL A   1      43.053  30.937  30.326  1.00  0.00     0.074 A 
ATOM     63  C   UNL A   1      41.891  31.797  30.417  1.00  0.00     0.031 C 
ATOM     64  C   UNL A   1      44.314  31.318  30.646  1.00  0.00     0.031 A 
BRANCH  51  65
ATOM     65  C   UNL A   1      48.541  26.858  29.981  1.00  0.00    -0.014 A 
ATOM     66  C   UNL A   1      48.980  26.270  31.179  1.00  0.00     0.009 A 
ATOM     67  C   UNL A   1      49.455  27.012  28.927  1.00  0.00     0.009 A 
ATOM     68  C   UNL A   1      50.314  25.885  31.332  1.00  0.00     0.001 A 
ATOM     69  C   UNL A   1      50.780  26.594  29.071  1.00  0.00     0.001 A 
ATOM     70  C   UNL A   1      51.211  26.042  30.276  1.00  0.00     0.000 A 
ENDBRANCH  51  65
BRANCH  52  71
ATOM     71  C   UNL A   1      38.869  29.168  29.095  1.00  0.00    -0.014 A 
ATOM     72  C   UNL A   1      38.021  29.030  30.205  1.00  0.00     0.009 A 
ATOM     73  C   UNL A   1      38.330  29.637  27.886  1.00  0.00     0.009 A 
ATOM     74  C   UNL A   1      36.661  29.329  30.099  1.00  0.00     0.001 A 
ATOM     75  C   UNL A   1      36.977  29.966  27.792  1.00  0.00     0.001 A 
ATOM     76  C   UNL A   1      36.141  29.802  28.895  1.00  0.00     0.000 A 
ENDBRANCH  52  71
BRANCH  64  77
ATOM     77  C   UNL A   1      44.511  32.743  31.087  1.00  0.00    -0.014 A 
ATOM     78  C   UNL A   1      44.459  33.107  32.442  1.00  0.00     0.009 A 
ATOM     79  C   UNL A   1      44.796  33.730  30.129  1.00  0.00     0.009 A 
ATOM     80  C   UNL A   1      44.650  34.437  32.823  1.00  0.00     0.001 A 
ATOM     81  C   UNL A   1      45.019  35.051  30.516  1.00  0.00     0.001 A 
ATOM     82  C   UNL A   1      44.935  35.405  31.861  1.00  0.00     0.000 A 
ENDBRANCH  64  77
ENDBRANCH  38  39
ENDBRANCH  30  33
ENDBRANCH  28  29
ENDBRANCH  27  28
ENDBRANCH   1  27
TORSDOF 14
ENDMDL
MODEL 2
REMARK VINA RESULT:     -11.5      4.113      9.210
REMARK SMILES Cc1ccc(NC(=O)NC[C@@H]2CC[C@@H](C(=O)NCCCCNC(=O)c3ccc(-c4c5nc(c(-c6ccccc6)c6ccc([nH]6)c(-c6ccccc6)c6nc(c(-c7ccccc7)c7ccc4[nH]7)C=C6)C=C5)cc3)O2)c(F)c1
REMARK SMILES IDX 19 1 18 2 17 3 15 4 16 5 14 7 11 8 12 9 73 10 13 11 10 12
REMARK SMILES IDX 9 13 6 14 7 15 8 17 5 19 1 20 2 21 3 22 76 23 4 24 74 25
REMARK SMILES IDX 75 26 20 27 21 28 22 29 23 30 24 32 25 33 26 34 72 35 27 36
REMARK SMILES IDX 71 37 28 38 29 39 30 40 65 41 31 42 70 43 64 44 66 45 32 46
REMARK SMILES IDX 69 47 63 48 62 49 33 51 55 52 40 53 54 54 41 55 44 56 53 57
REMARK SMILES IDX 67 58 42 59 43 60 52 62 68 63 45 64 34 65 35 66 39 67 36 68
REMARK SMILES IDX 38 69 37 70 56 71 57 72 61 73 58 74 60 75 59 76 46 77 47 78
REMARK SMILES IDX 51 79 48 80 50 81 49 82
REMARK H PARENT 17 6 6 16 9 18 22 31 66 50 44 61
REMARK Flexibility Score: inf
ROOT
ATOM      1  C   UNL A   1      31.703  30.488  26.742  1.00  0.00     0.023 C 
ENDROOT
BRANCH   1   2
ATOM      2  C   UNL A   1      32.115  29.961  25.375  1.00  0.00     0.116 C 
BRANCH   2   3
ATOM      3  N   UNL A   1      30.960  29.773  24.518  1.00  0.00    -0.354 N 
ATOM      4  C   UNL A   1      30.625  28.642  23.824  1.00  0.00     0.249 C 
ATOM      5  O   UNL A   1      29.677  28.681  23.040  1.00  0.00    -0.272 OA
ATOM      6  H   UNL A   1      30.351  30.542  24.426  1.00  0.00     0.163 HD
BRANCH   4   7
ATOM      7  C   UNL A   1      31.499  27.406  24.043  1.00  0.00     0.207 C 
ATOM      8  C   UNL A   1      31.130  25.290  23.110  1.00  0.00     0.138 C 
ATOM      9  C   UNL A   1      32.584  25.671  22.900  1.00  0.00     0.037 C 
ATOM     10  O   UNL A   1      30.679  26.217  24.109  1.00  0.00    -0.363 OA
ATOM     11  C   UNL A   1      32.519  27.175  22.946  1.00  0.00     0.045 C 
BRANCH   8  12
ATOM     12  C   UNL A   1      30.879  23.844  23.584  1.00  0.00     0.149 C 
BRANCH  12  13
ATOM     13  N   UNL A   1      30.352  23.813  24.949  1.00  0.00    -0.335 N 
ATOM     14  N   UNL A   1      32.180  23.949  26.489  1.00  0.00    -0.305 N 
ATOM     15  C   UNL A   1      30.869  23.924  26.181  1.00  0.00     0.319 C 
ATOM     16  H   UNL A   1      32.353  24.347  27.372  1.00  0.00     0.171 HD
ATOM     17  O   UNL A   1      30.069  24.123  27.103  1.00  0.00    -0.249 OA
ATOM     18  H   UNL A   1      29.377  23.677  24.968  1.00  0.00     0.165 HD
BRANCH  14  19
ATOM     19  C   UNL A   1      33.355  23.538  25.843  1.00  0.00     0.078 A 
ATOM     20  C   UNL A   1      36.642  22.776  23.171  1.00  0.00     0.044 C 
ATOM     21  C   UNL A   1      35.593  22.988  24.220  1.00  0.00    -0.048 A 
ATOM     22  C   UNL A   1      35.525  24.177  24.953  1.00  0.00     0.006 A 
ATOM     23  C   UNL A   1      34.616  22.020  24.436  1.00  0.00     0.045 A 
ATOM     24  C   UNL A   1      34.416  24.447  25.768  1.00  0.00     0.029 A 
ATOM     25  C   UNL A   1      33.548  22.281  25.292  1.00  0.00     0.147 A 
ATOM     26  F   UNL A   1      32.719  21.278  25.601  1.00  0.00    -0.205 F 
ENDBRANCH  14  19
ENDBRANCH  12  13
ENDBRANCH   8  12
ENDBRANCH   4   7
ENDBRANCH   2   3
ENDBRANCH   1   2
BRANCH   1  27
ATOM     27  C   UNL A   1      31.491  31.998  26.776  1.00  0.00     0.023 C 
BRANCH  27  28
ATOM     28  C   UNL A   1      32.727  32.793  27.172  1.00  0.00     0.116 C 
BRANCH  28  29
ATOM     29  N   UNL A   1      32.405  34.132  27.640  1.00  0.00    -0.352 N 
ATOM     30  C   UNL A   1      33.020  34.864  28.628  1.00  0.00     0.251 C 
ATOM     31  H   UNL A   1      31.647  34.572  27.192  1.00  0.00     0.163 HD
ATOM     32  O   UNL A   1      32.533  35.913  29.022  1.00  0.00    -0.269 OA
BRANCH  30  33
ATOM     33  C   UNL A   1      34.263  34.341  29.230  1.00  0.00     0.039 A 
ATOM     34  C   UNL A   1      34.176  33.594  30.405  1.00  0.00     0.014 A 
ATOM     35  C   UNL A   1      35.499  34.556  28.614  1.00  0.00     0.014 A 
ATOM     36  C   UNL A   1      35.328  33.017  30.934  1.00  0.00     0.010 A 
ATOM     37  C   UNL A   1      36.628  33.902  29.090  1.00  0.00     0.010 A 
ATOM     38  C   UNL A   1      36.558  33.137  30.263  1.00  0.00    -0.014 A 
BRANCH  38  39
ATOM     39  C   UNL A   1      37.775  32.471  30.789  1.00  0.00     0.031 A 
ATOM     40  C   UNL A   1      38.457  32.994  32.022  1.00  0.00     0.074 A 
ATOM     41  C   UNL A   1      38.289  31.412  30.131  1.00  0.00     0.049 A 
ATOM     42  N   UNL A   1      39.511  32.527  32.642  1.00  0.00    -0.248 NA
ATOM     43  C   UNL A   1      37.903  34.219  32.623  1.00  0.00     0.031 C 
ATOM     44  C   UNL A   1      37.757  30.847  28.888  1.00  0.00     0.029 A 
ATOM     45  N   UNL A   1      39.370  30.620  30.421  1.00  0.00    -0.354 N 
ATOM     46  C   UNL A   1      39.751  33.405  33.692  1.00  0.00     0.074 A 
ATOM     47  C   UNL A   1      38.774  34.465  33.590  1.00  0.00     0.031 C 
ATOM     48  C   UNL A   1      38.489  29.774  28.546  1.00  0.00     0.029 A 
ATOM     49  C   UNL A   1      39.560  29.599  29.521  1.00  0.00     0.049 A 
ATOM     50  H   UNL A   1      39.954  30.768  31.199  1.00  0.00     0.167 HD
ATOM     51  C   UNL A   1      40.687  33.326  34.667  1.00  0.00     0.031 A 
ATOM     52  C   UNL A   1      40.492  28.627  29.486  1.00  0.00     0.031 A 
ATOM     53  C   UNL A   1      41.655  32.266  34.770  1.00  0.00     0.049 A 
ATOM     54  C   UNL A   1      41.515  28.553  30.584  1.00  0.00     0.074 A 
ATOM     55  C   UNL A   1      42.599  32.055  35.760  1.00  0.00     0.029 A 
ATOM     56  N   UNL A   1      41.808  31.246  33.844  1.00  0.00    -0.354 N 
ATOM     57  N   UNL A   1      41.668  29.335  31.626  1.00  0.00    -0.248 NA
ATOM     58  C   UNL A   1      42.484  27.451  30.512  1.00  0.00     0.031 C 
ATOM     59  C   UNL A   1      43.367  30.944  35.399  1.00  0.00     0.029 A 
ATOM     60  C   UNL A   1      42.854  30.419  34.223  1.00  0.00     0.049 A 
ATOM     61  H   UNL A   1      41.257  31.125  33.038  1.00  0.00     0.167 HD
ATOM     62  C   UNL A   1      42.729  28.803  32.347  1.00  0.00     0.074 A 
ATOM     63  C   UNL A   1      43.169  27.623  31.633  1.00  0.00     0.031 C 
ATOM     64  C   UNL A   1      43.285  29.251  33.500  1.00  0.00     0.031 A 
BRANCH  51  65
ATOM     65  C   UNL A   1      40.714  34.426  35.693  1.00  0.00    -0.014 A 
ATOM     66  C   UNL A   1      41.525  35.561  35.530  1.00  0.00     0.009 A 
ATOM     67  C   UNL A   1      39.894  34.338  36.829  1.00  0.00     0.009 A 
ATOM     68  C   UNL A   1      41.548  36.562  36.504  1.00  0.00     0.001 A 
ATOM     69  C   UNL A   1      39.893  35.357  37.784  1.00  0.00     0.001 A 
ATOM     70  C   UNL A   1      40.728  36.462  37.627  1.00  0.00     0.000 A 
ENDBRANCH  51  65
BRANCH  52  71
ATOM     71  C   UNL A   1      40.481  27.632  28.382  1.00  0.00    -0.014 A 
ATOM     72  C   UNL A   1      41.182  27.874  27.191  1.00  0.00     0.009 A 
ATOM     73  C   UNL A   1      39.771  26.428  28.517  1.00  0.00     0.009 A 
ATOM     74  C   UNL A   1      41.151  26.944  26.148  1.00  0.00     0.001 A 
ATOM     75  C   UNL A   1      39.768  25.486  27.486  1.00  0.00     0.001 A 
ATOM     76  C   UNL A   1      40.450  25.749  26.299  1.00  0.00     0.000 A 
ENDBRANCH  52  71
BRANCH  64  77
ATOM     77  C   UNL A   1      44.408  28.438  34.084  1.00  0.00    -0.014 A 
ATOM     78  C   UNL A   1      45.750  28.712  33.779  1.00  0.00     0.009 A 
ATOM     79  C   UNL A   1      44.114  27.405  34.990  1.00  0.00     0.009 A 
ATOM     80  C   UNL A   1      46.772  27.943  34.339  1.00  0.00     0.001 A 
ATOM     81  C   UNL A   1      45.140  26.661  35.574  1.00  0.00     0.001 A 
ATOM     82  C   UNL A   1      46.466  26.923  35.239  1.00  0.00     0.000 A 
ENDBRANCH  64  77
ENDBRANCH  38  39
ENDBRANCH  30  33
ENDBRANCH  28  29
ENDBRANCH  27  28
ENDBRANCH   1  27
TORSDOF 14
ENDMDL
MODEL 3
REMARK VINA RESULT:     -11.4      1.706      6.397
REMARK SMILES Cc1ccc(NC(=O)NC[C@@H]2CC[C@@H](C(=O)NCCCCNC(=O)c3ccc(-c4c5nc(c(-c6ccccc6)c6ccc([nH]6)c(-c6ccccc6)c6nc(c(-c7ccccc7)c7ccc4[nH]7)C=C6)C=C5)cc3)O2)c(F)c1
REMARK SMILES IDX 19 1 18 2 17 3 15 4 16 5 14 7 11 8 12 9 73 10 13 11 10 12
REMARK SMILES IDX 9 13 6 14 7 15 8 17 5 19 1 20 2 21 3 22 76 23 4 24 74 25
REMARK SMILES IDX 75 26 20 27 21 28 22 29 23 30 24 32 25 33 26 34 72 35 27 36
REMARK SMILES IDX 71 37 28 38 29 39 30 40 65 41 31 42 70 43 64 44 66 45 32 46
REMARK SMILES IDX 69 47 63 48 62 49 33 51 55 52 40 53 54 54 41 55 44 56 53 57
REMARK SMILES IDX 67 58 42 59 43 60 52 62 68 63 45 64 34 65 35 66 39 67 36 68
REMARK SMILES IDX 38 69 37 70 56 71 57 72 61 73 58 74 60 75 59 76 46 77 47 78
REMARK SMILES IDX 51 79 48 80 50 81 49 82
REMARK H PARENT 17 6 6 16 9 18 22 31 66 50 44 61
REMARK Flexibility Score: inf
ROOT
ATOM      1  C   UNL A   1      36.153  21.103  25.549  1.00  0.00     0.023 C 
ENDROOT
BRANCH   1   2
ATOM      2  C   UNL A   1      35.143  21.568  24.509  1.00  0.00     0.116 C 
BRANCH   2   3
ATOM      3  N   UNL A   1      33.929  20.777  24.571  1.00  0.00    -0.354 N 
ATOM      4  C   UNL A   1      32.673  21.220  24.888  1.00  0.00     0.249 C 
ATOM      5  O   UNL A   1      31.766  20.400  25.019  1.00  0.00    -0.272 OA
ATOM      6  H   UNL A   1      34.017  19.819  24.362  1.00  0.00     0.163 HD
BRANCH   4   7
ATOM      7  C   UNL A   1      32.500  22.724  25.108  1.00  0.00     0.207 C 
ATOM      8  C   UNL A   1      30.825  24.059  24.162  1.00  0.00     0.138 C 
ATOM      9  C   UNL A   1      30.903  24.352  25.649  1.00  0.00     0.037 C 
ATOM     10  O   UNL A   1      32.049  23.360  23.890  1.00  0.00    -0.363 OA
ATOM     11  C   UNL A   1      31.494  23.074  26.185  1.00  0.00     0.045 C 
BRANCH   8  12
ATOM     12  C   UNL A   1      30.707  25.291  23.242  1.00  0.00     0.149 C 
BRANCH  12  13
ATOM     13  N   UNL A   1      31.560  25.158  22.060  1.00  0.00    -0.335 N 
ATOM     14  N   UNL A   1      33.764  25.917  22.605  1.00  0.00    -0.305 N 
ATOM     15  C   UNL A   1      32.859  25.348  21.786  1.00  0.00     0.319 C 
ATOM     16  H   UNL A   1      34.690  25.681  22.366  1.00  0.00     0.171 HD
ATOM     17  O   UNL A   1      33.279  24.867  20.726  1.00  0.00    -0.249 OA
ATOM     18  H   UNL A   1      31.056  24.853  21.271  1.00  0.00     0.165 HD
BRANCH  14  19
ATOM     19  C   UNL A   1      33.694  26.768  23.717  1.00  0.00     0.078 A 
ATOM     20  C   UNL A   1      32.657  29.006  27.244  1.00  0.00     0.044 C 
ATOM     21  C   UNL A   1      33.171  28.271  26.044  1.00  0.00    -0.048 A 
ATOM     22  C   UNL A   1      33.647  26.960  26.139  1.00  0.00     0.006 A 
ATOM     23  C   UNL A   1      33.119  28.866  24.785  1.00  0.00     0.045 A 
ATOM     24  C   UNL A   1      33.915  26.215  24.982  1.00  0.00     0.029 A 
ATOM     25  C   UNL A   1      33.442  28.129  23.648  1.00  0.00     0.147 A 
ATOM     26  F   UNL A   1      33.538  28.771  22.479  1.00  0.00    -0.205 F 
ENDBRANCH  14  19
ENDBRANCH  12  13
ENDBRANCH   8  12
ENDBRANCH   4   7
ENDBRANCH   2   3
ENDBRANCH   1   2
BRANCH   1  27
ATOM     27  C   UNL A   1      37.352  20.371  24.952  1.00  0.00     0.023 C 
BRANCH  27  28
ATOM     28  C   UNL A   1      38.695  20.812  25.514  1.00  0.00     0.116 C 
BRANCH  28  29
ATOM     29  N   UNL A   1      39.651  19.719  25.600  1.00  0.00    -0.352 N 
ATOM     30  C   UNL A   1      40.963  19.760  26.007  1.00  0.00     0.251 C 
ATOM     31  H   UNL A   1      39.315  18.834  25.332  1.00  0.00     0.163 HD
ATOM     32  O   UNL A   1      41.690  18.788  25.871  1.00  0.00    -0.269 OA
BRANCH  30  33
ATOM     33  C   UNL A   1      41.491  21.015  26.580  1.00  0.00     0.039 A 
ATOM     34  C   UNL A   1      42.032  21.970  25.719  1.00  0.00     0.014 A 
ATOM     35  C   UNL A   1      41.413  21.260  27.954  1.00  0.00     0.014 A 
ATOM     36  C   UNL A   1      42.448  23.196  26.234  1.00  0.00     0.010 A 
ATOM     37  C   UNL A   1      41.740  22.516  28.449  1.00  0.00     0.010 A 
ATOM     38  C   UNL A   1      42.275  23.492  27.598  1.00  0.00    -0.014 A 
BRANCH  38  39
ATOM     39  C   UNL A   1      42.658  24.820  28.138  1.00  0.00     0.031 A 
ATOM     40  C   UNL A   1      41.617  25.884  28.348  1.00  0.00     0.074 A 
ATOM     41  C   UNL A   1      43.953  25.079  28.407  1.00  0.00     0.049 A 
ATOM     42  N   UNL A   1      41.759  27.091  28.835  1.00  0.00    -0.248 NA
ATOM     43  C   UNL A   1      40.241  25.566  27.929  1.00  0.00     0.031 C 
ATOM     44  C   UNL A   1      45.066  24.153  28.187  1.00  0.00     0.029 A 
ATOM     45  N   UNL A   1      44.549  26.199  28.928  1.00  0.00    -0.354 N 
ATOM     46  C   UNL A   1      40.501  27.676  28.768  1.00  0.00     0.074 A 
ATOM     47  C   UNL A   1      39.621  26.718  28.138  1.00  0.00     0.031 C 
ATOM     48  C   UNL A   1      46.204  24.727  28.610  1.00  0.00     0.029 A 
ATOM     49  C   UNL A   1      45.908  26.071  29.093  1.00  0.00     0.049 A 
ATOM     50  H   UNL A   1      44.053  27.016  29.160  1.00  0.00     0.167 HD
ATOM     51  C   UNL A   1      40.106  28.893  29.212  1.00  0.00     0.031 A 
ATOM     52  C   UNL A   1      46.814  26.939  29.583  1.00  0.00     0.031 A 
ATOM     53  C   UNL A   1      40.982  29.842  29.845  1.00  0.00     0.049 A 
ATOM     54  C   UNL A   1      46.351  28.280  30.077  1.00  0.00     0.074 A 
ATOM     55  C   UNL A   1      40.666  31.073  30.393  1.00  0.00     0.029 A 
ATOM     56  N   UNL A   1      42.349  29.671  30.002  1.00  0.00    -0.354 N 
ATOM     57  N   UNL A   1      45.139  28.781  30.098  1.00  0.00    -0.248 NA
ATOM     58  C   UNL A   1      47.380  29.170  30.634  1.00  0.00     0.031 C 
ATOM     59  C   UNL A   1      41.852  31.674  30.825  1.00  0.00     0.029 A 
ATOM     60  C   UNL A   1      42.896  30.788  30.612  1.00  0.00     0.049 A 
ATOM     61  H   UNL A   1      42.855  28.875  29.723  1.00  0.00     0.167 HD
ATOM     62  C   UNL A   1      45.255  30.029  30.696  1.00  0.00     0.074 A 
ATOM     63  C   UNL A   1      46.652  30.201  31.037  1.00  0.00     0.031 C 
ATOM     64  C   UNL A   1      44.289  30.948  30.942  1.00  0.00     0.031 A 
BRANCH  51  65
ATOM     65  C   UNL A   1      38.663  29.268  29.013  1.00  0.00    -0.014 A 
ATOM     66  C   UNL A   1      38.191  29.744  27.778  1.00  0.00     0.009 A 
ATOM     67  C   UNL A   1      37.753  29.117  30.072  1.00  0.00     0.009 A 
ATOM     68  C   UNL A   1      36.851  30.103  27.622  1.00  0.00     0.001 A 
ATOM     69  C   UNL A   1      36.406  29.444  29.903  1.00  0.00     0.001 A 
ATOM     70  C   UNL A   1      35.958  29.948  28.682  1.00  0.00     0.000 A 
ENDBRANCH  51  65
BRANCH  52  71
ATOM     71  C   UNL A   1      48.247  26.550  29.651  1.00  0.00    -0.014 A 
ATOM     72  C   UNL A   1      48.746  25.836  30.751  1.00  0.00     0.009 A 
ATOM     73  C   UNL A   1      49.126  26.889  28.610  1.00  0.00     0.009 A 
ATOM     74  C   UNL A   1      50.098  25.491  30.819  1.00  0.00     0.001 A 
ATOM     75  C   UNL A   1      50.470  26.515  28.665  1.00  0.00     0.001 A 
ATOM     76  C   UNL A   1      50.957  25.825  29.774  1.00  0.00     0.000 A 
ENDBRANCH  52  71
BRANCH  64  77
ATOM     77  C   UNL A   1      44.703  32.209  31.650  1.00  0.00    -0.014 A 
ATOM     78  C   UNL A   1      45.095  33.355  30.942  1.00  0.00     0.009 A 
ATOM     79  C   UNL A   1      44.658  32.259  33.053  1.00  0.00     0.009 A 
ATOM     80  C   UNL A   1      45.470  34.513  31.627  1.00  0.00     0.001 A 
ATOM     81  C   UNL A   1      45.001  33.429  33.733  1.00  0.00     0.001 A 
ATOM     82  C   UNL A   1      45.417  34.550  33.019  1.00  0.00     0.000 A 
ENDBRANCH  64  77
ENDBRANCH  38  39
ENDBRANCH  30  33
ENDBRANCH  28  29
ENDBRANCH  27  28
ENDBRANCH   1  27
TORSDOF 14
ENDMDL
