MODEL 1
REMARK VINA RESULT:     -11.0      0.000      0.000
REMARK SMILES CC[NH2+][C@@]1(C(=O)NCCCCNC(=O)c2ccc(-c3c4nc(c(-c5ccccc5)c5ccc([nH]5)c(-c5ccccc5)c5nc(c(-c6ccccc6)c6ccc3[nH]6)C=C5)C=C4)cc2)CCC[C@@H]1CC[NH+]1CCS(=O)(=O)CC1
REMARK SMILES IDX 9 1 8 2 7 3 5 4 6 5 4 7 63 8 66 9 64 10 65 11 3 12 2 15 1 16
REMARK SMILES IDX 67 17 68 18 69 19 70 20 76 21 71 23 75 24 72 25 73 26 74 27
REMARK SMILES IDX 10 28 11 29 12 30 13 31 14 33 15 34 16 35 62 36 17 37 61 38
REMARK SMILES IDX 18 39 19 40 20 41 55 42 21 43 60 44 54 45 56 46 22 47 59 48
REMARK SMILES IDX 53 49 52 50 23 52 45 53 30 54 44 55 31 56 34 57 43 58 57 59
REMARK SMILES IDX 32 60 33 61 42 63 58 64 35 65 24 66 25 67 29 68 26 69 28 70
REMARK SMILES IDX 27 71 46 72 47 73 51 74 48 75 50 76 49 77 36 78 37 79 41 80
REMARK SMILES IDX 38 81 40 82 39 83
REMARK H PARENT 7 6 3 13 3 14 69 22 12 32 56 51 34 62
REMARK Flexibility Score: inf
ROOT
ATOM      1  C   UNL A   1      36.636  20.806  25.303  1.00  0.00     0.023 C 
ENDROOT
BRANCH   1   2
ATOM      2  C   UNL A   1      36.537  22.297  24.988  1.00  0.00     0.116 C 
BRANCH   2   3
ATOM      3  N   UNL A   1      35.810  22.629  23.791  1.00  0.00    -0.351 N 
ATOM      4  C   UNL A   1      34.616  23.270  23.638  1.00  0.00     0.281 C 
ATOM      5  O   UNL A   1      34.459  23.842  22.547  1.00  0.00    -0.268 OA
ATOM      6  H   UNL A   1      36.242  22.350  22.950  1.00  0.00     0.163 HD
BRANCH   4   7
ATOM      7  C   UNL A   1      33.469  23.343  24.739  1.00  0.00     0.178 C 
ATOM      8  C   UNL A   1      34.041  23.790  26.107  1.00  0.00     0.079 C 
ATOM      9  C   UNL A   1      32.714  22.010  25.009  1.00  0.00     0.066 C 
ATOM     10  C   UNL A   1      33.947  22.626  27.082  1.00  0.00     0.008 C 
ATOM     11  C   UNL A   1      33.264  21.478  26.354  1.00  0.00     0.011 C 
BRANCH   7  12
ATOM     12  N   UNL A   1      32.612  24.516  24.351  1.00  0.00    -0.334 N 
ATOM     13  H   UNL A   1      32.797  25.256  25.029  1.00  0.00     0.347 HD
ATOM     14  H   UNL A   1      32.880  24.699  23.384  1.00  0.00     0.347 HD
BRANCH  12  15
ATOM     15  C   UNL A   1      31.171  24.356  24.283  1.00  0.00     0.257 C 
ATOM     16  C   UNL A   1      30.473  25.372  25.175  1.00  0.00     0.071 C 
ENDBRANCH  12  15
ENDBRANCH   7  12
BRANCH   9  17
ATOM     17  C   UNL A   1      32.727  20.884  23.941  1.00  0.00     0.072 C 
BRANCH  17  18
ATOM     18  C   UNL A   1      33.375  19.509  24.203  1.00  0.00     0.262 C 
BRANCH  18  19
ATOM     19  N   UNL A   1      32.470  18.349  24.103  1.00  0.00    -0.333 N 
ATOM     20  C   UNL A   1      32.153  17.678  25.374  1.00  0.00     0.278 C 
ATOM     21  C   UNL A   1      32.907  17.328  23.129  1.00  0.00     0.278 C 
ATOM     22  H   UNL A   1      31.615  18.793  23.767  1.00  0.00     0.348 HD
ATOM     23  C   UNL A   1      33.339  17.071  26.097  1.00  0.00     0.198 C 
ATOM     24  C   UNL A   1      34.191  16.594  23.488  1.00  0.00     0.198 C 
ATOM     25  S   UNL A   1      34.090  15.828  25.087  1.00  0.00     0.161 S 
ATOM     26  O   UNL A   1      35.450  15.641  25.567  1.00  0.00    -0.228 OA
ATOM     27  O   UNL A   1      33.183  14.704  25.000  1.00  0.00    -0.228 OA
ENDBRANCH  18  19
ENDBRANCH  17  18
ENDBRANCH   9  17
ENDBRANCH   4   7
ENDBRANCH   2   3
ENDBRANCH   1   2
BRANCH   1  28
ATOM     28  C   UNL A   1      37.913  20.133  24.827  1.00  0.00     0.023 C 
BRANCH  28  29
ATOM     29  C   UNL A   1      39.109  20.352  25.735  1.00  0.00     0.116 C 
BRANCH  29  30
ATOM     30  N   UNL A   1      40.012  19.207  25.792  1.00  0.00    -0.352 N 
ATOM     31  C   UNL A   1      41.364  19.202  26.042  1.00  0.00     0.251 C 
ATOM     32  H   UNL A   1      39.602  18.327  25.630  1.00  0.00     0.163 HD
ATOM     33  O   UNL A   1      42.023  18.175  25.943  1.00  0.00    -0.269 OA
BRANCH  31  34
ATOM     34  C   UNL A   1      42.009  20.482  26.391  1.00  0.00     0.039 A 
ATOM     35  C   UNL A   1      42.427  21.332  25.368  1.00  0.00     0.014 A 
ATOM     36  C   UNL A   1      42.086  20.877  27.728  1.00  0.00     0.014 A 
ATOM     37  C   UNL A   1      42.850  22.621  25.688  1.00  0.00     0.010 A 
ATOM     38  C   UNL A   1      42.397  22.193  28.031  1.00  0.00     0.010 A 
ATOM     39  C   UNL A   1      42.792  23.077  27.015  1.00  0.00    -0.014 A 
BRANCH  39  40
ATOM     40  C   UNL A   1      43.156  24.470  27.368  1.00  0.00     0.031 A 
ATOM     41  C   UNL A   1      44.596  24.902  27.314  1.00  0.00     0.074 A 
ATOM     42  C   UNL A   1      42.206  25.325  27.792  1.00  0.00     0.049 A 
ATOM     43  N   UNL A   1      45.120  26.063  27.615  1.00  0.00    -0.248 NA
ATOM     44  C   UNL A   1      45.581  23.891  26.897  1.00  0.00     0.031 C 
ATOM     45  C   UNL A   1      40.781  25.012  27.940  1.00  0.00     0.029 A 
ATOM     46  N   UNL A   1      42.295  26.640  28.176  1.00  0.00    -0.354 N 
ATOM     47  C   UNL A   1      46.489  25.913  27.439  1.00  0.00     0.074 A 
ATOM     48  C   UNL A   1      46.724  24.534  27.074  1.00  0.00     0.031 C 
ATOM     49  C   UNL A   1      40.127  26.114  28.338  1.00  0.00     0.029 A 
ATOM     50  C   UNL A   1      41.087  27.198  28.519  1.00  0.00     0.049 A 
ATOM     51  H   UNL A   1      43.145  27.137  28.204  1.00  0.00     0.167 HD
ATOM     52  C   UNL A   1      47.466  26.845  27.542  1.00  0.00     0.031 A 
ATOM     53  C   UNL A   1      40.787  28.443  28.934  1.00  0.00     0.031 A 
ATOM     54  C   UNL A   1      47.230  28.217  27.895  1.00  0.00     0.049 A 
ATOM     55  C   UNL A   1      41.892  29.457  29.057  1.00  0.00     0.074 A 
ATOM     56  C   UNL A   1      48.142  29.255  27.972  1.00  0.00     0.029 A 
ATOM     57  N   UNL A   1      45.993  28.742  28.234  1.00  0.00    -0.354 N 
ATOM     58  N   UNL A   1      43.172  29.319  28.809  1.00  0.00    -0.248 NA
ATOM     59  C   UNL A   1      41.506  30.802  29.505  1.00  0.00     0.031 C 
ATOM     60  C   UNL A   1      47.465  30.394  28.419  1.00  0.00     0.029 A 
ATOM     61  C   UNL A   1      46.122  30.084  28.550  1.00  0.00     0.049 A 
ATOM     62  H   UNL A   1      45.148  28.236  28.249  1.00  0.00     0.167 HD
ATOM     63  C   UNL A   1      43.739  30.567  29.038  1.00  0.00     0.074 A 
ATOM     64  C   UNL A   1      42.659  31.451  29.428  1.00  0.00     0.031 C 
ATOM     65  C   UNL A   1      45.036  30.948  28.936  1.00  0.00     0.031 A 
BRANCH  52  66
ATOM     66  C   UNL A   1      48.877  26.401  27.270  1.00  0.00    -0.014 A 
ATOM     67  C   UNL A   1      49.410  26.415  25.969  1.00  0.00     0.009 A 
ATOM     68  C   UNL A   1      49.694  25.984  28.331  1.00  0.00     0.009 A 
ATOM     69  C   UNL A   1      50.716  25.983  25.734  1.00  0.00     0.001 A 
ATOM     70  C   UNL A   1      51.011  25.585  28.097  1.00  0.00     0.001 A 
ATOM     71  C   UNL A   1      51.517  25.575  26.798  1.00  0.00     0.000 A 
ENDBRANCH  52  66
BRANCH  53  72
ATOM     72  C   UNL A   1      39.380  28.812  29.243  1.00  0.00    -0.014 A 
ATOM     73  C   UNL A   1      38.868  28.657  30.541  1.00  0.00     0.009 A 
ATOM     74  C   UNL A   1      38.534  29.306  28.238  1.00  0.00     0.009 A 
ATOM     75  C   UNL A   1      37.533  28.958  30.819  1.00  0.00     0.001 A 
ATOM     76  C   UNL A   1      37.208  29.638  28.526  1.00  0.00     0.001 A 
ATOM     77  C   UNL A   1      36.705  29.453  29.812  1.00  0.00     0.000 A 
ENDBRANCH  53  72
BRANCH  65  78
ATOM     78  C   UNL A   1      45.352  32.392  29.205  1.00  0.00    -0.014 A 
ATOM     79  C   UNL A   1      45.312  33.356  28.186  1.00  0.00     0.009 A 
ATOM     80  C   UNL A   1      45.655  32.801  30.515  1.00  0.00     0.009 A 
ATOM     81  C   UNL A   1      45.608  34.692  28.466  1.00  0.00     0.001 A 
ATOM     82  C   UNL A   1      45.915  34.142  30.798  1.00  0.00     0.001 A 
ATOM     83  C   UNL A   1      45.904  35.084  29.771  1.00  0.00     0.000 A 
ENDBRANCH  65  78
ENDBRANCH  39  40
ENDBRANCH  31  34
ENDBRANCH  29  30
ENDBRANCH  28  29
ENDBRANCH   1  28
TORSDOF 16
ENDMDL
MODEL 2
REMARK VINA RESULT:     -10.9      2.429      4.180
REMARK SMILES CC[NH2+][C@@]1(C(=O)NCCCCNC(=O)c2ccc(-c3c4nc(c(-c5ccccc5)c5ccc([nH]5)c(-c5ccccc5)c5nc(c(-c6ccccc6)c6ccc3[nH]6)C=C5)C=C4)cc2)CCC[C@@H]1CC[NH+]1CCS(=O)(=O)CC1
REMARK SMILES IDX 9 1 8 2 7 3 5 4 6 5 4 7 63 8 66 9 64 10 65 11 3 12 2 15 1 16
REMARK SMILES IDX 67 17 68 18 69 19 70 20 76 21 71 23 75 24 72 25 73 26 74 27
REMARK SMILES IDX 10 28 11 29 12 30 13 31 14 33 15 34 16 35 62 36 17 37 61 38
REMARK SMILES IDX 18 39 19 40 20 41 55 42 21 43 60 44 54 45 56 46 22 47 59 48
REMARK SMILES IDX 53 49 52 50 23 52 45 53 30 54 44 55 31 56 34 57 43 58 57 59
REMARK SMILES IDX 32 60 33 61 42 63 58 64 35 65 24 66 25 67 29 68 26 69 28 70
REMARK SMILES IDX 27 71 46 72 47 73 51 74 48 75 50 76 49 77 36 78 37 79 41 80
REMARK SMILES IDX 38 81 40 82 39 83
REMARK H PARENT 7 6 3 13 3 14 69 22 12 32 56 51 34 62
REMARK Flexibility Score: inf
ROOT
ATOM      1  C   UNL A   1      37.258  21.391  24.910  1.00  0.00     0.023 C 
ENDROOT
BRANCH   1   2
ATOM      2  C   UNL A   1      35.852  21.084  25.420  1.00  0.00     0.116 C 
BRANCH   2   3
ATOM      3  N   UNL A   1      35.412  21.875  26.540  1.00  0.00    -0.351 N 
ATOM      4  C   UNL A   1      34.151  22.179  26.958  1.00  0.00     0.281 C 
ATOM      5  O   UNL A   1      34.045  22.446  28.167  1.00  0.00    -0.268 OA
ATOM      6  H   UNL A   1      36.136  22.256  27.090  1.00  0.00     0.163 HD
BRANCH   4   7
ATOM      7  C   UNL A   1      32.857  22.190  26.032  1.00  0.00     0.178 C 
ATOM      8  C   UNL A   1      32.597  20.789  25.426  1.00  0.00     0.079 C 
ATOM      9  C   UNL A   1      32.904  23.174  24.827  1.00  0.00     0.066 C 
ATOM     10  C   UNL A   1      32.826  20.856  23.924  1.00  0.00     0.008 C 
ATOM     11  C   UNL A   1      33.164  22.298  23.578  1.00  0.00     0.011 C 
BRANCH   7  12
ATOM     12  N   UNL A   1      31.693  22.355  26.969  1.00  0.00    -0.334 N 
ATOM     13  H   UNL A   1      31.277  21.430  27.092  1.00  0.00     0.347 HD
ATOM     14  H   UNL A   1      32.108  22.787  27.795  1.00  0.00     0.347 HD
BRANCH  12  15
ATOM     15  C   UNL A   1      30.614  23.259  26.616  1.00  0.00     0.257 C 
ATOM     16  C   UNL A   1      29.314  22.837  27.287  1.00  0.00     0.071 C 
ENDBRANCH  12  15
ENDBRANCH   7  12
BRANCH   9  17
ATOM     17  C   UNL A   1      33.881  24.379  24.851  1.00  0.00     0.072 C 
BRANCH  17  18
ATOM     18  C   UNL A   1      33.613  25.671  24.054  1.00  0.00     0.262 C 
BRANCH  18  19
ATOM     19  N   UNL A   1      33.257  26.854  24.858  1.00  0.00    -0.333 N 
ATOM     20  C   UNL A   1      31.868  26.901  25.343  1.00  0.00     0.278 C 
ATOM     21  C   UNL A   1      33.569  28.142  24.205  1.00  0.00     0.278 C 
ATOM     22  H   UNL A   1      33.863  26.732  25.669  1.00  0.00     0.348 HD
ATOM     23  C   UNL A   1      30.808  26.945  24.260  1.00  0.00     0.198 C 
ATOM     24  C   UNL A   1      32.754  28.452  22.958  1.00  0.00     0.198 C 
ATOM     25  S   UNL A   1      31.009  28.402  23.278  1.00  0.00     0.161 S 
ATOM     26  O   UNL A   1      30.339  28.167  22.009  1.00  0.00    -0.228 OA
ATOM     27  O   UNL A   1      30.659  29.549  24.090  1.00  0.00    -0.228 OA
ENDBRANCH  18  19
ENDBRANCH  17  18
ENDBRANCH   9  17
ENDBRANCH   4   7
ENDBRANCH   2   3
ENDBRANCH   1   2
BRANCH   1  28
ATOM     28  C   UNL A   1      38.214  20.210  24.914  1.00  0.00     0.023 C 
BRANCH  28  29
ATOM     29  C   UNL A   1      39.273  20.269  26.001  1.00  0.00     0.116 C 
BRANCH  29  30
ATOM     30  N   UNL A   1      40.219  19.160  25.950  1.00  0.00    -0.352 N 
ATOM     31  C   UNL A   1      41.584  19.198  26.109  1.00  0.00     0.251 C 
ATOM     32  H   UNL A   1      39.832  18.271  25.781  1.00  0.00     0.163 HD
ATOM     33  O   UNL A   1      42.272  18.202  25.924  1.00  0.00    -0.269 OA
BRANCH  31  34
ATOM     34  C   UNL A   1      42.205  20.488  26.465  1.00  0.00     0.039 A 
ATOM     35  C   UNL A   1      42.559  21.374  25.448  1.00  0.00     0.014 A 
ATOM     36  C   UNL A   1      42.320  20.854  27.808  1.00  0.00     0.014 A 
ATOM     37  C   UNL A   1      42.956  22.667  25.784  1.00  0.00     0.010 A 
ATOM     38  C   UNL A   1      42.604  22.171  28.130  1.00  0.00     0.010 A 
ATOM     39  C   UNL A   1      42.935  23.089  27.123  1.00  0.00    -0.014 A 
BRANCH  39  40
ATOM     40  C   UNL A   1      43.271  24.485  27.497  1.00  0.00     0.031 A 
ATOM     41  C   UNL A   1      44.706  24.936  27.482  1.00  0.00     0.074 A 
ATOM     42  C   UNL A   1      42.299  25.323  27.904  1.00  0.00     0.049 A 
ATOM     43  N   UNL A   1      45.207  26.101  27.806  1.00  0.00    -0.248 NA
ATOM     44  C   UNL A   1      45.715  23.941  27.081  1.00  0.00     0.031 C 
ATOM     45  C   UNL A   1      40.876  24.990  28.013  1.00  0.00     0.029 A 
ATOM     46  N   UNL A   1      42.362  26.636  28.300  1.00  0.00    -0.354 N 
ATOM     47  C   UNL A   1      46.582  25.970  27.662  1.00  0.00     0.074 A 
ATOM     48  C   UNL A   1      46.844  24.598  27.292  1.00  0.00     0.031 C 
ATOM     49  C   UNL A   1      40.198  26.080  28.404  1.00  0.00     0.029 A 
ATOM     50  C   UNL A   1      41.138  27.175  28.617  1.00  0.00     0.049 A 
ATOM     51  H   UNL A   1      43.204  27.144  28.353  1.00  0.00     0.167 HD
ATOM     52  C   UNL A   1      47.543  26.914  27.797  1.00  0.00     0.031 A 
ATOM     53  C   UNL A   1      40.812  28.412  29.035  1.00  0.00     0.031 A 
ATOM     54  C   UNL A   1      47.281  28.280  28.156  1.00  0.00     0.049 A 
ATOM     55  C   UNL A   1      41.899  29.440  29.193  1.00  0.00     0.074 A 
ATOM     56  C   UNL A   1      48.176  29.330  28.265  1.00  0.00     0.029 A 
ATOM     57  N   UNL A   1      46.028  28.786  28.468  1.00  0.00    -0.354 N 
ATOM     58  N   UNL A   1      43.187  29.321  28.976  1.00  0.00    -0.248 NA
ATOM     59  C   UNL A   1      41.484  30.776  29.643  1.00  0.00     0.031 C 
ATOM     60  C   UNL A   1      47.473  30.456  28.704  1.00  0.00     0.029 A 
ATOM     61  C   UNL A   1      46.131  30.127  28.798  1.00  0.00     0.049 A 
ATOM     62  H   UNL A   1      45.190  28.269  28.457  1.00  0.00     0.167 HD
ATOM     63  C   UNL A   1      43.731  30.575  29.230  1.00  0.00     0.074 A 
ATOM     64  C   UNL A   1      42.630  31.440  29.600  1.00  0.00     0.031 C 
ATOM     65  C   UNL A   1      45.025  30.974  29.164  1.00  0.00     0.031 A 
BRANCH  52  66
ATOM     66  C   UNL A   1      48.966  26.491  27.557  1.00  0.00    -0.014 A 
ATOM     67  C   UNL A   1      49.528  26.513  26.269  1.00  0.00     0.009 A 
ATOM     68  C   UNL A   1      49.766  26.087  28.637  1.00  0.00     0.009 A 
ATOM     69  C   UNL A   1      50.845  26.100  26.063  1.00  0.00     0.001 A 
ATOM     70  C   UNL A   1      51.094  25.708  28.433  1.00  0.00     0.001 A 
ATOM     71  C   UNL A   1      51.629  25.704  27.146  1.00  0.00     0.000 A 
ENDBRANCH  52  66
BRANCH  53  72
ATOM     72  C   UNL A   1      39.392  28.761  29.311  1.00  0.00    -0.014 A 
ATOM     73  C   UNL A   1      38.846  28.574  30.591  1.00  0.00     0.009 A 
ATOM     74  C   UNL A   1      38.569  29.266  28.293  1.00  0.00     0.009 A 
ATOM     75  C   UNL A   1      37.500  28.855  30.837  1.00  0.00     0.001 A 
ATOM     76  C   UNL A   1      37.232  29.577  28.550  1.00  0.00     0.001 A 
ATOM     77  C   UNL A   1      36.695  29.361  29.818  1.00  0.00     0.000 A 
ENDBRANCH  53  72
BRANCH  65  78
ATOM     78  C   UNL A   1      45.315  32.419  29.453  1.00  0.00    -0.014 A 
ATOM     79  C   UNL A   1      45.729  32.845  30.724  1.00  0.00     0.009 A 
ATOM     80  C   UNL A   1      45.210  33.365  28.419  1.00  0.00     0.009 A 
ATOM     81  C   UNL A   1      45.994  34.195  30.964  1.00  0.00     0.001 A 
ATOM     82  C   UNL A   1      45.510  34.707  28.654  1.00  0.00     0.001 A 
ATOM     83  C   UNL A   1      45.890  35.124  29.929  1.00  0.00     0.000 A 
ENDBRANCH  65  78
ENDBRANCH  39  40
ENDBRANCH  31  34
ENDBRANCH  29  30
ENDBRANCH  28  29
ENDBRANCH   1  28
TORSDOF 16
ENDMDL
MODEL 3
REMARK VINA RESULT:     -10.8      5.183     10.009
REMARK SMILES CC[NH2+][C@@]1(C(=O)NCCCCNC(=O)c2ccc(-c3c4nc(c(-c5ccccc5)c5ccc([nH]5)c(-c5ccccc5)c5nc(c(-c6ccccc6)c6ccc3[nH]6)C=C5)C=C4)cc2)CCC[C@@H]1CC[NH+]1CCS(=O)(=O)CC1
REMARK SMILES IDX 9 1 8 2 7 3 5 4 6 5 4 7 63 8 66 9 64 10 65 11 3 12 2 15 1 16
REMARK SMILES IDX 67 17 68 18 69 19 70 20 76 21 71 23 75 24 72 25 73 26 74 27
REMARK SMILES IDX 10 28 11 29 12 30 13 31 14 33 15 34 16 35 62 36 17 37 61 38
REMARK SMILES IDX 18 39 19 40 20 41 55 42 21 43 60 44 54 45 56 46 22 47 59 48
REMARK SMILES IDX 53 49 52 50 23 52 45 53 30 54 44 55 31 56 34 57 43 58 57 59
REMARK SMILES IDX 32 60 33 61 42 63 58 64 35 65 24 66 25 67 29 68 26 69 28 70
REMARK SMILES IDX 27 71 46 72 47 73 51 74 48 75 50 76 49 77 36 78 37 79 41 80
REMARK SMILES IDX 38 81 40 82 39 83
REMARK H PARENT 7 6 3 13 3 14 69 22 12 32 56 51 34 62
REMARK Flexibility Score: inf
ROOT
ATOM      1  C   UNL A   1      32.014  30.445  26.663  1.00  0.00     0.023 C 
ENDROOT
BRANCH   1   2
ATOM      2  C   UNL A   1      31.792  29.876  25.264  1.00  0.00     0.116 C 
BRANCH   2   3
ATOM      3  N   UNL A   1      32.986  29.510  24.547  1.00  0.00    -0.351 N 
ATOM      4  C   UNL A   1      33.141  28.729  23.440  1.00  0.00     0.281 C 
ATOM      5  O   UNL A   1      34.157  28.965  22.766  1.00  0.00    -0.268 OA
ATOM      6  H   UNL A   1      33.822  29.883  24.913  1.00  0.00     0.163 HD
BRANCH   4   7
ATOM      7  C   UNL A   1      32.127  27.596  22.970  1.00  0.00     0.178 C 
ATOM      8  C   UNL A   1      30.739  28.197  22.638  1.00  0.00     0.079 C 
ATOM      9  C   UNL A   1      31.864  26.462  24.003  1.00  0.00     0.066 C 
ATOM     10  C   UNL A   1      29.733  27.704  23.667  1.00  0.00     0.008 C 
ATOM     11  C   UNL A   1      30.466  26.750  24.599  1.00  0.00     0.011 C 
BRANCH   7  12
ATOM     12  N   UNL A   1      32.617  27.153  21.620  1.00  0.00    -0.334 N 
ATOM     13  H   UNL A   1      31.968  27.534  20.929  1.00  0.00     0.347 HD
ATOM     14  H   UNL A   1      33.577  27.496  21.588  1.00  0.00     0.347 HD
BRANCH  12  15
ATOM     15  C   UNL A   1      32.750  25.735  21.338  1.00  0.00     0.257 C 
ATOM     16  C   UNL A   1      32.540  25.458  19.856  1.00  0.00     0.071 C 
ENDBRANCH  12  15
ENDBRANCH   7  12
BRANCH   9  17
ATOM     17  C   UNL A   1      32.888  26.199  25.139  1.00  0.00     0.072 C 
BRANCH  17  18
ATOM     18  C   UNL A   1      32.963  24.850  25.882  1.00  0.00     0.262 C 
BRANCH  18  19
ATOM     19  N   UNL A   1      34.308  24.253  25.986  1.00  0.00    -0.333 N 
ATOM     20  C   UNL A   1      34.957  23.920  24.709  1.00  0.00     0.278 C 
ATOM     21  C   UNL A   1      34.375  23.072  26.870  1.00  0.00     0.278 C 
ATOM     22  H   UNL A   1      34.832  25.020  26.408  1.00  0.00     0.348 HD
ATOM     23  C   UNL A   1      34.235  22.885  23.869  1.00  0.00     0.198 C 
ATOM     24  C   UNL A   1      33.613  21.849  26.379  1.00  0.00     0.198 C 
ATOM     25  S   UNL A   1      34.131  21.356  24.754  1.00  0.00     0.161 S 
ATOM     26  O   UNL A   1      33.046  20.587  24.165  1.00  0.00    -0.228 OA
ATOM     27  O   UNL A   1      35.461  20.794  24.847  1.00  0.00    -0.228 OA
ENDBRANCH  18  19
ENDBRANCH  17  18
ENDBRANCH   9  17
ENDBRANCH   4   7
ENDBRANCH   2   3
ENDBRANCH   1   2
BRANCH   1  28
ATOM     28  C   UNL A   1      31.682  31.920  26.816  1.00  0.00     0.023 C 
BRANCH  28  29
ATOM     29  C   UNL A   1      32.818  32.761  27.371  1.00  0.00     0.116 C 
BRANCH  29  30
ATOM     30  N   UNL A   1      32.425  34.129  27.691  1.00  0.00    -0.352 N 
ATOM     31  C   UNL A   1      32.992  34.984  28.606  1.00  0.00     0.251 C 
ATOM     32  H   UNL A   1      31.657  34.485  27.189  1.00  0.00     0.163 HD
ATOM     33  O   UNL A   1      32.484  36.070  28.857  1.00  0.00    -0.269 OA
BRANCH  31  34
ATOM     34  C   UNL A   1      34.207  34.537  29.313  1.00  0.00     0.039 A 
ATOM     35  C   UNL A   1      34.079  33.902  30.547  1.00  0.00     0.014 A 
ATOM     36  C   UNL A   1      35.451  34.647  28.688  1.00  0.00     0.014 A 
ATOM     37  C   UNL A   1      35.198  33.303  31.121  1.00  0.00     0.010 A 
ATOM     38  C   UNL A   1      36.534  33.952  29.205  1.00  0.00     0.010 A 
ATOM     39  C   UNL A   1      36.422  33.282  30.431  1.00  0.00    -0.014 A 
BRANCH  39  40
ATOM     40  C   UNL A   1      37.605  32.577  30.981  1.00  0.00     0.031 A 
ATOM     41  C   UNL A   1      38.248  33.074  32.247  1.00  0.00     0.074 A 
ATOM     42  C   UNL A   1      38.133  31.532  30.316  1.00  0.00     0.049 A 
ATOM     43  N   UNL A   1      39.306  32.618  32.869  1.00  0.00    -0.248 NA
ATOM     44  C   UNL A   1      37.645  34.258  32.882  1.00  0.00     0.031 C 
ATOM     45  C   UNL A   1      37.634  30.986  29.051  1.00  0.00     0.029 A 
ATOM     46  N   UNL A   1      39.211  30.736  30.615  1.00  0.00    -0.354 N 
ATOM     47  C   UNL A   1      39.499  33.466  33.951  1.00  0.00     0.074 A 
ATOM     48  C   UNL A   1      38.497  34.503  33.865  1.00  0.00     0.031 C 
ATOM     49  C   UNL A   1      38.375  29.922  28.707  1.00  0.00     0.029 A 
ATOM     50  C   UNL A   1      39.428  29.735  29.700  1.00  0.00     0.049 A 
ATOM     51  H   UNL A   1      39.776  30.870  31.411  1.00  0.00     0.167 HD
ATOM     52  C   UNL A   1      40.411  33.376  34.948  1.00  0.00     0.031 A 
ATOM     53  C   UNL A   1      40.372  28.775  29.663  1.00  0.00     0.031 A 
ATOM     54  C   UNL A   1      41.401  32.339  35.038  1.00  0.00     0.049 A 
ATOM     55  C   UNL A   1      41.384  28.706  30.774  1.00  0.00     0.074 A 
ATOM     56  C   UNL A   1      42.334  32.124  36.036  1.00  0.00     0.029 A 
ATOM     57  N   UNL A   1      41.587  31.343  34.091  1.00  0.00    -0.354 N 
ATOM     58  N   UNL A   1      41.504  29.468  31.834  1.00  0.00    -0.248 NA
ATOM     59  C   UNL A   1      42.385  27.633  30.688  1.00  0.00     0.031 C 
ATOM     60  C   UNL A   1      43.127  31.034  35.661  1.00  0.00     0.029 A 
ATOM     61  C   UNL A   1      42.640  30.528  34.467  1.00  0.00     0.049 A 
ATOM     62  H   UNL A   1      41.050  31.233  33.273  1.00  0.00     0.167 HD
ATOM     63  C   UNL A   1      42.570  28.948  32.557  1.00  0.00     0.074 A 
ATOM     64  C   UNL A   1      43.050  27.795  31.823  1.00  0.00     0.031 C 
ATOM     65  C   UNL A   1      43.105  29.385  33.724  1.00  0.00     0.031 A 
BRANCH  52  66
ATOM     66  C   UNL A   1      40.374  34.434  36.016  1.00  0.00    -0.014 A 
ATOM     67  C   UNL A   1      39.584  34.283  37.168  1.00  0.00     0.009 A 
ATOM     68  C   UNL A   1      41.159  35.589  35.881  1.00  0.00     0.009 A 
ATOM     69  C   UNL A   1      39.549  35.284  38.140  1.00  0.00     0.001 A 
ATOM     70  C   UNL A   1      41.150  36.573  36.872  1.00  0.00     0.001 A 
ATOM     71  C   UNL A   1      40.337  36.424  37.995  1.00  0.00     0.000 A 
ENDBRANCH  52  66
BRANCH  53  72
ATOM     72  C   UNL A   1      40.394  27.787  28.552  1.00  0.00    -0.014 A 
ATOM     73  C   UNL A   1      41.087  28.064  27.363  1.00  0.00     0.009 A 
ATOM     74  C   UNL A   1      39.709  26.567  28.667  1.00  0.00     0.009 A 
ATOM     75  C   UNL A   1      41.066  27.156  26.301  1.00  0.00     0.001 A 
ATOM     76  C   UNL A   1      39.718  25.647  27.616  1.00  0.00     0.001 A 
ATOM     77  C   UNL A   1      40.386  25.946  26.431  1.00  0.00     0.000 A 
ENDBRANCH  53  72
BRANCH  65  78
ATOM     78  C   UNL A   1      44.239  28.586  34.302  1.00  0.00    -0.014 A 
ATOM     79  C   UNL A   1      45.575  28.872  33.982  1.00  0.00     0.009 A 
ATOM     80  C   UNL A   1      43.964  27.556  35.217  1.00  0.00     0.009 A 
ATOM     81  C   UNL A   1      46.610  28.115  34.537  1.00  0.00     0.001 A 
ATOM     82  C   UNL A   1      45.001  26.825  35.796  1.00  0.00     0.001 A 
ATOM     83  C   UNL A   1      46.323  27.097  35.446  1.00  0.00     0.000 A 
ENDBRANCH  65  78
ENDBRANCH  39  40
ENDBRANCH  31  34
ENDBRANCH  29  30
ENDBRANCH  28  29
ENDBRANCH   1  28
TORSDOF 16
ENDMDL
