MODEL 1
REMARK VINA RESULT:     -10.6      0.000      0.000
REMARK SMILES C#CC[C@@H](C(=O)NCCCCNC(=O)c1ccc(-c2c3nc(c(-c4ccccc4)c4ccc([nH]4)c(-c4ccccc4)c4nc(c(-c5ccccc5)c5ccc2[nH]5)C=C4)C=C3)cc1)c1cccc(Br)c1
REMARK SMILES IDX 9 1 8 2 7 3 5 4 6 5 4 7 3 8 2 9 1 10 63 11 64 12 69 13 65 14
REMARK SMILES IDX 67 15 66 16 68 17 10 18 11 19 12 20 13 21 14 23 15 24 16 25
REMARK SMILES IDX 62 26 17 27 61 28 18 29 19 30 20 31 55 32 21 33 60 34 54 35
REMARK SMILES IDX 56 36 22 37 59 38 53 39 52 40 23 42 45 43 30 44 44 45 31 46
REMARK SMILES IDX 34 47 43 48 57 49 32 50 33 51 42 53 58 54 35 55 24 56 25 57
REMARK SMILES IDX 29 58 26 59 28 60 27 61 46 62 47 63 51 64 48 65 50 66 49 67
REMARK SMILES IDX 36 68 37 69 41 70 38 71 40 72 39 73
REMARK H PARENT 7 6 12 22 56 41 34 52
REMARK Flexibility Score: inf
ROOT
ATOM      1  C   UNL A   1      32.135  27.938  27.512  1.00  0.00     0.023 C 
ENDROOT
BRANCH   1   2
ATOM      2  C   UNL A   1      31.912  26.961  26.346  1.00  0.00     0.116 C 
BRANCH   2   3
ATOM      3  N   UNL A   1      31.388  25.717  26.860  1.00  0.00    -0.356 N 
ATOM      4  C   UNL A   1      31.710  24.407  26.746  1.00  0.00     0.228 C 
ATOM      5  O   UNL A   1      30.831  23.694  27.252  1.00  0.00    -0.274 OA
ATOM      6  H   UNL A   1      30.604  25.856  27.438  1.00  0.00     0.163 HD
BRANCH   4   7
ATOM      7  C   UNL A   1      33.064  23.809  26.195  1.00  0.00     0.120 C 
BRANCH   7   8
ATOM      8  C   UNL A   1      34.122  24.732  25.527  1.00  0.00     0.107 C 
BRANCH   8   9
ATOM      9  C   UNL A   1      35.506  24.105  25.519  1.00  0.00    -0.106 C 
ATOM     10  C   UNL A   1      36.694  23.567  25.513  1.00  0.00     0.004 C 
ENDBRANCH   8   9
ENDBRANCH   7   8
BRANCH   7  11
ATOM     11  C   UNL A   1      32.776  22.698  25.154  1.00  0.00    -0.034 A 
ATOM     12  C   UNL A   1      32.390  23.027  23.846  1.00  0.00     0.004 A 
ATOM     13  C   UNL A   1      32.845  21.331  25.496  1.00  0.00     0.020 A 
ATOM     14  C   UNL A   1      32.144  22.023  22.902  1.00  0.00     0.001 A 
ATOM     15  C   UNL A   1      32.651  20.336  24.539  1.00  0.00     0.018 A 
ATOM     16  C   UNL A   1      32.297  20.678  23.240  1.00  0.00     0.016 A 
ATOM     17  Br  UNL A   1      32.902  18.522  25.008  1.00  0.00    -0.051 Br
ENDBRANCH   7  11
ENDBRANCH   4   7
ENDBRANCH   2   3
ENDBRANCH   1   2
BRANCH   1  18
ATOM     18  C   UNL A   1      32.091  29.413  27.161  1.00  0.00     0.023 C 
BRANCH  18  19
ATOM     19  C   UNL A   1      33.456  30.080  27.033  1.00  0.00     0.116 C 
BRANCH  19  20
ATOM     20  N   UNL A   1      33.750  31.128  28.013  1.00  0.00    -0.352 N 
ATOM     21  C   UNL A   1      34.885  31.311  28.778  1.00  0.00     0.251 C 
ATOM     22  H   UNL A   1      33.039  31.797  28.143  1.00  0.00     0.163 HD
ATOM     23  O   UNL A   1      34.971  32.246  29.567  1.00  0.00    -0.269 OA
BRANCH  21  24
ATOM     24  C   UNL A   1      35.966  30.311  28.678  1.00  0.00     0.039 A 
ATOM     25  C   UNL A   1      36.803  30.329  27.562  1.00  0.00     0.014 A 
ATOM     26  C   UNL A   1      36.261  29.508  29.779  1.00  0.00     0.014 A 
ATOM     27  C   UNL A   1      38.032  29.670  27.624  1.00  0.00     0.010 A 
ATOM     28  C   UNL A   1      37.530  28.961  29.885  1.00  0.00     0.010 A 
ATOM     29  C   UNL A   1      38.444  29.067  28.823  1.00  0.00    -0.014 A 
BRANCH  29  30
ATOM     30  C   UNL A   1      39.842  28.605  29.033  1.00  0.00     0.031 A 
ATOM     31  C   UNL A   1      40.884  29.568  29.533  1.00  0.00     0.074 A 
ATOM     32  C   UNL A   1      40.204  27.364  28.643  1.00  0.00     0.049 A 
ATOM     33  N   UNL A   1      42.180  29.411  29.617  1.00  0.00    -0.248 NA
ATOM     34  C   UNL A   1      40.413  30.903  29.939  1.00  0.00     0.031 C 
ATOM     35  C   UNL A   1      39.315  26.354  28.061  1.00  0.00     0.029 A 
ATOM     36  N   UNL A   1      41.430  26.745  28.665  1.00  0.00    -0.354 N 
ATOM     37  C   UNL A   1      42.679  30.637  30.033  1.00  0.00     0.074 A 
ATOM     38  C   UNL A   1      41.555  31.541  30.143  1.00  0.00     0.031 C 
ATOM     39  C   UNL A   1      40.015  25.233  27.820  1.00  0.00     0.029 A 
ATOM     40  C   UNL A   1      41.409  25.457  28.184  1.00  0.00     0.049 A 
ATOM     41  H   UNL A   1      42.249  27.183  28.994  1.00  0.00     0.167 HD
ATOM     42  C   UNL A   1      43.957  30.979  30.321  1.00  0.00     0.031 A 
ATOM     43  C   UNL A   1      42.400  24.558  28.045  1.00  0.00     0.031 A 
ATOM     44  C   UNL A   1      45.065  30.067  30.279  1.00  0.00     0.049 A 
ATOM     45  C   UNL A   1      43.797  24.939  28.442  1.00  0.00     0.074 A 
ATOM     46  C   UNL A   1      46.379  30.290  30.654  1.00  0.00     0.029 A 
ATOM     47  N   UNL A   1      44.985  28.752  29.852  1.00  0.00    -0.354 N 
ATOM     48  N   UNL A   1      44.239  26.084  28.906  1.00  0.00    -0.248 NA
ATOM     49  C   UNL A   1      44.832  23.904  28.302  1.00  0.00     0.031 C 
ATOM     50  C   UNL A   1      47.101  29.114  30.429  1.00  0.00     0.029 A 
ATOM     51  C   UNL A   1      46.229  28.152  29.945  1.00  0.00     0.049 A 
ATOM     52  H   UNL A   1      44.167  28.310  29.530  1.00  0.00     0.167 HD
ATOM     53  C   UNL A   1      45.596  25.900  29.130  1.00  0.00     0.074 A 
ATOM     54  C   UNL A   1      45.903  24.531  28.770  1.00  0.00     0.031 C 
ATOM     55  C   UNL A   1      46.510  26.788  29.588  1.00  0.00     0.031 A 
BRANCH  42  56
ATOM     56  C   UNL A   1      44.215  32.401  30.725  1.00  0.00    -0.014 A 
ATOM     57  C   UNL A   1      44.517  33.383  29.769  1.00  0.00     0.009 A 
ATOM     58  C   UNL A   1      44.129  32.768  32.076  1.00  0.00     0.009 A 
ATOM     59  C   UNL A   1      44.766  34.699  30.162  1.00  0.00     0.001 A 
ATOM     60  C   UNL A   1      44.352  34.092  32.464  1.00  0.00     0.001 A 
ATOM     61  C   UNL A   1      44.679  35.053  31.509  1.00  0.00     0.000 A 
ENDBRANCH  42  56
BRANCH  43  62
ATOM     62  C   UNL A   1      42.114  23.195  27.527  1.00  0.00    -0.014 A 
ATOM     63  C   UNL A   1      41.585  22.214  28.380  1.00  0.00     0.009 A 
ATOM     64  C   UNL A   1      42.387  22.860  26.192  1.00  0.00     0.009 A 
ATOM     65  C   UNL A   1      41.362  20.915  27.913  1.00  0.00     0.001 A 
ATOM     66  C   UNL A   1      42.141  21.567  25.723  1.00  0.00     0.001 A 
ATOM     67  C   UNL A   1      41.639  20.594  26.586  1.00  0.00     0.000 A 
ENDBRANCH  43  62
BRANCH  55  68
ATOM     68  C   UNL A   1      47.917  26.297  29.751  1.00  0.00    -0.014 A 
ATOM     69  C   UNL A   1      48.822  26.329  28.679  1.00  0.00     0.009 A 
ATOM     70  C   UNL A   1      48.354  25.839  31.004  1.00  0.00     0.009 A 
ATOM     71  C   UNL A   1      50.134  25.886  28.853  1.00  0.00     0.001 A 
ATOM     72  C   UNL A   1      49.673  25.418  31.180  1.00  0.00     0.001 A 
ATOM     73  C   UNL A   1      50.559  25.435  30.104  1.00  0.00     0.000 A 
ENDBRANCH  55  68
ENDBRANCH  29  30
ENDBRANCH  21  24
ENDBRANCH  19  20
ENDBRANCH  18  19
ENDBRANCH   1  18
TORSDOF 14
ENDMDL
MODEL 2
REMARK VINA RESULT:     -10.4      1.395      1.928
REMARK SMILES C#CC[C@@H](C(=O)NCCCCNC(=O)c1ccc(-c2c3nc(c(-c4ccccc4)c4ccc([nH]4)c(-c4ccccc4)c4nc(c(-c5ccccc5)c5ccc2[nH]5)C=C4)C=C3)cc1)c1cccc(Br)c1
REMARK SMILES IDX 9 1 8 2 7 3 5 4 6 5 4 7 3 8 2 9 1 10 63 11 64 12 69 13 65 14
REMARK SMILES IDX 67 15 66 16 68 17 10 18 11 19 12 20 13 21 14 23 15 24 16 25
REMARK SMILES IDX 62 26 17 27 61 28 18 29 19 30 20 31 55 32 21 33 60 34 54 35
REMARK SMILES IDX 56 36 22 37 59 38 53 39 52 40 23 42 45 43 30 44 44 45 31 46
REMARK SMILES IDX 34 47 43 48 57 49 32 50 33 51 42 53 58 54 35 55 24 56 25 57
REMARK SMILES IDX 29 58 26 59 28 60 27 61 46 62 47 63 51 64 48 65 50 66 49 67
REMARK SMILES IDX 36 68 37 69 41 70 38 71 40 72 39 73
REMARK H PARENT 7 6 12 22 56 41 34 52
REMARK Flexibility Score: inf
ROOT
ATOM      1  C   UNL A   1      32.442  28.204  27.411  1.00  0.00     0.023 C 
ENDROOT
BRANCH   1   2
ATOM      2  C   UNL A   1      31.348  27.299  26.819  1.00  0.00     0.116 C 
BRANCH   2   3
ATOM      3  N   UNL A   1      31.817  25.932  26.805  1.00  0.00    -0.356 N 
ATOM      4  C   UNL A   1      32.706  25.219  26.075  1.00  0.00     0.228 C 
ATOM      5  O   UNL A   1      32.623  24.011  26.342  1.00  0.00    -0.274 OA
ATOM      6  H   UNL A   1      31.382  25.385  27.497  1.00  0.00     0.163 HD
BRANCH   4   7
ATOM      7  C   UNL A   1      33.822  25.794  25.117  1.00  0.00     0.120 C 
BRANCH   7   8
ATOM      8  C   UNL A   1      33.434  26.559  23.821  1.00  0.00     0.107 C 
BRANCH   8   9
ATOM      9  C   UNL A   1      31.956  26.421  23.495  1.00  0.00    -0.106 C 
ATOM     10  C   UNL A   1      30.688  26.303  23.215  1.00  0.00     0.004 C 
ENDBRANCH   8   9
ENDBRANCH   7   8
BRANCH   7  11
ATOM     11  C   UNL A   1      34.768  24.657  24.653  1.00  0.00    -0.034 A 
ATOM     12  C   UNL A   1      34.568  24.022  23.418  1.00  0.00     0.004 A 
ATOM     13  C   UNL A   1      35.823  24.196  25.468  1.00  0.00     0.020 A 
ATOM     14  C   UNL A   1      35.432  23.006  22.993  1.00  0.00     0.001 A 
ATOM     15  C   UNL A   1      36.711  23.222  25.017  1.00  0.00     0.018 A 
ATOM     16  C   UNL A   1      36.518  22.620  23.780  1.00  0.00     0.016 A 
ATOM     17  Br  UNL A   1      38.197  22.742  26.083  1.00  0.00    -0.051 Br
ENDBRANCH   7  11
ENDBRANCH   4   7
ENDBRANCH   2   3
ENDBRANCH   1   2
BRANCH   1  18
ATOM     18  C   UNL A   1      32.320  29.683  27.101  1.00  0.00     0.023 C 
BRANCH  18  19
ATOM     19  C   UNL A   1      33.646  30.434  27.045  1.00  0.00     0.116 C 
BRANCH  19  20
ATOM     20  N   UNL A   1      33.886  31.389  28.131  1.00  0.00    -0.352 N 
ATOM     21  C   UNL A   1      34.957  31.469  28.997  1.00  0.00     0.251 C 
ATOM     22  H   UNL A   1      33.185  32.069  28.258  1.00  0.00     0.163 HD
ATOM     23  O   UNL A   1      35.004  32.332  29.867  1.00  0.00    -0.269 OA
BRANCH  21  24
ATOM     24  C   UNL A   1      36.015  30.444  28.901  1.00  0.00     0.039 A 
ATOM     25  C   UNL A   1      36.854  30.439  27.786  1.00  0.00     0.014 A 
ATOM     26  C   UNL A   1      36.289  29.637  30.005  1.00  0.00     0.014 A 
ATOM     27  C   UNL A   1      38.066  29.751  27.851  1.00  0.00     0.010 A 
ATOM     28  C   UNL A   1      37.546  29.060  30.113  1.00  0.00     0.010 A 
ATOM     29  C   UNL A   1      38.463  29.141  29.052  1.00  0.00    -0.014 A 
BRANCH  29  30
ATOM     30  C   UNL A   1      39.849  28.648  29.265  1.00  0.00     0.031 A 
ATOM     31  C   UNL A   1      40.895  29.567  29.833  1.00  0.00     0.074 A 
ATOM     32  C   UNL A   1      40.201  27.422  28.819  1.00  0.00     0.049 A 
ATOM     33  N   UNL A   1      42.187  29.385  29.934  1.00  0.00    -0.248 NA
ATOM     34  C   UNL A   1      40.436  30.887  30.297  1.00  0.00     0.031 C 
ATOM     35  C   UNL A   1      39.308  26.457  28.169  1.00  0.00     0.029 A 
ATOM     36  N   UNL A   1      41.417  26.783  28.833  1.00  0.00    -0.354 N 
ATOM     37  C   UNL A   1      42.696  30.581  30.421  1.00  0.00     0.074 A 
ATOM     38  C   UNL A   1      41.584  31.495  30.555  1.00  0.00     0.031 C 
ATOM     39  C   UNL A   1      39.996  25.339  27.885  1.00  0.00     0.029 A 
ATOM     40  C   UNL A   1      41.385  25.521  28.287  1.00  0.00     0.049 A 
ATOM     41  H   UNL A   1      42.235  27.191  29.199  1.00  0.00     0.167 HD
ATOM     42  C   UNL A   1      43.973  30.887  30.750  1.00  0.00     0.031 A 
ATOM     43  C   UNL A   1      42.366  24.615  28.121  1.00  0.00     0.031 A 
ATOM     44  C   UNL A   1      45.068  29.961  30.683  1.00  0.00     0.049 A 
ATOM     45  C   UNL A   1      43.760  24.954  28.563  1.00  0.00     0.074 A 
ATOM     46  C   UNL A   1      46.377  30.144  31.094  1.00  0.00     0.029 A 
ATOM     47  N   UNL A   1      44.977  28.670  30.188  1.00  0.00    -0.354 N 
ATOM     48  N   UNL A   1      44.210  26.066  29.093  1.00  0.00    -0.248 NA
ATOM     49  C   UNL A   1      44.782  23.910  28.391  1.00  0.00     0.031 C 
ATOM     50  C   UNL A   1      47.086  28.969  30.823  1.00  0.00     0.029 A 
ATOM     51  C   UNL A   1      46.210  28.047  30.274  1.00  0.00     0.049 A 
ATOM     52  H   UNL A   1      44.159  28.259  29.828  1.00  0.00     0.167 HD
ATOM     53  C   UNL A   1      45.559  25.849  29.333  1.00  0.00     0.074 A 
ATOM     54  C   UNL A   1      45.853  24.495  28.910  1.00  0.00     0.031 C 
ATOM     55  C   UNL A   1      46.477  26.698  29.853  1.00  0.00     0.031 A 
BRANCH  42  56
ATOM     56  C   UNL A   1      44.244  32.282  31.231  1.00  0.00    -0.014 A 
ATOM     57  C   UNL A   1      44.252  32.589  32.600  1.00  0.00     0.009 A 
ATOM     58  C   UNL A   1      44.521  33.298  30.302  1.00  0.00     0.009 A 
ATOM     59  C   UNL A   1      44.494  33.895  33.030  1.00  0.00     0.001 A 
ATOM     60  C   UNL A   1      44.790  34.598  30.737  1.00  0.00     0.001 A 
ATOM     61  C   UNL A   1      44.767  34.897  32.098  1.00  0.00     0.000 A 
ENDBRANCH  42  56
BRANCH  43  62
ATOM     62  C   UNL A   1      42.069  23.284  27.529  1.00  0.00    -0.014 A 
ATOM     63  C   UNL A   1      41.521  22.266  28.323  1.00  0.00     0.009 A 
ATOM     64  C   UNL A   1      42.351  23.018  26.181  1.00  0.00     0.009 A 
ATOM     65  C   UNL A   1      41.289  20.997  27.787  1.00  0.00     0.001 A 
ATOM     66  C   UNL A   1      42.096  21.755  25.642  1.00  0.00     0.001 A 
ATOM     67  C   UNL A   1      41.575  20.743  26.447  1.00  0.00     0.000 A 
ENDBRANCH  43  62
BRANCH  55  68
ATOM     68  C   UNL A   1      47.873  26.177  30.018  1.00  0.00    -0.014 A 
ATOM     69  C   UNL A   1      48.737  26.067  28.918  1.00  0.00     0.009 A 
ATOM     70  C   UNL A   1      48.342  25.836  31.296  1.00  0.00     0.009 A 
ATOM     71  C   UNL A   1      50.040  25.598  29.092  1.00  0.00     0.001 A 
ATOM     72  C   UNL A   1      49.653  25.389  31.469  1.00  0.00     0.001 A 
ATOM     73  C   UNL A   1      50.498  25.264  30.367  1.00  0.00     0.000 A 
ENDBRANCH  55  68
ENDBRANCH  29  30
ENDBRANCH  21  24
ENDBRANCH  19  20
ENDBRANCH  18  19
ENDBRANCH   1  18
TORSDOF 14
ENDMDL
MODEL 3
REMARK VINA RESULT:     -10.4      1.992      7.289
REMARK SMILES C#CC[C@@H](C(=O)NCCCCNC(=O)c1ccc(-c2c3nc(c(-c4ccccc4)c4ccc([nH]4)c(-c4ccccc4)c4nc(c(-c5ccccc5)c5ccc2[nH]5)C=C4)C=C3)cc1)c1cccc(Br)c1
REMARK SMILES IDX 9 1 8 2 7 3 5 4 6 5 4 7 3 8 2 9 1 10 63 11 64 12 69 13 65 14
REMARK SMILES IDX 67 15 66 16 68 17 10 18 11 19 12 20 13 21 14 23 15 24 16 25
REMARK SMILES IDX 62 26 17 27 61 28 18 29 19 30 20 31 55 32 21 33 60 34 54 35
REMARK SMILES IDX 56 36 22 37 59 38 53 39 52 40 23 42 45 43 30 44 44 45 31 46
REMARK SMILES IDX 34 47 43 48 57 49 32 50 33 51 42 53 58 54 35 55 24 56 25 57
REMARK SMILES IDX 29 58 26 59 28 60 27 61 46 62 47 63 51 64 48 65 50 66 49 67
REMARK SMILES IDX 36 68 37 69 41 70 38 71 40 72 39 73
REMARK H PARENT 7 6 12 22 56 41 34 52
REMARK Flexibility Score: inf
ROOT
ATOM      1  C   UNL A   1      36.223  21.620  25.660  1.00  0.00     0.023 C 
ENDROOT
BRANCH   1   2
ATOM      2  C   UNL A   1      35.740  22.867  26.418  1.00  0.00     0.116 C 
BRANCH   2   3
ATOM      3  N   UNL A   1      34.647  22.501  27.289  1.00  0.00    -0.356 N 
ATOM      4  C   UNL A   1      33.307  22.701  27.303  1.00  0.00     0.228 C 
ATOM      5  O   UNL A   1      32.820  22.326  28.379  1.00  0.00    -0.274 OA
ATOM      6  H   UNL A   1      34.950  21.976  28.064  1.00  0.00     0.163 HD
BRANCH   4   7
ATOM      7  C   UNL A   1      32.411  23.195  26.100  1.00  0.00     0.120 C 
BRANCH   7   8
ATOM      8  C   UNL A   1      30.934  23.617  26.335  1.00  0.00     0.107 C 
BRANCH   8   9
ATOM      9  C   UNL A   1      30.692  25.075  25.982  1.00  0.00    -0.106 C 
ATOM     10  C   UNL A   1      30.484  26.327  25.679  1.00  0.00     0.004 C 
ENDBRANCH   8   9
ENDBRANCH   7   8
BRANCH   7  11
ATOM     11  C   UNL A   1      32.356  22.111  24.993  1.00  0.00    -0.034 A 
ATOM     12  C   UNL A   1      32.170  22.472  23.650  1.00  0.00     0.004 A 
ATOM     13  C   UNL A   1      32.442  20.737  25.301  1.00  0.00     0.020 A 
ATOM     14  C   UNL A   1      32.135  21.493  22.649  1.00  0.00     0.001 A 
ATOM     15  C   UNL A   1      32.460  19.772  24.296  1.00  0.00     0.018 A 
ATOM     16  C   UNL A   1      32.304  20.145  22.967  1.00  0.00     0.016 A 
ATOM     17  Br  UNL A   1      32.728  17.955  24.746  1.00  0.00    -0.051 Br
ENDBRANCH   7  11
ENDBRANCH   4   7
ENDBRANCH   2   3
ENDBRANCH   1   2
BRANCH   1  18
ATOM     18  C   UNL A   1      37.548  21.755  24.935  1.00  0.00     0.023 C 
BRANCH  18  19
ATOM     19  C   UNL A   1      38.779  21.568  25.816  1.00  0.00     0.116 C 
BRANCH  19  20
ATOM     20  N   UNL A   1      39.475  20.287  25.678  1.00  0.00    -0.352 N 
ATOM     21  C   UNL A   1      40.771  19.959  26.025  1.00  0.00     0.251 C 
ATOM     22  H   UNL A   1      38.944  19.557  25.284  1.00  0.00     0.163 HD
ATOM     23  O   UNL A   1      41.210  18.830  25.834  1.00  0.00    -0.269 OA
BRANCH  21  24
ATOM     24  C   UNL A   1      41.642  21.021  26.565  1.00  0.00     0.039 A 
ATOM     25  C   UNL A   1      42.272  21.895  25.679  1.00  0.00     0.014 A 
ATOM     26  C   UNL A   1      41.659  21.261  27.938  1.00  0.00     0.014 A 
ATOM     27  C   UNL A   1      42.773  23.106  26.160  1.00  0.00     0.010 A 
ATOM     28  C   UNL A   1      42.042  22.514  28.392  1.00  0.00     0.010 A 
ATOM     29  C   UNL A   1      42.570  23.465  27.502  1.00  0.00    -0.014 A 
BRANCH  29  30
ATOM     30  C   UNL A   1      42.823  24.845  27.996  1.00  0.00     0.031 A 
ATOM     31  C   UNL A   1      44.200  25.239  28.451  1.00  0.00     0.074 A 
ATOM     32  C   UNL A   1      41.788  25.696  28.166  1.00  0.00     0.049 A 
ATOM     33  N   UNL A   1      44.586  26.326  29.069  1.00  0.00    -0.248 NA
ATOM     34  C   UNL A   1      45.277  24.258  28.233  1.00  0.00     0.031 C 
ATOM     35  C   UNL A   1      40.384  25.415  27.848  1.00  0.00     0.029 A 
ATOM     36  N   UNL A   1      41.759  26.974  28.668  1.00  0.00    -0.354 N 
ATOM     37  C   UNL A   1      45.930  26.135  29.358  1.00  0.00     0.074 A 
ATOM     38  C   UNL A   1      46.285  24.814  28.888  1.00  0.00     0.031 C 
ATOM     39  C   UNL A   1      39.642  26.500  28.123  1.00  0.00     0.029 A 
ATOM     40  C   UNL A   1      40.503  27.535  28.681  1.00  0.00     0.049 A 
ATOM     41  H   UNL A   1      42.562  27.445  28.989  1.00  0.00     0.167 HD
ATOM     42  C   UNL A   1      46.801  26.991  29.943  1.00  0.00     0.031 A 
ATOM     43  C   UNL A   1      40.089  28.745  29.101  1.00  0.00     0.031 A 
ATOM     44  C   UNL A   1      46.470  28.328  30.349  1.00  0.00     0.049 A 
ATOM     45  C   UNL A   1      41.091  29.703  29.678  1.00  0.00     0.074 A 
ATOM     46  C   UNL A   1      47.308  29.307  30.853  1.00  0.00     0.029 A 
ATOM     47  N   UNL A   1      45.201  28.879  30.280  1.00  0.00    -0.354 N 
ATOM     48  N   UNL A   1      42.377  29.533  29.874  1.00  0.00    -0.248 NA
ATOM     49  C   UNL A   1      40.586  31.023  30.085  1.00  0.00     0.031 C 
ATOM     50  C   UNL A   1      46.539  30.446  31.113  1.00  0.00     0.029 A 
ATOM     51  C   UNL A   1      45.230  30.183  30.742  1.00  0.00     0.049 A 
ATOM     52  H   UNL A   1      44.399  28.412  29.953  1.00  0.00     0.167 HD
ATOM     53  C   UNL A   1      42.836  30.728  30.410  1.00  0.00     0.074 A 
ATOM     54  C   UNL A   1      41.699  31.621  30.491  1.00  0.00     0.031 C 
ATOM     55  C   UNL A   1      44.089  31.055  30.806  1.00  0.00     0.031 A 
BRANCH  42  56
ATOM     56  C   UNL A   1      48.204  26.504  30.159  1.00  0.00    -0.014 A 
ATOM     57  C   UNL A   1      49.201  26.714  29.194  1.00  0.00     0.009 A 
ATOM     58  C   UNL A   1      48.538  25.850  31.355  1.00  0.00     0.009 A 
ATOM     59  C   UNL A   1      50.498  26.244  29.405  1.00  0.00     0.001 A 
ATOM     60  C   UNL A   1      49.844  25.405  31.574  1.00  0.00     0.001 A 
ATOM     61  C   UNL A   1      50.819  25.594  30.597  1.00  0.00     0.000 A 
ENDBRANCH  42  56
BRANCH  43  62
ATOM     62  C   UNL A   1      38.662  29.138  28.974  1.00  0.00    -0.014 A 
ATOM     63  C   UNL A   1      38.189  29.698  27.777  1.00  0.00     0.009 A 
ATOM     64  C   UNL A   1      37.773  28.980  30.048  1.00  0.00     0.009 A 
ATOM     65  C   UNL A   1      36.861  30.119  27.669  1.00  0.00     0.001 A 
ATOM     66  C   UNL A   1      36.441  29.380  29.928  1.00  0.00     0.001 A 
ATOM     67  C   UNL A   1      35.989  29.958  28.743  1.00  0.00     0.000 A 
ENDBRANCH  43  62
BRANCH  55  68
ATOM     68  C   UNL A   1      44.297  32.442  31.335  1.00  0.00    -0.014 A 
ATOM     69  C   UNL A   1      44.192  32.716  32.706  1.00  0.00     0.009 A 
ATOM     70  C   UNL A   1      44.646  33.477  30.453  1.00  0.00     0.009 A 
ATOM     71  C   UNL A   1      44.408  34.010  33.183  1.00  0.00     0.001 A 
ATOM     72  C   UNL A   1      44.884  34.765  30.937  1.00  0.00     0.001 A 
ATOM     73  C   UNL A   1      44.758  35.032  32.299  1.00  0.00     0.000 A 
ENDBRANCH  55  68
ENDBRANCH  29  30
ENDBRANCH  21  24
ENDBRANCH  19  20
ENDBRANCH  18  19
ENDBRANCH   1  18
TORSDOF 14
ENDMDL
