MODEL 1
REMARK VINA RESULT:     -11.7      0.000      0.000
REMARK SMILES O=C(NCCCCNC(=O)[C@]1(CCc2cccnc2)C[C@H]2CC[C@@H]1O2)c1ccc(-c2c3nc(c(-c4ccccc4)c4ccc([nH]4)c(-c4ccccc4)c4nc(c(-c5ccccc5)c5ccc2[nH]5)C=C4)C=C3)cc1
REMARK SMILES IDX 6 1 5 2 4 3 3 4 1 5 2 6 26 8 27 9 73 10 28 11 72 12 29 13
REMARK SMILES IDX 30 14 31 15 66 16 32 17 71 18 65 19 67 20 33 21 70 22 64 23
REMARK SMILES IDX 63 24 34 26 56 27 41 28 55 29 42 30 45 31 54 32 68 33 43 34
REMARK SMILES IDX 44 35 53 37 69 38 46 39 35 40 36 41 40 42 37 43 39 44 38 45
REMARK SMILES IDX 57 46 58 47 62 48 59 49 61 50 60 51 47 52 48 53 52 54 49 55
REMARK SMILES IDX 51 56 50 57 7 58 8 59 9 60 10 62 11 63 20 64 24 65 21 66
REMARK SMILES IDX 23 67 25 68 22 69 12 70 13 71 14 72 15 73 19 74 16 75 18 76
REMARK SMILES IDX 17 77
REMARK H PARENT 3 7 67 25 45 36 8 61
REMARK Flexibility Score: inf
ROOT
ATOM      1  C   UNL A   1      31.454  30.750  26.096  1.00  0.00     0.023 C 
ENDROOT
BRANCH   1   2
ATOM      2  C   UNL A   1      31.406  32.226  26.525  1.00  0.00     0.023 C 
BRANCH   2   3
ATOM      3  C   UNL A   1      32.576  32.763  27.328  1.00  0.00     0.116 C 
BRANCH   3   4
ATOM      4  N   UNL A   1      32.417  34.189  27.559  1.00  0.00    -0.352 N 
ATOM      5  O   UNL A   1      32.493  36.071  28.790  1.00  0.00    -0.269 OA
ATOM      6  C   UNL A   1      32.973  34.970  28.546  1.00  0.00     0.251 C 
ATOM      7  H   UNL A   1      31.833  34.661  26.922  1.00  0.00     0.163 HD
BRANCH   6   8
ATOM      8  C   UNL A   1      34.158  34.498  29.303  1.00  0.00     0.039 A 
ATOM      9  C   UNL A   1      34.012  33.890  30.551  1.00  0.00     0.014 A 
ATOM     10  C   UNL A   1      35.427  34.579  28.715  1.00  0.00     0.014 A 
ATOM     11  C   UNL A   1      35.129  33.437  31.244  1.00  0.00     0.010 A 
ATOM     12  C   UNL A   1      36.540  34.042  29.373  1.00  0.00     0.010 A 
ATOM     13  C   UNL A   1      36.396  33.461  30.642  1.00  0.00    -0.014 A 
BRANCH  13  14
ATOM     14  C   UNL A   1      37.523  32.751  31.298  1.00  0.00     0.031 A 
ATOM     15  C   UNL A   1      38.192  31.574  30.654  1.00  0.00     0.074 A 
ATOM     16  C   UNL A   1      37.936  33.193  32.505  1.00  0.00     0.049 A 
ATOM     17  N   UNL A   1      39.178  30.840  31.108  1.00  0.00    -0.248 NA
ATOM     18  C   UNL A   1      37.691  31.158  29.336  1.00  0.00     0.031 C 
ATOM     19  C   UNL A   1      37.351  34.323  33.233  1.00  0.00     0.029 A 
ATOM     20  N   UNL A   1      38.948  32.763  33.323  1.00  0.00    -0.354 N 
ATOM     21  C   UNL A   1      39.399  29.862  30.145  1.00  0.00     0.074 A 
ATOM     22  C   UNL A   1      38.429  30.084  29.093  1.00  0.00     0.031 C 
ATOM     23  C   UNL A   1      38.046  34.531  34.359  1.00  0.00     0.029 A 
ATOM     24  C   UNL A   1      39.070  33.502  34.476  1.00  0.00     0.049 A 
ATOM     25  H   UNL A   1      39.531  31.999  33.107  1.00  0.00     0.167 HD
ATOM     26  C   UNL A   1      40.327  28.875  30.143  1.00  0.00     0.031 A 
ATOM     27  C   UNL A   1      39.893  33.354  35.528  1.00  0.00     0.031 A 
ATOM     28  C   UNL A   1      41.280  28.659  31.204  1.00  0.00     0.049 A 
ATOM     29  C   UNL A   1      40.879  32.223  35.517  1.00  0.00     0.074 A 
ATOM     30  C   UNL A   1      42.277  27.702  31.285  1.00  0.00     0.029 A 
ATOM     31  N   UNL A   1      41.346  29.405  32.371  1.00  0.00    -0.354 N 
ATOM     32  N   UNL A   1      41.096  31.329  34.584  1.00  0.00    -0.248 NA
ATOM     33  C   UNL A   1      41.732  32.082  36.704  1.00  0.00     0.031 C 
ATOM     34  C   UNL A   1      42.906  27.831  32.529  1.00  0.00     0.029 A 
ATOM     35  C   UNL A   1      42.348  28.913  33.192  1.00  0.00     0.049 A 
ATOM     36  H   UNL A   1      40.766  30.171  32.586  1.00  0.00     0.167 HD
ATOM     37  C   UNL A   1      42.126  30.530  35.060  1.00  0.00     0.074 A 
ATOM     38  C   UNL A   1      42.504  31.065  36.354  1.00  0.00     0.031 C 
ATOM     39  C   UNL A   1      42.706  29.453  34.479  1.00  0.00     0.031 A 
BRANCH  26  40
ATOM     40  C   UNL A   1      40.334  27.927  28.973  1.00  0.00    -0.014 A 
ATOM     41  C   UNL A   1      41.063  28.206  27.805  1.00  0.00     0.009 A 
ATOM     42  C   UNL A   1      39.632  26.713  29.056  1.00  0.00     0.009 A 
ATOM     43  C   UNL A   1      41.057  27.308  26.735  1.00  0.00     0.001 A 
ATOM     44  C   UNL A   1      39.653  25.803  27.997  1.00  0.00     0.001 A 
ATOM     45  C   UNL A   1      40.357  26.106  26.834  1.00  0.00     0.000 A 
ENDBRANCH  26  40
BRANCH  27  46
ATOM     46  C   UNL A   1      39.802  34.286  36.682  1.00  0.00    -0.014 A 
ATOM     47  C   UNL A   1      40.496  35.505  36.677  1.00  0.00     0.009 A 
ATOM     48  C   UNL A   1      39.008  33.965  37.795  1.00  0.00     0.009 A 
ATOM     49  C   UNL A   1      40.418  36.368  37.772  1.00  0.00     0.001 A 
ATOM     50  C   UNL A   1      38.902  34.847  38.872  1.00  0.00     0.001 A 
ATOM     51  C   UNL A   1      39.616  36.042  38.865  1.00  0.00     0.000 A 
ENDBRANCH  27  46
BRANCH  39  52
ATOM     52  C   UNL A   1      43.840  28.808  35.227  1.00  0.00    -0.014 A 
ATOM     53  C   UNL A   1      45.170  29.211  35.033  1.00  0.00     0.009 A 
ATOM     54  C   UNL A   1      43.566  27.793  36.156  1.00  0.00     0.009 A 
ATOM     55  C   UNL A   1      46.206  28.579  35.723  1.00  0.00     0.001 A 
ATOM     56  C   UNL A   1      44.599  27.187  36.870  1.00  0.00     0.001 A 
ATOM     57  C   UNL A   1      45.920  27.572  36.644  1.00  0.00     0.000 A 
ENDBRANCH  39  52
ENDBRANCH  13  14
ENDBRANCH   6   8
ENDBRANCH   3   4
ENDBRANCH   2   3
ENDBRANCH   1   2
BRANCH   1  58
ATOM     58  C   UNL A   1      32.745  29.928  25.750  1.00  0.00     0.116 C 
BRANCH  58  59
ATOM     59  N   UNL A   1      33.175  29.489  24.394  1.00  0.00    -0.356 N 
ATOM     60  C   UNL A   1      32.876  28.607  23.375  1.00  0.00     0.228 C 
ATOM     61  H   UNL A   1      33.960  30.020  24.127  1.00  0.00     0.163 HD
ATOM     62  O   UNL A   1      33.598  28.711  22.377  1.00  0.00    -0.274 OA
BRANCH  60  63
ATOM     63  C   UNL A   1      31.707  27.608  23.387  1.00  0.00     0.078 C 
ATOM     64  C   UNL A   1      30.900  27.344  24.697  1.00  0.00     0.051 C 
ATOM     65  C   UNL A   1      32.461  26.237  23.283  1.00  0.00     0.134 C 
ATOM     66  C   UNL A   1      31.107  25.852  24.938  1.00  0.00     0.120 C 
ATOM     67  C   UNL A   1      31.661  25.069  22.750  1.00  0.00     0.036 C 
ATOM     68  O   UNL A   1      32.518  25.796  24.687  1.00  0.00    -0.374 OA
ATOM     69  C   UNL A   1      30.562  24.960  23.805  1.00  0.00     0.035 C 
BRANCH  63  70
ATOM     70  C   UNL A   1      30.669  28.095  22.390  1.00  0.00     0.024 C 
BRANCH  70  71
ATOM     71  C   UNL A   1      29.421  28.844  23.023  1.00  0.00     0.038 C 
BRANCH  71  72
ATOM     72  C   UNL A   1      28.840  30.217  22.649  1.00  0.00    -0.030 A 
ATOM     73  C   UNL A   1      28.824  31.380  23.428  1.00  0.00     0.007 A 
ATOM     74  C   UNL A   1      28.440  30.443  21.333  1.00  0.00     0.114 A 
ATOM     75  C   UNL A   1      28.405  32.623  22.955  1.00  0.00     0.020 A 
ATOM     76  N   UNL A   1      28.047  31.639  20.813  1.00  0.00    -0.264 NA
ATOM     77  C   UNL A   1      28.031  32.703  21.639  1.00  0.00     0.111 A 
ENDBRANCH  71  72
ENDBRANCH  70  71
ENDBRANCH  63  70
ENDBRANCH  60  63
ENDBRANCH  58  59
ENDBRANCH   1  58
TORSDOF 14
ENDMDL
MODEL 2
REMARK VINA RESULT:     -11.6      6.323     10.874
REMARK SMILES O=C(NCCCCNC(=O)[C@]1(CCc2cccnc2)C[C@H]2CC[C@@H]1O2)c1ccc(-c2c3nc(c(-c4ccccc4)c4ccc([nH]4)c(-c4ccccc4)c4nc(c(-c5ccccc5)c5ccc2[nH]5)C=C4)C=C3)cc1
REMARK SMILES IDX 6 1 5 2 4 3 3 4 1 5 2 6 26 8 27 9 73 10 28 11 72 12 29 13
REMARK SMILES IDX 30 14 31 15 66 16 32 17 71 18 65 19 67 20 33 21 70 22 64 23
REMARK SMILES IDX 63 24 34 26 56 27 41 28 55 29 42 30 45 31 54 32 68 33 43 34
REMARK SMILES IDX 44 35 53 37 69 38 46 39 35 40 36 41 40 42 37 43 39 44 38 45
REMARK SMILES IDX 57 46 58 47 62 48 59 49 61 50 60 51 47 52 48 53 52 54 49 55
REMARK SMILES IDX 51 56 50 57 7 58 8 59 9 60 10 62 11 63 20 64 24 65 21 66
REMARK SMILES IDX 23 67 25 68 22 69 12 70 13 71 14 72 15 73 19 74 16 75 18 76
REMARK SMILES IDX 17 77
REMARK H PARENT 3 7 67 25 45 36 8 61
REMARK Flexibility Score: inf
ROOT
ATOM      1  C   UNL A   1      36.822  20.509  24.894  1.00  0.00     0.023 C 
ENDROOT
BRANCH   1   2
ATOM      2  C   UNL A   1      38.049  19.589  25.001  1.00  0.00     0.023 C 
BRANCH   2   3
ATOM      3  C   UNL A   1      39.261  20.117  25.746  1.00  0.00     0.116 C 
BRANCH   3   4
ATOM      4  N   UNL A   1      40.256  19.069  25.901  1.00  0.00    -0.352 N 
ATOM      5  O   UNL A   1      42.330  18.203  25.806  1.00  0.00    -0.269 OA
ATOM      6  C   UNL A   1      41.623  19.185  26.000  1.00  0.00     0.251 C 
ATOM      7  H   UNL A   1      39.903  18.151  25.941  1.00  0.00     0.163 HD
BRANCH   6   8
ATOM      8  C   UNL A   1      42.245  20.483  26.359  1.00  0.00     0.039 A 
ATOM      9  C   UNL A   1      42.807  21.300  25.376  1.00  0.00     0.014 A 
ATOM     10  C   UNL A   1      42.182  20.933  27.684  1.00  0.00     0.014 A 
ATOM     11  C   UNL A   1      43.374  22.522  25.722  1.00  0.00     0.010 A 
ATOM     12  C   UNL A   1      42.672  22.202  28.016  1.00  0.00     0.010 A 
ATOM     13  C   UNL A   1      43.266  23.008  27.034  1.00  0.00    -0.014 A 
BRANCH  13  14
ATOM     14  C   UNL A   1      43.658  24.412  27.320  1.00  0.00     0.031 A 
ATOM     15  C   UNL A   1      45.081  24.871  27.195  1.00  0.00     0.074 A 
ATOM     16  C   UNL A   1      42.694  25.276  27.701  1.00  0.00     0.049 A 
ATOM     17  N   UNL A   1      45.582  26.059  27.425  1.00  0.00    -0.248 NA
ATOM     18  C   UNL A   1      46.071  23.873  26.767  1.00  0.00     0.031 C 
ATOM     19  C   UNL A   1      41.277  24.937  27.868  1.00  0.00     0.029 A 
ATOM     20  N   UNL A   1      42.750  26.612  28.001  1.00  0.00    -0.354 N 
ATOM     21  C   UNL A   1      46.948  25.947  27.192  1.00  0.00     0.074 A 
ATOM     22  C   UNL A   1      47.198  24.568  26.826  1.00  0.00     0.031 C 
ATOM     23  C   UNL A   1      40.592  26.044  28.185  1.00  0.00     0.029 A 
ATOM     24  C   UNL A   1      41.528  27.150  28.326  1.00  0.00     0.049 A 
ATOM     25  H   UNL A   1      43.584  27.135  27.986  1.00  0.00     0.167 HD
ATOM     26  C   UNL A   1      47.900  26.907  27.277  1.00  0.00     0.031 A 
ATOM     27  C   UNL A   1      41.195  28.391  28.723  1.00  0.00     0.031 A 
ATOM     28  C   UNL A   1      47.638  28.274  27.654  1.00  0.00     0.049 A 
ATOM     29  C   UNL A   1      42.279  29.421  28.851  1.00  0.00     0.074 A 
ATOM     30  C   UNL A   1      48.529  29.330  27.745  1.00  0.00     0.029 A 
ATOM     31  N   UNL A   1      46.393  28.771  28.012  1.00  0.00    -0.354 N 
ATOM     32  N   UNL A   1      43.559  29.305  28.596  1.00  0.00    -0.248 NA
ATOM     33  C   UNL A   1      41.871  30.750  29.323  1.00  0.00     0.031 C 
ATOM     34  C   UNL A   1      47.834  30.449  28.217  1.00  0.00     0.029 A 
ATOM     35  C   UNL A   1      46.497  30.110  28.352  1.00  0.00     0.049 A 
ATOM     36  H   UNL A   1      45.559  28.249  28.024  1.00  0.00     0.167 HD
ATOM     37  C   UNL A   1      44.108  30.553  28.855  1.00  0.00     0.074 A 
ATOM     38  C   UNL A   1      43.015  31.414  29.262  1.00  0.00     0.031 C 
ATOM     39  C   UNL A   1      45.400  30.950  28.762  1.00  0.00     0.031 A 
BRANCH  26  40
ATOM     40  C   UNL A   1      49.323  26.506  26.991  1.00  0.00    -0.014 A 
ATOM     41  C   UNL A   1      50.185  26.076  28.012  1.00  0.00     0.009 A 
ATOM     42  C   UNL A   1      49.797  26.519  25.669  1.00  0.00     0.009 A 
ATOM     43  C   UNL A   1      51.499  25.704  27.721  1.00  0.00     0.001 A 
ATOM     44  C   UNL A   1      51.102  26.118  25.376  1.00  0.00     0.001 A 
ATOM     45  C   UNL A   1      51.956  25.721  26.403  1.00  0.00     0.000 A 
ENDBRANCH  26  40
BRANCH  27  46
ATOM     46  C   UNL A   1      39.781  28.715  29.048  1.00  0.00    -0.014 A 
ATOM     47  C   UNL A   1      39.274  28.501  30.338  1.00  0.00     0.009 A 
ATOM     48  C   UNL A   1      38.931  29.252  28.068  1.00  0.00     0.009 A 
ATOM     49  C   UNL A   1      37.940  28.793  30.632  1.00  0.00     0.001 A 
ATOM     50  C   UNL A   1      37.608  29.578  28.374  1.00  0.00     0.001 A 
ATOM     51  C   UNL A   1      37.111  29.337  29.652  1.00  0.00     0.000 A 
ENDBRANCH  27  46
BRANCH  39  52
ATOM     52  C   UNL A   1      45.689  32.392  29.071  1.00  0.00    -0.014 A 
ATOM     53  C   UNL A   1      45.635  33.381  28.077  1.00  0.00     0.009 A 
ATOM     54  C   UNL A   1      46.003  32.767  30.387  1.00  0.00     0.009 A 
ATOM     55  C   UNL A   1      45.931  34.710  28.387  1.00  0.00     0.001 A 
ATOM     56  C   UNL A   1      46.265  34.101  30.701  1.00  0.00     0.001 A 
ATOM     57  C   UNL A   1      46.241  35.069  29.699  1.00  0.00     0.000 A 
ENDBRANCH  39  52
ENDBRANCH  13  14
ENDBRANCH   6   8
ENDBRANCH   3   4
ENDBRANCH   2   3
ENDBRANCH   1   2
BRANCH   1  58
ATOM     58  C   UNL A   1      36.576  21.824  25.714  1.00  0.00     0.116 C 
BRANCH  58  59
ATOM     59  N   UNL A   1      35.438  22.089  26.636  1.00  0.00    -0.356 N 
ATOM     60  C   UNL A   1      34.072  22.287  26.673  1.00  0.00     0.228 C 
ATOM     61  H   UNL A   1      35.786  22.144  27.555  1.00  0.00     0.163 HD
ATOM     62  O   UNL A   1      33.604  22.433  27.808  1.00  0.00    -0.274 OA
BRANCH  60  63
ATOM     63  C   UNL A   1      33.143  22.261  25.448  1.00  0.00     0.078 C 
ATOM     64  C   UNL A   1      33.710  22.512  24.015  1.00  0.00     0.051 C 
ATOM     65  C   UNL A   1      32.340  23.595  25.632  1.00  0.00     0.134 C 
ATOM     66  C   UNL A   1      32.943  23.746  23.549  1.00  0.00     0.120 C 
ATOM     67  C   UNL A   1      30.999  23.674  24.936  1.00  0.00     0.036 C 
ATOM     68  O   UNL A   1      33.060  24.527  24.747  1.00  0.00    -0.374 OA
ATOM     69  C   UNL A   1      31.417  23.535  23.474  1.00  0.00     0.035 C 
BRANCH  63  70
ATOM     70  C   UNL A   1      32.511  20.881  25.373  1.00  0.00     0.024 C 
BRANCH  70  71
ATOM     71  C   UNL A   1      33.238  19.855  24.404  1.00  0.00     0.038 C 
BRANCH  71  72
ATOM     72  C   UNL A   1      33.449  18.345  24.597  1.00  0.00    -0.030 A 
ATOM     73  C   UNL A   1      34.574  17.587  24.252  1.00  0.00     0.007 A 
ATOM     74  C   UNL A   1      32.532  17.630  25.366  1.00  0.00     0.114 A 
ATOM     75  C   UNL A   1      34.739  16.245  24.595  1.00  0.00     0.020 A 
ATOM     76  N   UNL A   1      32.655  16.328  25.751  1.00  0.00    -0.264 NA
ATOM     77  C   UNL A   1      33.754  15.662  25.349  1.00  0.00     0.111 A 
ENDBRANCH  71  72
ENDBRANCH  70  71
ENDBRANCH  63  70
ENDBRANCH  60  63
ENDBRANCH  58  59
ENDBRANCH   1  58
TORSDOF 14
ENDMDL
MODEL 3
REMARK VINA RESULT:     -11.5      0.549      6.055
REMARK SMILES O=C(NCCCCNC(=O)[C@]1(CCc2cccnc2)C[C@H]2CC[C@@H]1O2)c1ccc(-c2c3nc(c(-c4ccccc4)c4ccc([nH]4)c(-c4ccccc4)c4nc(c(-c5ccccc5)c5ccc2[nH]5)C=C4)C=C3)cc1
REMARK SMILES IDX 6 1 5 2 4 3 3 4 1 5 2 6 26 8 27 9 73 10 28 11 72 12 29 13
REMARK SMILES IDX 30 14 31 15 66 16 32 17 71 18 65 19 67 20 33 21 70 22 64 23
REMARK SMILES IDX 63 24 34 26 56 27 41 28 55 29 42 30 45 31 54 32 68 33 43 34
REMARK SMILES IDX 44 35 53 37 69 38 46 39 35 40 36 41 40 42 37 43 39 44 38 45
REMARK SMILES IDX 57 46 58 47 62 48 59 49 61 50 60 51 47 52 48 53 52 54 49 55
REMARK SMILES IDX 51 56 50 57 7 58 8 59 9 60 10 62 11 63 20 64 24 65 21 66
REMARK SMILES IDX 23 67 25 68 22 69 12 70 13 71 14 72 15 73 19 74 16 75 18 76
REMARK SMILES IDX 17 77
REMARK H PARENT 3 7 67 25 45 36 8 61
REMARK Flexibility Score: inf
ROOT
ATOM      1  C   UNL A   1      31.452  30.742  26.216  1.00  0.00     0.023 C 
ENDROOT
BRANCH   1   2
ATOM      2  C   UNL A   1      31.460  32.242  26.552  1.00  0.00     0.023 C 
BRANCH   2   3
ATOM      3  C   UNL A   1      32.624  32.774  27.367  1.00  0.00     0.116 C 
BRANCH   3   4
ATOM      4  N   UNL A   1      32.463  34.198  27.609  1.00  0.00    -0.352 N 
ATOM      5  O   UNL A   1      32.521  36.068  28.860  1.00  0.00    -0.269 OA
ATOM      6  C   UNL A   1      33.004  34.969  28.612  1.00  0.00     0.251 C 
ATOM      7  H   UNL A   1      31.888  34.676  26.969  1.00  0.00     0.163 HD
BRANCH   6   8
ATOM      8  C   UNL A   1      34.179  34.489  29.381  1.00  0.00     0.039 A 
ATOM      9  C   UNL A   1      34.015  33.878  30.626  1.00  0.00     0.014 A 
ATOM     10  C   UNL A   1      35.454  34.566  28.807  1.00  0.00     0.014 A 
ATOM     11  C   UNL A   1      35.122  33.419  31.331  1.00  0.00     0.010 A 
ATOM     12  C   UNL A   1      36.557  34.022  29.477  1.00  0.00     0.010 A 
ATOM     13  C   UNL A   1      36.396  33.438  30.742  1.00  0.00    -0.014 A 
BRANCH  13  14
ATOM     14  C   UNL A   1      37.512  32.722  31.410  1.00  0.00     0.031 A 
ATOM     15  C   UNL A   1      38.022  33.143  32.757  1.00  0.00     0.074 A 
ATOM     16  C   UNL A   1      38.067  31.671  30.771  1.00  0.00     0.049 A 
ATOM     17  N   UNL A   1      38.998  32.629  33.462  1.00  0.00    -0.248 NA
ATOM     18  C   UNL A   1      37.361  34.292  33.393  1.00  0.00     0.031 C 
ATOM     19  C   UNL A   1      37.660  31.179  29.450  1.00  0.00     0.029 A 
ATOM     20  N   UNL A   1      39.073  30.819  31.143  1.00  0.00    -0.354 N 
ATOM     21  C   UNL A   1      39.085  33.403  34.613  1.00  0.00     0.074 A 
ATOM     22  C   UNL A   1      38.077  34.437  34.500  1.00  0.00     0.031 C 
ATOM     23  C   UNL A   1      38.369  30.083  29.150  1.00  0.00     0.029 A 
ATOM     24  C   UNL A   1      39.336  29.843  30.212  1.00  0.00     0.049 A 
ATOM     25  H   UNL A   1      39.562  30.899  31.995  1.00  0.00     0.167 HD
ATOM     26  C   UNL A   1      39.929  33.261  35.664  1.00  0.00     0.031 A 
ATOM     27  C   UNL A   1      40.271  28.877  30.195  1.00  0.00     0.031 A 
ATOM     28  C   UNL A   1      40.937  32.234  35.758  1.00  0.00     0.049 A 
ATOM     29  C   UNL A   1      41.220  28.774  31.352  1.00  0.00     0.074 A 
ATOM     30  C   UNL A   1      41.824  31.989  36.792  1.00  0.00     0.029 A 
ATOM     31  N   UNL A   1      41.196  31.288  34.778  1.00  0.00    -0.354 N 
ATOM     32  N   UNL A   1      41.266  29.494  32.446  1.00  0.00    -0.248 NA
ATOM     33  C   UNL A   1      42.245  27.726  31.271  1.00  0.00     0.031 C 
ATOM     34  C   UNL A   1      42.660  30.934  36.411  1.00  0.00     0.029 A 
ATOM     35  C   UNL A   1      42.248  30.476  35.169  1.00  0.00     0.049 A 
ATOM     36  H   UNL A   1      40.705  31.206  33.928  1.00  0.00     0.167 HD
ATOM     37  C   UNL A   1      42.311  28.973  33.196  1.00  0.00     0.074 A 
ATOM     38  C   UNL A   1      42.853  27.860  32.440  1.00  0.00     0.031 C 
ATOM     39  C   UNL A   1      42.779  29.378  34.401  1.00  0.00     0.031 A 
BRANCH  26  40
ATOM     40  C   UNL A   1      39.824  34.264  36.783  1.00  0.00    -0.014 A 
ATOM     41  C   UNL A   1      39.043  34.014  37.923  1.00  0.00     0.009 A 
ATOM     42  C   UNL A   1      40.552  35.463  36.714  1.00  0.00     0.009 A 
ATOM     43  C   UNL A   1      38.966  34.957  38.950  1.00  0.00     0.001 A 
ATOM     44  C   UNL A   1      40.497  36.391  37.755  1.00  0.00     0.001 A 
ATOM     45  C   UNL A   1      39.696  36.142  38.868  1.00  0.00     0.000 A 
ENDBRANCH  26  40
BRANCH  27  46
ATOM     46  C   UNL A   1      40.365  27.951  29.036  1.00  0.00    -0.014 A 
ATOM     47  C   UNL A   1      39.651  26.744  29.022  1.00  0.00     0.009 A 
ATOM     48  C   UNL A   1      41.164  28.277  27.928  1.00  0.00     0.009 A 
ATOM     49  C   UNL A   1      39.756  25.872  27.936  1.00  0.00     0.001 A 
ATOM     50  C   UNL A   1      41.239  27.421  26.828  1.00  0.00     0.001 A 
ATOM     51  C   UNL A   1      40.544  26.214  26.838  1.00  0.00     0.000 A 
ENDBRANCH  27  46
BRANCH  39  52
ATOM     52  C   UNL A   1      43.910  28.583  34.990  1.00  0.00    -0.014 A 
ATOM     53  C   UNL A   1      45.250  28.932  34.760  1.00  0.00     0.009 A 
ATOM     54  C   UNL A   1      43.626  27.476  35.806  1.00  0.00     0.009 A 
ATOM     55  C   UNL A   1      46.282  28.161  35.300  1.00  0.00     0.001 A 
ATOM     56  C   UNL A   1      44.658  26.729  36.373  1.00  0.00     0.001 A 
ATOM     57  C   UNL A   1      45.985  27.065  36.110  1.00  0.00     0.000 A 
ENDBRANCH  39  52
ENDBRANCH  13  14
ENDBRANCH   6   8
ENDBRANCH   3   4
ENDBRANCH   2   3
ENDBRANCH   1   2
BRANCH   1  58
ATOM     58  C   UNL A   1      32.710  29.854  25.912  1.00  0.00     0.116 C 
BRANCH  58  59
ATOM     59  N   UNL A   1      33.283  29.567  24.568  1.00  0.00    -0.356 N 
ATOM     60  C   UNL A   1      33.258  28.655  23.532  1.00  0.00     0.228 C 
ATOM     61  H   UNL A   1      33.908  30.290  24.333  1.00  0.00     0.163 HD
ATOM     62  O   UNL A   1      33.959  28.962  22.560  1.00  0.00    -0.274 OA
BRANCH  60  63
ATOM     63  C   UNL A   1      32.394  27.383  23.495  1.00  0.00     0.078 C 
ATOM     64  C   UNL A   1      32.540  26.291  24.601  1.00  0.00     0.051 C 
ATOM     65  C   UNL A   1      33.032  26.603  22.293  1.00  0.00     0.134 C 
ATOM     66  C   UNL A   1      32.950  25.051  23.812  1.00  0.00     0.120 C 
ATOM     67  C   UNL A   1      32.153  25.572  21.620  1.00  0.00     0.036 C 
ATOM     68  O   UNL A   1      33.938  25.660  22.969  1.00  0.00    -0.374 OA
ATOM     69  C   UNL A   1      31.902  24.602  22.774  1.00  0.00     0.035 C 
BRANCH  63  70
ATOM     70  C   UNL A   1      30.938  27.810  23.567  1.00  0.00     0.024 C 
BRANCH  70  71
ATOM     71  C   UNL A   1      30.445  28.739  22.377  1.00  0.00     0.038 C 
BRANCH  71  72
ATOM     72  C   UNL A   1      29.506  29.954  22.441  1.00  0.00    -0.030 A 
ATOM     73  C   UNL A   1      29.221  30.758  23.551  1.00  0.00     0.007 A 
ATOM     74  C   UNL A   1      28.999  30.476  21.252  1.00  0.00     0.114 A 
ATOM     75  C   UNL A   1      28.467  31.929  23.486  1.00  0.00     0.020 A 
ATOM     76  N   UNL A   1      28.280  31.627  21.128  1.00  0.00    -0.264 NA
ATOM     77  C   UNL A   1      28.024  32.325  22.251  1.00  0.00     0.111 A 
ENDBRANCH  71  72
ENDBRANCH  70  71
ENDBRANCH  63  70
ENDBRANCH  60  63
ENDBRANCH  58  59
ENDBRANCH   1  58
TORSDOF 14
ENDMDL
