MODEL 1
REMARK VINA RESULT:     -11.1      0.000      0.000
REMARK SMILES CC(C)Cc1s/c(=N/C(=O)CCC(=O)Nc2nccs2)[nH]c1C(=O)NCCCCNC(=O)c1ccc(-c2c3nc(c(-c4ccccc4)c4ccc([nH]4)c(-c4ccccc4)c4nc(c(-c5ccccc5)c5ccc2[nH]5)C=C4)C=C3)cc1
REMARK SMILES IDX 26 1 25 2 23 3 24 4 22 6 5 7 6 8 7 9 21 10 8 11 4 13 2 14
REMARK SMILES IDX 1 15 3 16 9 17 10 18 11 19 12 20 13 21 14 22 15 23 16 25
REMARK SMILES IDX 17 26 20 27 18 28 19 29 27 30 28 31 29 32 30 33 31 34 32 36
REMARK SMILES IDX 33 37 34 38 80 39 35 40 79 41 36 42 37 43 38 44 73 45 39 46
REMARK SMILES IDX 78 47 72 48 74 49 40 50 77 51 71 52 70 53 41 55 63 56 48 57
REMARK SMILES IDX 62 58 49 59 52 60 61 61 75 62 50 63 51 64 60 66 76 67 53 68
REMARK SMILES IDX 42 69 43 70 47 71 44 72 46 73 45 74 64 75 65 76 69 77 66 78
REMARK SMILES IDX 68 79 67 80 54 81 55 82 59 83 56 84 58 85 57 86
REMARK H PARENT 25 5 21 12 15 24 30 35 74 54 52 65
REMARK Flexibility Score: inf
ROOT
ATOM      1  C   UNL A   1      36.517  23.241  25.332  1.00  0.00     0.116 C 
ENDROOT
BRANCH   1   2
ATOM      2  N   UNL A   1      35.839  22.618  26.450  1.00  0.00    -0.351 N 
ATOM      3  C   UNL A   1      34.610  22.050  26.558  1.00  0.00     0.268 C 
ATOM      4  O   UNL A   1      34.304  21.544  27.642  1.00  0.00    -0.268 OA
ATOM      5  H   UNL A   1      36.364  22.602  27.282  1.00  0.00     0.163 HD
BRANCH   3   6
ATOM      6  C   UNL A   1      33.658  21.895  25.410  1.00  0.00     0.119 A 
ATOM      7  C   UNL A   1      33.434  20.865  24.557  1.00  0.00     0.038 A 
ATOM      8  S   UNL A   1      32.241  21.341  23.318  1.00  0.00    -0.101 S 
ATOM      9  C   UNL A   1      32.265  23.024  23.878  1.00  0.00     0.190 A 
ATOM     10  N   UNL A   1      33.011  23.063  25.016  1.00  0.00    -0.326 N 
ATOM     11  N   UNL A   1      31.690  23.906  23.152  1.00  0.00    -0.185 NA
ATOM     12  H   UNL A   1      33.092  23.890  25.543  1.00  0.00     0.169 HD
BRANCH   7  13
ATOM     13  C   UNL A   1      33.987  19.476  24.443  1.00  0.00     0.052 C 
BRANCH  13  14
ATOM     14  C   UNL A   1      33.015  18.326  24.091  1.00  0.00    -0.012 C 
ATOM     15  C   UNL A   1      33.536  17.287  23.098  1.00  0.00     0.008 C 
ATOM     16  C   UNL A   1      32.569  17.620  25.379  1.00  0.00     0.008 C 
ENDBRANCH  13  14
ENDBRANCH   7  13
BRANCH  11  17
ATOM     17  C   UNL A   1      31.855  25.222  23.492  1.00  0.00     0.248 C 
ATOM     18  O   UNL A   1      31.826  25.667  24.637  1.00  0.00    -0.273 OA
BRANCH  17  19
ATOM     19  C   UNL A   1      32.026  26.126  22.286  1.00  0.00     0.112 C 
BRANCH  19  20
ATOM     20  C   UNL A   1      32.076  27.617  22.597  1.00  0.00     0.110 C 
BRANCH  20  21
ATOM     21  C   UNL A   1      33.478  28.195  22.669  1.00  0.00     0.226 C 
ATOM     22  O   UNL A   1      34.242  28.074  21.707  1.00  0.00    -0.275 OA
ATOM     23  N   UNL A   1      33.917  28.883  23.759  1.00  0.00    -0.302 N 
ATOM     24  H   UNL A   1      34.791  29.328  23.676  1.00  0.00     0.172 HD
BRANCH  23  25
ATOM     25  C   UNL A   1      33.273  29.020  24.951  1.00  0.00     0.189 A 
ATOM     26  N   UNL A   1      32.241  29.767  25.245  1.00  0.00    -0.229 NA
ATOM     27  S   UNL A   1      33.867  28.021  26.200  1.00  0.00    -0.105 S 
ATOM     28  C   UNL A   1      31.851  29.522  26.545  1.00  0.00     0.125 A 
ATOM     29  C   UNL A   1      32.625  28.609  27.230  1.00  0.00     0.088 A 
ENDBRANCH  23  25
ENDBRANCH  20  21
ENDBRANCH  19  20
ENDBRANCH  17  19
ENDBRANCH  11  17
ENDBRANCH   3   6
ENDBRANCH   1   2
BRANCH   1  30
ATOM     30  C   UNL A   1      37.040  22.174  24.373  1.00  0.00     0.023 C 
BRANCH  30  31
ATOM     31  C   UNL A   1      37.570  20.901  25.007  1.00  0.00     0.023 C 
BRANCH  31  32
ATOM     32  C   UNL A   1      38.887  21.105  25.731  1.00  0.00     0.116 C 
BRANCH  32  33
ATOM     33  N   UNL A   1      39.751  19.925  25.708  1.00  0.00    -0.352 N 
ATOM     34  C   UNL A   1      41.075  19.811  26.061  1.00  0.00     0.251 C 
ATOM     35  H   UNL A   1      39.325  19.095  25.395  1.00  0.00     0.163 HD
ATOM     36  O   UNL A   1      41.682  18.758  25.899  1.00  0.00    -0.269 OA
BRANCH  34  37
ATOM     37  C   UNL A   1      41.767  21.003  26.582  1.00  0.00     0.039 A 
ATOM     38  C   UNL A   1      42.323  21.912  25.679  1.00  0.00     0.014 A 
ATOM     39  C   UNL A   1      41.733  21.279  27.948  1.00  0.00     0.014 A 
ATOM     40  C   UNL A   1      42.738  23.160  26.142  1.00  0.00     0.010 A 
ATOM     41  C   UNL A   1      42.037  22.557  28.384  1.00  0.00     0.010 A 
ATOM     42  C   UNL A   1      42.532  23.515  27.484  1.00  0.00    -0.014 A 
BRANCH  42  43
ATOM     43  C   UNL A   1      42.798  24.883  27.985  1.00  0.00     0.031 A 
ATOM     44  C   UNL A   1      44.184  25.251  28.434  1.00  0.00     0.074 A 
ATOM     45  C   UNL A   1      41.776  25.748  28.150  1.00  0.00     0.049 A 
ATOM     46  N   UNL A   1      44.594  26.327  29.052  1.00  0.00    -0.248 NA
ATOM     47  C   UNL A   1      45.241  24.254  28.197  1.00  0.00     0.031 C 
ATOM     48  C   UNL A   1      40.374  25.490  27.812  1.00  0.00     0.029 A 
ATOM     49  N   UNL A   1      41.763  27.021  28.663  1.00  0.00    -0.354 N 
ATOM     50  C   UNL A   1      45.939  26.115  29.317  1.00  0.00     0.074 A 
ATOM     51  C   UNL A   1      46.267  24.790  28.838  1.00  0.00     0.031 C 
ATOM     52  C   UNL A   1      39.643  26.581  28.094  1.00  0.00     0.029 A 
ATOM     53  C   UNL A   1      40.514  27.596  28.676  1.00  0.00     0.049 A 
ATOM     54  H   UNL A   1      42.570  27.479  28.991  1.00  0.00     0.167 HD
ATOM     55  C   UNL A   1      46.832  26.957  29.888  1.00  0.00     0.031 A 
ATOM     56  C   UNL A   1      40.115  28.803  29.118  1.00  0.00     0.031 A 
ATOM     57  C   UNL A   1      46.516  28.291  30.315  1.00  0.00     0.049 A 
ATOM     58  C   UNL A   1      41.130  29.731  29.723  1.00  0.00     0.074 A 
ATOM     59  C   UNL A   1      47.367  29.259  30.816  1.00  0.00     0.029 A 
ATOM     60  N   UNL A   1      45.247  28.846  30.281  1.00  0.00    -0.354 N 
ATOM     61  N   UNL A   1      42.414  29.542  29.905  1.00  0.00    -0.248 NA
ATOM     62  C   UNL A   1      40.639  31.036  30.185  1.00  0.00     0.031 C 
ATOM     63  C   UNL A   1      46.604  30.391  31.121  1.00  0.00     0.029 A 
ATOM     64  C   UNL A   1      45.287  30.138  30.774  1.00  0.00     0.049 A 
ATOM     65  H   UNL A   1      44.438  28.389  29.956  1.00  0.00     0.167 HD
ATOM     66  C   UNL A   1      42.888  30.707  30.490  1.00  0.00     0.074 A 
ATOM     67  C   UNL A   1      41.757  31.605  30.616  1.00  0.00     0.031 C 
ATOM     68  C   UNL A   1      44.146  31.007  30.891  1.00  0.00     0.031 A 
BRANCH  55  69
ATOM     69  C   UNL A   1      48.234  26.451  30.071  1.00  0.00    -0.014 A 
ATOM     70  C   UNL A   1      48.621  25.795  31.251  1.00  0.00     0.009 A 
ATOM     71  C   UNL A   1      49.178  26.626  29.048  1.00  0.00     0.009 A 
ATOM     72  C   UNL A   1      49.937  25.361  31.418  1.00  0.00     0.001 A 
ATOM     73  C   UNL A   1      50.486  26.166  29.208  1.00  0.00     0.001 A 
ATOM     74  C   UNL A   1      50.867  25.543  30.396  1.00  0.00     0.000 A 
ENDBRANCH  55  69
BRANCH  56  75
ATOM     75  C   UNL A   1      38.692  29.211  28.994  1.00  0.00    -0.014 A 
ATOM     76  C   UNL A   1      37.820  29.070  30.084  1.00  0.00     0.009 A 
ATOM     77  C   UNL A   1      38.197  29.742  27.793  1.00  0.00     0.009 A 
ATOM     78  C   UNL A   1      36.476  29.432  29.967  1.00  0.00     0.001 A 
ATOM     79  C   UNL A   1      36.858  30.124  27.686  1.00  0.00     0.001 A 
ATOM     80  C   UNL A   1      35.998  29.961  28.770  1.00  0.00     0.000 A 
ENDBRANCH  56  75
BRANCH  68  81
ATOM     81  C   UNL A   1      44.366  32.365  31.492  1.00  0.00    -0.014 A 
ATOM     82  C   UNL A   1      44.666  33.469  30.681  1.00  0.00     0.009 A 
ATOM     83  C   UNL A   1      44.214  32.548  32.874  1.00  0.00     0.009 A 
ATOM     84  C   UNL A   1      44.829  34.734  31.249  1.00  0.00     0.001 A 
ATOM     85  C   UNL A   1      44.356  33.818  33.435  1.00  0.00     0.001 A 
ATOM     86  C   UNL A   1      44.668  34.907  32.624  1.00  0.00     0.000 A 
ENDBRANCH  68  81
ENDBRANCH  42  43
ENDBRANCH  34  37
ENDBRANCH  32  33
ENDBRANCH  31  32
ENDBRANCH  30  31
ENDBRANCH   1  30
TORSDOF 18
ENDMDL
MODEL 2
REMARK VINA RESULT:     -11.0      3.032      9.023
REMARK SMILES CC(C)Cc1s/c(=N/C(=O)CCC(=O)Nc2nccs2)[nH]c1C(=O)NCCCCNC(=O)c1ccc(-c2c3nc(c(-c4ccccc4)c4ccc([nH]4)c(-c4ccccc4)c4nc(c(-c5ccccc5)c5ccc2[nH]5)C=C4)C=C3)cc1
REMARK SMILES IDX 26 1 25 2 23 3 24 4 22 6 5 7 6 8 7 9 21 10 8 11 4 13 2 14
REMARK SMILES IDX 1 15 3 16 9 17 10 18 11 19 12 20 13 21 14 22 15 23 16 25
REMARK SMILES IDX 17 26 20 27 18 28 19 29 27 30 28 31 29 32 30 33 31 34 32 36
REMARK SMILES IDX 33 37 34 38 80 39 35 40 79 41 36 42 37 43 38 44 73 45 39 46
REMARK SMILES IDX 78 47 72 48 74 49 40 50 77 51 71 52 70 53 41 55 63 56 48 57
REMARK SMILES IDX 62 58 49 59 52 60 61 61 75 62 50 63 51 64 60 66 76 67 53 68
REMARK SMILES IDX 42 69 43 70 47 71 44 72 46 73 45 74 64 75 65 76 69 77 66 78
REMARK SMILES IDX 68 79 67 80 54 81 55 82 59 83 56 84 58 85 57 86
REMARK H PARENT 25 5 21 12 15 24 30 35 74 54 52 65
REMARK Flexibility Score: inf
ROOT
ATOM      1  C   UNL A   1      32.450  28.045  27.144  1.00  0.00     0.116 C 
ENDROOT
BRANCH   1   2
ATOM      2  N   UNL A   1      31.404  27.057  26.986  1.00  0.00    -0.351 N 
ATOM      3  C   UNL A   1      31.222  26.071  26.070  1.00  0.00     0.268 C 
ATOM      4  O   UNL A   1      30.244  25.330  26.208  1.00  0.00    -0.268 OA
ATOM      5  H   UNL A   1      30.696  27.106  27.669  1.00  0.00     0.163 HD
BRANCH   3   6
ATOM      6  C   UNL A   1      32.200  25.757  24.977  1.00  0.00     0.119 A 
ATOM      7  C   UNL A   1      32.194  26.041  23.651  1.00  0.00     0.038 A 
ATOM      8  S   UNL A   1      33.601  25.287  22.854  1.00  0.00    -0.101 S 
ATOM      9  C   UNL A   1      34.026  24.410  24.336  1.00  0.00     0.190 A 
ATOM     10  N   UNL A   1      33.209  24.863  25.326  1.00  0.00    -0.326 N 
ATOM     11  N   UNL A   1      34.916  23.494  24.257  1.00  0.00    -0.185 NA
ATOM     12  H   UNL A   1      33.325  24.567  26.257  1.00  0.00     0.169 HD
BRANCH   7  13
ATOM     13  C   UNL A   1      31.263  26.809  22.762  1.00  0.00     0.052 C 
BRANCH  13  14
ATOM     14  C   UNL A   1      31.291  28.354  22.830  1.00  0.00    -0.012 C 
ATOM     15  C   UNL A   1      30.355  28.999  23.852  1.00  0.00     0.008 C 
ATOM     16  C   UNL A   1      32.728  28.828  23.087  1.00  0.00     0.008 C 
ENDBRANCH  13  14
ENDBRANCH   7  13
BRANCH  11  17
ATOM     17  C   UNL A   1      35.120  22.702  25.355  1.00  0.00     0.248 C 
ATOM     18  O   UNL A   1      35.484  23.103  26.458  1.00  0.00    -0.273 OA
BRANCH  17  19
ATOM     19  C   UNL A   1      34.907  21.228  25.068  1.00  0.00     0.112 C 
BRANCH  19  20
ATOM     20  C   UNL A   1      33.512  20.703  25.385  1.00  0.00     0.110 C 
BRANCH  20  21
ATOM     21  C   UNL A   1      32.627  20.500  24.168  1.00  0.00     0.226 C 
ATOM     22  O   UNL A   1      32.182  21.480  23.563  1.00  0.00    -0.275 OA
ATOM     23  N   UNL A   1      32.333  19.259  23.693  1.00  0.00    -0.302 N 
ATOM     24  H   UNL A   1      31.856  19.219  22.832  1.00  0.00     0.172 HD
BRANCH  23  25
ATOM     25  C   UNL A   1      32.629  18.068  24.282  1.00  0.00     0.189 A 
ATOM     26  N   UNL A   1      32.124  17.542  25.368  1.00  0.00    -0.229 NA
ATOM     27  S   UNL A   1      33.764  17.117  23.436  1.00  0.00    -0.105 S 
ATOM     28  C   UNL A   1      32.637  16.274  25.546  1.00  0.00     0.125 A 
ATOM     29  C   UNL A   1      33.556  15.872  24.601  1.00  0.00     0.088 A 
ENDBRANCH  23  25
ENDBRANCH  20  21
ENDBRANCH  19  20
ENDBRANCH  17  19
ENDBRANCH  11  17
ENDBRANCH   3   6
ENDBRANCH   1   2
BRANCH   1  30
ATOM     30  C   UNL A   1      31.842  29.440  27.270  1.00  0.00     0.023 C 
BRANCH  30  31
ATOM     31  C   UNL A   1      32.538  30.550  26.505  1.00  0.00     0.023 C 
BRANCH  31  32
ATOM     32  C   UNL A   1      33.389  31.437  27.394  1.00  0.00     0.116 C 
BRANCH  32  33
ATOM     33  N   UNL A   1      32.810  32.762  27.617  1.00  0.00    -0.352 N 
ATOM     34  C   UNL A   1      33.282  33.797  28.389  1.00  0.00     0.251 C 
ATOM     35  H   UNL A   1      31.962  32.937  27.149  1.00  0.00     0.163 HD
ATOM     36  O   UNL A   1      32.626  34.822  28.539  1.00  0.00    -0.269 OA
BRANCH  34  37
ATOM     37  C   UNL A   1      34.570  33.623  29.084  1.00  0.00     0.039 A 
ATOM     38  C   UNL A   1      34.620  32.824  30.227  1.00  0.00     0.014 A 
ATOM     39  C   UNL A   1      35.735  34.136  28.515  1.00  0.00     0.014 A 
ATOM     40  C   UNL A   1      35.861  32.438  30.732  1.00  0.00     0.010 A 
ATOM     41  C   UNL A   1      36.961  33.659  28.947  1.00  0.00     0.010 A 
ATOM     42  C   UNL A   1      37.037  32.795  30.052  1.00  0.00    -0.014 A 
BRANCH  42  43
ATOM     43  C   UNL A   1      38.364  32.271  30.449  1.00  0.00     0.031 A 
ATOM     44  C   UNL A   1      38.862  30.986  29.850  1.00  0.00     0.074 A 
ATOM     45  C   UNL A   1      39.060  32.880  31.430  1.00  0.00     0.049 A 
ATOM     46  N   UNL A   1      39.907  30.273  30.177  1.00  0.00    -0.248 NA
ATOM     47  C   UNL A   1      38.048  30.401  28.771  1.00  0.00     0.031 C 
ATOM     48  C   UNL A   1      38.655  34.099  32.136  1.00  0.00     0.029 A 
ATOM     49  N   UNL A   1      40.254  32.542  32.016  1.00  0.00    -0.354 N 
ATOM     50  C   UNL A   1      39.849  29.139  29.379  1.00  0.00     0.074 A 
ATOM     51  C   UNL A   1      38.642  29.233  28.588  1.00  0.00     0.031 C 
ATOM     52  C   UNL A   1      39.601  34.425  33.033  1.00  0.00     0.029 A 
ATOM     53  C   UNL A   1      40.652  33.414  33.000  1.00  0.00     0.049 A 
ATOM     54  H   UNL A   1      40.777  31.749  31.755  1.00  0.00     0.167 HD
ATOM     55  C   UNL A   1      40.734  28.118  29.294  1.00  0.00     0.031 A 
ATOM     56  C   UNL A   1      41.737  33.395  33.796  1.00  0.00     0.031 A 
ATOM     57  C   UNL A   1      41.958  28.053  30.043  1.00  0.00     0.049 A 
ATOM     58  C   UNL A   1      42.719  32.266  33.664  1.00  0.00     0.074 A 
ATOM     59  C   UNL A   1      42.969  27.114  29.960  1.00  0.00     0.029 A 
ATOM     60  N   UNL A   1      42.338  28.974  31.006  1.00  0.00    -0.354 N 
ATOM     61  N   UNL A   1      42.685  31.235  32.855  1.00  0.00    -0.248 NA
ATOM     62  C   UNL A   1      43.887  32.298  34.554  1.00  0.00     0.031 C 
ATOM     63  C   UNL A   1      43.947  27.446  30.903  1.00  0.00     0.029 A 
ATOM     64  C   UNL A   1      43.560  28.613  31.543  1.00  0.00     0.049 A 
ATOM     65  H   UNL A   1      41.815  29.766  31.270  1.00  0.00     0.167 HD
ATOM     66  C   UNL A   1      43.831  30.502  33.129  1.00  0.00     0.074 A 
ATOM     67  C   UNL A   1      44.549  31.216  34.166  1.00  0.00     0.031 C 
ATOM     68  C   UNL A   1      44.250  29.339  32.576  1.00  0.00     0.031 A 
BRANCH  55  69
ATOM     69  C   UNL A   1      40.404  26.999  28.349  1.00  0.00    -0.014 A 
ATOM     70  C   UNL A   1      40.893  26.991  27.033  1.00  0.00     0.009 A 
ATOM     71  C   UNL A   1      39.599  25.935  28.782  1.00  0.00     0.009 A 
ATOM     72  C   UNL A   1      40.549  25.960  26.158  1.00  0.00     0.001 A 
ATOM     73  C   UNL A   1      39.280  24.891  27.912  1.00  0.00     0.001 A 
ATOM     74  C   UNL A   1      39.746  24.910  26.598  1.00  0.00     0.000 A 
ENDBRANCH  55  69
BRANCH  56  75
ATOM     75  C   UNL A   1      41.962  34.485  34.780  1.00  0.00    -0.014 A 
ATOM     76  C   UNL A   1      41.462  34.371  36.086  1.00  0.00     0.009 A 
ATOM     77  C   UNL A   1      42.674  35.641  34.424  1.00  0.00     0.009 A 
ATOM     78  C   UNL A   1      41.652  35.402  37.009  1.00  0.00     0.001 A 
ATOM     79  C   UNL A   1      42.881  36.660  35.356  1.00  0.00     0.001 A 
ATOM     80  C   UNL A   1      42.363  36.543  36.644  1.00  0.00     0.000 A 
ENDBRANCH  56  75
BRANCH  68  81
ATOM     81  C   UNL A   1      45.549  28.775  33.073  1.00  0.00    -0.014 A 
ATOM     82  C   UNL A   1      45.575  27.857  34.133  1.00  0.00     0.009 A 
ATOM     83  C   UNL A   1      46.749  29.124  32.436  1.00  0.00     0.009 A 
ATOM     84  C   UNL A   1      46.787  27.311  34.558  1.00  0.00     0.001 A 
ATOM     85  C   UNL A   1      47.955  28.559  32.850  1.00  0.00     0.001 A 
ATOM     86  C   UNL A   1      47.974  27.658  33.913  1.00  0.00     0.000 A 
ENDBRANCH  68  81
ENDBRANCH  42  43
ENDBRANCH  34  37
ENDBRANCH  32  33
ENDBRANCH  31  32
ENDBRANCH  30  31
ENDBRANCH   1  30
TORSDOF 18
ENDMDL
MODEL 3
REMARK VINA RESULT:     -10.7      3.333      7.839
REMARK SMILES CC(C)Cc1s/c(=N/C(=O)CCC(=O)Nc2nccs2)[nH]c1C(=O)NCCCCNC(=O)c1ccc(-c2c3nc(c(-c4ccccc4)c4ccc([nH]4)c(-c4ccccc4)c4nc(c(-c5ccccc5)c5ccc2[nH]5)C=C4)C=C3)cc1
REMARK SMILES IDX 26 1 25 2 23 3 24 4 22 6 5 7 6 8 7 9 21 10 8 11 4 13 2 14
REMARK SMILES IDX 1 15 3 16 9 17 10 18 11 19 12 20 13 21 14 22 15 23 16 25
REMARK SMILES IDX 17 26 20 27 18 28 19 29 27 30 28 31 29 32 30 33 31 34 32 36
REMARK SMILES IDX 33 37 34 38 80 39 35 40 79 41 36 42 37 43 38 44 73 45 39 46
REMARK SMILES IDX 78 47 72 48 74 49 40 50 77 51 71 52 70 53 41 55 63 56 48 57
REMARK SMILES IDX 62 58 49 59 52 60 61 61 75 62 50 63 51 64 60 66 76 67 53 68
REMARK SMILES IDX 42 69 43 70 47 71 44 72 46 73 45 74 64 75 65 76 69 77 66 78
REMARK SMILES IDX 68 79 67 80 54 81 55 82 59 83 56 84 58 85 57 86
REMARK H PARENT 25 5 21 12 15 24 30 35 74 54 52 65
REMARK Flexibility Score: inf
ROOT
ATOM      1  C   UNL A   1      32.326  26.990  26.077  1.00  0.00     0.116 C 
ENDROOT
BRANCH   1   2
ATOM      2  N   UNL A   1      31.609  25.914  26.730  1.00  0.00    -0.351 N 
ATOM      3  C   UNL A   1      31.368  24.631  26.357  1.00  0.00     0.268 C 
ATOM      4  O   UNL A   1      30.757  23.907  27.148  1.00  0.00    -0.268 OA
ATOM      5  H   UNL A   1      31.229  26.156  27.605  1.00  0.00     0.163 HD
BRANCH   3   6
ATOM      6  C   UNL A   1      31.905  24.013  25.100  1.00  0.00     0.119 A 
ATOM      7  C   UNL A   1      32.466  22.803  24.858  1.00  0.00     0.038 A 
ATOM      8  S   UNL A   1      33.013  22.707  23.161  1.00  0.00    -0.101 S 
ATOM      9  C   UNL A   1      32.661  24.427  22.905  1.00  0.00     0.190 A 
ATOM     10  N   UNL A   1      32.027  24.883  24.019  1.00  0.00    -0.326 N 
ATOM     11  N   UNL A   1      33.087  24.971  21.828  1.00  0.00    -0.185 NA
ATOM     12  H   UNL A   1      31.667  25.798  24.061  1.00  0.00     0.169 HD
BRANCH   7  13
ATOM     13  C   UNL A   1      32.725  21.594  25.706  1.00  0.00     0.052 C 
BRANCH  13  14
ATOM     14  C   UNL A   1      33.995  21.576  26.588  1.00  0.00    -0.012 C 
ATOM     15  C   UNL A   1      35.242  22.222  25.984  1.00  0.00     0.008 C 
ATOM     16  C   UNL A   1      33.687  22.231  27.941  1.00  0.00     0.008 C 
ENDBRANCH  13  14
ENDBRANCH   7  13
BRANCH  11  17
ATOM     17  C   UNL A   1      32.969  26.330  21.708  1.00  0.00     0.248 C 
ATOM     18  O   UNL A   1      33.896  27.131  21.797  1.00  0.00    -0.273 OA
BRANCH  17  19
ATOM     19  C   UNL A   1      31.535  26.782  21.506  1.00  0.00     0.112 C 
BRANCH  19  20
ATOM     20  C   UNL A   1      31.063  27.877  22.455  1.00  0.00     0.110 C 
BRANCH  20  21
ATOM     21  C   UNL A   1      29.742  27.582  23.143  1.00  0.00     0.226 C 
ATOM     22  O   UNL A   1      29.576  26.501  23.716  1.00  0.00    -0.275 OA
ATOM     23  N   UNL A   1      28.733  28.496  23.183  1.00  0.00    -0.302 N 
ATOM     24  H   UNL A   1      27.961  28.273  23.752  1.00  0.00     0.172 HD
BRANCH  23  25
ATOM     25  C   UNL A   1      28.681  29.683  22.520  1.00  0.00     0.189 A 
ATOM     26  N   UNL A   1      28.467  29.903  21.249  1.00  0.00    -0.229 NA
ATOM     27  S   UNL A   1      28.850  31.061  23.510  1.00  0.00    -0.105 S 
ATOM     28  C   UNL A   1      28.396  31.263  21.023  1.00  0.00     0.125 A 
ATOM     29  C   UNL A   1      28.592  32.055  22.134  1.00  0.00     0.088 A 
ENDBRANCH  23  25
ENDBRANCH  20  21
ENDBRANCH  19  20
ENDBRANCH  17  19
ENDBRANCH  11  17
ENDBRANCH   3   6
ENDBRANCH   1   2
BRANCH   1  30
ATOM     30  C   UNL A   1      32.673  28.081  27.087  1.00  0.00     0.023 C 
BRANCH  30  31
ATOM     31  C   UNL A   1      32.088  29.456  26.821  1.00  0.00     0.023 C 
BRANCH  31  32
ATOM     32  C   UNL A   1      33.079  30.577  27.064  1.00  0.00     0.116 C 
BRANCH  32  33
ATOM     33  N   UNL A   1      32.455  31.898  27.137  1.00  0.00    -0.352 N 
ATOM     34  C   UNL A   1      32.908  33.039  27.757  1.00  0.00     0.251 C 
ATOM     35  H   UNL A   1      31.589  31.983  26.677  1.00  0.00     0.163 HD
ATOM     36  O   UNL A   1      32.216  34.051  27.797  1.00  0.00    -0.269 OA
BRANCH  34  37
ATOM     37  C   UNL A   1      34.219  33.001  28.427  1.00  0.00     0.039 A 
ATOM     38  C   UNL A   1      34.312  32.437  29.701  1.00  0.00     0.014 A 
ATOM     39  C   UNL A   1      35.362  33.392  27.730  1.00  0.00     0.014 A 
ATOM     40  C   UNL A   1      35.572  32.154  30.227  1.00  0.00     0.010 A 
ATOM     41  C   UNL A   1      36.604  33.005  28.204  1.00  0.00     0.010 A 
ATOM     42  C   UNL A   1      36.722  32.371  29.451  1.00  0.00    -0.014 A 
BRANCH  42  43
ATOM     43  C   UNL A   1      38.064  31.931  29.895  1.00  0.00     0.031 A 
ATOM     44  C   UNL A   1      38.630  30.640  29.375  1.00  0.00     0.074 A 
ATOM     45  C   UNL A   1      38.715  32.624  30.852  1.00  0.00     0.049 A 
ATOM     46  N   UNL A   1      39.701  29.994  29.756  1.00  0.00    -0.248 NA
ATOM     47  C   UNL A   1      37.862  29.960  28.318  1.00  0.00     0.031 C 
ATOM     48  C   UNL A   1      38.244  33.859  31.484  1.00  0.00     0.029 A 
ATOM     49  N   UNL A   1      39.913  32.373  31.472  1.00  0.00    -0.354 N 
ATOM     50  C   UNL A   1      39.708  28.817  29.021  1.00  0.00     0.074 A 
ATOM     51  C   UNL A   1      38.512  28.812  28.208  1.00  0.00     0.031 C 
ATOM     52  C   UNL A   1      39.158  34.276  32.375  1.00  0.00     0.029 A 
ATOM     53  C   UNL A   1      40.254  33.315  32.413  1.00  0.00     0.049 A 
ATOM     54  H   UNL A   1      40.476  31.593  31.263  1.00  0.00     0.167 HD
ATOM     55  C   UNL A   1      40.640  27.836  29.004  1.00  0.00     0.031 A 
ATOM     56  C   UNL A   1      41.325  33.389  33.225  1.00  0.00     0.031 A 
ATOM     57  C   UNL A   1      41.852  27.868  29.773  1.00  0.00     0.049 A 
ATOM     58  C   UNL A   1      42.360  32.301  33.169  1.00  0.00     0.074 A 
ATOM     59  C   UNL A   1      42.906  26.973  29.757  1.00  0.00     0.029 A 
ATOM     60  N   UNL A   1      42.174  28.856  30.691  1.00  0.00    -0.354 N 
ATOM     61  N   UNL A   1      42.386  31.227  32.417  1.00  0.00    -0.248 NA
ATOM     62  C   UNL A   1      43.510  32.435  34.073  1.00  0.00     0.031 C 
ATOM     63  C   UNL A   1      43.853  27.401  30.694  1.00  0.00     0.029 A 
ATOM     64  C   UNL A   1      43.402  28.581  31.264  1.00  0.00     0.049 A 
ATOM     65  H   UNL A   1      41.611  29.636  30.902  1.00  0.00     0.167 HD
ATOM     66  C   UNL A   1      43.560  30.564  32.748  1.00  0.00     0.074 A 
ATOM     67  C   UNL A   1      44.226  31.365  33.754  1.00  0.00     0.031 C 
ATOM     68  C   UNL A   1      44.041  29.393  32.266  1.00  0.00     0.031 A 
BRANCH  55  69
ATOM     69  C   UNL A   1      40.377  26.653  28.117  1.00  0.00    -0.014 A 
ATOM     70  C   UNL A   1      40.848  26.618  26.795  1.00  0.00     0.009 A 
ATOM     71  C   UNL A   1      39.657  25.556  28.613  1.00  0.00     0.009 A 
ATOM     72  C   UNL A   1      40.566  25.525  25.974  1.00  0.00     0.001 A 
ATOM     73  C   UNL A   1      39.400  24.453  27.797  1.00  0.00     0.001 A 
ATOM     74  C   UNL A   1      39.846  24.443  26.476  1.00  0.00     0.000 A 
ENDBRANCH  55  69
BRANCH  56  75
ATOM     75  C   UNL A   1      41.484  34.540  34.150  1.00  0.00    -0.014 A 
ATOM     76  C   UNL A   1      42.222  35.666  33.755  1.00  0.00     0.009 A 
ATOM     77  C   UNL A   1      40.902  34.523  35.427  1.00  0.00     0.009 A 
ATOM     78  C   UNL A   1      42.392  36.743  34.629  1.00  0.00     0.001 A 
ATOM     79  C   UNL A   1      41.055  35.610  36.290  1.00  0.00     0.001 A 
ATOM     80  C   UNL A   1      41.807  36.715  35.893  1.00  0.00     0.000 A 
ENDBRANCH  56  75
BRANCH  68  81
ATOM     81  C   UNL A   1      45.355  28.918  32.811  1.00  0.00    -0.014 A 
ATOM     82  C   UNL A   1      46.564  29.325  32.228  1.00  0.00     0.009 A 
ATOM     83  C   UNL A   1      45.383  28.104  33.953  1.00  0.00     0.009 A 
ATOM     84  C   UNL A   1      47.781  28.908  32.771  1.00  0.00     0.001 A 
ATOM     85  C   UNL A   1      46.601  27.707  34.505  1.00  0.00     0.001 A 
ATOM     86  C   UNL A   1      47.797  28.104  33.911  1.00  0.00     0.000 A 
ENDBRANCH  68  81
ENDBRANCH  42  43
ENDBRANCH  34  37
ENDBRANCH  32  33
ENDBRANCH  31  32
ENDBRANCH  30  31
ENDBRANCH   1  30
TORSDOF 18
ENDMDL
