MODEL 1
REMARK VINA RESULT:     -10.2      0.000      0.000
REMARK SMILES CCC[C@H](C)C(=O)N1CC[C@H](C(=O)NCCCCNC(=O)c2ccc(-c3c4nc(c(-c5ccccc5)c5ccc([nH]5)c(-c5ccccc5)c5nc(c(-c6ccccc6)c6ccc3[nH]6)C=C5)C=C4)cc2)[C@@H]1C
REMARK SMILES IDX 15 1 14 2 12 3 13 4 11 6 8 7 9 8 70 9 10 10 71 11 6 12 7 13
REMARK SMILES IDX 4 14 5 15 3 16 2 17 1 18 16 19 17 20 18 21 19 22 20 23 21 25
REMARK SMILES IDX 22 26 23 27 69 28 24 29 68 30 25 31 26 32 27 33 62 34 28 35
REMARK SMILES IDX 67 36 61 37 63 38 29 39 66 40 60 41 59 42 30 44 52 45 37 46
REMARK SMILES IDX 51 47 38 48 41 49 50 50 64 51 39 52 40 53 49 55 65 56 42 57
REMARK SMILES IDX 31 58 32 59 36 60 33 61 35 62 34 63 53 64 54 65 58 66 55 67
REMARK SMILES IDX 57 68 56 69 43 70 44 71 48 72 45 73 47 74 46 75
REMARK H PARENT 14 5 19 24 63 43 41 54
REMARK Flexibility Score: inf
ROOT
ATOM      1  C   UNL A   1      35.164  20.467  24.984  1.00  0.00     0.116 C 
ENDROOT
BRANCH   1   2
ATOM      2  N   UNL A   1      34.914  21.066  26.280  1.00  0.00    -0.356 N 
ATOM      3  C   UNL A   1      34.049  22.030  26.684  1.00  0.00     0.225 C 
ATOM      4  O   UNL A   1      34.000  22.240  27.902  1.00  0.00    -0.275 OA
ATOM      5  H   UNL A   1      35.478  20.705  27.002  1.00  0.00     0.163 HD
BRANCH   3   6
ATOM      6  C   UNL A   1      33.174  22.868  25.751  1.00  0.00     0.102 C 
ATOM      7  N   UNL A   1      32.802  25.214  25.967  1.00  0.00    -0.339 N 
ATOM      8  C   UNL A   1      31.722  24.555  26.685  1.00  0.00     0.120 C 
ATOM      9  C   UNL A   1      33.668  24.251  25.274  1.00  0.00     0.094 C 
ATOM     10  C   UNL A   1      31.764  23.097  26.284  1.00  0.00     0.037 C 
ATOM     11  C   UNL A   1      35.174  24.431  25.477  1.00  0.00     0.032 C 
BRANCH   7  12
ATOM     12  C   UNL A   1      32.850  26.588  26.025  1.00  0.00     0.225 C 
ATOM     13  O   UNL A   1      33.949  27.154  26.082  1.00  0.00    -0.275 OA
BRANCH  12  14
ATOM     14  C   UNL A   1      31.583  27.407  26.295  1.00  0.00     0.075 C 
ATOM     15  C   UNL A   1      31.553  28.219  27.578  1.00  0.00     0.018 C 
BRANCH  14  16
ATOM     16  C   UNL A   1      31.230  28.291  25.084  1.00  0.00     0.013 C 
BRANCH  16  17
ATOM     17  C   UNL A   1      30.424  27.596  23.976  1.00  0.00    -0.003 C 
ATOM     18  C   UNL A   1      30.302  28.405  22.693  1.00  0.00     0.004 C 
ENDBRANCH  16  17
ENDBRANCH  14  16
ENDBRANCH  12  14
ENDBRANCH   7  12
ENDBRANCH   3   6
ENDBRANCH   1   2
BRANCH   1  19
ATOM     19  C   UNL A   1      36.620  20.046  24.808  1.00  0.00     0.023 C 
BRANCH  19  20
ATOM     20  C   UNL A   1      37.616  21.205  24.815  1.00  0.00     0.023 C 
BRANCH  20  21
ATOM     21  C   UNL A   1      38.697  21.124  25.888  1.00  0.00     0.116 C 
BRANCH  21  22
ATOM     22  N   UNL A   1      39.581  19.975  25.754  1.00  0.00    -0.352 N 
ATOM     23  C   UNL A   1      40.924  19.908  26.047  1.00  0.00     0.251 C 
ATOM     24  H   UNL A   1      39.170  19.147  25.413  1.00  0.00     0.163 HD
ATOM     25  O   UNL A   1      41.578  18.899  25.810  1.00  0.00    -0.269 OA
BRANCH  23  26
ATOM     26  C   UNL A   1      41.580  21.102  26.613  1.00  0.00     0.039 A 
ATOM     27  C   UNL A   1      42.110  22.055  25.741  1.00  0.00     0.014 A 
ATOM     28  C   UNL A   1      41.590  21.311  27.995  1.00  0.00     0.014 A 
ATOM     29  C   UNL A   1      42.576  23.266  26.254  1.00  0.00     0.010 A 
ATOM     30  C   UNL A   1      41.995  22.543  28.496  1.00  0.00     0.010 A 
ATOM     31  C   UNL A   1      42.479  23.535  27.629  1.00  0.00    -0.014 A 
BRANCH  31  32
ATOM     32  C   UNL A   1      42.847  24.861  28.180  1.00  0.00     0.031 A 
ATOM     33  C   UNL A   1      41.793  25.906  28.400  1.00  0.00     0.074 A 
ATOM     34  C   UNL A   1      44.145  25.151  28.398  1.00  0.00     0.049 A 
ATOM     35  N   UNL A   1      41.930  27.144  28.800  1.00  0.00    -0.248 NA
ATOM     36  C   UNL A   1      40.404  25.516  28.108  1.00  0.00     0.031 C 
ATOM     37  C   UNL A   1      45.269  24.239  28.174  1.00  0.00     0.029 A 
ATOM     38  N   UNL A   1      44.738  26.304  28.847  1.00  0.00    -0.354 N 
ATOM     39  C   UNL A   1      40.653  27.687  28.787  1.00  0.00     0.074 A 
ATOM     40  C   UNL A   1      39.760  26.658  28.300  1.00  0.00     0.031 C 
ATOM     41  C   UNL A   1      46.412  24.862  28.504  1.00  0.00     0.029 A 
ATOM     42  C   UNL A   1      46.106  26.223  28.930  1.00  0.00     0.049 A 
ATOM     43  H   UNL A   1      44.230  27.112  29.086  1.00  0.00     0.167 HD
ATOM     44  C   UNL A   1      40.257  28.926  29.160  1.00  0.00     0.031 A 
ATOM     45  C   UNL A   1      47.014  27.145  29.301  1.00  0.00     0.031 A 
ATOM     46  C   UNL A   1      41.141  29.944  29.661  1.00  0.00     0.049 A 
ATOM     47  C   UNL A   1      46.549  28.512  29.716  1.00  0.00     0.074 A 
ATOM     48  C   UNL A   1      40.825  31.203  30.137  1.00  0.00     0.029 A 
ATOM     49  N   UNL A   1      42.518  29.816  29.748  1.00  0.00    -0.354 N 
ATOM     50  N   UNL A   1      45.327  28.985  29.771  1.00  0.00    -0.248 NA
ATOM     51  C   UNL A   1      47.586  29.467  30.127  1.00  0.00     0.031 C 
ATOM     52  C   UNL A   1      42.016  31.855  30.472  1.00  0.00     0.029 A 
ATOM     53  C   UNL A   1      43.069  30.983  30.246  1.00  0.00     0.049 A 
ATOM     54  H   UNL A   1      43.029  29.013  29.494  1.00  0.00     0.167 HD
ATOM     55  C   UNL A   1      45.448  30.286  30.241  1.00  0.00     0.074 A 
ATOM     56  C   UNL A   1      46.858  30.522  30.470  1.00  0.00     0.031 C 
ATOM     57  C   UNL A   1      44.475  31.203  30.463  1.00  0.00     0.031 A 
BRANCH  44  58
ATOM     58  C   UNL A   1      38.795  29.248  29.033  1.00  0.00    -0.014 A 
ATOM     59  C   UNL A   1      37.923  29.111  30.124  1.00  0.00     0.009 A 
ATOM     60  C   UNL A   1      38.289  29.722  27.813  1.00  0.00     0.009 A 
ATOM     61  C   UNL A   1      36.565  29.404  29.985  1.00  0.00     0.001 A 
ATOM     62  C   UNL A   1      36.936  30.039  27.684  1.00  0.00     0.001 A 
ATOM     63  C   UNL A   1      36.074  29.871  28.767  1.00  0.00     0.000 A 
ENDBRANCH  44  58
BRANCH  45  64
ATOM     64  C   UNL A   1      48.459  26.801  29.311  1.00  0.00    -0.014 A 
ATOM     65  C   UNL A   1      49.045  26.233  30.452  1.00  0.00     0.009 A 
ATOM     66  C   UNL A   1      49.258  27.038  28.182  1.00  0.00     0.009 A 
ATOM     67  C   UNL A   1      50.408  25.929  30.470  1.00  0.00     0.001 A 
ATOM     68  C   UNL A   1      50.616  26.711  28.195  1.00  0.00     0.001 A 
ATOM     69  C   UNL A   1      51.191  26.164  29.341  1.00  0.00     0.000 A 
ENDBRANCH  45  64
BRANCH  57  70
ATOM     70  C   UNL A   1      44.903  32.538  30.999  1.00  0.00    -0.014 A 
ATOM     71  C   UNL A   1      45.017  32.760  32.379  1.00  0.00     0.009 A 
ATOM     72  C   UNL A   1      45.237  33.570  30.109  1.00  0.00     0.009 A 
ATOM     73  C   UNL A   1      45.434  34.003  32.860  1.00  0.00     0.001 A 
ATOM     74  C   UNL A   1      45.678  34.803  30.593  1.00  0.00     0.001 A 
ATOM     75  C   UNL A   1      45.769  35.021  31.967  1.00  0.00     0.000 A 
ENDBRANCH  57  70
ENDBRANCH  31  32
ENDBRANCH  23  26
ENDBRANCH  21  22
ENDBRANCH  20  21
ENDBRANCH  19  20
ENDBRANCH   1  19
TORSDOF 15
ENDMDL
MODEL 2
REMARK VINA RESULT:     -10.2      2.314      7.119
REMARK SMILES CCC[C@H](C)C(=O)N1CC[C@H](C(=O)NCCCCNC(=O)c2ccc(-c3c4nc(c(-c5ccccc5)c5ccc([nH]5)c(-c5ccccc5)c5nc(c(-c6ccccc6)c6ccc3[nH]6)C=C5)C=C4)cc2)[C@@H]1C
REMARK SMILES IDX 15 1 14 2 12 3 13 4 11 6 8 7 9 8 70 9 10 10 71 11 6 12 7 13
REMARK SMILES IDX 4 14 5 15 3 16 2 17 1 18 16 19 17 20 18 21 19 22 20 23 21 25
REMARK SMILES IDX 22 26 23 27 69 28 24 29 68 30 25 31 26 32 27 33 62 34 28 35
REMARK SMILES IDX 67 36 61 37 63 38 29 39 66 40 60 41 59 42 30 44 52 45 37 46
REMARK SMILES IDX 51 47 38 48 41 49 50 50 64 51 39 52 40 53 49 55 65 56 42 57
REMARK SMILES IDX 31 58 32 59 36 60 33 61 35 62 34 63 53 64 54 65 58 66 55 67
REMARK SMILES IDX 57 68 56 69 43 70 44 71 48 72 45 73 47 74 46 75
REMARK H PARENT 14 5 19 24 63 43 41 54
REMARK Flexibility Score: inf
ROOT
ATOM      1  C   UNL A   1      38.043  23.782  26.149  1.00  0.00     0.116 C 
ENDROOT
BRANCH   1   2
ATOM      2  N   UNL A   1      37.765  23.497  24.755  1.00  0.00    -0.356 N 
ATOM      3  C   UNL A   1      36.618  23.188  24.102  1.00  0.00     0.225 C 
ATOM      4  O   UNL A   1      36.696  23.114  22.870  1.00  0.00    -0.275 OA
ATOM      5  H   UNL A   1      38.559  23.535  24.174  1.00  0.00     0.163 HD
BRANCH   3   6
ATOM      6  C   UNL A   1      35.273  22.909  24.777  1.00  0.00     0.102 C 
ATOM      7  N   UNL A   1      33.709  21.253  24.073  1.00  0.00    -0.339 N 
ATOM      8  C   UNL A   1      33.326  22.492  23.413  1.00  0.00     0.120 C 
ATOM      9  C   UNL A   1      34.823  21.450  25.010  1.00  0.00     0.094 C 
ATOM     10  C   UNL A   1      34.097  23.599  24.097  1.00  0.00     0.037 C 
ATOM     11  C   UNL A   1      35.982  20.459  24.898  1.00  0.00     0.032 C 
BRANCH   7  12
ATOM     12  C   UNL A   1      32.996  20.121  23.749  1.00  0.00     0.225 C 
ATOM     13  O   UNL A   1      31.966  20.225  23.072  1.00  0.00    -0.275 OA
BRANCH  12  14
ATOM     14  C   UNL A   1      33.297  18.782  24.433  1.00  0.00     0.075 C 
ATOM     15  C   UNL A   1      32.533  18.479  25.711  1.00  0.00     0.018 C 
BRANCH  14  16
ATOM     16  C   UNL A   1      33.173  17.615  23.436  1.00  0.00     0.013 C 
BRANCH  16  17
ATOM     17  C   UNL A   1      34.352  16.630  23.428  1.00  0.00    -0.003 C 
ATOM     18  C   UNL A   1      34.842  16.233  24.812  1.00  0.00     0.004 C 
ENDBRANCH  16  17
ENDBRANCH  14  16
ENDBRANCH  12  14
ENDBRANCH   7  12
ENDBRANCH   3   6
ENDBRANCH   1   2
BRANCH   1  19
ATOM     19  C   UNL A   1      39.294  23.068  26.652  1.00  0.00     0.023 C 
BRANCH  19  20
ATOM     20  C   UNL A   1      39.478  21.656  26.098  1.00  0.00     0.023 C 
BRANCH  20  21
ATOM     21  C   UNL A   1      40.402  20.755  26.912  1.00  0.00     0.116 C 
BRANCH  21  22
ATOM     22  N   UNL A   1      41.449  20.116  26.127  1.00  0.00    -0.352 N 
ATOM     23  C   UNL A   1      42.677  20.633  25.783  1.00  0.00     0.251 C 
ATOM     24  H   UNL A   1      41.256  19.205  25.804  1.00  0.00     0.163 HD
ATOM     25  O   UNL A   1      43.440  20.024  25.044  1.00  0.00    -0.269 OA
BRANCH  23  26
ATOM     26  C   UNL A   1      43.041  21.972  26.286  1.00  0.00     0.039 A 
ATOM     27  C   UNL A   1      43.126  23.031  25.380  1.00  0.00     0.014 A 
ATOM     28  C   UNL A   1      43.211  22.186  27.656  1.00  0.00     0.014 A 
ATOM     29  C   UNL A   1      43.298  24.329  25.861  1.00  0.00     0.010 A 
ATOM     30  C   UNL A   1      43.317  23.486  28.136  1.00  0.00     0.010 A 
ATOM     31  C   UNL A   1      43.349  24.570  27.243  1.00  0.00    -0.014 A 
BRANCH  31  32
ATOM     32  C   UNL A   1      43.401  25.949  27.782  1.00  0.00     0.031 A 
ATOM     33  C   UNL A   1      44.714  26.550  28.194  1.00  0.00     0.074 A 
ATOM     34  C   UNL A   1      42.254  26.627  27.981  1.00  0.00     0.049 A 
ATOM     35  N   UNL A   1      44.950  27.708  28.754  1.00  0.00    -0.248 NA
ATOM     36  C   UNL A   1      45.915  25.730  27.971  1.00  0.00     0.031 C 
ATOM     37  C   UNL A   1      40.910  26.134  27.670  1.00  0.00     0.029 A 
ATOM     38  N   UNL A   1      42.035  27.876  28.505  1.00  0.00    -0.354 N 
ATOM     39  C   UNL A   1      46.321  27.748  28.971  1.00  0.00     0.074 A 
ATOM     40  C   UNL A   1      46.858  26.481  28.520  1.00  0.00     0.031 C 
ATOM     41  C   UNL A   1      40.010  27.078  27.992  1.00  0.00     0.029 A 
ATOM     42  C   UNL A   1      40.708  28.225  28.561  1.00  0.00     0.049 A 
ATOM     43  H   UNL A   1      42.761  28.466  28.812  1.00  0.00     0.167 HD
ATOM     44  C   UNL A   1      47.068  28.753  29.484  1.00  0.00     0.031 A 
ATOM     45  C   UNL A   1      40.118  29.342  29.027  1.00  0.00     0.031 A 
ATOM     46  C   UNL A   1      46.537  30.018  29.916  1.00  0.00     0.049 A 
ATOM     47  C   UNL A   1      40.969  30.446  29.587  1.00  0.00     0.074 A 
ATOM     48  C   UNL A   1      47.222  31.127  30.379  1.00  0.00     0.029 A 
ATOM     49  N   UNL A   1      45.190  30.339  29.939  1.00  0.00    -0.354 N 
ATOM     50  N   UNL A   1      42.273  30.498  29.713  1.00  0.00    -0.248 NA
ATOM     51  C   UNL A   1      40.267  31.646  30.062  1.00  0.00     0.031 C 
ATOM     52  C   UNL A   1      46.284  32.106  30.723  1.00  0.00     0.029 A 
ATOM     53  C   UNL A   1      45.019  31.621  30.432  1.00  0.00     0.049 A 
ATOM     54  H   UNL A   1      44.461  29.745  29.646  1.00  0.00     0.167 HD
ATOM     55  C   UNL A   1      42.549  31.742  30.263  1.00  0.00     0.074 A 
ATOM     56  C   UNL A   1      41.280  32.419  30.431  1.00  0.00     0.031 C 
ATOM     57  C   UNL A   1      43.748  32.276  30.598  1.00  0.00     0.031 A 
BRANCH  44  58
ATOM     58  C   UNL A   1      48.545  28.516  29.611  1.00  0.00    -0.014 A 
ATOM     59  C   UNL A   1      49.088  27.909  30.755  1.00  0.00     0.009 A 
ATOM     60  C   UNL A   1      49.403  28.879  28.562  1.00  0.00     0.009 A 
ATOM     61  C   UNL A   1      50.465  27.706  30.861  1.00  0.00     0.001 A 
ATOM     62  C   UNL A   1      50.776  28.650  28.660  1.00  0.00     0.001 A 
ATOM     63  C   UNL A   1      51.308  28.073  29.812  1.00  0.00     0.000 A 
ENDBRANCH  44  58
BRANCH  45  64
ATOM     64  C   UNL A   1      38.641  29.480  28.968  1.00  0.00    -0.014 A 
ATOM     65  C   UNL A   1      38.010  29.861  27.774  1.00  0.00     0.009 A 
ATOM     66  C   UNL A   1      37.854  29.231  30.103  1.00  0.00     0.009 A 
ATOM     67  C   UNL A   1      36.623  30.012  27.723  1.00  0.00     0.001 A 
ATOM     68  C   UNL A   1      36.464  29.360  30.043  1.00  0.00     0.001 A 
ATOM     69  C   UNL A   1      35.851  29.757  28.856  1.00  0.00     0.000 A 
ENDBRANCH  45  64
BRANCH  57  70
ATOM     70  C   UNL A   1      43.745  33.668  31.161  1.00  0.00    -0.014 A 
ATOM     71  C   UNL A   1      43.684  33.887  32.545  1.00  0.00     0.009 A 
ATOM     72  C   UNL A   1      43.848  34.768  30.297  1.00  0.00     0.009 A 
ATOM     73  C   UNL A   1      43.702  35.189  33.052  1.00  0.00     0.001 A 
ATOM     74  C   UNL A   1      43.890  36.066  30.809  1.00  0.00     0.001 A 
ATOM     75  C   UNL A   1      43.809  36.275  32.185  1.00  0.00     0.000 A 
ENDBRANCH  57  70
ENDBRANCH  31  32
ENDBRANCH  23  26
ENDBRANCH  21  22
ENDBRANCH  20  21
ENDBRANCH  19  20
ENDBRANCH   1  19
TORSDOF 15
ENDMDL
MODEL 3
REMARK VINA RESULT:     -10.2      4.403      9.273
REMARK SMILES CCC[C@H](C)C(=O)N1CC[C@H](C(=O)NCCCCNC(=O)c2ccc(-c3c4nc(c(-c5ccccc5)c5ccc([nH]5)c(-c5ccccc5)c5nc(c(-c6ccccc6)c6ccc3[nH]6)C=C5)C=C4)cc2)[C@@H]1C
REMARK SMILES IDX 15 1 14 2 12 3 13 4 11 6 8 7 9 8 70 9 10 10 71 11 6 12 7 13
REMARK SMILES IDX 4 14 5 15 3 16 2 17 1 18 16 19 17 20 18 21 19 22 20 23 21 25
REMARK SMILES IDX 22 26 23 27 69 28 24 29 68 30 25 31 26 32 27 33 62 34 28 35
REMARK SMILES IDX 67 36 61 37 63 38 29 39 66 40 60 41 59 42 30 44 52 45 37 46
REMARK SMILES IDX 51 47 38 48 41 49 50 50 64 51 39 52 40 53 49 55 65 56 42 57
REMARK SMILES IDX 31 58 32 59 36 60 33 61 35 62 34 63 53 64 54 65 58 66 55 67
REMARK SMILES IDX 57 68 56 69 43 70 44 71 48 72 45 73 47 74 46 75
REMARK H PARENT 14 5 19 24 63 43 41 54
REMARK Flexibility Score: inf
ROOT
ATOM      1  C   UNL A   1      33.153  30.065  26.189  1.00  0.00     0.116 C 
ENDROOT
BRANCH   1   2
ATOM      2  N   UNL A   1      33.074  29.652  24.802  1.00  0.00    -0.356 N 
ATOM      3  C   UNL A   1      32.358  28.682  24.182  1.00  0.00     0.225 C 
ATOM      4  O   UNL A   1      32.427  28.659  22.948  1.00  0.00    -0.275 OA
ATOM      5  H   UNL A   1      33.649  30.174  24.197  1.00  0.00     0.163 HD
BRANCH   3   6
ATOM      6  C   UNL A   1      31.511  27.626  24.897  1.00  0.00     0.102 C 
ATOM      7  N   UNL A   1      31.529  25.294  24.399  1.00  0.00    -0.339 N 
ATOM      8  C   UNL A   1      30.458  25.879  23.607  1.00  0.00     0.120 C 
ATOM      9  C   UNL A   1      32.148  26.278  25.298  1.00  0.00     0.094 C 
ATOM     10  C   UNL A   1      30.229  27.271  24.153  1.00  0.00     0.037 C 
ATOM     11  C   UNL A   1      33.677  26.331  25.289  1.00  0.00     0.032 C 
BRANCH   7  12
ATOM     12  C   UNL A   1      31.792  23.956  24.212  1.00  0.00     0.225 C 
ATOM     13  O   UNL A   1      31.432  23.141  25.071  1.00  0.00    -0.275 OA
BRANCH  12  14
ATOM     14  C   UNL A   1      32.753  23.492  23.111  1.00  0.00     0.075 C 
ATOM     15  C   UNL A   1      33.153  24.524  22.071  1.00  0.00     0.018 C 
BRANCH  14  16
ATOM     16  C   UNL A   1      34.000  22.819  23.716  1.00  0.00     0.013 C 
BRANCH  16  17
ATOM     17  C   UNL A   1      35.296  23.637  23.625  1.00  0.00    -0.003 C 
ATOM     18  C   UNL A   1      36.516  22.827  23.212  1.00  0.00     0.004 C 
ENDBRANCH  16  17
ENDBRANCH  14  16
ENDBRANCH  12  14
ENDBRANCH   7  12
ENDBRANCH   3   6
ENDBRANCH   1   2
BRANCH   1  19
ATOM     19  C   UNL A   1      31.809  30.536  26.735  1.00  0.00     0.023 C 
BRANCH  19  20
ATOM     20  C   UNL A   1      31.617  32.052  26.715  1.00  0.00     0.023 C 
BRANCH  20  21
ATOM     21  C   UNL A   1      32.713  32.854  27.410  1.00  0.00     0.116 C 
BRANCH  21  22
ATOM     22  N   UNL A   1      32.348  34.234  27.695  1.00  0.00    -0.352 N 
ATOM     23  C   UNL A   1      32.946  35.096  28.586  1.00  0.00     0.251 C 
ATOM     24  H   UNL A   1      31.581  34.594  27.192  1.00  0.00     0.163 HD
ATOM     25  O   UNL A   1      32.489  36.212  28.797  1.00  0.00    -0.269 OA
BRANCH  23  26
ATOM     26  C   UNL A   1      34.132  34.627  29.328  1.00  0.00     0.039 A 
ATOM     27  C   UNL A   1      33.956  34.065  30.594  1.00  0.00     0.014 A 
ATOM     28  C   UNL A   1      35.396  34.668  28.732  1.00  0.00     0.014 A 
ATOM     29  C   UNL A   1      35.041  33.463  31.231  1.00  0.00     0.010 A 
ATOM     30  C   UNL A   1      36.459  34.011  29.339  1.00  0.00     0.010 A 
ATOM     31  C   UNL A   1      36.288  33.391  30.588  1.00  0.00    -0.014 A 
BRANCH  31  32
ATOM     32  C   UNL A   1      37.419  32.645  31.187  1.00  0.00     0.031 A 
ATOM     33  C   UNL A   1      38.011  33.091  32.493  1.00  0.00     0.074 A 
ATOM     34  C   UNL A   1      37.970  31.619  30.509  1.00  0.00     0.049 A 
ATOM     35  N   UNL A   1      39.047  32.615  33.133  1.00  0.00    -0.248 NA
ATOM     36  C   UNL A   1      37.369  34.240  33.152  1.00  0.00     0.031 C 
ATOM     37  C   UNL A   1      37.520  31.122  29.207  1.00  0.00     0.029 A 
ATOM     38  N   UNL A   1      39.039  30.816  30.819  1.00  0.00    -0.354 N 
ATOM     39  C   UNL A   1      39.196  33.417  34.256  1.00  0.00     0.074 A 
ATOM     40  C   UNL A   1      38.169  34.435  34.190  1.00  0.00     0.031 C 
ATOM     41  C   UNL A   1      38.294  30.088  28.840  1.00  0.00     0.029 A 
ATOM     42  C   UNL A   1      39.314  29.872  29.861  1.00  0.00     0.049 A 
ATOM     43  H   UNL A   1      39.559  30.910  31.650  1.00  0.00     0.167 HD
ATOM     44  C   UNL A   1      40.096  33.307  35.262  1.00  0.00     0.031 A 
ATOM     45  C   UNL A   1      40.284  28.940  29.807  1.00  0.00     0.031 A 
ATOM     46  C   UNL A   1      41.104  32.285  35.338  1.00  0.00     0.049 A 
ATOM     47  C   UNL A   1      41.267  28.834  30.938  1.00  0.00     0.074 A 
ATOM     48  C   UNL A   1      42.013  32.044  36.353  1.00  0.00     0.029 A 
ATOM     49  N   UNL A   1      41.338  31.335  34.357  1.00  0.00    -0.354 N 
ATOM     50  N   UNL A   1      41.345  29.552  32.032  1.00  0.00    -0.248 NA
ATOM     51  C   UNL A   1      42.290  27.785  30.829  1.00  0.00     0.031 C 
ATOM     52  C   UNL A   1      42.825  30.974  35.967  1.00  0.00     0.029 A 
ATOM     53  C   UNL A   1      42.393  30.521  34.731  1.00  0.00     0.049 A 
ATOM     54  H   UNL A   1      40.829  31.250  33.519  1.00  0.00     0.167 HD
ATOM     55  C   UNL A   1      42.412  29.030  32.751  1.00  0.00     0.074 A 
ATOM     56  C   UNL A   1      42.940  27.926  31.977  1.00  0.00     0.031 C 
ATOM     57  C   UNL A   1      42.909  29.430  33.946  1.00  0.00     0.031 A 
BRANCH  44  58
ATOM     58  C   UNL A   1      40.028  34.329  36.360  1.00  0.00    -0.014 A 
ATOM     59  C   UNL A   1      39.242  34.116  37.503  1.00  0.00     0.009 A 
ATOM     60  C   UNL A   1      40.782  35.509  36.262  1.00  0.00     0.009 A 
ATOM     61  C   UNL A   1      39.182  35.082  38.509  1.00  0.00     0.001 A 
ATOM     62  C   UNL A   1      40.740  36.461  37.282  1.00  0.00     0.001 A 
ATOM     63  C   UNL A   1      39.934  36.252  38.400  1.00  0.00     0.000 A 
ENDBRANCH  44  58
BRANCH  45  64
ATOM     64  C   UNL A   1      40.363  28.019  28.645  1.00  0.00    -0.014 A 
ATOM     65  C   UNL A   1      39.716  26.775  28.680  1.00  0.00     0.009 A 
ATOM     66  C   UNL A   1      41.085  28.378  27.497  1.00  0.00     0.009 A 
ATOM     67  C   UNL A   1      39.808  25.898  27.596  1.00  0.00     0.001 A 
ATOM     68  C   UNL A   1      41.156  27.509  26.405  1.00  0.00     0.001 A 
ATOM     69  C   UNL A   1      40.524  26.268  26.459  1.00  0.00     0.000 A 
ENDBRANCH  45  64
BRANCH  57  70
ATOM     70  C   UNL A   1      44.071  28.657  34.498  1.00  0.00    -0.014 A 
ATOM     71  C   UNL A   1      43.869  27.517  35.291  1.00  0.00     0.009 A 
ATOM     72  C   UNL A   1      45.381  29.049  34.183  1.00  0.00     0.009 A 
ATOM     73  C   UNL A   1      44.961  26.798  35.780  1.00  0.00     0.001 A 
ATOM     74  C   UNL A   1      46.470  28.313  34.654  1.00  0.00     0.001 A 
ATOM     75  C   UNL A   1      46.259  27.194  35.458  1.00  0.00     0.000 A 
ENDBRANCH  57  70
ENDBRANCH  31  32
ENDBRANCH  23  26
ENDBRANCH  21  22
ENDBRANCH  20  21
ENDBRANCH  19  20
ENDBRANCH   1  19
TORSDOF 15
ENDMDL
