MODEL 1
REMARK VINA RESULT:      -8.7      0.000      0.000
REMARK SMILES O=C(NCCCCNC(=O)[C@H]1CS[C@H](c2cc(F)ccc2F)[NH2+]1)c1ccc(-c2c3nc(c(-c4ccccc4)c4ccc([nH]4)c(-c4ccccc4)c4nc(c(-c5ccccc5)c5ccc2[nH]5)C=C4)C=C3)cc1
REMARK SMILES IDX 5 1 4 2 3 3 1 4 2 5 24 7 25 8 71 9 26 10 70 11 27 12 28 13
REMARK SMILES IDX 29 14 64 15 30 16 69 17 63 18 65 19 31 20 68 21 62 22 61 23
REMARK SMILES IDX 32 25 54 26 39 27 53 28 40 29 43 30 52 31 66 32 41 33 42 34
REMARK SMILES IDX 51 36 67 37 44 38 33 39 34 40 38 41 35 42 37 43 36 44 55 45
REMARK SMILES IDX 56 46 60 47 57 48 59 49 58 50 45 51 46 52 50 53 47 54 49 55
REMARK SMILES IDX 48 56 6 57 7 58 8 59 9 60 10 62 11 63 12 64 23 65 13 66
REMARK SMILES IDX 14 67 15 70 16 71 21 72 17 73 20 74 22 75 18 76 19 77
REMARK H PARENT 3 6 65 24 43 35 8 61 23 68 23 69
REMARK Flexibility Score: inf
ROOT
ATOM      1  C   UNL A   1      35.102  33.628  28.378  1.00  0.00     0.023 C 
ENDROOT
BRANCH   1   2
ATOM      2  C   UNL A   1      34.427  32.506  29.159  1.00  0.00     0.116 C 
BRANCH   2   3
ATOM      3  N   UNL A   1      33.836  31.490  28.303  1.00  0.00    -0.352 N 
ATOM      4  O   UNL A   1      33.817  29.686  26.946  1.00  0.00    -0.269 OA
ATOM      5  C   UNL A   1      34.429  30.381  27.751  1.00  0.00     0.251 C 
ATOM      6  H   UNL A   1      32.884  31.614  28.090  1.00  0.00     0.163 HD
BRANCH   5   7
ATOM      7  C   UNL A   1      35.823  30.042  28.111  1.00  0.00     0.039 A 
ATOM      8  C   UNL A   1      36.864  30.243  27.201  1.00  0.00     0.014 A 
ATOM      9  C   UNL A   1      36.086  29.515  29.378  1.00  0.00     0.014 A 
ATOM     10  C   UNL A   1      38.145  29.805  27.512  1.00  0.00     0.010 A 
ATOM     11  C   UNL A   1      37.389  29.138  29.715  1.00  0.00     0.010 A 
ATOM     12  C   UNL A   1      38.424  29.257  28.776  1.00  0.00    -0.014 A 
BRANCH  12  13
ATOM     13  C   UNL A   1      39.817  28.873  29.112  1.00  0.00     0.031 A 
ATOM     14  C   UNL A   1      40.700  29.775  29.926  1.00  0.00     0.074 A 
ATOM     15  C   UNL A   1      40.273  27.675  28.696  1.00  0.00     0.049 A 
ATOM     16  N   UNL A   1      41.932  29.576  30.324  1.00  0.00    -0.248 NA
ATOM     17  C   UNL A   1      40.134  31.067  30.343  1.00  0.00     0.031 C 
ATOM     18  C   UNL A   1      39.508  26.712  27.901  1.00  0.00     0.029 A 
ATOM     19  N   UNL A   1      41.478  27.056  28.900  1.00  0.00    -0.354 N 
ATOM     20  C   UNL A   1      42.293  30.719  31.026  1.00  0.00     0.074 A 
ATOM     21  C   UNL A   1      41.160  31.618  30.979  1.00  0.00     0.031 C 
ATOM     22  C   UNL A   1      40.244  25.604  27.727  1.00  0.00     0.029 A 
ATOM     23  C   UNL A   1      41.549  25.802  28.346  1.00  0.00     0.049 A 
ATOM     24  H   UNL A   1      42.221  27.471  29.395  1.00  0.00     0.167 HD
ATOM     25  C   UNL A   1      43.462  30.991  31.656  1.00  0.00     0.031 A 
ATOM     26  C   UNL A   1      42.556  24.912  28.324  1.00  0.00     0.031 A 
ATOM     27  C   UNL A   1      44.591  30.098  31.699  1.00  0.00     0.049 A 
ATOM     28  C   UNL A   1      43.853  25.256  28.993  1.00  0.00     0.074 A 
ATOM     29  C   UNL A   1      45.810  30.277  32.330  1.00  0.00     0.029 A 
ATOM     30  N   UNL A   1      44.639  28.856  31.083  1.00  0.00    -0.354 N 
ATOM     31  N   UNL A   1      44.169  26.334  29.670  1.00  0.00    -0.248 NA
ATOM     32  C   UNL A   1      44.931  24.264  28.894  1.00  0.00     0.031 C 
ATOM     33  C   UNL A   1      46.613  29.164  32.057  1.00  0.00     0.029 A 
ATOM     34  C   UNL A   1      45.876  28.270  31.299  1.00  0.00     0.049 A 
ATOM     35  H   UNL A   1      43.904  28.452  30.568  1.00  0.00     0.167 HD
ATOM     36  C   UNL A   1      45.479  26.144  30.088  1.00  0.00     0.074 A 
ATOM     37  C   UNL A   1      45.889  24.840  29.606  1.00  0.00     0.031 C 
ATOM     38  C   UNL A   1      46.271  26.977  30.805  1.00  0.00     0.031 A 
BRANCH  25  39
ATOM     39  C   UNL A   1      43.592  32.326  32.334  1.00  0.00    -0.014 A 
ATOM     40  C   UNL A   1      44.098  33.443  31.651  1.00  0.00     0.009 A 
ATOM     41  C   UNL A   1      43.155  32.480  33.659  1.00  0.00     0.009 A 
ATOM     42  C   UNL A   1      44.190  34.681  32.292  1.00  0.00     0.001 A 
ATOM     43  C   UNL A   1      43.225  33.725  34.289  1.00  0.00     0.001 A 
ATOM     44  C   UNL A   1      43.749  34.822  33.607  1.00  0.00     0.000 A 
ENDBRANCH  25  39
BRANCH  26  45
ATOM     45  C   UNL A   1      42.372  23.609  27.636  1.00  0.00    -0.014 A 
ATOM     46  C   UNL A   1      41.884  22.496  28.335  1.00  0.00     0.009 A 
ATOM     47  C   UNL A   1      42.666  23.481  26.269  1.00  0.00     0.009 A 
ATOM     48  C   UNL A   1      41.707  21.275  27.682  1.00  0.00     0.001 A 
ATOM     49  C   UNL A   1      42.461  22.266  25.612  1.00  0.00     0.001 A 
ATOM     50  C   UNL A   1      41.989  21.163  26.320  1.00  0.00     0.000 A 
ENDBRANCH  26  45
BRANCH  38  51
ATOM     51  C   UNL A   1      47.653  26.488  31.126  1.00  0.00    -0.014 A 
ATOM     52  C   UNL A   1      47.908  25.742  32.287  1.00  0.00     0.009 A 
ATOM     53  C   UNL A   1      48.710  26.759  30.243  1.00  0.00     0.009 A 
ATOM     54  C   UNL A   1      49.202  25.305  32.573  1.00  0.00     0.001 A 
ATOM     55  C   UNL A   1      49.997  26.300  30.520  1.00  0.00     0.001 A 
ATOM     56  C   UNL A   1      50.244  25.581  31.689  1.00  0.00     0.000 A 
ENDBRANCH  38  51
ENDBRANCH  12  13
ENDBRANCH   5   7
ENDBRANCH   2   3
ENDBRANCH   1   2
BRANCH   1  57
ATOM     57  C   UNL A   1      36.627  33.691  28.508  1.00  0.00     0.023 C 
BRANCH  57  58
ATOM     58  C   UNL A   1      37.167  33.227  29.860  1.00  0.00     0.116 C 
BRANCH  58  59
ATOM     59  N   UNL A   1      36.933  34.220  30.892  1.00  0.00    -0.351 N 
ATOM     60  C   UNL A   1      37.221  34.178  32.224  1.00  0.00     0.279 C 
ATOM     61  H   UNL A   1      36.500  35.048  30.584  1.00  0.00     0.163 HD
ATOM     62  O   UNL A   1      36.810  35.098  32.937  1.00  0.00    -0.268 OA
BRANCH  60  63
ATOM     63  C   UNL A   1      38.090  33.052  32.797  1.00  0.00     0.283 C 
ATOM     64  C   UNL A   1      39.222  33.689  33.606  1.00  0.00     0.151 C 
ATOM     65  N   UNL A   1      37.250  32.171  33.653  1.00  0.00    -0.320 N 
ATOM     66  S   UNL A   1      39.216  32.844  35.202  1.00  0.00    -0.087 SA
ATOM     67  C   UNL A   1      38.135  31.503  34.605  1.00  0.00     0.277 C 
ATOM     68  H   UNL A   1      36.774  31.477  33.076  1.00  0.00     0.348 HD
ATOM     69  H   UNL A   1      36.544  32.718  34.145  1.00  0.00     0.348 HD
BRANCH  67  70
ATOM     70  C   UNL A   1      38.942  30.320  34.085  1.00  0.00     0.059 A 
ATOM     71  C   UNL A   1      40.304  30.214  34.445  1.00  0.00     0.053 A 
ATOM     72  C   UNL A   1      38.419  29.290  33.287  1.00  0.00     0.133 A 
ATOM     73  C   UNL A   1      41.099  29.176  33.965  1.00  0.00     0.123 A 
ATOM     74  C   UNL A   1      39.221  28.251  32.806  1.00  0.00     0.043 A 
ATOM     75  F   UNL A   1      37.126  29.265  32.937  1.00  0.00    -0.206 F 
ATOM     76  F   UNL A   1      42.393  29.127  34.304  1.00  0.00    -0.207 F 
ATOM     77  C   UNL A   1      40.571  28.198  33.136  1.00  0.00     0.042 A 
ENDBRANCH  67  70
ENDBRANCH  60  63
ENDBRANCH  58  59
ENDBRANCH  57  58
ENDBRANCH   1  57
TORSDOF 12
ENDMDL
MODEL 2
REMARK VINA RESULT:      -8.6      4.074     10.215
REMARK SMILES O=C(NCCCCNC(=O)[C@H]1CS[C@H](c2cc(F)ccc2F)[NH2+]1)c1ccc(-c2c3nc(c(-c4ccccc4)c4ccc([nH]4)c(-c4ccccc4)c4nc(c(-c5ccccc5)c5ccc2[nH]5)C=C4)C=C3)cc1
REMARK SMILES IDX 5 1 4 2 3 3 1 4 2 5 24 7 25 8 71 9 26 10 70 11 27 12 28 13
REMARK SMILES IDX 29 14 64 15 30 16 69 17 63 18 65 19 31 20 68 21 62 22 61 23
REMARK SMILES IDX 32 25 54 26 39 27 53 28 40 29 43 30 52 31 66 32 41 33 42 34
REMARK SMILES IDX 51 36 67 37 44 38 33 39 34 40 38 41 35 42 37 43 36 44 55 45
REMARK SMILES IDX 56 46 60 47 57 48 59 49 58 50 45 51 46 52 50 53 47 54 49 55
REMARK SMILES IDX 48 56 6 57 7 58 8 59 9 60 10 62 11 63 12 64 23 65 13 66
REMARK SMILES IDX 14 67 15 70 16 71 21 72 17 73 20 74 22 75 18 76 19 77
REMARK H PARENT 3 6 65 24 43 35 8 61 23 68 23 69
REMARK Flexibility Score: inf
ROOT
ATOM      1  C   UNL A   1      41.363  20.132  27.433  1.00  0.00     0.023 C 
ENDROOT
BRANCH   1   2
ATOM      2  C   UNL A   1      41.198  21.493  26.766  1.00  0.00     0.116 C 
BRANCH   2   3
ATOM      3  N   UNL A   1      39.900  21.664  26.134  1.00  0.00    -0.352 N 
ATOM      4  O   UNL A   1      37.955  22.706  25.655  1.00  0.00    -0.269 OA
ATOM      5  C   UNL A   1      39.082  22.767  26.138  1.00  0.00     0.251 C 
ATOM      6  H   UNL A   1      39.561  20.885  25.637  1.00  0.00     0.163 HD
BRANCH   5   7
ATOM      7  C   UNL A   1      39.555  24.026  26.753  1.00  0.00     0.039 A 
ATOM      8  C   UNL A   1      39.295  24.305  28.097  1.00  0.00     0.014 A 
ATOM      9  C   UNL A   1      40.267  24.938  25.968  1.00  0.00     0.014 A 
ATOM     10  C   UNL A   1      39.640  25.544  28.623  1.00  0.00     0.010 A 
ATOM     11  C   UNL A   1      40.674  26.156  26.519  1.00  0.00     0.010 A 
ATOM     12  C   UNL A   1      40.342  26.479  27.843  1.00  0.00    -0.014 A 
BRANCH  12  13
ATOM     13  C   UNL A   1      40.770  27.761  28.453  1.00  0.00     0.031 A 
ATOM     14  C   UNL A   1      42.211  28.024  28.786  1.00  0.00     0.074 A 
ATOM     15  C   UNL A   1      39.840  28.709  28.680  1.00  0.00     0.049 A 
ATOM     16  N   UNL A   1      42.751  29.101  29.300  1.00  0.00    -0.248 NA
ATOM     17  C   UNL A   1      43.170  26.942  28.512  1.00  0.00     0.031 C 
ATOM     18  C   UNL A   1      38.409  28.571  28.397  1.00  0.00     0.029 A 
ATOM     19  N   UNL A   1      39.959  29.979  29.180  1.00  0.00    -0.354 N 
ATOM     20  C   UNL A   1      44.107  28.823  29.425  1.00  0.00     0.074 A 
ATOM     21  C   UNL A   1      44.304  27.469  28.955  1.00  0.00     0.031 C 
ATOM     22  C   UNL A   1      37.792  29.728  28.680  1.00  0.00     0.029 A 
ATOM     23  C   UNL A   1      38.771  30.666  29.218  1.00  0.00     0.049 A 
ATOM     24  H   UNL A   1      40.814  30.363  29.482  1.00  0.00     0.167 HD
ATOM     25  C   UNL A   1      45.097  29.626  29.885  1.00  0.00     0.031 A 
ATOM     26  C   UNL A   1      38.492  31.908  29.651  1.00  0.00     0.031 A 
ATOM     27  C   UNL A   1      44.899  30.974  30.356  1.00  0.00     0.049 A 
ATOM     28  C   UNL A   1      39.599  32.760  30.194  1.00  0.00     0.074 A 
ATOM     29  C   UNL A   1      45.843  31.872  30.822  1.00  0.00     0.029 A 
ATOM     30  N   UNL A   1      43.671  31.614  30.425  1.00  0.00    -0.354 N 
ATOM     31  N   UNL A   1      40.879  32.488  30.284  1.00  0.00    -0.248 NA
ATOM     32  C   UNL A   1      39.225  34.087  30.696  1.00  0.00     0.031 C 
ATOM     33  C   UNL A   1      45.180  33.040  31.215  1.00  0.00     0.029 A 
ATOM     34  C   UNL A   1      43.831  32.887  30.948  1.00  0.00     0.049 A 
ATOM     35  H   UNL A   1      42.813  31.222  30.144  1.00  0.00     0.167 HD
ATOM     36  C   UNL A   1      41.464  33.616  30.842  1.00  0.00     0.074 A 
ATOM     37  C   UNL A   1      40.403  34.581  31.049  1.00  0.00     0.031 C 
ATOM     38  C   UNL A   1      42.764  33.831  31.156  1.00  0.00     0.031 A 
BRANCH  25  39
ATOM     39  C   UNL A   1      46.489  29.062  29.925  1.00  0.00    -0.014 A 
ATOM     40  C   UNL A   1      46.893  28.195  30.951  1.00  0.00     0.009 A 
ATOM     41  C   UNL A   1      47.393  29.362  28.894  1.00  0.00     0.009 A 
ATOM     42  C   UNL A   1      48.185  27.661  30.958  1.00  0.00     0.001 A 
ATOM     43  C   UNL A   1      48.675  28.809  28.891  1.00  0.00     0.001 A 
ATOM     44  C   UNL A   1      49.072  27.964  29.927  1.00  0.00     0.000 A 
ENDBRANCH  25  39
BRANCH  26  45
ATOM     45  C   UNL A   1      37.096  32.412  29.591  1.00  0.00    -0.014 A 
ATOM     46  C   UNL A   1      36.640  33.113  28.466  1.00  0.00     0.009 A 
ATOM     47  C   UNL A   1      36.209  32.174  30.653  1.00  0.00     0.009 A 
ATOM     48  C   UNL A   1      35.325  33.581  28.412  1.00  0.00     0.001 A 
ATOM     49  C   UNL A   1      34.888  32.618  30.583  1.00  0.00     0.001 A 
ATOM     50  C   UNL A   1      34.449  33.327  29.467  1.00  0.00     0.000 A 
ENDBRANCH  26  45
BRANCH  38  51
ATOM     51  C   UNL A   1      43.108  35.171  31.738  1.00  0.00    -0.014 A 
ATOM     52  C   UNL A   1      42.961  35.426  33.110  1.00  0.00     0.009 A 
ATOM     53  C   UNL A   1      43.608  36.183  30.904  1.00  0.00     0.009 A 
ATOM     54  C   UNL A   1      43.276  36.682  33.630  1.00  0.00     0.001 A 
ATOM     55  C   UNL A   1      43.945  37.430  31.432  1.00  0.00     0.001 A 
ATOM     56  C   UNL A   1      43.771  37.681  32.793  1.00  0.00     0.000 A 
ENDBRANCH  38  51
ENDBRANCH  12  13
ENDBRANCH   5   7
ENDBRANCH   2   3
ENDBRANCH   1   2
BRANCH   1  57
ATOM     57  C   UNL A   1      42.448  19.235  26.829  1.00  0.00     0.023 C 
BRANCH  57  58
ATOM     58  C   UNL A   1      43.168  19.836  25.623  1.00  0.00     0.116 C 
BRANCH  58  59
ATOM     59  N   UNL A   1      44.559  19.424  25.578  1.00  0.00    -0.351 N 
ATOM     60  C   UNL A   1      45.681  20.165  25.356  1.00  0.00     0.279 C 
ATOM     61  H   UNL A   1      44.715  18.464  25.730  1.00  0.00     0.163 HD
ATOM     62  O   UNL A   1      46.756  19.570  25.236  1.00  0.00    -0.268 OA
BRANCH  60  63
ATOM     63  C   UNL A   1      45.609  21.696  25.325  1.00  0.00     0.283 C 
ATOM     64  C   UNL A   1      44.891  22.114  24.040  1.00  0.00     0.151 C 
ATOM     65  N   UNL A   1      44.877  22.178  26.527  1.00  0.00    -0.320 N 
ATOM     66  S   UNL A   1      43.610  23.279  24.553  1.00  0.00    -0.087 SA
ATOM     67  C   UNL A   1      44.328  23.495  26.215  1.00  0.00     0.277 C 
ATOM     68  H   UNL A   1      45.518  22.248  27.319  1.00  0.00     0.348 HD
ATOM     69  H   UNL A   1      44.131  21.529  26.776  1.00  0.00     0.348 HD
BRANCH  67  70
ATOM     70  C   UNL A   1      45.292  24.674  26.262  1.00  0.00     0.059 A 
ATOM     71  C   UNL A   1      45.180  25.684  25.279  1.00  0.00     0.053 A 
ATOM     72  C   UNL A   1      46.279  24.856  27.242  1.00  0.00     0.133 A 
ATOM     73  C   UNL A   1      46.061  26.763  25.250  1.00  0.00     0.123 A 
ATOM     74  C   UNL A   1      47.163  25.939  27.208  1.00  0.00     0.043 A 
ATOM     75  F   UNL A   1      46.432  23.987  28.251  1.00  0.00    -0.206 F 
ATOM     76  F   UNL A   1      45.942  27.684  24.286  1.00  0.00    -0.207 F 
ATOM     77  C   UNL A   1      47.061  26.893  26.201  1.00  0.00     0.042 A 
ENDBRANCH  67  70
ENDBRANCH  60  63
ENDBRANCH  58  59
ENDBRANCH  57  58
ENDBRANCH   1  57
TORSDOF 12
ENDMDL
MODEL 3
REMARK VINA RESULT:      -8.6      4.667      9.874
REMARK SMILES O=C(NCCCCNC(=O)[C@H]1CS[C@H](c2cc(F)ccc2F)[NH2+]1)c1ccc(-c2c3nc(c(-c4ccccc4)c4ccc([nH]4)c(-c4ccccc4)c4nc(c(-c5ccccc5)c5ccc2[nH]5)C=C4)C=C3)cc1
REMARK SMILES IDX 5 1 4 2 3 3 1 4 2 5 24 7 25 8 71 9 26 10 70 11 27 12 28 13
REMARK SMILES IDX 29 14 64 15 30 16 69 17 63 18 65 19 31 20 68 21 62 22 61 23
REMARK SMILES IDX 32 25 54 26 39 27 53 28 40 29 43 30 52 31 66 32 41 33 42 34
REMARK SMILES IDX 51 36 67 37 44 38 33 39 34 40 38 41 35 42 37 43 36 44 55 45
REMARK SMILES IDX 56 46 60 47 57 48 59 49 58 50 45 51 46 52 50 53 47 54 49 55
REMARK SMILES IDX 48 56 6 57 7 58 8 59 9 60 10 62 11 63 12 64 23 65 13 66
REMARK SMILES IDX 14 67 15 70 16 71 21 72 17 73 20 74 22 75 18 76 19 77
REMARK H PARENT 3 6 65 24 43 35 8 61 23 68 23 69
REMARK Flexibility Score: inf
ROOT
ATOM      1  C   UNL A   1      37.756  19.916  24.667  1.00  0.00     0.023 C 
ENDROOT
BRANCH   1   2
ATOM      2  C   UNL A   1      38.796  20.244  25.733  1.00  0.00     0.116 C 
BRANCH   2   3
ATOM      3  N   UNL A   1      39.918  19.320  25.738  1.00  0.00    -0.352 N 
ATOM      4  O   UNL A   1      42.081  18.695  25.912  1.00  0.00    -0.269 OA
ATOM      5  C   UNL A   1      41.226  19.560  26.081  1.00  0.00     0.251 C 
ATOM      6  H   UNL A   1      39.714  18.399  25.458  1.00  0.00     0.163 HD
BRANCH   5   7
ATOM      7  C   UNL A   1      41.608  20.878  26.631  1.00  0.00     0.039 A 
ATOM      8  C   UNL A   1      41.522  21.131  28.003  1.00  0.00     0.014 A 
ATOM      9  C   UNL A   1      42.055  21.873  25.757  1.00  0.00     0.014 A 
ATOM     10  C   UNL A   1      41.766  22.412  28.483  1.00  0.00     0.010 A 
ATOM     11  C   UNL A   1      42.368  23.142  26.253  1.00  0.00     0.010 A 
ATOM     12  C   UNL A   1      42.201  23.429  27.615  1.00  0.00    -0.014 A 
BRANCH  12  13
ATOM     13  C   UNL A   1      42.534  24.764  28.167  1.00  0.00     0.031 A 
ATOM     14  C   UNL A   1      43.946  25.130  28.527  1.00  0.00     0.074 A 
ATOM     15  C   UNL A   1      41.544  25.665  28.315  1.00  0.00     0.049 A 
ATOM     16  N   UNL A   1      44.406  26.262  28.998  1.00  0.00    -0.248 NA
ATOM     17  C   UNL A   1      44.974  24.094  28.340  1.00  0.00     0.031 C 
ATOM     18  C   UNL A   1      40.133  25.427  27.999  1.00  0.00     0.029 A 
ATOM     19  N   UNL A   1      41.573  26.965  28.749  1.00  0.00    -0.354 N 
ATOM     20  C   UNL A   1      45.771  26.073  29.176  1.00  0.00     0.074 A 
ATOM     21  C   UNL A   1      46.062  24.710  28.786  1.00  0.00     0.031 C 
ATOM     22  C   UNL A   1      39.442  26.559  28.201  1.00  0.00     0.029 A 
ATOM     23  C   UNL A   1      40.346  27.580  28.715  1.00  0.00     0.049 A 
ATOM     24  H   UNL A   1      42.394  27.414  29.054  1.00  0.00     0.167 HD
ATOM     25  C   UNL A   1      46.697  26.957  29.621  1.00  0.00     0.031 A 
ATOM     26  C   UNL A   1      39.982  28.824  29.072  1.00  0.00     0.031 A 
ATOM     27  C   UNL A   1      46.406  28.313  30.012  1.00  0.00     0.049 A 
ATOM     28  C   UNL A   1      41.019  29.768  29.600  1.00  0.00     0.074 A 
ATOM     29  C   UNL A   1      47.281  29.289  30.456  1.00  0.00     0.029 A 
ATOM     30  N   UNL A   1      45.141  28.881  30.011  1.00  0.00    -0.354 N 
ATOM     31  N   UNL A   1      42.309  29.578  29.741  1.00  0.00    -0.248 NA
ATOM     32  C   UNL A   1      40.552  31.096  30.018  1.00  0.00     0.031 C 
ATOM     33  C   UNL A   1      46.539  30.435  30.766  1.00  0.00     0.029 A 
ATOM     34  C   UNL A   1      45.210  30.187  30.468  1.00  0.00     0.049 A 
ATOM     35  H   UNL A   1      44.317  28.424  29.727  1.00  0.00     0.167 HD
ATOM     36  C   UNL A   1      42.810  30.767  30.254  1.00  0.00     0.074 A 
ATOM     37  C   UNL A   1      41.689  31.676  30.378  1.00  0.00     0.031 C 
ATOM     38  C   UNL A   1      44.084  31.075  30.594  1.00  0.00     0.031 A 
BRANCH  25  39
ATOM     39  C   UNL A   1      48.117  26.480  29.731  1.00  0.00    -0.014 A 
ATOM     40  C   UNL A   1      48.583  25.844  30.893  1.00  0.00     0.009 A 
ATOM     41  C   UNL A   1      48.988  26.623  28.640  1.00  0.00     0.009 A 
ATOM     42  C   UNL A   1      49.901  25.386  30.968  1.00  0.00     0.001 A 
ATOM     43  C   UNL A   1      50.298  26.142  28.709  1.00  0.00     0.001 A 
ATOM     44  C   UNL A   1      50.755  25.531  29.876  1.00  0.00     0.000 A 
ENDBRANCH  25  39
BRANCH  26  45
ATOM     45  C   UNL A   1      38.562  29.240  28.944  1.00  0.00    -0.014 A 
ATOM     46  C   UNL A   1      38.076  29.754  27.733  1.00  0.00     0.009 A 
ATOM     47  C   UNL A   1      37.682  29.105  30.030  1.00  0.00     0.009 A 
ATOM     48  C   UNL A   1      36.739  30.139  27.616  1.00  0.00     0.001 A 
ATOM     49  C   UNL A   1      36.340  29.464  29.901  1.00  0.00     0.001 A 
ATOM     50  C   UNL A   1      35.870  29.987  28.697  1.00  0.00     0.000 A 
ENDBRANCH  26  45
BRANCH  38  51
ATOM     51  C   UNL A   1      44.331  32.462  31.111  1.00  0.00    -0.014 A 
ATOM     52  C   UNL A   1      44.625  33.521  30.238  1.00  0.00     0.009 A 
ATOM     53  C   UNL A   1      44.245  32.716  32.489  1.00  0.00     0.009 A 
ATOM     54  C   UNL A   1      44.861  34.802  30.739  1.00  0.00     0.001 A 
ATOM     55  C   UNL A   1      44.457  34.003  32.984  1.00  0.00     0.001 A 
ATOM     56  C   UNL A   1      44.774  35.043  32.110  1.00  0.00     0.000 A 
ENDBRANCH  38  51
ENDBRANCH  12  13
ENDBRANCH   5   7
ENDBRANCH   2   3
ENDBRANCH   1   2
BRANCH   1  57
ATOM     57  C   UNL A   1      36.326  20.359  24.990  1.00  0.00     0.023 C 
BRANCH  57  58
ATOM     58  C   UNL A   1      36.229  21.662  25.782  1.00  0.00     0.116 C 
BRANCH  58  59
ATOM     59  N   UNL A   1      35.215  21.580  26.816  1.00  0.00    -0.351 N 
ATOM     60  C   UNL A   1      34.072  22.304  26.976  1.00  0.00     0.279 C 
ATOM     61  H   UNL A   1      35.378  20.897  27.507  1.00  0.00     0.163 HD
ATOM     62  O   UNL A   1      33.421  22.141  28.012  1.00  0.00    -0.268 OA
BRANCH  60  63
ATOM     63  C   UNL A   1      33.582  23.241  25.865  1.00  0.00     0.283 C 
ATOM     64  C   UNL A   1      32.654  22.444  24.946  1.00  0.00     0.151 C 
ATOM     65  N   UNL A   1      32.868  24.395  26.475  1.00  0.00    -0.320 N 
ATOM     66  S   UNL A   1      31.161  23.444  24.773  1.00  0.00    -0.087 SA
ATOM     67  C   UNL A   1      31.952  24.932  25.471  1.00  0.00     0.277 C 
ATOM     68  H   UNL A   1      33.540  25.113  26.751  1.00  0.00     0.348 HD
ATOM     69  H   UNL A   1      32.356  24.100  27.306  1.00  0.00     0.348 HD
BRANCH  67  70
ATOM     70  C   UNL A   1      32.557  25.810  24.383  1.00  0.00     0.059 A 
ATOM     71  C   UNL A   1      32.324  25.474  23.030  1.00  0.00     0.053 A 
ATOM     72  C   UNL A   1      33.314  26.966  24.624  1.00  0.00     0.133 A 
ATOM     73  C   UNL A   1      32.887  26.218  21.996  1.00  0.00     0.123 A 
ATOM     74  C   UNL A   1      33.879  27.709  23.583  1.00  0.00     0.043 A 
ATOM     75  F   UNL A   1      33.545  27.404  25.870  1.00  0.00    -0.206 F 
ATOM     76  F   UNL A   1      32.668  25.852  20.727  1.00  0.00    -0.207 F 
ATOM     77  C   UNL A   1      33.674  27.328  22.261  1.00  0.00     0.042 A 
ENDBRANCH  67  70
ENDBRANCH  60  63
ENDBRANCH  58  59
ENDBRANCH  57  58
ENDBRANCH   1  57
TORSDOF 12
ENDMDL
