MODEL 1
REMARK VINA RESULT:     -11.9      0.000      0.000
REMARK SMILES COc1ccc(-c2cccc3ccccc23)c(C(=O)NCCCCNC(=O)c2ccc(-c3c4nc(c(-c5ccccc5)c5ccc([nH]5)c(-c5ccccc5)c5nc(c(-c6ccccc6)c6ccc3[nH]6)C=C5)C=C4)cc2)c1
REMARK SMILES IDX 23 1 22 2 21 3 20 4 18 5 19 6 17 8 3 9 4 10 76 11 5 12 6 13
REMARK SMILES IDX 2 14 1 15 7 16 8 17 16 18 9 19 11 20 15 21 10 22 12 23 14 24
REMARK SMILES IDX 13 25 24 26 25 27 26 28 27 30 28 31 29 32 75 33 30 34 74 35
REMARK SMILES IDX 31 36 32 37 33 38 68 39 34 40 73 41 67 42 69 43 35 44 72 45
REMARK SMILES IDX 66 46 65 47 36 49 58 50 43 51 57 52 44 53 47 54 56 55 70 56
REMARK SMILES IDX 45 57 46 58 55 60 71 61 48 62 37 63 38 64 42 65 39 66 41 67
REMARK SMILES IDX 40 68 59 69 60 70 64 71 61 72 63 73 62 74 49 75 50 76 54 77
REMARK SMILES IDX 51 78 53 79 52 80
REMARK H PARENT 20 7 25 29 69 48 47 59
REMARK Flexibility Score: inf
ROOT
ATOM      1  C   UNL A   1      32.901  28.703  25.701  1.00  0.00     0.023 C 
ENDROOT
BRANCH   1   2
ATOM      2  C   UNL A   1      33.973  28.228  24.733  1.00  0.00     0.023 C 
BRANCH   2   3
ATOM      3  C   UNL A   1      33.830  28.652  23.276  1.00  0.00     0.116 C 
BRANCH   3   4
ATOM      4  N   UNL A   1      33.939  27.591  22.281  1.00  0.00    -0.352 N 
ATOM      5  C   UNL A   1      33.042  26.598  21.904  1.00  0.00     0.252 C 
ATOM      6  O   UNL A   1      33.313  25.912  20.924  1.00  0.00    -0.269 OA
ATOM      7  H   UNL A   1      34.793  27.576  21.792  1.00  0.00     0.163 HD
BRANCH   5   8
ATOM      8  C   UNL A   1      31.810  26.342  22.705  1.00  0.00     0.051 A 
ATOM      9  C   UNL A   1      29.644  27.234  23.413  1.00  0.00     0.119 A 
ATOM     10  C   UNL A   1      29.627  26.328  24.462  1.00  0.00     0.047 A 
ATOM     11  C   UNL A   1      30.708  27.203  22.514  1.00  0.00     0.060 A 
ATOM     12  C   UNL A   1      30.633  25.369  24.568  1.00  0.00     0.013 A 
ATOM     13  C   UNL A   1      31.717  25.308  23.658  1.00  0.00    -0.005 A 
BRANCH   9  14
ATOM     14  O   UNL A   1      28.584  28.094  23.367  1.00  0.00    -0.497 OA
ATOM     15  C   UNL A   1      28.693  29.193  22.470  1.00  0.00     0.278 C 
ENDBRANCH   9  14
BRANCH  13  16
ATOM     16  C   UNL A   1      32.466  24.021  23.660  1.00  0.00    -0.010 A 
ATOM     17  C   UNL A   1      31.787  22.946  23.029  1.00  0.00     0.009 A 
ATOM     18  C   UNL A   1      33.662  23.733  24.378  1.00  0.00    -0.011 A 
ATOM     19  C   UNL A   1      32.185  21.625  23.184  1.00  0.00     0.001 A 
ATOM     20  C   UNL A   1      34.042  22.368  24.547  1.00  0.00    -0.018 A 
ATOM     21  C   UNL A   1      34.513  24.710  24.944  1.00  0.00     0.009 A 
ATOM     22  C   UNL A   1      33.287  21.338  23.971  1.00  0.00     0.009 A 
ATOM     23  C   UNL A   1      35.180  22.030  25.294  1.00  0.00     0.009 A 
ATOM     24  C   UNL A   1      35.681  24.356  25.631  1.00  0.00     0.001 A 
ATOM     25  C   UNL A   1      36.003  23.019  25.824  1.00  0.00     0.001 A 
ENDBRANCH  13  16
ENDBRANCH   5   8
ENDBRANCH   3   4
ENDBRANCH   2   3
ENDBRANCH   1   2
BRANCH   1  26
ATOM     26  C   UNL A   1      33.320  28.839  27.159  1.00  0.00     0.116 C 
BRANCH  26  27
ATOM     27  N   UNL A   1      33.405  30.214  27.629  1.00  0.00    -0.352 N 
ATOM     28  C   UNL A   1      34.462  30.879  28.208  1.00  0.00     0.251 C 
ATOM     29  H   UNL A   1      32.585  30.748  27.517  1.00  0.00     0.163 HD
ATOM     30  O   UNL A   1      34.324  32.033  28.603  1.00  0.00    -0.269 OA
BRANCH  28  31
ATOM     31  C   UNL A   1      35.754  30.184  28.399  1.00  0.00     0.039 A 
ATOM     32  C   UNL A   1      36.671  30.165  27.345  1.00  0.00     0.014 A 
ATOM     33  C   UNL A   1      36.078  29.595  29.622  1.00  0.00     0.014 A 
ATOM     34  C   UNL A   1      37.950  29.644  27.551  1.00  0.00     0.010 A 
ATOM     35  C   UNL A   1      37.379  29.159  29.853  1.00  0.00     0.010 A 
ATOM     36  C   UNL A   1      38.331  29.184  28.822  1.00  0.00    -0.014 A 
BRANCH  36  37
ATOM     37  C   UNL A   1      39.720  28.736  29.101  1.00  0.00     0.031 A 
ATOM     38  C   UNL A   1      40.704  29.674  29.742  1.00  0.00     0.074 A 
ATOM     39  C   UNL A   1      40.119  27.511  28.706  1.00  0.00     0.049 A 
ATOM     40  N   UNL A   1      41.974  29.489  30.003  1.00  0.00    -0.248 NA
ATOM     41  C   UNL A   1      40.203  31.008  30.111  1.00  0.00     0.031 C 
ATOM     42  C   UNL A   1      39.280  26.521  28.027  1.00  0.00     0.029 A 
ATOM     43  N   UNL A   1      41.341  26.893  28.810  1.00  0.00    -0.354 N 
ATOM     44  C   UNL A   1      42.425  30.685  30.545  1.00  0.00     0.074 A 
ATOM     45  C   UNL A   1      41.309  31.607  30.524  1.00  0.00     0.031 C 
ATOM     46  C   UNL A   1      40.002  25.412  27.803  1.00  0.00     0.029 A 
ATOM     47  C   UNL A   1      41.364  25.624  28.283  1.00  0.00     0.049 A 
ATOM     48  H   UNL A   1      42.126  27.319  29.225  1.00  0.00     0.167 HD
ATOM     49  C   UNL A   1      43.650  30.986  31.037  1.00  0.00     0.031 A 
ATOM     50  C   UNL A   1      42.368  24.733  28.191  1.00  0.00     0.031 A 
ATOM     51  C   UNL A   1      44.757  30.070  31.067  1.00  0.00     0.049 A 
ATOM     52  C   UNL A   1      43.722  25.089  28.738  1.00  0.00     0.074 A 
ATOM     53  C   UNL A   1      46.021  30.260  31.599  1.00  0.00     0.029 A 
ATOM     54  N   UNL A   1      44.735  28.790  30.535  1.00  0.00    -0.354 N 
ATOM     55  N   UNL A   1      44.111  26.200  29.316  1.00  0.00    -0.248 NA
ATOM     56  C   UNL A   1      44.770  24.066  28.629  1.00  0.00     0.031 C 
ATOM     57  C   UNL A   1      46.778  29.112  31.344  1.00  0.00     0.029 A 
ATOM     58  C   UNL A   1      45.969  28.187  30.704  1.00  0.00     0.049 A 
ATOM     59  H   UNL A   1      43.956  28.371  30.101  1.00  0.00     0.167 HD
ATOM     60  C   UNL A   1      45.442  25.999  29.663  1.00  0.00     0.074 A 
ATOM     61  C   UNL A   1      45.786  24.655  29.245  1.00  0.00     0.031 C 
ATOM     62  C   UNL A   1      46.299  26.851  30.276  1.00  0.00     0.031 A 
BRANCH  49  63
ATOM     63  C   UNL A   1      43.850  32.378  31.576  1.00  0.00    -0.014 A 
ATOM     64  C   UNL A   1      43.603  32.679  32.925  1.00  0.00     0.009 A 
ATOM     65  C   UNL A   1      44.300  33.398  30.725  1.00  0.00     0.009 A 
ATOM     66  C   UNL A   1      43.757  33.984  33.400  1.00  0.00     0.001 A 
ATOM     67  C   UNL A   1      44.484  34.695  31.209  1.00  0.00     0.001 A 
ATOM     68  C   UNL A   1      44.199  34.989  32.542  1.00  0.00     0.000 A 
ENDBRANCH  49  63
BRANCH  50  69
ATOM     69  C   UNL A   1      42.124  23.402  27.575  1.00  0.00    -0.014 A 
ATOM     70  C   UNL A   1      41.517  22.376  28.314  1.00  0.00     0.009 A 
ATOM     71  C   UNL A   1      42.487  23.154  26.241  1.00  0.00     0.009 A 
ATOM     72  C   UNL A   1      41.298  21.123  27.739  1.00  0.00     0.001 A 
ATOM     73  C   UNL A   1      42.240  21.908  25.660  1.00  0.00     0.001 A 
ATOM     74  C   UNL A   1      41.653  20.892  26.411  1.00  0.00     0.000 A 
ENDBRANCH  50  69
BRANCH  62  75
ATOM     75  C   UNL A   1      47.686  26.345  30.560  1.00  0.00    -0.014 A 
ATOM     76  C   UNL A   1      48.700  26.414  29.593  1.00  0.00     0.009 A 
ATOM     77  C   UNL A   1      47.990  25.830  31.829  1.00  0.00     0.009 A 
ATOM     78  C   UNL A   1      49.985  25.948  29.883  1.00  0.00     0.001 A 
ATOM     79  C   UNL A   1      49.281  25.392  32.127  1.00  0.00     0.001 A 
ATOM     80  C   UNL A   1      50.276  25.443  31.150  1.00  0.00     0.000 A 
ENDBRANCH  62  75
ENDBRANCH  36  37
ENDBRANCH  28  31
ENDBRANCH  26  27
ENDBRANCH   1  26
TORSDOF 13
ENDMDL
MODEL 2
REMARK VINA RESULT:     -11.7      2.714      7.742
REMARK SMILES COc1ccc(-c2cccc3ccccc23)c(C(=O)NCCCCNC(=O)c2ccc(-c3c4nc(c(-c5ccccc5)c5ccc([nH]5)c(-c5ccccc5)c5nc(c(-c6ccccc6)c6ccc3[nH]6)C=C5)C=C4)cc2)c1
REMARK SMILES IDX 23 1 22 2 21 3 20 4 18 5 19 6 17 8 3 9 4 10 76 11 5 12 6 13
REMARK SMILES IDX 2 14 1 15 7 16 8 17 16 18 9 19 11 20 15 21 10 22 12 23 14 24
REMARK SMILES IDX 13 25 24 26 25 27 26 28 27 30 28 31 29 32 75 33 30 34 74 35
REMARK SMILES IDX 31 36 32 37 33 38 68 39 34 40 73 41 67 42 69 43 35 44 72 45
REMARK SMILES IDX 66 46 65 47 36 49 58 50 43 51 57 52 44 53 47 54 56 55 70 56
REMARK SMILES IDX 45 57 46 58 55 60 71 61 48 62 37 63 38 64 42 65 39 66 41 67
REMARK SMILES IDX 40 68 59 69 60 70 64 71 61 72 63 73 62 74 49 75 50 76 54 77
REMARK SMILES IDX 51 78 53 79 52 80
REMARK H PARENT 20 7 25 29 69 48 47 59
REMARK Flexibility Score: inf
ROOT
ATOM      1  C   UNL A   1      35.839  22.752  25.399  1.00  0.00     0.023 C 
ENDROOT
BRANCH   1   2
ATOM      2  C   UNL A   1      35.153  23.304  26.639  1.00  0.00     0.023 C 
BRANCH   2   3
ATOM      3  C   UNL A   1      34.205  22.370  27.382  1.00  0.00     0.116 C 
BRANCH   3   4
ATOM      4  N   UNL A   1      32.872  22.892  27.662  1.00  0.00    -0.352 N 
ATOM      5  C   UNL A   1      31.742  22.985  26.858  1.00  0.00     0.252 C 
ATOM      6  O   UNL A   1      30.685  23.327  27.377  1.00  0.00    -0.269 OA
ATOM      7  H   UNL A   1      32.752  23.237  28.576  1.00  0.00     0.163 HD
BRANCH   5   8
ATOM      8  C   UNL A   1      31.828  22.726  25.391  1.00  0.00     0.051 A 
ATOM      9  C   UNL A   1      32.248  21.046  23.662  1.00  0.00     0.119 A 
ATOM     10  C   UNL A   1      32.494  22.062  22.751  1.00  0.00     0.047 A 
ATOM     11  C   UNL A   1      31.870  21.383  24.959  1.00  0.00     0.060 A 
ATOM     12  C   UNL A   1      32.303  23.391  23.125  1.00  0.00     0.013 A 
ATOM     13  C   UNL A   1      31.903  23.757  24.434  1.00  0.00    -0.005 A 
BRANCH   9  14
ATOM     14  O   UNL A   1      32.411  19.779  23.180  1.00  0.00    -0.497 OA
ATOM     15  C   UNL A   1      32.655  18.757  24.141  1.00  0.00     0.278 C 
ENDBRANCH   9  14
BRANCH  13  16
ATOM     16  C   UNL A   1      31.364  25.140  24.561  1.00  0.00    -0.010 A 
ATOM     17  C   UNL A   1      30.088  25.328  23.971  1.00  0.00     0.009 A 
ATOM     18  C   UNL A   1      32.066  26.287  25.028  1.00  0.00    -0.011 A 
ATOM     19  C   UNL A   1      29.560  26.590  23.733  1.00  0.00     0.001 A 
ATOM     20  C   UNL A   1      31.520  27.577  24.754  1.00  0.00    -0.018 A 
ATOM     21  C   UNL A   1      33.279  26.247  25.753  1.00  0.00     0.009 A 
ATOM     22  C   UNL A   1      30.293  27.709  24.091  1.00  0.00     0.009 A 
ATOM     23  C   UNL A   1      32.201  28.739  25.143  1.00  0.00     0.009 A 
ATOM     24  C   UNL A   1      33.913  27.417  26.190  1.00  0.00     0.001 A 
ATOM     25  C   UNL A   1      33.386  28.661  25.868  1.00  0.00     0.001 A 
ENDBRANCH  13  16
ENDBRANCH   5   8
ENDBRANCH   3   4
ENDBRANCH   2   3
ENDBRANCH   1   2
BRANCH   1  26
ATOM     26  C   UNL A   1      37.188  23.362  25.045  1.00  0.00     0.116 C 
BRANCH  26  27
ATOM     27  N   UNL A   1      38.330  22.540  25.418  1.00  0.00    -0.352 N 
ATOM     28  C   UNL A   1      39.425  22.861  26.189  1.00  0.00     0.251 C 
ATOM     29  H   UNL A   1      38.319  21.620  25.068  1.00  0.00     0.163 HD
ATOM     30  O   UNL A   1      40.331  22.045  26.344  1.00  0.00    -0.269 OA
BRANCH  28  31
ATOM     31  C   UNL A   1      39.534  24.206  26.792  1.00  0.00     0.039 A 
ATOM     32  C   UNL A   1      39.004  24.418  28.067  1.00  0.00     0.014 A 
ATOM     33  C   UNL A   1      40.195  25.241  26.126  1.00  0.00     0.014 A 
ATOM     34  C   UNL A   1      39.223  25.637  28.714  1.00  0.00     0.010 A 
ATOM     35  C   UNL A   1      40.491  26.418  26.804  1.00  0.00     0.010 A 
ATOM     36  C   UNL A   1      40.013  26.628  28.108  1.00  0.00    -0.014 A 
BRANCH  36  37
ATOM     37  C   UNL A   1      40.363  27.884  28.819  1.00  0.00     0.031 A 
ATOM     38  C   UNL A   1      41.688  28.016  29.517  1.00  0.00     0.074 A 
ATOM     39  C   UNL A   1      39.457  28.878  28.906  1.00  0.00     0.049 A 
ATOM     40  N   UNL A   1      42.145  29.004  30.244  1.00  0.00    -0.248 NA
ATOM     41  C   UNL A   1      42.609  26.872  29.408  1.00  0.00     0.031 C 
ATOM     42  C   UNL A   1      38.115  28.859  28.319  1.00  0.00     0.029 A 
ATOM     43  N   UNL A   1      39.526  30.098  29.533  1.00  0.00    -0.354 N 
ATOM     44  C   UNL A   1      43.393  28.594  30.693  1.00  0.00     0.074 A 
ATOM     45  C   UNL A   1      43.598  27.247  30.206  1.00  0.00     0.031 C 
ATOM     46  C   UNL A   1      37.501  30.022  28.588  1.00  0.00     0.029 A 
ATOM     47  C   UNL A   1      38.385  30.852  29.400  1.00  0.00     0.049 A 
ATOM     48  H   UNL A   1      40.319  30.403  30.030  1.00  0.00     0.167 HD
ATOM     49  C   UNL A   1      44.300  29.281  31.429  1.00  0.00     0.031 A 
ATOM     50  C   UNL A   1      38.081  32.072  29.881  1.00  0.00     0.031 A 
ATOM     51  C   UNL A   1      44.102  30.622  31.908  1.00  0.00     0.049 A 
ATOM     52  C   UNL A   1      39.099  32.815  30.700  1.00  0.00     0.074 A 
ATOM     53  C   UNL A   1      44.984  31.427  32.608  1.00  0.00     0.029 A 
ATOM     54  N   UNL A   1      42.938  31.355  31.740  1.00  0.00    -0.354 N 
ATOM     55  N   UNL A   1      40.305  32.442  31.053  1.00  0.00    -0.248 NA
ATOM     56  C   UNL A   1      38.717  34.151  31.175  1.00  0.00     0.031 C 
ATOM     57  C   UNL A   1      44.333  32.628  32.908  1.00  0.00     0.029 A 
ATOM     58  C   UNL A   1      43.068  32.593  32.345  1.00  0.00     0.049 A 
ATOM     59  H   UNL A   1      42.136  31.042  31.261  1.00  0.00     0.167 HD
ATOM     60  C   UNL A   1      40.835  33.507  31.770  1.00  0.00     0.074 A 
ATOM     61  C   UNL A   1      39.826  34.545  31.787  1.00  0.00     0.031 C 
ATOM     62  C   UNL A   1      42.052  33.615  32.359  1.00  0.00     0.031 A 
BRANCH  49  63
ATOM     63  C   UNL A   1      45.587  28.577  31.763  1.00  0.00    -0.014 A 
ATOM     64  C   UNL A   1      45.717  27.814  32.936  1.00  0.00     0.009 A 
ATOM     65  C   UNL A   1      46.681  28.668  30.890  1.00  0.00     0.009 A 
ATOM     66  C   UNL A   1      46.930  27.198  33.250  1.00  0.00     0.001 A 
ATOM     67  C   UNL A   1      47.883  28.025  31.191  1.00  0.00     0.001 A 
ATOM     68  C   UNL A   1      48.011  27.303  32.376  1.00  0.00     0.000 A 
ENDBRANCH  49  63
BRANCH  50  69
ATOM     69  C   UNL A   1      36.758  32.679  29.579  1.00  0.00    -0.014 A 
ATOM     70  C   UNL A   1      35.719  32.622  30.519  1.00  0.00     0.009 A 
ATOM     71  C   UNL A   1      36.531  33.326  28.354  1.00  0.00     0.009 A 
ATOM     72  C   UNL A   1      34.472  33.182  30.231  1.00  0.00     0.001 A 
ATOM     73  C   UNL A   1      35.292  33.911  28.081  1.00  0.00     0.001 A 
ATOM     74  C   UNL A   1      34.262  33.831  29.016  1.00  0.00     0.000 A 
ENDBRANCH  50  69
BRANCH  62  75
ATOM     75  C   UNL A   1      42.370  34.913  33.046  1.00  0.00    -0.014 A 
ATOM     76  C   UNL A   1      41.937  35.171  34.355  1.00  0.00     0.009 A 
ATOM     77  C   UNL A   1      43.152  35.873  32.386  1.00  0.00     0.009 A 
ATOM     78  C   UNL A   1      42.254  36.381  34.978  1.00  0.00     0.001 A 
ATOM     79  C   UNL A   1      43.493  37.069  33.020  1.00  0.00     0.001 A 
ATOM     80  C   UNL A   1      43.036  37.325  34.313  1.00  0.00     0.000 A 
ENDBRANCH  62  75
ENDBRANCH  36  37
ENDBRANCH  28  31
ENDBRANCH  26  27
ENDBRANCH   1  26
TORSDOF 13
ENDMDL
MODEL 3
REMARK VINA RESULT:     -11.7      0.266      5.887
REMARK SMILES COc1ccc(-c2cccc3ccccc23)c(C(=O)NCCCCNC(=O)c2ccc(-c3c4nc(c(-c5ccccc5)c5ccc([nH]5)c(-c5ccccc5)c5nc(c(-c6ccccc6)c6ccc3[nH]6)C=C5)C=C4)cc2)c1
REMARK SMILES IDX 23 1 22 2 21 3 20 4 18 5 19 6 17 8 3 9 4 10 76 11 5 12 6 13
REMARK SMILES IDX 2 14 1 15 7 16 8 17 16 18 9 19 11 20 15 21 10 22 12 23 14 24
REMARK SMILES IDX 13 25 24 26 25 27 26 28 27 30 28 31 29 32 75 33 30 34 74 35
REMARK SMILES IDX 31 36 32 37 33 38 68 39 34 40 73 41 67 42 69 43 35 44 72 45
REMARK SMILES IDX 66 46 65 47 36 49 58 50 43 51 57 52 44 53 47 54 56 55 70 56
REMARK SMILES IDX 45 57 46 58 55 60 71 61 48 62 37 63 38 64 42 65 39 66 41 67
REMARK SMILES IDX 40 68 59 69 60 70 64 71 61 72 63 73 62 74 49 75 50 76 54 77
REMARK SMILES IDX 51 78 53 79 52 80
REMARK H PARENT 20 7 25 29 69 48 47 59
REMARK Flexibility Score: inf
ROOT
ATOM      1  C   UNL A   1      32.941  28.547  25.726  1.00  0.00     0.023 C 
ENDROOT
BRANCH   1   2
ATOM      2  C   UNL A   1      34.039  28.290  24.706  1.00  0.00     0.023 C 
BRANCH   2   3
ATOM      3  C   UNL A   1      33.752  28.684  23.262  1.00  0.00     0.116 C 
BRANCH   3   4
ATOM      4  N   UNL A   1      33.888  27.628  22.265  1.00  0.00    -0.352 N 
ATOM      5  C   UNL A   1      33.012  26.621  21.877  1.00  0.00     0.252 C 
ATOM      6  O   UNL A   1      33.303  25.943  20.898  1.00  0.00    -0.269 OA
ATOM      7  H   UNL A   1      34.747  27.628  21.785  1.00  0.00     0.163 HD
BRANCH   5   8
ATOM      8  C   UNL A   1      31.776  26.343  22.665  1.00  0.00     0.051 A 
ATOM      9  C   UNL A   1      29.586  27.195  23.349  1.00  0.00     0.119 A 
ATOM     10  C   UNL A   1      29.575  26.288  24.398  1.00  0.00     0.047 A 
ATOM     11  C   UNL A   1      30.660  27.183  22.462  1.00  0.00     0.060 A 
ATOM     12  C   UNL A   1      30.597  25.348  24.514  1.00  0.00     0.013 A 
ATOM     13  C   UNL A   1      31.692  25.307  23.616  1.00  0.00    -0.005 A 
BRANCH   9  14
ATOM     14  O   UNL A   1      28.512  28.035  23.293  1.00  0.00    -0.497 OA
ATOM     15  C   UNL A   1      28.749  29.340  22.774  1.00  0.00     0.278 C 
ENDBRANCH   9  14
BRANCH  13  16
ATOM     16  C   UNL A   1      32.464  24.034  23.626  1.00  0.00    -0.010 A 
ATOM     17  C   UNL A   1      31.814  22.949  22.982  1.00  0.00     0.009 A 
ATOM     18  C   UNL A   1      33.653  23.766  24.361  1.00  0.00    -0.011 A 
ATOM     19  C   UNL A   1      32.233  21.634  23.139  1.00  0.00     0.001 A 
ATOM     20  C   UNL A   1      34.056  22.407  24.532  1.00  0.00    -0.018 A 
ATOM     21  C   UNL A   1      34.478  24.756  24.943  1.00  0.00     0.009 A 
ATOM     22  C   UNL A   1      33.329  21.365  23.943  1.00  0.00     0.009 A 
ATOM     23  C   UNL A   1      35.188  22.088  25.296  1.00  0.00     0.009 A 
ATOM     24  C   UNL A   1      35.642  24.421  25.647  1.00  0.00     0.001 A 
ATOM     25  C   UNL A   1      35.985  23.090  25.841  1.00  0.00     0.001 A 
ENDBRANCH  13  16
ENDBRANCH   5   8
ENDBRANCH   3   4
ENDBRANCH   2   3
ENDBRANCH   1   2
BRANCH   1  26
ATOM     26  C   UNL A   1      33.387  28.695  27.175  1.00  0.00     0.116 C 
BRANCH  26  27
ATOM     27  N   UNL A   1      33.415  30.071  27.652  1.00  0.00    -0.352 N 
ATOM     28  C   UNL A   1      34.448  30.779  28.223  1.00  0.00     0.251 C 
ATOM     29  H   UNL A   1      32.571  30.568  27.551  1.00  0.00     0.163 HD
ATOM     30  O   UNL A   1      34.263  31.924  28.626  1.00  0.00    -0.269 OA
BRANCH  28  31
ATOM     31  C   UNL A   1      35.771  30.142  28.396  1.00  0.00     0.039 A 
ATOM     32  C   UNL A   1      36.675  30.165  27.331  1.00  0.00     0.014 A 
ATOM     33  C   UNL A   1      36.138  29.566  29.615  1.00  0.00     0.014 A 
ATOM     34  C   UNL A   1      37.979  29.700  27.520  1.00  0.00     0.010 A 
ATOM     35  C   UNL A   1      37.459  29.189  29.829  1.00  0.00     0.010 A 
ATOM     36  C   UNL A   1      38.396  29.256  28.785  1.00  0.00    -0.014 A 
BRANCH  36  37
ATOM     37  C   UNL A   1      39.806  28.870  29.046  1.00  0.00     0.031 A 
ATOM     38  C   UNL A   1      40.306  27.510  28.643  1.00  0.00     0.074 A 
ATOM     39  C   UNL A   1      40.618  29.712  29.715  1.00  0.00     0.049 A 
ATOM     40  N   UNL A   1      41.480  26.968  28.844  1.00  0.00    -0.248 NA
ATOM     41  C   UNL A   1      39.349  26.634  27.948  1.00  0.00     0.031 C 
ATOM     42  C   UNL A   1      40.245  31.039  30.209  1.00  0.00     0.029 A 
ATOM     43  N   UNL A   1      41.926  29.569  30.107  1.00  0.00    -0.354 N 
ATOM     44  C   UNL A   1      41.396  25.684  28.321  1.00  0.00     0.074 A 
ATOM     45  C   UNL A   1      40.041  25.509  27.845  1.00  0.00     0.031 C 
ATOM     46  C   UNL A   1      41.307  31.599  30.810  1.00  0.00     0.029 A 
ATOM     47  C   UNL A   1      42.422  30.659  30.783  1.00  0.00     0.049 A 
ATOM     48  H   UNL A   1      42.459  28.762  29.921  1.00  0.00     0.167 HD
ATOM     49  C   UNL A   1      42.363  24.741  28.224  1.00  0.00     0.031 A 
ATOM     50  C   UNL A   1      43.635  30.875  31.323  1.00  0.00     0.031 A 
ATOM     51  C   UNL A   1      43.712  24.916  28.690  1.00  0.00     0.049 A 
ATOM     52  C   UNL A   1      44.692  29.813  31.211  1.00  0.00     0.074 A 
ATOM     53  C   UNL A   1      44.781  24.043  28.583  1.00  0.00     0.029 A 
ATOM     54  N   UNL A   1      44.177  26.039  29.356  1.00  0.00    -0.354 N 
ATOM     55  N   UNL A   1      44.618  28.632  30.646  1.00  0.00    -0.248 NA
ATOM     56  C   UNL A   1      46.002  30.118  31.800  1.00  0.00     0.031 C 
ATOM     57  C   UNL A   1      45.879  24.618  29.231  1.00  0.00     0.029 A 
ATOM     58  C   UNL A   1      45.510  25.873  29.689  1.00  0.00     0.049 A 
ATOM     59  H   UNL A   1      43.638  26.837  29.562  1.00  0.00     0.167 HD
ATOM     60  C   UNL A   1      45.878  28.064  30.789  1.00  0.00     0.074 A 
ATOM     61  C   UNL A   1      46.700  29.037  31.479  1.00  0.00     0.031 C 
ATOM     62  C   UNL A   1      46.314  26.847  30.382  1.00  0.00     0.031 A 
BRANCH  49  63
ATOM     63  C   UNL A   1      41.980  23.428  27.595  1.00  0.00    -0.014 A 
ATOM     64  C   UNL A   1      42.255  23.160  26.245  1.00  0.00     0.009 A 
ATOM     65  C   UNL A   1      41.346  22.442  28.366  1.00  0.00     0.009 A 
ATOM     66  C   UNL A   1      41.859  21.952  25.667  1.00  0.00     0.001 A 
ATOM     67  C   UNL A   1      40.979  21.223  27.795  1.00  0.00     0.001 A 
ATOM     68  C   UNL A   1      41.224  20.984  26.443  1.00  0.00     0.000 A 
ENDBRANCH  49  63
BRANCH  50  69
ATOM     69  C   UNL A   1      43.924  32.166  32.002  1.00  0.00    -0.014 A 
ATOM     70  C   UNL A   1      43.694  32.312  33.379  1.00  0.00     0.009 A 
ATOM     71  C   UNL A   1      44.439  33.254  31.281  1.00  0.00     0.009 A 
ATOM     72  C   UNL A   1      43.954  33.528  34.015  1.00  0.00     0.001 A 
ATOM     73  C   UNL A   1      44.725  34.460  31.925  1.00  0.00     0.001 A 
ATOM     74  C   UNL A   1      44.475  34.598  33.290  1.00  0.00     0.000 A 
ENDBRANCH  50  69
BRANCH  62  75
ATOM     75  C   UNL A   1      47.755  26.510  30.645  1.00  0.00    -0.014 A 
ATOM     76  C   UNL A   1      48.155  25.904  31.846  1.00  0.00     0.009 A 
ATOM     77  C   UNL A   1      48.718  26.765  29.657  1.00  0.00     0.009 A 
ATOM     78  C   UNL A   1      49.498  25.590  32.064  1.00  0.00     0.001 A 
ATOM     79  C   UNL A   1      50.055  26.423  29.865  1.00  0.00     0.001 A 
ATOM     80  C   UNL A   1      50.446  25.844  31.072  1.00  0.00     0.000 A 
ENDBRANCH  62  75
ENDBRANCH  36  37
ENDBRANCH  28  31
ENDBRANCH  26  27
ENDBRANCH   1  26
TORSDOF 13
ENDMDL
