MODEL 1
REMARK VINA RESULT:     -11.9      0.000      0.000
REMARK SMILES Cc1ccc(Nc2c(F)cccc2I)c(CC(=O)NCCCCNC(=O)c2ccc(-c3c4nc(c(-c5ccccc5)c5ccc([nH]5)c(-c5ccccc5)c5nc(c(-c6ccccc6)c6ccc3[nH]6)C=C5)C=C4)cc2)c1
REMARK SMILES IDX 21 1 20 2 19 3 17 4 18 5 16 7 15 8 1 9 2 10 3 11 75 12 4 13
REMARK SMILES IDX 5 14 6 15 7 17 8 18 13 19 9 20 10 21 12 22 14 23 11 24 22 25
REMARK SMILES IDX 23 26 24 27 25 28 26 30 27 31 28 32 74 33 29 34 73 35 30 36
REMARK SMILES IDX 31 37 32 38 67 39 33 40 72 41 66 42 68 43 34 44 71 45 65 46
REMARK SMILES IDX 64 47 35 49 57 50 42 51 56 52 43 53 46 54 55 55 69 56 44 57
REMARK SMILES IDX 45 58 54 60 70 61 47 62 36 63 37 64 41 65 38 66 40 67 39 68
REMARK SMILES IDX 58 69 59 70 63 71 60 72 62 73 61 74 48 75 49 76 53 77 50 78
REMARK SMILES IDX 52 79 51 80
REMARK H PARENT 19 6 6 16 24 29 68 48 46 59
REMARK Flexibility Score: inf
ROOT
ATOM      1  C   UNL A   1      31.644  30.023  26.024  1.00  0.00     0.023 C 
ENDROOT
BRANCH   1   2
ATOM      2  C   UNL A   1      32.412  28.724  25.736  1.00  0.00     0.116 C 
BRANCH   2   3
ATOM      3  N   UNL A   1      31.778  27.534  26.277  1.00  0.00    -0.356 N 
ATOM      4  C   UNL A   1      32.214  26.243  26.308  1.00  0.00     0.224 C 
ATOM      5  O   UNL A   1      31.463  25.385  26.781  1.00  0.00    -0.275 OA
ATOM      6  H   UNL A   1      30.895  27.684  26.688  1.00  0.00     0.163 HD
BRANCH   4   7
ATOM      7  C   UNL A   1      33.574  25.851  25.767  1.00  0.00     0.137 C 
BRANCH   7   8
ATOM      8  C   UNL A   1      33.527  25.164  24.420  1.00  0.00    -0.015 A 
ATOM      9  C   UNL A   1      31.952  26.005  21.038  1.00  0.00     0.044 C 
ATOM     10  C   UNL A   1      32.711  25.289  22.113  1.00  0.00    -0.051 A 
ATOM     11  C   UNL A   1      33.177  23.993  21.901  1.00  0.00     0.005 A 
ATOM     12  C   UNL A   1      32.927  25.881  23.358  1.00  0.00     0.009 A 
ATOM     13  C   UNL A   1      33.821  23.296  22.929  1.00  0.00     0.026 A 
ATOM     14  C   UNL A   1      33.992  23.846  24.210  1.00  0.00     0.042 A 
BRANCH  14  15
ATOM     15  N   UNL A   1      34.606  23.105  25.244  1.00  0.00    -0.352 N 
ATOM     16  H   UNL A   1      34.258  23.292  26.146  1.00  0.00     0.167 HD
BRANCH  15  17
ATOM     17  C   UNL A   1      35.638  22.139  25.193  1.00  0.00     0.088 A 
ATOM     18  C   UNL A   1      36.996  22.502  25.192  1.00  0.00     0.147 A 
ATOM     19  C   UNL A   1      35.346  20.766  25.074  1.00  0.00     0.040 A 
ATOM     20  F   UNL A   1      37.355  23.789  25.324  1.00  0.00    -0.205 F 
ATOM     21  C   UNL A   1      38.016  21.556  25.086  1.00  0.00     0.041 A 
ATOM     22  C   UNL A   1      36.366  19.810  24.964  1.00  0.00     0.017 A 
ATOM     23  I   UNL A   1      33.372  20.045  24.990  1.00  0.00    -0.042 I 
ATOM     24  C   UNL A   1      37.702  20.206  24.970  1.00  0.00     0.004 A 
ENDBRANCH  15  17
ENDBRANCH  14  15
ENDBRANCH   7   8
ENDBRANCH   4   7
ENDBRANCH   2   3
ENDBRANCH   1   2
BRANCH   1  25
ATOM     25  C   UNL A   1      32.378  31.058  26.877  1.00  0.00     0.023 C 
BRANCH  25  26
ATOM     26  C   UNL A   1      33.715  30.580  27.416  1.00  0.00     0.116 C 
BRANCH  26  27
ATOM     27  N   UNL A   1      34.444  31.567  28.204  1.00  0.00    -0.352 N 
ATOM     28  C   UNL A   1      35.653  31.434  28.870  1.00  0.00     0.251 C 
ATOM     29  H   UNL A   1      34.017  32.451  28.273  1.00  0.00     0.163 HD
ATOM     30  O   UNL A   1      36.096  32.356  29.537  1.00  0.00    -0.269 OA
BRANCH  28  31
ATOM     31  C   UNL A   1      36.474  30.217  28.644  1.00  0.00     0.039 A 
ATOM     32  C   UNL A   1      36.669  29.365  29.736  1.00  0.00     0.014 A 
ATOM     33  C   UNL A   1      37.237  30.065  27.490  1.00  0.00     0.014 A 
ATOM     34  C   UNL A   1      37.809  28.570  29.779  1.00  0.00     0.010 A 
ATOM     35  C   UNL A   1      38.423  29.361  27.572  1.00  0.00     0.010 A 
ATOM     36  C   UNL A   1      38.744  28.687  28.754  1.00  0.00    -0.014 A 
BRANCH  36  37
ATOM     37  C   UNL A   1      40.136  28.283  28.908  1.00  0.00     0.031 A 
ATOM     38  C   UNL A   1      40.599  26.975  28.418  1.00  0.00     0.074 A 
ATOM     39  C   UNL A   1      41.020  29.139  29.468  1.00  0.00     0.049 A 
ATOM     40  N   UNL A   1      41.686  26.409  28.822  1.00  0.00    -0.248 NA
ATOM     41  C   UNL A   1      39.824  26.145  27.500  1.00  0.00     0.031 C 
ATOM     42  C   UNL A   1      42.479  29.058  29.461  1.00  0.00     0.029 A 
ATOM     43  N   UNL A   1      40.735  30.147  30.392  1.00  0.00    -0.354 N 
ATOM     44  C   UNL A   1      41.915  25.338  27.999  1.00  0.00     0.074 A 
ATOM     45  C   UNL A   1      40.665  25.124  27.312  1.00  0.00     0.031 C 
ATOM     46  C   UNL A   1      42.956  29.769  30.494  1.00  0.00     0.029 A 
ATOM     47  C   UNL A   1      41.818  30.194  31.290  1.00  0.00     0.049 A 
ATOM     48  H   UNL A   1      39.932  30.715  30.410  1.00  0.00     0.167 HD
ATOM     49  C   UNL A   1      43.182  24.858  27.883  1.00  0.00     0.031 A 
ATOM     50  C   UNL A   1      41.637  29.903  32.612  1.00  0.00     0.031 A 
ATOM     51  C   UNL A   1      44.070  25.386  28.924  1.00  0.00     0.049 A 
ATOM     52  C   UNL A   1      42.421  28.702  33.111  1.00  0.00     0.074 A 
ATOM     53  C   UNL A   1      45.167  26.230  28.944  1.00  0.00     0.029 A 
ATOM     54  N   UNL A   1      43.703  25.212  30.253  1.00  0.00    -0.354 N 
ATOM     55  N   UNL A   1      43.154  27.923  32.365  1.00  0.00    -0.248 NA
ATOM     56  C   UNL A   1      42.342  28.227  34.492  1.00  0.00     0.031 C 
ATOM     57  C   UNL A   1      45.441  26.574  30.302  1.00  0.00     0.029 A 
ATOM     58  C   UNL A   1      44.532  25.913  31.107  1.00  0.00     0.049 A 
ATOM     59  H   UNL A   1      42.946  24.657  30.550  1.00  0.00     0.167 HD
ATOM     60  C   UNL A   1      43.580  26.845  33.099  1.00  0.00     0.074 A 
ATOM     61  C   UNL A   1      43.045  27.083  34.427  1.00  0.00     0.031 C 
ATOM     62  C   UNL A   1      44.293  25.820  32.542  1.00  0.00     0.031 A 
BRANCH  49  63
ATOM     63  C   UNL A   1      43.670  24.047  26.700  1.00  0.00    -0.014 A 
ATOM     64  C   UNL A   1      43.434  22.661  26.662  1.00  0.00     0.009 A 
ATOM     65  C   UNL A   1      44.463  24.556  25.653  1.00  0.00     0.009 A 
ATOM     66  C   UNL A   1      43.973  21.841  25.657  1.00  0.00     0.001 A 
ATOM     67  C   UNL A   1      44.979  23.751  24.630  1.00  0.00     0.001 A 
ATOM     68  C   UNL A   1      44.744  22.387  24.638  1.00  0.00     0.000 A 
ENDBRANCH  49  63
BRANCH  50  69
ATOM     69  C   UNL A   1      40.299  30.312  33.129  1.00  0.00    -0.014 A 
ATOM     70  C   UNL A   1      40.028  31.687  33.279  1.00  0.00     0.009 A 
ATOM     71  C   UNL A   1      39.223  29.413  33.136  1.00  0.00     0.009 A 
ATOM     72  C   UNL A   1      38.711  32.158  33.317  1.00  0.00     0.001 A 
ATOM     73  C   UNL A   1      37.906  29.889  33.192  1.00  0.00     0.001 A 
ATOM     74  C   UNL A   1      37.651  31.260  33.245  1.00  0.00     0.000 A 
ENDBRANCH  50  69
BRANCH  62  75
ATOM     75  C   UNL A   1      44.781  24.582  33.269  1.00  0.00    -0.014 A 
ATOM     76  C   UNL A   1      44.001  23.442  33.504  1.00  0.00     0.009 A 
ATOM     77  C   UNL A   1      46.077  24.576  33.835  1.00  0.00     0.009 A 
ATOM     78  C   UNL A   1      44.520  22.327  34.181  1.00  0.00     0.001 A 
ATOM     79  C   UNL A   1      46.591  23.480  34.532  1.00  0.00     0.001 A 
ATOM     80  C   UNL A   1      45.815  22.343  34.689  1.00  0.00     0.000 A 
ENDBRANCH  62  75
ENDBRANCH  36  37
ENDBRANCH  28  31
ENDBRANCH  26  27
ENDBRANCH  25  26
ENDBRANCH   1  25
TORSDOF 14
ENDMDL
MODEL 2
REMARK VINA RESULT:     -11.7      1.864      2.706
REMARK SMILES Cc1ccc(Nc2c(F)cccc2I)c(CC(=O)NCCCCNC(=O)c2ccc(-c3c4nc(c(-c5ccccc5)c5ccc([nH]5)c(-c5ccccc5)c5nc(c(-c6ccccc6)c6ccc3[nH]6)C=C5)C=C4)cc2)c1
REMARK SMILES IDX 21 1 20 2 19 3 17 4 18 5 16 7 15 8 1 9 2 10 3 11 75 12 4 13
REMARK SMILES IDX 5 14 6 15 7 17 8 18 13 19 9 20 10 21 12 22 14 23 11 24 22 25
REMARK SMILES IDX 23 26 24 27 25 28 26 30 27 31 28 32 74 33 29 34 73 35 30 36
REMARK SMILES IDX 31 37 32 38 67 39 33 40 72 41 66 42 68 43 34 44 71 45 65 46
REMARK SMILES IDX 64 47 35 49 57 50 42 51 56 52 43 53 46 54 55 55 69 56 44 57
REMARK SMILES IDX 45 58 54 60 70 61 47 62 36 63 37 64 41 65 38 66 40 67 39 68
REMARK SMILES IDX 58 69 59 70 63 71 60 72 62 73 61 74 48 75 49 76 53 77 50 78
REMARK SMILES IDX 52 79 51 80
REMARK H PARENT 19 6 6 16 24 29 68 48 46 59
REMARK Flexibility Score: inf
ROOT
ATOM      1  C   UNL A   1      34.041  30.503  26.818  1.00  0.00     0.023 C 
ENDROOT
BRANCH   1   2
ATOM      2  C   UNL A   1      34.154  29.111  27.459  1.00  0.00     0.116 C 
BRANCH   2   3
ATOM      3  N   UNL A   1      32.874  28.526  27.822  1.00  0.00    -0.356 N 
ATOM      4  C   UNL A   1      31.986  27.819  27.067  1.00  0.00     0.224 C 
ATOM      5  O   UNL A   1      30.926  27.466  27.591  1.00  0.00    -0.275 OA
ATOM      6  H   UNL A   1      32.607  28.661  28.760  1.00  0.00     0.163 HD
BRANCH   4   7
ATOM      7  C   UNL A   1      32.270  27.479  25.618  1.00  0.00     0.137 C 
BRANCH   7   8
ATOM      8  C   UNL A   1      31.149  27.839  24.669  1.00  0.00    -0.015 A 
ATOM      9  C   UNL A   1      29.420  31.103  23.680  1.00  0.00     0.044 C 
ATOM     10  C   UNL A   1      29.781  29.651  23.748  1.00  0.00    -0.051 A 
ATOM     11  C   UNL A   1      28.994  28.699  23.102  1.00  0.00     0.005 A 
ATOM     12  C   UNL A   1      30.877  29.216  24.492  1.00  0.00     0.009 A 
ATOM     13  C   UNL A   1      29.287  27.337  23.225  1.00  0.00     0.026 A 
ATOM     14  C   UNL A   1      30.347  26.871  24.022  1.00  0.00     0.042 A 
BRANCH  14  15
ATOM     15  N   UNL A   1      30.594  25.489  24.166  1.00  0.00    -0.352 N 
ATOM     16  H   UNL A   1      29.891  24.992  24.644  1.00  0.00     0.167 HD
BRANCH  15  17
ATOM     17  C   UNL A   1      31.689  24.701  23.736  1.00  0.00     0.088 A 
ATOM     18  C   UNL A   1      32.150  24.729  22.409  1.00  0.00     0.147 A 
ATOM     19  C   UNL A   1      32.326  23.800  24.613  1.00  0.00     0.040 A 
ATOM     20  F   UNL A   1      31.608  25.577  21.520  1.00  0.00    -0.205 F 
ATOM     21  C   UNL A   1      33.192  23.913  21.968  1.00  0.00     0.041 A 
ATOM     22  C   UNL A   1      33.373  22.974  24.176  1.00  0.00     0.017 A 
ATOM     23  I   UNL A   1      31.726  23.573  26.616  1.00  0.00    -0.042 I 
ATOM     24  C   UNL A   1      33.805  23.032  22.853  1.00  0.00     0.004 A 
ENDBRANCH  15  17
ENDBRANCH  14  15
ENDBRANCH   7   8
ENDBRANCH   4   7
ENDBRANCH   2   3
ENDBRANCH   1   2
BRANCH   1  25
ATOM     25  C   UNL A   1      33.612  31.636  27.751  1.00  0.00     0.023 C 
BRANCH  25  26
ATOM     26  C   UNL A   1      34.738  32.578  28.140  1.00  0.00     0.116 C 
BRANCH  26  27
ATOM     27  N   UNL A   1      34.984  32.677  29.574  1.00  0.00    -0.352 N 
ATOM     28  C   UNL A   1      35.682  31.812  30.403  1.00  0.00     0.251 C 
ATOM     29  H   UNL A   1      34.600  33.469  30.014  1.00  0.00     0.163 HD
ATOM     30  O   UNL A   1      35.743  32.022  31.604  1.00  0.00    -0.269 OA
BRANCH  28  31
ATOM     31  C   UNL A   1      36.478  30.714  29.797  1.00  0.00     0.039 A 
ATOM     32  C   UNL A   1      36.612  29.536  30.540  1.00  0.00     0.014 A 
ATOM     33  C   UNL A   1      37.277  30.932  28.679  1.00  0.00     0.014 A 
ATOM     34  C   UNL A   1      37.728  28.732  30.339  1.00  0.00     0.010 A 
ATOM     35  C   UNL A   1      38.441  30.199  28.546  1.00  0.00     0.010 A 
ATOM     36  C   UNL A   1      38.702  29.154  29.437  1.00  0.00    -0.014 A 
BRANCH  36  37
ATOM     37  C   UNL A   1      40.076  28.671  29.478  1.00  0.00     0.031 A 
ATOM     38  C   UNL A   1      40.426  27.348  28.937  1.00  0.00     0.074 A 
ATOM     39  C   UNL A   1      41.048  29.467  29.980  1.00  0.00     0.049 A 
ATOM     40  N   UNL A   1      41.507  26.716  29.249  1.00  0.00    -0.248 NA
ATOM     41  C   UNL A   1      39.538  26.578  28.071  1.00  0.00     0.031 C 
ATOM     42  C   UNL A   1      42.495  29.306  29.859  1.00  0.00     0.029 A 
ATOM     43  N   UNL A   1      40.891  30.473  30.935  1.00  0.00    -0.354 N 
ATOM     44  C   UNL A   1      41.611  25.648  28.398  1.00  0.00     0.074 A 
ATOM     45  C   UNL A   1      40.303  25.515  27.806  1.00  0.00     0.031 C 
ATOM     46  C   UNL A   1      43.088  29.971  30.861  1.00  0.00     0.029 A 
ATOM     47  C   UNL A   1      42.040  30.446  31.748  1.00  0.00     0.049 A 
ATOM     48  H   UNL A   1      40.125  31.084  31.022  1.00  0.00     0.167 HD
ATOM     49  C   UNL A   1      42.837  25.100  28.178  1.00  0.00     0.031 A 
ATOM     50  C   UNL A   1      41.945  30.143  33.076  1.00  0.00     0.031 A 
ATOM     51  C   UNL A   1      43.830  25.561  29.155  1.00  0.00     0.049 A 
ATOM     52  C   UNL A   1      42.695  28.892  33.498  1.00  0.00     0.074 A 
ATOM     53  C   UNL A   1      44.971  26.342  29.101  1.00  0.00     0.029 A 
ATOM     54  N   UNL A   1      43.556  25.385  30.506  1.00  0.00    -0.354 N 
ATOM     55  N   UNL A   1      43.324  28.086  32.688  1.00  0.00    -0.248 NA
ATOM     56  C   UNL A   1      42.694  28.398  34.875  1.00  0.00     0.031 C 
ATOM     57  C   UNL A   1      45.367  26.648  30.438  1.00  0.00     0.029 A 
ATOM     58  C   UNL A   1      44.486  26.025  31.302  1.00  0.00     0.049 A 
ATOM     59  H   UNL A   1      42.794  24.868  30.854  1.00  0.00     0.167 HD
ATOM     60  C   UNL A   1      43.743  26.974  33.374  1.00  0.00     0.074 A 
ATOM     61  C   UNL A   1      43.324  27.218  34.742  1.00  0.00     0.031 C 
ATOM     62  C   UNL A   1      44.352  25.920  32.750  1.00  0.00     0.031 A 
BRANCH  49  63
ATOM     63  C   UNL A   1      43.187  24.284  26.951  1.00  0.00    -0.014 A 
ATOM     64  C   UNL A   1      43.032  22.886  26.979  1.00  0.00     0.009 A 
ATOM     65  C   UNL A   1      43.778  24.806  25.785  1.00  0.00     0.009 A 
ATOM     66  C   UNL A   1      43.460  22.069  25.920  1.00  0.00     0.001 A 
ATOM     67  C   UNL A   1      44.181  24.001  24.711  1.00  0.00     0.001 A 
ATOM     68  C   UNL A   1      44.032  22.627  24.783  1.00  0.00     0.000 A 
ENDBRANCH  49  63
BRANCH  50  69
ATOM     69  C   UNL A   1      40.674  30.616  33.699  1.00  0.00    -0.014 A 
ATOM     70  C   UNL A   1      40.546  31.986  34.006  1.00  0.00     0.009 A 
ATOM     71  C   UNL A   1      39.516  29.827  33.666  1.00  0.00     0.009 A 
ATOM     72  C   UNL A   1      39.285  32.571  34.160  1.00  0.00     0.001 A 
ATOM     73  C   UNL A   1      38.256  30.414  33.838  1.00  0.00     0.001 A 
ATOM     74  C   UNL A   1      38.140  31.789  34.047  1.00  0.00     0.000 A 
ENDBRANCH  50  69
BRANCH  62  75
ATOM     75  C   UNL A   1      44.823  24.646  33.422  1.00  0.00    -0.014 A 
ATOM     76  C   UNL A   1      46.152  24.381  33.778  1.00  0.00     0.009 A 
ATOM     77  C   UNL A   1      43.900  23.597  33.645  1.00  0.00     0.009 A 
ATOM     78  C   UNL A   1      46.517  23.179  34.405  1.00  0.00     0.001 A 
ATOM     79  C   UNL A   1      44.261  22.388  34.245  1.00  0.00     0.001 A 
ATOM     80  C   UNL A   1      45.572  22.187  34.643  1.00  0.00     0.000 A 
ENDBRANCH  62  75
ENDBRANCH  36  37
ENDBRANCH  28  31
ENDBRANCH  26  27
ENDBRANCH  25  26
ENDBRANCH   1  25
TORSDOF 14
ENDMDL
MODEL 3
REMARK VINA RESULT:     -11.7      2.881      4.555
REMARK SMILES Cc1ccc(Nc2c(F)cccc2I)c(CC(=O)NCCCCNC(=O)c2ccc(-c3c4nc(c(-c5ccccc5)c5ccc([nH]5)c(-c5ccccc5)c5nc(c(-c6ccccc6)c6ccc3[nH]6)C=C5)C=C4)cc2)c1
REMARK SMILES IDX 21 1 20 2 19 3 17 4 18 5 16 7 15 8 1 9 2 10 3 11 75 12 4 13
REMARK SMILES IDX 5 14 6 15 7 17 8 18 13 19 9 20 10 21 12 22 14 23 11 24 22 25
REMARK SMILES IDX 23 26 24 27 25 28 26 30 27 31 28 32 74 33 29 34 73 35 30 36
REMARK SMILES IDX 31 37 32 38 67 39 33 40 72 41 66 42 68 43 34 44 71 45 65 46
REMARK SMILES IDX 64 47 35 49 57 50 42 51 56 52 43 53 46 54 55 55 69 56 44 57
REMARK SMILES IDX 45 58 54 60 70 61 47 62 36 63 37 64 41 65 38 66 40 67 39 68
REMARK SMILES IDX 58 69 59 70 63 71 60 72 62 73 61 74 48 75 49 76 53 77 50 78
REMARK SMILES IDX 52 79 51 80
REMARK H PARENT 19 6 6 16 24 29 68 48 46 59
REMARK Flexibility Score: inf
ROOT
ATOM      1  C   UNL A   1      34.952  29.460  27.156  1.00  0.00     0.023 C 
ENDROOT
BRANCH   1   2
ATOM      2  C   UNL A   1      34.320  28.338  26.318  1.00  0.00     0.116 C 
BRANCH   2   3
ATOM      3  N   UNL A   1      34.072  28.707  24.935  1.00  0.00    -0.356 N 
ATOM      4  C   UNL A   1      32.902  29.008  24.303  1.00  0.00     0.224 C 
ATOM      5  O   UNL A   1      32.937  29.242  23.091  1.00  0.00    -0.275 OA
ATOM      6  H   UNL A   1      34.874  28.745  24.365  1.00  0.00     0.163 HD
BRANCH   4   7
ATOM      7  C   UNL A   1      31.583  29.047  25.048  1.00  0.00     0.137 C 
BRANCH   7   8
ATOM      8  C   UNL A   1      30.369  29.096  24.148  1.00  0.00    -0.015 A 
ATOM      9  C   UNL A   1      28.017  31.873  22.971  1.00  0.00     0.044 C 
ATOM     10  C   UNL A   1      28.644  30.524  23.153  1.00  0.00    -0.051 A 
ATOM     11  C   UNL A   1      28.017  29.384  22.657  1.00  0.00     0.005 A 
ATOM     12  C   UNL A   1      29.838  30.375  23.859  1.00  0.00     0.009 A 
ATOM     13  C   UNL A   1      28.563  28.117  22.890  1.00  0.00     0.026 A 
ATOM     14  C   UNL A   1      29.729  27.937  23.653  1.00  0.00     0.042 A 
BRANCH  14  15
ATOM     15  N   UNL A   1      30.236  26.645  23.912  1.00  0.00    -0.352 N 
ATOM     16  H   UNL A   1      29.665  26.087  24.489  1.00  0.00     0.167 HD
BRANCH  15  17
ATOM     17  C   UNL A   1      31.430  26.022  23.478  1.00  0.00     0.088 A 
ATOM     18  C   UNL A   1      31.838  26.051  22.134  1.00  0.00     0.147 A 
ATOM     19  C   UNL A   1      32.232  25.284  24.371  1.00  0.00     0.040 A 
ATOM     20  F   UNL A   1      31.137  26.751  21.227  1.00  0.00    -0.205 F 
ATOM     21  C   UNL A   1      32.985  25.391  21.692  1.00  0.00     0.041 A 
ATOM     22  C   UNL A   1      33.385  24.615  23.934  1.00  0.00     0.017 A 
ATOM     23  I   UNL A   1      31.741  25.073  26.405  1.00  0.00    -0.042 I 
ATOM     24  C   UNL A   1      33.761  24.670  22.593  1.00  0.00     0.004 A 
ENDBRANCH  15  17
ENDBRANCH  14  15
ENDBRANCH   7   8
ENDBRANCH   4   7
ENDBRANCH   2   3
ENDBRANCH   1   2
BRANCH   1  25
ATOM     25  C   UNL A   1      34.024  30.612  27.540  1.00  0.00     0.023 C 
BRANCH  25  26
ATOM     26  C   UNL A   1      34.749  31.888  27.929  1.00  0.00     0.116 C 
BRANCH  26  27
ATOM     27  N   UNL A   1      33.892  32.939  28.466  1.00  0.00    -0.352 N 
ATOM     28  C   UNL A   1      34.111  33.778  29.548  1.00  0.00     0.251 C 
ATOM     29  H   UNL A   1      33.039  33.071  27.992  1.00  0.00     0.163 HD
ATOM     30  O   UNL A   1      33.252  34.573  29.898  1.00  0.00    -0.269 OA
BRANCH  28  31
ATOM     31  C   UNL A   1      35.453  33.804  30.184  1.00  0.00     0.039 A 
ATOM     32  C   UNL A   1      36.505  34.344  29.437  1.00  0.00     0.014 A 
ATOM     33  C   UNL A   1      35.716  33.085  31.346  1.00  0.00     0.014 A 
ATOM     34  C   UNL A   1      37.804  33.919  29.689  1.00  0.00     0.010 A 
ATOM     35  C   UNL A   1      36.986  32.576  31.534  1.00  0.00     0.010 A 
ATOM     36  C   UNL A   1      38.008  32.929  30.648  1.00  0.00    -0.014 A 
BRANCH  36  37
ATOM     37  C   UNL A   1      39.202  32.094  30.676  1.00  0.00     0.031 A 
ATOM     38  C   UNL A   1      39.224  30.786  30.002  1.00  0.00     0.074 A 
ATOM     39  C   UNL A   1      40.317  32.548  31.293  1.00  0.00     0.049 A 
ATOM     40  N   UNL A   1      40.080  29.860  30.274  1.00  0.00    -0.248 NA
ATOM     41  C   UNL A   1      38.217  30.373  29.029  1.00  0.00     0.031 C 
ATOM     42  C   UNL A   1      41.676  32.018  31.199  1.00  0.00     0.029 A 
ATOM     43  N   UNL A   1      40.375  33.458  32.349  1.00  0.00    -0.354 N 
ATOM     44  C   UNL A   1      39.950  28.894  29.312  1.00  0.00     0.074 A 
ATOM     45  C   UNL A   1      38.689  29.175  28.670  1.00  0.00     0.031 C 
ATOM     46  C   UNL A   1      42.363  32.397  32.286  1.00  0.00     0.029 A 
ATOM     47  C   UNL A   1      41.426  33.044  33.188  1.00  0.00     0.049 A 
ATOM     48  H   UNL A   1      39.793  34.240  32.481  1.00  0.00     0.167 HD
ATOM     49  C   UNL A   1      41.000  28.063  29.070  1.00  0.00     0.031 A 
ATOM     50  C   UNL A   1      41.177  32.646  34.470  1.00  0.00     0.031 A 
ATOM     51  C   UNL A   1      42.020  28.141  30.122  1.00  0.00     0.049 A 
ATOM     52  C   UNL A   1      41.545  31.205  34.773  1.00  0.00     0.074 A 
ATOM     53  C   UNL A   1      43.327  28.590  30.190  1.00  0.00     0.029 A 
ATOM     54  N   UNL A   1      41.630  27.911  31.436  1.00  0.00    -0.354 N 
ATOM     55  N   UNL A   1      41.987  30.345  33.897  1.00  0.00    -0.248 NA
ATOM     56  C   UNL A   1      41.334  30.595  36.085  1.00  0.00     0.031 C 
ATOM     57  C   UNL A   1      43.710  28.644  31.564  1.00  0.00     0.029 A 
ATOM     58  C   UNL A   1      42.646  28.197  32.326  1.00  0.00     0.049 A 
ATOM     59  H   UNL A   1      40.739  27.585  31.700  1.00  0.00     0.167 HD
ATOM     60  C   UNL A   1      42.058  29.099  34.467  1.00  0.00     0.074 A 
ATOM     61  C   UNL A   1      41.639  29.309  35.841  1.00  0.00     0.031 C 
ATOM     62  C   UNL A   1      42.405  27.988  33.749  1.00  0.00     0.031 A 
BRANCH  49  63
ATOM     63  C   UNL A   1      41.194  27.309  27.771  1.00  0.00    -0.014 A 
ATOM     64  C   UNL A   1      40.507  26.100  27.558  1.00  0.00     0.009 A 
ATOM     65  C   UNL A   1      42.117  27.666  26.769  1.00  0.00     0.009 A 
ATOM     66  C   UNL A   1      40.746  25.296  26.432  1.00  0.00     0.001 A 
ATOM     67  C   UNL A   1      42.340  26.885  25.628  1.00  0.00     0.001 A 
ATOM     68  C   UNL A   1      41.661  25.691  25.464  1.00  0.00     0.000 A 
ENDBRANCH  49  63
BRANCH  50  69
ATOM     69  C   UNL A   1      40.041  33.378  35.104  1.00  0.00    -0.014 A 
ATOM     70  C   UNL A   1      38.742  32.843  34.976  1.00  0.00     0.009 A 
ATOM     71  C   UNL A   1      40.268  34.356  36.083  1.00  0.00     0.009 A 
ATOM     72  C   UNL A   1      37.732  33.192  35.878  1.00  0.00     0.001 A 
ATOM     73  C   UNL A   1      39.248  34.714  36.973  1.00  0.00     0.001 A 
ATOM     74  C   UNL A   1      37.994  34.106  36.893  1.00  0.00     0.000 A 
ENDBRANCH  50  69
BRANCH  62  75
ATOM     75  C   UNL A   1      42.484  26.574  34.288  1.00  0.00    -0.014 A 
ATOM     76  C   UNL A   1      41.537  25.998  35.146  1.00  0.00     0.009 A 
ATOM     77  C   UNL A   1      43.618  25.782  33.993  1.00  0.00     0.009 A 
ATOM     78  C   UNL A   1      41.670  24.677  35.603  1.00  0.00     0.001 A 
ATOM     79  C   UNL A   1      43.769  24.475  34.466  1.00  0.00     0.001 A 
ATOM     80  C   UNL A   1      42.782  23.915  35.258  1.00  0.00     0.000 A 
ENDBRANCH  62  75
ENDBRANCH  36  37
ENDBRANCH  28  31
ENDBRANCH  26  27
ENDBRANCH  25  26
ENDBRANCH   1  25
TORSDOF 14
ENDMDL
