MODEL 1
REMARK VINA RESULT:     -12.5      0.000      0.000
REMARK SMILES COc1cccc(C(=O)Nc2ccc(NC(=O)[C@@H]3[C@@H](C(=O)NCCCCNC(=O)c4ccc(-c5c6nc(c(-c7ccccc7)c7ccc([nH]7)c(-c7ccccc7)c7nc(c(-c8ccccc8)c8ccc5[nH]8)C=C7)C=C6)cc4)[C@@H]4C=C[C@H]3C4)cc2)c1
REMARK SMILES IDX 23 1 22 2 20 3 21 4 19 6 18 7 81 8 78 9 80 10 82 11 79 12
REMARK SMILES IDX 16 13 15 14 17 16 14 17 11 18 12 19 84 20 13 21 83 22 10 23
REMARK SMILES IDX 8 24 9 25 7 27 3 28 4 29 85 30 5 31 6 32 2 33 1 34 24 35
REMARK SMILES IDX 25 36 26 37 27 38 28 39 29 41 30 42 31 43 77 44 32 45 76 46
REMARK SMILES IDX 33 47 34 48 35 49 70 50 36 51 75 52 69 53 71 54 37 55 74 56
REMARK SMILES IDX 68 57 67 58 38 60 60 61 45 62 59 63 46 64 49 65 58 66 72 67
REMARK SMILES IDX 47 68 48 69 57 71 73 72 50 73 39 74 40 75 44 76 41 77 43 78
REMARK SMILES IDX 42 79 61 80 62 81 66 82 63 83 65 84 64 85 51 86 52 87 56 88
REMARK SMILES IDX 53 89 55 90 54 91
REMARK H PARENT 22 5 15 15 10 26 27 40 71 59 49 70
REMARK Flexibility Score: inf
ROOT
ATOM      1  C   UNL A   1      35.767  22.224  24.153  1.00  0.00     0.116 C 
ENDROOT
BRANCH   1   2
ATOM      2  N   UNL A   1      34.966  21.992  25.352  1.00  0.00    -0.356 N 
ATOM      3  C   UNL A   1      34.105  20.931  25.599  1.00  0.00     0.224 C 
ATOM      4  O   UNL A   1      33.605  20.801  26.713  1.00  0.00    -0.275 OA
ATOM      5  H   UNL A   1      35.045  22.665  26.066  1.00  0.00     0.163 HD
BRANCH   3   6
ATOM      6  C   UNL A   1      33.851  19.962  24.453  1.00  0.00     0.098 C 
ATOM      7  C   UNL A   1      32.367  19.791  23.861  1.00  0.00     0.099 C 
ATOM      8  C   UNL A   1      32.202  18.269  23.989  1.00  0.00     0.025 C 
ATOM      9  C   UNL A   1      34.142  18.534  25.012  1.00  0.00     0.025 C 
ATOM     10  C   UNL A   1      33.272  17.544  23.187  1.00  0.00    -0.027 C 
ATOM     11  C   UNL A   1      32.758  18.032  25.383  1.00  0.00     0.017 C 
ATOM     12  C   UNL A   1      34.438  17.685  23.820  1.00  0.00    -0.027 C 
BRANCH   7  13
ATOM     13  C   UNL A   1      32.162  20.477  22.495  1.00  0.00     0.228 C 
ATOM     14  N   UNL A   1      32.312  21.798  22.147  1.00  0.00    -0.326 N 
ATOM     15  H   UNL A   1      32.494  21.930  21.188  1.00  0.00     0.169 HD
ATOM     16  O   UNL A   1      31.853  19.746  21.537  1.00  0.00    -0.274 OA
BRANCH  14  17
ATOM     17  C   UNL A   1      32.258  23.003  22.875  1.00  0.00     0.041 A 
ATOM     18  C   UNL A   1      31.583  25.656  23.285  1.00  0.00     0.041 A 
ATOM     19  C   UNL A   1      30.964  24.655  24.039  1.00  0.00     0.028 A 
ATOM     20  C   UNL A   1      32.808  25.353  22.715  1.00  0.00     0.028 A 
ATOM     21  C   UNL A   1      31.338  23.314  23.856  1.00  0.00     0.028 A 
ATOM     22  C   UNL A   1      33.143  24.012  22.493  1.00  0.00     0.028 A 
BRANCH  18  23
ATOM     23  N   UNL A   1      30.841  26.825  23.026  1.00  0.00    -0.322 N 
ATOM     24  C   UNL A   1      30.686  28.030  23.689  1.00  0.00     0.255 C 
ATOM     25  O   UNL A   1      29.973  28.893  23.170  1.00  0.00    -0.269 OA
ATOM     26  H   UNL A   1      30.320  26.773  22.192  1.00  0.00     0.170 HD
BRANCH  24  27
ATOM     27  C   UNL A   1      31.321  28.361  24.987  1.00  0.00     0.043 A 
ATOM     28  C   UNL A   1      32.878  29.596  26.370  1.00  0.00     0.119 A 
ATOM     29  C   UNL A   1      32.612  28.717  27.425  1.00  0.00     0.046 A 
ATOM     30  C   UNL A   1      32.172  29.461  25.172  1.00  0.00     0.060 A 
ATOM     31  C   UNL A   1      31.659  27.710  27.293  1.00  0.00     0.005 A 
ATOM     32  C   UNL A   1      31.018  27.526  26.071  1.00  0.00     0.014 A 
BRANCH  28  33
ATOM     33  O   UNL A   1      33.870  30.498  26.634  1.00  0.00    -0.497 OA
ATOM     34  C   UNL A   1      33.639  31.488  27.625  1.00  0.00     0.278 C 
ENDBRANCH  28  33
ENDBRANCH  24  27
ENDBRANCH  18  23
ENDBRANCH  14  17
ENDBRANCH   7  13
ENDBRANCH   3   6
ENDBRANCH   1   2
BRANCH   1  35
ATOM     35  C   UNL A   1      37.270  22.041  24.308  1.00  0.00     0.023 C 
BRANCH  35  36
ATOM     36  C   UNL A   1      37.705  20.727  24.951  1.00  0.00     0.023 C 
BRANCH  36  37
ATOM     37  C   UNL A   1      38.859  20.809  25.949  1.00  0.00     0.116 C 
BRANCH  37  38
ATOM     38  N   UNL A   1      39.823  19.724  25.828  1.00  0.00    -0.352 N 
ATOM     39  C   UNL A   1      41.184  19.736  26.039  1.00  0.00     0.251 C 
ATOM     40  H   UNL A   1      39.448  18.855  25.557  1.00  0.00     0.163 HD
ATOM     41  O   UNL A   1      41.862  18.743  25.785  1.00  0.00    -0.269 OA
BRANCH  39  42
ATOM     42  C   UNL A   1      41.838  20.963  26.537  1.00  0.00     0.039 A 
ATOM     43  C   UNL A   1      42.302  21.907  25.619  1.00  0.00     0.014 A 
ATOM     44  C   UNL A   1      41.951  21.201  27.909  1.00  0.00     0.014 A 
ATOM     45  C   UNL A   1      42.790  23.133  26.076  1.00  0.00     0.010 A 
ATOM     46  C   UNL A   1      42.357  22.454  28.358  1.00  0.00     0.010 A 
ATOM     47  C   UNL A   1      42.774  23.436  27.446  1.00  0.00    -0.014 A 
BRANCH  47  48
ATOM     48  C   UNL A   1      43.176  24.776  27.948  1.00  0.00     0.031 A 
ATOM     49  C   UNL A   1      42.131  25.817  28.243  1.00  0.00     0.074 A 
ATOM     50  C   UNL A   1      44.483  25.083  28.069  1.00  0.00     0.049 A 
ATOM     51  N   UNL A   1      42.288  27.061  28.623  1.00  0.00    -0.248 NA
ATOM     52  C   UNL A   1      40.726  25.418  28.060  1.00  0.00     0.031 C 
ATOM     53  C   UNL A   1      45.598  24.181  27.773  1.00  0.00     0.029 A 
ATOM     54  N   UNL A   1      45.095  26.245  28.467  1.00  0.00    -0.354 N 
ATOM     55  C   UNL A   1      41.008  27.594  28.705  1.00  0.00     0.074 A 
ATOM     56  C   UNL A   1      40.090  26.559  28.284  1.00  0.00     0.031 C 
ATOM     57  C   UNL A   1      46.755  24.813  28.028  1.00  0.00     0.029 A 
ATOM     58  C   UNL A   1      46.468  26.176  28.465  1.00  0.00     0.049 A 
ATOM     59  H   UNL A   1      44.597  27.053  28.729  1.00  0.00     0.167 HD
ATOM     60  C   UNL A   1      40.626  28.827  29.113  1.00  0.00     0.031 A 
ATOM     61  C   UNL A   1      47.392  27.104  28.774  1.00  0.00     0.031 A 
ATOM     62  C   UNL A   1      41.536  29.854  29.544  1.00  0.00     0.049 A 
ATOM     63  C   UNL A   1      46.943  28.470  29.213  1.00  0.00     0.074 A 
ATOM     64  C   UNL A   1      41.242  31.115  30.033  1.00  0.00     0.029 A 
ATOM     65  N   UNL A   1      42.917  29.739  29.535  1.00  0.00    -0.354 N 
ATOM     66  N   UNL A   1      45.725  28.934  29.354  1.00  0.00    -0.248 NA
ATOM     67  C   UNL A   1      47.999  29.438  29.546  1.00  0.00     0.031 C 
ATOM     68  C   UNL A   1      42.448  31.782  30.272  1.00  0.00     0.029 A 
ATOM     69  C   UNL A   1      43.491  30.915  29.987  1.00  0.00     0.049 A 
ATOM     70  H   UNL A   1      43.416  28.939  29.250  1.00  0.00     0.167 HD
ATOM     71  C   UNL A   1      45.867  30.235  29.820  1.00  0.00     0.074 A 
ATOM     72  C   UNL A   1      47.290  30.481  29.952  1.00  0.00     0.031 C 
ATOM     73  C   UNL A   1      44.906  31.145  30.113  1.00  0.00     0.031 A 
BRANCH  60  74
ATOM     74  C   UNL A   1      39.154  29.133  29.105  1.00  0.00    -0.014 A 
ATOM     75  C   UNL A   1      38.518  29.626  27.954  1.00  0.00     0.009 A 
ATOM     76  C   UNL A   1      38.385  28.898  30.256  1.00  0.00     0.009 A 
ATOM     77  C   UNL A   1      37.152  29.913  27.967  1.00  0.00     0.001 A 
ATOM     78  C   UNL A   1      37.014  29.157  30.256  1.00  0.00     0.001 A 
ATOM     79  C   UNL A   1      36.400  29.674  29.117  1.00  0.00     0.000 A 
ENDBRANCH  60  74
BRANCH  61  80
ATOM     80  C   UNL A   1      48.839  26.772  28.700  1.00  0.00    -0.014 A 
ATOM     81  C   UNL A   1      49.554  26.967  27.509  1.00  0.00     0.009 A 
ATOM     82  C   UNL A   1      49.513  26.249  29.816  1.00  0.00     0.009 A 
ATOM     83  C   UNL A   1      50.904  26.618  27.425  1.00  0.00     0.001 A 
ATOM     84  C   UNL A   1      50.869  25.928  29.739  1.00  0.00     0.001 A 
ATOM     85  C   UNL A   1      51.561  26.103  28.541  1.00  0.00     0.000 A 
ENDBRANCH  61  80
BRANCH  73  86
ATOM     86  C   UNL A   1      45.358  32.477  30.643  1.00  0.00    -0.014 A 
ATOM     87  C   UNL A   1      45.622  33.553  29.784  1.00  0.00     0.009 A 
ATOM     88  C   UNL A   1      45.480  32.665  32.029  1.00  0.00     0.009 A 
ATOM     89  C   UNL A   1      46.031  34.784  30.301  1.00  0.00     0.001 A 
ATOM     90  C   UNL A   1      45.860  33.905  32.545  1.00  0.00     0.001 A 
ATOM     91  C   UNL A   1      46.144  34.960  31.680  1.00  0.00     0.000 A 
ENDBRANCH  73  86
ENDBRANCH  47  48
ENDBRANCH  39  42
ENDBRANCH  37  38
ENDBRANCH  36  37
ENDBRANCH  35  36
ENDBRANCH   1  35
TORSDOF 16
ENDMDL
MODEL 2
REMARK VINA RESULT:     -12.4      0.701      5.573
REMARK SMILES COc1cccc(C(=O)Nc2ccc(NC(=O)[C@@H]3[C@@H](C(=O)NCCCCNC(=O)c4ccc(-c5c6nc(c(-c7ccccc7)c7ccc([nH]7)c(-c7ccccc7)c7nc(c(-c8ccccc8)c8ccc5[nH]8)C=C7)C=C6)cc4)[C@@H]4C=C[C@H]3C4)cc2)c1
REMARK SMILES IDX 23 1 22 2 20 3 21 4 19 6 18 7 81 8 78 9 80 10 82 11 79 12
REMARK SMILES IDX 16 13 15 14 17 16 14 17 11 18 12 19 84 20 13 21 83 22 10 23
REMARK SMILES IDX 8 24 9 25 7 27 3 28 4 29 85 30 5 31 6 32 2 33 1 34 24 35
REMARK SMILES IDX 25 36 26 37 27 38 28 39 29 41 30 42 31 43 77 44 32 45 76 46
REMARK SMILES IDX 33 47 34 48 35 49 70 50 36 51 75 52 69 53 71 54 37 55 74 56
REMARK SMILES IDX 68 57 67 58 38 60 60 61 45 62 59 63 46 64 49 65 58 66 72 67
REMARK SMILES IDX 47 68 48 69 57 71 73 72 50 73 39 74 40 75 44 76 41 77 43 78
REMARK SMILES IDX 42 79 61 80 62 81 66 82 63 83 65 84 64 85 51 86 52 87 56 88
REMARK SMILES IDX 53 89 55 90 54 91
REMARK H PARENT 22 5 15 15 10 26 27 40 71 59 49 70
REMARK Flexibility Score: inf
ROOT
ATOM      1  C   UNL A   1      36.065  21.842  24.251  1.00  0.00     0.116 C 
ENDROOT
BRANCH   1   2
ATOM      2  N   UNL A   1      35.106  21.789  25.351  1.00  0.00    -0.356 N 
ATOM      3  C   UNL A   1      34.084  20.866  25.535  1.00  0.00     0.224 C 
ATOM      4  O   UNL A   1      33.445  20.869  26.583  1.00  0.00    -0.275 OA
ATOM      5  H   UNL A   1      35.193  22.486  26.040  1.00  0.00     0.163 HD
BRANCH   3   6
ATOM      6  C   UNL A   1      33.834  19.874  24.408  1.00  0.00     0.098 C 
ATOM      7  C   UNL A   1      32.352  19.691  23.814  1.00  0.00     0.099 C 
ATOM      8  C   UNL A   1      32.185  18.173  23.974  1.00  0.00     0.025 C 
ATOM      9  C   UNL A   1      34.121  18.457  24.999  1.00  0.00     0.025 C 
ATOM     10  C   UNL A   1      33.257  17.430  23.192  1.00  0.00    -0.027 C 
ATOM     11  C   UNL A   1      32.735  17.965  25.375  1.00  0.00     0.017 C 
ATOM     12  C   UNL A   1      34.421  17.583  23.827  1.00  0.00    -0.027 C 
BRANCH   7  13
ATOM     13  C   UNL A   1      32.153  20.349  22.433  1.00  0.00     0.228 C 
ATOM     14  N   UNL A   1      32.312  21.661  22.056  1.00  0.00    -0.326 N 
ATOM     15  H   UNL A   1      32.497  21.771  21.096  1.00  0.00     0.169 HD
ATOM     16  O   UNL A   1      31.841  19.598  21.490  1.00  0.00    -0.274 OA
BRANCH  14  17
ATOM     17  C   UNL A   1      32.265  22.882  22.758  1.00  0.00     0.041 A 
ATOM     18  C   UNL A   1      31.860  25.607  23.022  1.00  0.00     0.041 A 
ATOM     19  C   UNL A   1      30.980  24.710  23.634  1.00  0.00     0.028 A 
ATOM     20  C   UNL A   1      33.126  25.141  22.712  1.00  0.00     0.028 A 
ATOM     21  C   UNL A   1      31.212  23.329  23.531  1.00  0.00     0.028 A 
ATOM     22  C   UNL A   1      33.328  23.764  22.564  1.00  0.00     0.028 A 
BRANCH  18  23
ATOM     23  N   UNL A   1      31.338  26.851  22.616  1.00  0.00    -0.322 N 
ATOM     24  C   UNL A   1      31.221  28.088  23.226  1.00  0.00     0.255 C 
ATOM     25  O   UNL A   1      30.737  29.016  22.575  1.00  0.00    -0.269 OA
ATOM     26  H   UNL A   1      30.978  26.838  21.699  1.00  0.00     0.170 HD
BRANCH  24  27
ATOM     27  C   UNL A   1      31.643  28.380  24.618  1.00  0.00     0.043 A 
ATOM     28  C   UNL A   1      33.075  29.442  26.256  1.00  0.00     0.119 A 
ATOM     29  C   UNL A   1      32.493  28.651  27.253  1.00  0.00     0.046 A 
ATOM     30  C   UNL A   1      32.594  29.358  24.947  1.00  0.00     0.060 A 
ATOM     31  C   UNL A   1      31.447  27.781  26.954  1.00  0.00     0.005 A 
ATOM     32  C   UNL A   1      31.027  27.639  25.634  1.00  0.00     0.014 A 
BRANCH  28  33
ATOM     33  O   UNL A   1      34.119  30.207  26.693  1.00  0.00    -0.497 OA
ATOM     34  C   UNL A   1      33.855  31.240  27.633  1.00  0.00     0.278 C 
ENDBRANCH  28  33
ENDBRANCH  24  27
ENDBRANCH  18  23
ENDBRANCH  14  17
ENDBRANCH   7  13
ENDBRANCH   3   6
ENDBRANCH   1   2
BRANCH   1  35
ATOM     35  C   UNL A   1      37.533  21.760  24.640  1.00  0.00     0.023 C 
BRANCH  35  36
ATOM     36  C   UNL A   1      38.052  20.357  24.945  1.00  0.00     0.023 C 
BRANCH  36  37
ATOM     37  C   UNL A   1      38.996  20.227  26.138  1.00  0.00     0.116 C 
BRANCH  37  38
ATOM     38  N   UNL A   1      40.020  19.202  25.973  1.00  0.00    -0.352 N 
ATOM     39  C   UNL A   1      41.391  19.320  26.021  1.00  0.00     0.251 C 
ATOM     40  H   UNL A   1      39.682  18.293  25.804  1.00  0.00     0.163 HD
ATOM     41  O   UNL A   1      42.108  18.359  25.752  1.00  0.00    -0.269 OA
BRANCH  39  42
ATOM     42  C   UNL A   1      42.004  20.621  26.359  1.00  0.00     0.039 A 
ATOM     43  C   UNL A   1      42.369  21.489  25.328  1.00  0.00     0.014 A 
ATOM     44  C   UNL A   1      42.174  21.001  27.692  1.00  0.00     0.014 A 
ATOM     45  C   UNL A   1      42.815  22.776  25.634  1.00  0.00     0.010 A 
ATOM     46  C   UNL A   1      42.536  22.310  27.993  1.00  0.00     0.010 A 
ATOM     47  C   UNL A   1      42.853  23.214  26.968  1.00  0.00    -0.014 A 
BRANCH  47  48
ATOM     48  C   UNL A   1      43.209  24.616  27.313  1.00  0.00     0.031 A 
ATOM     49  C   UNL A   1      44.648  25.052  27.315  1.00  0.00     0.074 A 
ATOM     50  C   UNL A   1      42.245  25.476  27.698  1.00  0.00     0.049 A 
ATOM     51  N   UNL A   1      45.159  26.210  27.652  1.00  0.00    -0.248 NA
ATOM     52  C   UNL A   1      45.647  24.049  26.912  1.00  0.00     0.031 C 
ATOM     53  C   UNL A   1      40.815  25.168  27.784  1.00  0.00     0.029 A 
ATOM     54  N   UNL A   1      42.324  26.788  28.096  1.00  0.00    -0.354 N 
ATOM     55  C   UNL A   1      46.535  26.066  27.520  1.00  0.00     0.074 A 
ATOM     56  C   UNL A   1      46.782  24.697  27.126  1.00  0.00     0.031 C 
ATOM     57  C   UNL A   1      40.151  26.267  28.178  1.00  0.00     0.029 A 
ATOM     58  C   UNL A   1      41.108  27.343  28.413  1.00  0.00     0.049 A 
ATOM     59  H   UNL A   1      43.173  27.283  28.149  1.00  0.00     0.167 HD
ATOM     60  C   UNL A   1      47.506  26.994  27.691  1.00  0.00     0.031 A 
ATOM     61  C   UNL A   1      40.797  28.578  28.849  1.00  0.00     0.031 A 
ATOM     62  C   UNL A   1      47.262  28.360  28.071  1.00  0.00     0.049 A 
ATOM     63  C   UNL A   1      41.894  29.587  29.043  1.00  0.00     0.074 A 
ATOM     64  C   UNL A   1      48.174  29.391  28.211  1.00  0.00     0.029 A 
ATOM     65  N   UNL A   1      46.015  28.884  28.374  1.00  0.00    -0.354 N 
ATOM     66  N   UNL A   1      43.183  29.455  28.844  1.00  0.00    -0.248 NA
ATOM     67  C   UNL A   1      41.491  30.921  29.512  1.00  0.00     0.031 C 
ATOM     68  C   UNL A   1      47.485  30.527  28.649  1.00  0.00     0.029 A 
ATOM     69  C   UNL A   1      46.136  30.218  28.724  1.00  0.00     0.049 A 
ATOM     70  H   UNL A   1      45.168  28.381  28.344  1.00  0.00     0.167 HD
ATOM     71  C   UNL A   1      43.740  30.695  29.134  1.00  0.00     0.074 A 
ATOM     72  C   UNL A   1      42.646  31.569  29.508  1.00  0.00     0.031 C 
ATOM     73  C   UNL A   1      45.040  31.074  29.093  1.00  0.00     0.031 A 
BRANCH  60  74
ATOM     74  C   UNL A   1      48.927  26.556  27.473  1.00  0.00    -0.014 A 
ATOM     75  C   UNL A   1      49.722  26.105  28.540  1.00  0.00     0.009 A 
ATOM     76  C   UNL A   1      49.471  26.566  26.179  1.00  0.00     0.009 A 
ATOM     77  C   UNL A   1      51.043  25.710  28.321  1.00  0.00     0.001 A 
ATOM     78  C   UNL A   1      50.783  26.142  25.959  1.00  0.00     0.001 A 
ATOM     79  C   UNL A   1      51.571  25.724  27.030  1.00  0.00     0.000 A 
ENDBRANCH  60  74
BRANCH  61  80
ATOM     80  C   UNL A   1      39.380  28.942  29.116  1.00  0.00    -0.014 A 
ATOM     81  C   UNL A   1      38.588  29.506  28.104  1.00  0.00     0.009 A 
ATOM     82  C   UNL A   1      38.815  28.740  30.385  1.00  0.00     0.009 A 
ATOM     83  C   UNL A   1      37.269  29.886  28.365  1.00  0.00     0.001 A 
ATOM     84  C   UNL A   1      37.487  29.093  30.634  1.00  0.00     0.001 A 
ATOM     85  C   UNL A   1      36.719  29.675  29.627  1.00  0.00     0.000 A 
ENDBRANCH  61  80
BRANCH  73  86
ATOM     86  C   UNL A   1      45.349  32.508  29.425  1.00  0.00    -0.014 A 
ATOM     87  C   UNL A   1      45.325  33.506  28.440  1.00  0.00     0.009 A 
ATOM     88  C   UNL A   1      45.626  32.867  30.753  1.00  0.00     0.009 A 
ATOM     89  C   UNL A   1      45.606  34.833  28.774  1.00  0.00     0.001 A 
ATOM     90  C   UNL A   1      45.877  34.198  31.090  1.00  0.00     0.001 A 
ATOM     91  C   UNL A   1      45.876  35.178  30.098  1.00  0.00     0.000 A 
ENDBRANCH  73  86
ENDBRANCH  47  48
ENDBRANCH  39  42
ENDBRANCH  37  38
ENDBRANCH  36  37
ENDBRANCH  35  36
ENDBRANCH   1  35
TORSDOF 16
ENDMDL
MODEL 3
REMARK VINA RESULT:     -12.3      2.011      8.273
REMARK SMILES COc1cccc(C(=O)Nc2ccc(NC(=O)[C@@H]3[C@@H](C(=O)NCCCCNC(=O)c4ccc(-c5c6nc(c(-c7ccccc7)c7ccc([nH]7)c(-c7ccccc7)c7nc(c(-c8ccccc8)c8ccc5[nH]8)C=C7)C=C6)cc4)[C@@H]4C=C[C@H]3C4)cc2)c1
REMARK SMILES IDX 23 1 22 2 20 3 21 4 19 6 18 7 81 8 78 9 80 10 82 11 79 12
REMARK SMILES IDX 16 13 15 14 17 16 14 17 11 18 12 19 84 20 13 21 83 22 10 23
REMARK SMILES IDX 8 24 9 25 7 27 3 28 4 29 85 30 5 31 6 32 2 33 1 34 24 35
REMARK SMILES IDX 25 36 26 37 27 38 28 39 29 41 30 42 31 43 77 44 32 45 76 46
REMARK SMILES IDX 33 47 34 48 35 49 70 50 36 51 75 52 69 53 71 54 37 55 74 56
REMARK SMILES IDX 68 57 67 58 38 60 60 61 45 62 59 63 46 64 49 65 58 66 72 67
REMARK SMILES IDX 47 68 48 69 57 71 73 72 50 73 39 74 40 75 44 76 41 77 43 78
REMARK SMILES IDX 42 79 61 80 62 81 66 82 63 83 65 84 64 85 51 86 52 87 56 88
REMARK SMILES IDX 53 89 55 90 54 91
REMARK H PARENT 22 5 15 15 10 26 27 40 71 59 49 70
REMARK Flexibility Score: inf
ROOT
ATOM      1  C   UNL A   1      31.982  30.092  25.829  1.00  0.00     0.116 C 
ENDROOT
BRANCH   1   2
ATOM      2  N   UNL A   1      32.415  29.398  24.618  1.00  0.00    -0.356 N 
ATOM      3  C   UNL A   1      31.631  29.019  23.537  1.00  0.00     0.224 C 
ATOM      4  O   UNL A   1      32.166  28.565  22.529  1.00  0.00    -0.275 OA
ATOM      5  H   UNL A   1      33.372  29.173  24.564  1.00  0.00     0.163 HD
BRANCH   3   6
ATOM      6  C   UNL A   1      30.128  29.220  23.665  1.00  0.00     0.098 C 
ATOM      7  C   UNL A   1      29.119  28.270  22.851  1.00  0.00     0.099 C 
ATOM      8  C   UNL A   1      28.287  29.331  22.116  1.00  0.00     0.025 C 
ATOM      9  C   UNL A   1      29.817  30.621  23.051  1.00  0.00     0.025 C 
ATOM     10  C   UNL A   1      27.597  30.254  23.108  1.00  0.00    -0.027 C 
ATOM     11  C   UNL A   1      29.377  30.277  21.640  1.00  0.00     0.017 C 
ATOM     12  C   UNL A   1      28.520  31.049  23.653  1.00  0.00    -0.027 C 
BRANCH   7  13
ATOM     13  C   UNL A   1      28.419  27.213  23.729  1.00  0.00     0.228 C 
ATOM     14  N   UNL A   1      28.958  26.160  24.430  1.00  0.00    -0.326 N 
ATOM     15  H   UNL A   1      28.400  25.870  25.188  1.00  0.00     0.169 HD
ATOM     16  O   UNL A   1      27.189  27.326  23.877  1.00  0.00    -0.274 OA
BRANCH  14  17
ATOM     17  C   UNL A   1      30.142  25.409  24.291  1.00  0.00     0.041 A 
ATOM     18  C   UNL A   1      31.749  23.179  24.617  1.00  0.00     0.041 A 
ATOM     19  C   UNL A   1      31.293  23.528  23.342  1.00  0.00     0.028 A 
ATOM     20  C   UNL A   1      31.781  24.179  25.574  1.00  0.00     0.028 A 
ATOM     21  C   UNL A   1      30.511  24.683  23.176  1.00  0.00     0.028 A 
ATOM     22  C   UNL A   1      30.957  25.300  25.418  1.00  0.00     0.028 A 
BRANCH  18  23
ATOM     23  N   UNL A   1      31.975  21.812  24.872  1.00  0.00    -0.322 N 
ATOM     24  C   UNL A   1      33.110  21.022  24.928  1.00  0.00     0.255 C 
ATOM     25  O   UNL A   1      32.977  19.831  25.220  1.00  0.00    -0.269 OA
ATOM     26  H   UNL A   1      31.146  21.311  25.049  1.00  0.00     0.170 HD
BRANCH  24  27
ATOM     27  C   UNL A   1      34.485  21.508  24.662  1.00  0.00     0.043 A 
ATOM     28  C   UNL A   1      36.863  21.592  25.107  1.00  0.00     0.119 A 
ATOM     29  C   UNL A   1      36.972  22.680  24.234  1.00  0.00     0.046 A 
ATOM     30  C   UNL A   1      35.628  20.958  25.262  1.00  0.00     0.060 A 
ATOM     31  C   UNL A   1      35.865  23.139  23.523  1.00  0.00     0.005 A 
ATOM     32  C   UNL A   1      34.618  22.558  23.744  1.00  0.00     0.014 A 
BRANCH  28  33
ATOM     33  O   UNL A   1      38.022  21.291  25.766  1.00  0.00    -0.497 OA
ATOM     34  C   UNL A   1      38.907  22.352  26.099  1.00  0.00     0.278 C 
ENDBRANCH  28  33
ENDBRANCH  24  27
ENDBRANCH  18  23
ENDBRANCH  14  17
ENDBRANCH   7  13
ENDBRANCH   3   6
ENDBRANCH   1   2
BRANCH   1  35
ATOM     35  C   UNL A   1      32.117  29.314  27.129  1.00  0.00     0.023 C 
BRANCH  35  36
ATOM     36  C   UNL A   1      33.353  28.425  27.234  1.00  0.00     0.023 C 
BRANCH  36  37
ATOM     37  C   UNL A   1      34.698  29.142  27.343  1.00  0.00     0.116 C 
BRANCH  37  38
ATOM     38  N   UNL A   1      34.810  30.015  28.503  1.00  0.00    -0.352 N 
ATOM     39  C   UNL A   1      35.897  30.259  29.313  1.00  0.00     0.251 C 
ATOM     40  H   UNL A   1      33.990  30.504  28.742  1.00  0.00     0.163 HD
ATOM     41  O   UNL A   1      35.780  30.952  30.320  1.00  0.00    -0.269 OA
BRANCH  39  42
ATOM     42  C   UNL A   1      37.203  29.648  28.990  1.00  0.00     0.039 A 
ATOM     43  C   UNL A   1      37.713  29.777  27.697  1.00  0.00     0.014 A 
ATOM     44  C   UNL A   1      37.942  28.990  29.976  1.00  0.00     0.014 A 
ATOM     45  C   UNL A   1      39.006  29.330  27.417  1.00  0.00     0.010 A 
ATOM     46  C   UNL A   1      39.259  28.624  29.719  1.00  0.00     0.010 A 
ATOM     47  C   UNL A   1      39.808  28.797  28.438  1.00  0.00    -0.014 A 
BRANCH  47  48
ATOM     48  C   UNL A   1      41.227  28.426  28.196  1.00  0.00     0.031 A 
ATOM     49  C   UNL A   1      41.591  27.004  27.867  1.00  0.00     0.074 A 
ATOM     50  C   UNL A   1      42.196  29.351  28.344  1.00  0.00     0.049 A 
ATOM     51  N   UNL A   1      42.775  26.475  27.689  1.00  0.00    -0.248 NA
ATOM     52  C   UNL A   1      40.481  26.044  27.751  1.00  0.00     0.031 C 
ATOM     53  C   UNL A   1      41.984  30.754  28.704  1.00  0.00     0.029 A 
ATOM     54  N   UNL A   1      43.559  29.246  28.215  1.00  0.00    -0.354 N 
ATOM     55  C   UNL A   1      42.553  25.123  27.459  1.00  0.00     0.074 A 
ATOM     56  C   UNL A   1      41.129  24.902  27.575  1.00  0.00     0.031 C 
ATOM     57  C   UNL A   1      43.169  31.385  28.738  1.00  0.00     0.029 A 
ATOM     58  C   UNL A   1      44.228  30.424  28.443  1.00  0.00     0.049 A 
ATOM     59  H   UNL A   1      44.014  28.405  27.981  1.00  0.00     0.167 HD
ATOM     60  C   UNL A   1      43.450  24.154  27.160  1.00  0.00     0.031 A 
ATOM     61  C   UNL A   1      45.545  30.701  28.423  1.00  0.00     0.031 A 
ATOM     62  C   UNL A   1      44.865  24.373  27.032  1.00  0.00     0.049 A 
ATOM     63  C   UNL A   1      46.522  29.605  28.099  1.00  0.00     0.074 A 
ATOM     64  C   UNL A   1      45.848  23.467  26.672  1.00  0.00     0.029 A 
ATOM     65  N   UNL A   1      45.500  25.583  27.263  1.00  0.00    -0.354 N 
ATOM     66  N   UNL A   1      46.288  28.347  27.814  1.00  0.00    -0.248 NA
ATOM     67  C   UNL A   1      47.946  29.971  28.085  1.00  0.00     0.031 C 
ATOM     68  C   UNL A   1      47.085  24.117  26.735  1.00  0.00     0.029 A 
ATOM     69  C   UNL A   1      46.865  25.442  27.077  1.00  0.00     0.049 A 
ATOM     70  H   UNL A   1      45.047  26.418  27.521  1.00  0.00     0.167 HD
ATOM     71  C   UNL A   1      47.530  27.780  27.557  1.00  0.00     0.074 A 
ATOM     72  C   UNL A   1      48.512  28.835  27.706  1.00  0.00     0.031 C 
ATOM     73  C   UNL A   1      47.829  26.500  27.227  1.00  0.00     0.031 A 
BRANCH  60  74
ATOM     74  C   UNL A   1      42.921  22.761  26.955  1.00  0.00    -0.014 A 
ATOM     75  C   UNL A   1      42.294  22.060  27.998  1.00  0.00     0.009 A 
ATOM     76  C   UNL A   1      43.022  22.153  25.694  1.00  0.00     0.009 A 
ATOM     77  C   UNL A   1      41.816  20.764  27.793  1.00  0.00     0.001 A 
ATOM     78  C   UNL A   1      42.516  20.869  25.484  1.00  0.00     0.001 A 
ATOM     79  C   UNL A   1      41.924  20.172  26.535  1.00  0.00     0.000 A 
ENDBRANCH  60  74
BRANCH  61  80
ATOM     80  C   UNL A   1      46.023  32.082  28.700  1.00  0.00    -0.014 A 
ATOM     81  C   UNL A   1      46.170  33.006  27.655  1.00  0.00     0.009 A 
ATOM     82  C   UNL A   1      46.347  32.480  30.007  1.00  0.00     0.009 A 
ATOM     83  C   UNL A   1      46.658  34.291  27.907  1.00  0.00     0.001 A 
ATOM     84  C   UNL A   1      46.806  33.774  30.261  1.00  0.00     0.001 A 
ATOM     85  C   UNL A   1      46.971  34.675  29.210  1.00  0.00     0.000 A 
ENDBRANCH  61  80
BRANCH  73  86
ATOM     86  C   UNL A   1      49.274  26.177  26.965  1.00  0.00    -0.014 A 
ATOM     87  C   UNL A   1      50.122  25.737  27.991  1.00  0.00     0.009 A 
ATOM     88  C   UNL A   1      49.779  26.277  25.658  1.00  0.00     0.009 A 
ATOM     89  C   UNL A   1      51.458  25.435  27.720  1.00  0.00     0.001 A 
ATOM     90  C   UNL A   1      51.106  25.945  25.385  1.00  0.00     0.001 A 
ATOM     91  C   UNL A   1      51.947  25.533  26.418  1.00  0.00     0.000 A 
ENDBRANCH  73  86
ENDBRANCH  47  48
ENDBRANCH  39  42
ENDBRANCH  37  38
ENDBRANCH  36  37
ENDBRANCH  35  36
ENDBRANCH   1  35
TORSDOF 16
ENDMDL
