MODEL 1
REMARK VINA RESULT:     -10.9      0.000      0.000
REMARK SMILES CSc1ncc(Cl)c(C(=O)Nc2ccsc2C(=O)NCCCCNC(=O)c2ccc(-c3c4nc(c(-c5ccccc5)c5ccc([nH]5)c(-c5ccccc5)c5nc(c(-c6ccccc6)c6ccc3[nH]6)C=C5)C=C4)cc2)n1
REMARK SMILES IDX 21 1 20 2 19 3 17 4 18 5 16 7 12 8 13 9 14 10 15 11 11 12
REMARK SMILES IDX 9 13 10 14 8 16 3 17 4 18 75 19 5 20 6 21 7 22 2 23 1 24
REMARK SMILES IDX 22 25 23 26 24 27 25 28 26 30 27 31 28 32 74 33 29 34 73 35
REMARK SMILES IDX 30 36 31 37 32 38 67 39 33 40 72 41 66 42 68 43 34 44 71 45
REMARK SMILES IDX 65 46 64 47 35 49 57 50 42 51 56 52 43 53 46 54 55 55 69 56
REMARK SMILES IDX 44 57 45 58 54 60 70 61 47 62 36 63 37 64 41 65 38 66 40 67
REMARK SMILES IDX 39 68 58 69 59 70 63 71 60 72 62 73 61 74 48 75 49 76 53 77
REMARK SMILES IDX 50 78 52 79 51 80
REMARK H PARENT 19 6 11 15 24 29 68 48 46 59
REMARK Flexibility Score: inf
ROOT
ATOM      1  C   UNL A   1      34.410  29.331  27.258  1.00  0.00     0.023 C 
ENDROOT
BRANCH   1   2
ATOM      2  C   UNL A   1      33.813  28.465  26.158  1.00  0.00     0.116 C 
BRANCH   2   3
ATOM      3  N   UNL A   1      34.330  28.617  24.822  1.00  0.00    -0.351 N 
ATOM      4  C   UNL A   1      33.706  28.579  23.585  1.00  0.00     0.263 C 
ATOM      5  O   UNL A   1      34.477  28.831  22.652  1.00  0.00    -0.268 OA
ATOM      6  H   UNL A   1      35.300  28.777  24.781  1.00  0.00     0.163 HD
BRANCH   4   7
ATOM      7  C   UNL A   1      32.288  28.225  23.361  1.00  0.00     0.115 A 
ATOM      8  C   UNL A   1      31.558  27.534  22.393  1.00  0.00     0.065 A 
ATOM      9  C   UNL A   1      30.142  27.605  22.586  1.00  0.00     0.038 A 
ATOM     10  C   UNL A   1      29.805  28.316  23.709  1.00  0.00     0.068 A 
ATOM     11  S   UNL A   1      31.177  28.893  24.530  1.00  0.00    -0.137 S 
BRANCH   8  12
ATOM     12  N   UNL A   1      32.122  26.815  21.367  1.00  0.00    -0.319 N 
ATOM     13  C   UNL A   1      32.782  25.603  21.384  1.00  0.00     0.276 C 
ATOM     14  O   UNL A   1      33.093  25.153  20.274  1.00  0.00    -0.267 OA
ATOM     15  H   UNL A   1      32.043  27.231  20.478  1.00  0.00     0.170 HD
BRANCH  13  16
ATOM     16  C   UNL A   1      33.064  24.758  22.597  1.00  0.00     0.151 A 
ATOM     17  C   UNL A   1      34.797  23.637  23.641  1.00  0.00     0.188 A 
ATOM     18  N   UNL A   1      34.001  23.136  24.590  1.00  0.00    -0.230 NA
ATOM     19  N   UNL A   1      34.396  24.483  22.689  1.00  0.00    -0.216 NA
ATOM     20  C   UNL A   1      32.692  23.415  24.469  1.00  0.00     0.137 A 
ATOM     21  C   UNL A   1      32.145  24.152  23.437  1.00  0.00     0.090 A 
ATOM     22  Cl  UNL A   1      30.449  24.003  23.232  1.00  0.00    -0.080 Cl
BRANCH  17  23
ATOM     23  S   UNL A   1      36.385  22.884  23.452  1.00  0.00    -0.090 SA
ATOM     24  C   UNL A   1      36.784  22.782  25.218  1.00  0.00     0.094 C 
ENDBRANCH  17  23
ENDBRANCH  13  16
ENDBRANCH   8  12
ENDBRANCH   4   7
ENDBRANCH   2   3
ENDBRANCH   1   2
BRANCH   1  25
ATOM     25  C   UNL A   1      33.568  30.489  27.769  1.00  0.00     0.023 C 
BRANCH  25  26
ATOM     26  C   UNL A   1      33.000  31.440  26.722  1.00  0.00     0.116 C 
BRANCH  26  27
ATOM     27  N   UNL A   1      32.475  32.689  27.255  1.00  0.00    -0.352 N 
ATOM     28  C   UNL A   1      33.044  33.613  28.104  1.00  0.00     0.251 C 
ATOM     29  H   UNL A   1      31.563  32.911  26.960  1.00  0.00     0.163 HD
ATOM     30  O   UNL A   1      32.400  34.598  28.458  1.00  0.00    -0.269 OA
BRANCH  28  31
ATOM     31  C   UNL A   1      34.404  33.405  28.649  1.00  0.00     0.039 A 
ATOM     32  C   UNL A   1      34.534  32.861  29.932  1.00  0.00     0.014 A 
ATOM     33  C   UNL A   1      35.544  33.708  27.906  1.00  0.00     0.014 A 
ATOM     34  C   UNL A   1      35.798  32.509  30.413  1.00  0.00     0.010 A 
ATOM     35  C   UNL A   1      36.789  33.265  28.342  1.00  0.00     0.010 A 
ATOM     36  C   UNL A   1      36.929  32.647  29.595  1.00  0.00    -0.014 A 
BRANCH  36  37
ATOM     37  C   UNL A   1      38.259  32.127  30.011  1.00  0.00     0.031 A 
ATOM     38  C   UNL A   1      38.765  30.815  29.481  1.00  0.00     0.074 A 
ATOM     39  C   UNL A   1      38.970  32.789  30.946  1.00  0.00     0.049 A 
ATOM     40  N   UNL A   1      39.853  30.159  29.800  1.00  0.00    -0.248 NA
ATOM     41  C   UNL A   1      37.921  30.130  28.489  1.00  0.00     0.031 C 
ATOM     42  C   UNL A   1      38.568  34.042  31.592  1.00  0.00     0.029 A 
ATOM     43  N   UNL A   1      40.179  32.492  31.527  1.00  0.00    -0.354 N 
ATOM     44  C   UNL A   1      39.805  28.975  29.076  1.00  0.00     0.074 A 
ATOM     45  C   UNL A   1      38.561  28.980  28.337  1.00  0.00     0.031 C 
ATOM     46  C   UNL A   1      39.522  34.417  32.458  1.00  0.00     0.029 A 
ATOM     47  C   UNL A   1      40.584  33.416  32.460  1.00  0.00     0.049 A 
ATOM     48  H   UNL A   1      40.704  31.693  31.297  1.00  0.00     0.167 HD
ATOM     49  C   UNL A   1      40.721  27.979  29.013  1.00  0.00     0.031 A 
ATOM     50  C   UNL A   1      41.682  33.452  33.239  1.00  0.00     0.031 A 
ATOM     51  C   UNL A   1      41.971  27.982  29.725  1.00  0.00     0.049 A 
ATOM     52  C   UNL A   1      42.697  32.349  33.135  1.00  0.00     0.074 A 
ATOM     53  C   UNL A   1      43.002  27.061  29.659  1.00  0.00     0.029 A 
ATOM     54  N   UNL A   1      42.359  28.954  30.634  1.00  0.00    -0.354 N 
ATOM     55  N   UNL A   1      42.675  31.278  32.381  1.00  0.00    -0.248 NA
ATOM     56  C   UNL A   1      43.892  32.469  33.982  1.00  0.00     0.031 C 
ATOM     57  C   UNL A   1      43.994  27.451  30.565  1.00  0.00     0.029 A 
ATOM     58  C   UNL A   1      43.603  28.642  31.156  1.00  0.00     0.049 A 
ATOM     59  H   UNL A   1      41.828  29.749  30.872  1.00  0.00     0.167 HD
ATOM     60  C   UNL A   1      43.861  30.606  32.645  1.00  0.00     0.074 A 
ATOM     61  C   UNL A   1      44.586  31.400  33.617  1.00  0.00     0.031 C 
ATOM     62  C   UNL A   1      44.309  29.437  32.128  1.00  0.00     0.031 A 
BRANCH  49  63
ATOM     63  C   UNL A   1      40.392  26.795  28.147  1.00  0.00    -0.014 A 
ATOM     64  C   UNL A   1      40.893  26.684  26.840  1.00  0.00     0.009 A 
ATOM     65  C   UNL A   1      39.581  25.767  28.651  1.00  0.00     0.009 A 
ATOM     66  C   UNL A   1      40.551  25.592  26.040  1.00  0.00     0.001 A 
ATOM     67  C   UNL A   1      39.264  24.660  27.860  1.00  0.00     0.001 A 
ATOM     68  C   UNL A   1      39.739  24.580  26.552  1.00  0.00     0.000 A 
ENDBRANCH  49  63
BRANCH  50  69
ATOM     69  C   UNL A   1      41.887  34.590  34.174  1.00  0.00    -0.014 A 
ATOM     70  C   UNL A   1      42.517  35.763  33.734  1.00  0.00     0.009 A 
ATOM     71  C   UNL A   1      41.441  34.513  35.502  1.00  0.00     0.009 A 
ATOM     72  C   UNL A   1      42.715  36.831  34.613  1.00  0.00     0.001 A 
ATOM     73  C   UNL A   1      41.617  35.592  36.370  1.00  0.00     0.001 A 
ATOM     74  C   UNL A   1      42.259  36.747  35.927  1.00  0.00     0.000 A 
ENDBRANCH  50  69
BRANCH  62  75
ATOM     75  C   UNL A   1      45.657  28.955  32.583  1.00  0.00    -0.014 A 
ATOM     76  C   UNL A   1      46.831  29.342  31.919  1.00  0.00     0.009 A 
ATOM     77  C   UNL A   1      45.754  28.135  33.719  1.00  0.00     0.009 A 
ATOM     78  C   UNL A   1      48.075  28.894  32.368  1.00  0.00     0.001 A 
ATOM     79  C   UNL A   1      47.001  27.710  34.180  1.00  0.00     0.001 A 
ATOM     80  C   UNL A   1      48.159  28.083  33.499  1.00  0.00     0.000 A 
ENDBRANCH  62  75
ENDBRANCH  36  37
ENDBRANCH  28  31
ENDBRANCH  26  27
ENDBRANCH  25  26
ENDBRANCH   1  25
TORSDOF 14
ENDMDL
MODEL 2
REMARK VINA RESULT:     -10.8      1.603      6.165
REMARK SMILES CSc1ncc(Cl)c(C(=O)Nc2ccsc2C(=O)NCCCCNC(=O)c2ccc(-c3c4nc(c(-c5ccccc5)c5ccc([nH]5)c(-c5ccccc5)c5nc(c(-c6ccccc6)c6ccc3[nH]6)C=C5)C=C4)cc2)n1
REMARK SMILES IDX 21 1 20 2 19 3 17 4 18 5 16 7 12 8 13 9 14 10 15 11 11 12
REMARK SMILES IDX 9 13 10 14 8 16 3 17 4 18 75 19 5 20 6 21 7 22 2 23 1 24
REMARK SMILES IDX 22 25 23 26 24 27 25 28 26 30 27 31 28 32 74 33 29 34 73 35
REMARK SMILES IDX 30 36 31 37 32 38 67 39 33 40 72 41 66 42 68 43 34 44 71 45
REMARK SMILES IDX 65 46 64 47 35 49 57 50 42 51 56 52 43 53 46 54 55 55 69 56
REMARK SMILES IDX 44 57 45 58 54 60 70 61 47 62 36 63 37 64 41 65 38 66 40 67
REMARK SMILES IDX 39 68 58 69 59 70 63 71 60 72 62 73 61 74 48 75 49 76 53 77
REMARK SMILES IDX 50 78 52 79 51 80
REMARK H PARENT 19 6 11 15 24 29 68 48 46 59
REMARK Flexibility Score: inf
ROOT
ATOM      1  C   UNL A   1      31.771  30.220  26.371  1.00  0.00     0.023 C 
ENDROOT
BRANCH   1   2
ATOM      2  C   UNL A   1      33.156  29.785  25.914  1.00  0.00     0.116 C 
BRANCH   2   3
ATOM      3  N   UNL A   1      33.366  29.568  24.505  1.00  0.00    -0.351 N 
ATOM      4  C   UNL A   1      32.633  28.862  23.564  1.00  0.00     0.263 C 
ATOM      5  O   UNL A   1      33.093  28.969  22.421  1.00  0.00    -0.268 OA
ATOM      6  H   UNL A   1      34.175  30.000  24.147  1.00  0.00     0.163 HD
BRANCH   4   7
ATOM      7  C   UNL A   1      31.457  28.018  23.865  1.00  0.00     0.115 A 
ATOM      8  C   UNL A   1      31.198  26.878  24.626  1.00  0.00     0.065 A 
ATOM      9  C   UNL A   1      29.873  26.366  24.456  1.00  0.00     0.038 A 
ATOM     10  C   UNL A   1      29.126  27.131  23.597  1.00  0.00     0.068 A 
ATOM     11  S   UNL A   1      30.006  28.458  23.001  1.00  0.00    -0.137 S 
BRANCH   8  12
ATOM     12  N   UNL A   1      32.098  26.306  25.493  1.00  0.00    -0.319 N 
ATOM     13  C   UNL A   1      32.786  25.112  25.406  1.00  0.00     0.276 C 
ATOM     14  O   UNL A   1      33.614  24.911  26.303  1.00  0.00    -0.267 OA
ATOM     15  H   UNL A   1      32.282  26.832  26.304  1.00  0.00     0.170 HD
BRANCH  13  16
ATOM     16  C   UNL A   1      32.687  24.105  24.292  1.00  0.00     0.151 A 
ATOM     17  C   UNL A   1      32.444  21.831  23.945  1.00  0.00     0.188 A 
ATOM     18  N   UNL A   1      32.558  21.946  22.618  1.00  0.00    -0.230 NA
ATOM     19  N   UNL A   1      32.436  22.862  24.793  1.00  0.00    -0.216 NA
ATOM     20  C   UNL A   1      32.814  23.181  22.153  1.00  0.00     0.137 A 
ATOM     21  C   UNL A   1      32.980  24.295  22.952  1.00  0.00     0.090 A 
ATOM     22  Cl  UNL A   1      33.734  25.642  22.206  1.00  0.00    -0.080 Cl
BRANCH  17  23
ATOM     23  S   UNL A   1      32.639  20.212  24.625  1.00  0.00    -0.090 SA
ATOM     24  C   UNL A   1      34.412  20.345  24.985  1.00  0.00     0.094 C 
ENDBRANCH  17  23
ENDBRANCH  13  16
ENDBRANCH   8  12
ENDBRANCH   4   7
ENDBRANCH   2   3
ENDBRANCH   1   2
BRANCH   1  25
ATOM     25  C   UNL A   1      31.570  31.695  26.681  1.00  0.00     0.023 C 
BRANCH  25  26
ATOM     26  C   UNL A   1      32.766  32.446  27.253  1.00  0.00     0.116 C 
BRANCH  26  27
ATOM     27  N   UNL A   1      32.488  33.818  27.654  1.00  0.00    -0.352 N 
ATOM     28  C   UNL A   1      33.179  34.667  28.490  1.00  0.00     0.251 C 
ATOM     29  H   UNL A   1      31.671  34.203  27.263  1.00  0.00     0.163 HD
ATOM     30  O   UNL A   1      32.741  35.792  28.719  1.00  0.00    -0.269 OA
BRANCH  28  31
ATOM     31  C   UNL A   1      34.415  34.222  29.170  1.00  0.00     0.039 A 
ATOM     32  C   UNL A   1      34.301  33.528  30.380  1.00  0.00     0.014 A 
ATOM     33  C   UNL A   1      35.676  34.449  28.620  1.00  0.00     0.014 A 
ATOM     34  C   UNL A   1      35.434  32.961  30.968  1.00  0.00     0.010 A 
ATOM     35  C   UNL A   1      36.787  33.799  29.149  1.00  0.00     0.010 A 
ATOM     36  C   UNL A   1      36.677  33.035  30.321  1.00  0.00    -0.014 A 
BRANCH  36  37
ATOM     37  C   UNL A   1      37.865  32.300  30.831  1.00  0.00     0.031 A 
ATOM     38  C   UNL A   1      38.671  32.852  31.974  1.00  0.00     0.074 A 
ATOM     39  C   UNL A   1      38.279  31.183  30.199  1.00  0.00     0.049 A 
ATOM     40  N   UNL A   1      39.786  32.401  32.492  1.00  0.00    -0.248 NA
ATOM     41  C   UNL A   1      38.179  34.093  32.594  1.00  0.00     0.031 C 
ATOM     42  C   UNL A   1      37.628  30.572  29.037  1.00  0.00     0.029 A 
ATOM     43  N   UNL A   1      39.358  30.368  30.439  1.00  0.00    -0.354 N 
ATOM     44  C   UNL A   1      40.144  33.319  33.471  1.00  0.00     0.074 A 
ATOM     45  C   UNL A   1      39.155  34.375  33.444  1.00  0.00     0.031 C 
ATOM     46  C   UNL A   1      38.305  29.468  28.682  1.00  0.00     0.029 A 
ATOM     47  C   UNL A   1      39.458  29.314  29.563  1.00  0.00     0.049 A 
ATOM     48  H   UNL A   1      40.000  30.525  31.168  1.00  0.00     0.167 HD
ATOM     49  C   UNL A   1      41.191  33.280  34.330  1.00  0.00     0.031 A 
ATOM     50  C   UNL A   1      40.377  28.334  29.471  1.00  0.00     0.031 A 
ATOM     51  C   UNL A   1      42.161  32.220  34.378  1.00  0.00     0.049 A 
ATOM     52  C   UNL A   1      41.516  28.297  30.450  1.00  0.00     0.074 A 
ATOM     53  C   UNL A   1      43.206  32.048  35.268  1.00  0.00     0.029 A 
ATOM     54  N   UNL A   1      42.206  31.151  33.496  1.00  0.00    -0.354 N 
ATOM     55  N   UNL A   1      41.792  29.128  31.425  1.00  0.00    -0.248 NA
ATOM     56  C   UNL A   1      42.462  27.179  30.322  1.00  0.00     0.031 C 
ATOM     57  C   UNL A   1      43.913  30.899  34.896  1.00  0.00     0.029 A 
ATOM     58  C   UNL A   1      43.276  30.329  33.805  1.00  0.00     0.049 A 
ATOM     59  H   UNL A   1      41.570  30.999  32.759  1.00  0.00     0.167 HD
ATOM     60  C   UNL A   1      42.930  28.624  32.040  1.00  0.00     0.074 A 
ATOM     61  C   UNL A   1      43.283  27.406  31.338  1.00  0.00     0.031 C 
ATOM     62  C   UNL A   1      43.620  29.125  33.093  1.00  0.00     0.031 A 
BRANCH  49  63
ATOM     63  C   UNL A   1      41.341  34.433  35.283  1.00  0.00    -0.014 A 
ATOM     64  C   UNL A   1      42.151  35.538  34.972  1.00  0.00     0.009 A 
ATOM     65  C   UNL A   1      40.651  34.422  36.505  1.00  0.00     0.009 A 
ATOM     66  C   UNL A   1      42.303  36.584  35.884  1.00  0.00     0.001 A 
ATOM     67  C   UNL A   1      40.779  35.484  37.402  1.00  0.00     0.001 A 
ATOM     68  C   UNL A   1      41.615  36.558  37.097  1.00  0.00     0.000 A 
ENDBRANCH  49  63
BRANCH  50  69
ATOM     69  C   UNL A   1      40.243  27.292  28.420  1.00  0.00    -0.014 A 
ATOM     70  C   UNL A   1      40.849  27.467  27.167  1.00  0.00     0.009 A 
ATOM     71  C   UNL A   1      39.523  26.114  28.669  1.00  0.00     0.009 A 
ATOM     72  C   UNL A   1      40.719  26.491  26.176  1.00  0.00     0.001 A 
ATOM     73  C   UNL A   1      39.418  25.128  27.686  1.00  0.00     0.001 A 
ATOM     74  C   UNL A   1      40.010  25.320  26.438  1.00  0.00     0.000 A 
ENDBRANCH  50  69
BRANCH  62  75
ATOM     75  C   UNL A   1      44.813  28.345  33.568  1.00  0.00    -0.014 A 
ATOM     76  C   UNL A   1      44.682  27.320  34.518  1.00  0.00     0.009 A 
ATOM     77  C   UNL A   1      46.080  28.614  33.024  1.00  0.00     0.009 A 
ATOM     78  C   UNL A   1      45.802  26.598  34.934  1.00  0.00     0.001 A 
ATOM     79  C   UNL A   1      47.193  27.872  33.424  1.00  0.00     0.001 A 
ATOM     80  C   UNL A   1      47.054  26.871  34.384  1.00  0.00     0.000 A 
ENDBRANCH  62  75
ENDBRANCH  36  37
ENDBRANCH  28  31
ENDBRANCH  26  27
ENDBRANCH  25  26
ENDBRANCH   1  25
TORSDOF 14
ENDMDL
MODEL 3
REMARK VINA RESULT:     -10.8      2.097      2.610
REMARK SMILES CSc1ncc(Cl)c(C(=O)Nc2ccsc2C(=O)NCCCCNC(=O)c2ccc(-c3c4nc(c(-c5ccccc5)c5ccc([nH]5)c(-c5ccccc5)c5nc(c(-c6ccccc6)c6ccc3[nH]6)C=C5)C=C4)cc2)n1
REMARK SMILES IDX 21 1 20 2 19 3 17 4 18 5 16 7 12 8 13 9 14 10 15 11 11 12
REMARK SMILES IDX 9 13 10 14 8 16 3 17 4 18 75 19 5 20 6 21 7 22 2 23 1 24
REMARK SMILES IDX 22 25 23 26 24 27 25 28 26 30 27 31 28 32 74 33 29 34 73 35
REMARK SMILES IDX 30 36 31 37 32 38 67 39 33 40 72 41 66 42 68 43 34 44 71 45
REMARK SMILES IDX 65 46 64 47 35 49 57 50 42 51 56 52 43 53 46 54 55 55 69 56
REMARK SMILES IDX 44 57 45 58 54 60 70 61 47 62 36 63 37 64 41 65 38 66 40 67
REMARK SMILES IDX 39 68 58 69 59 70 63 71 60 72 62 73 61 74 48 75 49 76 53 77
REMARK SMILES IDX 50 78 52 79 51 80
REMARK H PARENT 19 6 11 15 24 29 68 48 46 59
REMARK Flexibility Score: inf
ROOT
ATOM      1  C   UNL A   1      31.910  30.110  26.780  1.00  0.00     0.023 C 
ENDROOT
BRANCH   1   2
ATOM      2  C   UNL A   1      33.216  29.501  26.291  1.00  0.00     0.116 C 
BRANCH   2   3
ATOM      3  N   UNL A   1      33.452  29.454  24.871  1.00  0.00    -0.351 N 
ATOM      4  C   UNL A   1      32.721  28.892  23.836  1.00  0.00     0.263 C 
ATOM      5  O   UNL A   1      33.209  29.126  22.724  1.00  0.00    -0.268 OA
ATOM      6  H   UNL A   1      34.280  29.903  24.584  1.00  0.00     0.163 HD
BRANCH   4   7
ATOM      7  C   UNL A   1      31.516  28.053  24.007  1.00  0.00     0.115 A 
ATOM      8  C   UNL A   1      31.184  26.889  24.700  1.00  0.00     0.065 A 
ATOM      9  C   UNL A   1      29.873  26.400  24.403  1.00  0.00     0.038 A 
ATOM     10  C   UNL A   1      29.205  27.207  23.517  1.00  0.00     0.068 A 
ATOM     11  S   UNL A   1      30.144  28.544  23.046  1.00  0.00    -0.137 S 
BRANCH   8  12
ATOM     12  N   UNL A   1      32.005  26.273  25.614  1.00  0.00    -0.319 N 
ATOM     13  C   UNL A   1      32.658  25.058  25.552  1.00  0.00     0.276 C 
ATOM     14  O   UNL A   1      33.417  24.815  26.498  1.00  0.00    -0.267 OA
ATOM     15  H   UNL A   1      32.150  26.779  26.447  1.00  0.00     0.170 HD
BRANCH  13  16
ATOM     16  C   UNL A   1      32.603  24.074  24.415  1.00  0.00     0.151 A 
ATOM     17  C   UNL A   1      32.355  21.810  24.012  1.00  0.00     0.188 A 
ATOM     18  N   UNL A   1      32.533  21.949  22.694  1.00  0.00    -0.230 NA
ATOM     19  N   UNL A   1      32.317  22.824  24.879  1.00  0.00    -0.216 NA
ATOM     20  C   UNL A   1      32.823  23.189  22.266  1.00  0.00     0.137 A 
ATOM     21  C   UNL A   1      32.961  24.286  23.094  1.00  0.00     0.090 A 
ATOM     22  Cl  UNL A   1      33.763  25.639  22.412  1.00  0.00    -0.080 Cl
BRANCH  17  23
ATOM     23  S   UNL A   1      32.502  20.175  24.669  1.00  0.00    -0.090 SA
ATOM     24  C   UNL A   1      34.310  20.166  24.810  1.00  0.00     0.094 C 
ENDBRANCH  17  23
ENDBRANCH  13  16
ENDBRANCH   8  12
ENDBRANCH   4   7
ENDBRANCH   2   3
ENDBRANCH   1   2
BRANCH   1  25
ATOM     25  C   UNL A   1      31.755  31.618  26.661  1.00  0.00     0.023 C 
BRANCH  25  26
ATOM     26  C   UNL A   1      32.849  32.472  27.291  1.00  0.00     0.116 C 
BRANCH  26  27
ATOM     27  N   UNL A   1      32.446  33.832  27.619  1.00  0.00    -0.352 N 
ATOM     28  C   UNL A   1      33.012  34.757  28.469  1.00  0.00     0.251 C 
ATOM     29  H   UNL A   1      31.633  34.142  27.159  1.00  0.00     0.163 HD
ATOM     30  O   UNL A   1      32.480  35.853  28.624  1.00  0.00    -0.269 OA
BRANCH  28  31
ATOM     31  C   UNL A   1      34.226  34.427  29.249  1.00  0.00     0.039 A 
ATOM     32  C   UNL A   1      34.071  33.899  30.535  1.00  0.00     0.014 A 
ATOM     33  C   UNL A   1      35.505  34.599  28.720  1.00  0.00     0.014 A 
ATOM     34  C   UNL A   1      35.187  33.434  31.236  1.00  0.00     0.010 A 
ATOM     35  C   UNL A   1      36.601  34.043  29.373  1.00  0.00     0.010 A 
ATOM     36  C   UNL A   1      36.453  33.441  30.632  1.00  0.00    -0.014 A 
BRANCH  36  37
ATOM     37  C   UNL A   1      37.628  32.801  31.281  1.00  0.00     0.031 A 
ATOM     38  C   UNL A   1      38.290  31.606  30.652  1.00  0.00     0.074 A 
ATOM     39  C   UNL A   1      38.039  33.233  32.490  1.00  0.00     0.049 A 
ATOM     40  N   UNL A   1      39.262  30.861  31.115  1.00  0.00    -0.248 NA
ATOM     41  C   UNL A   1      37.766  31.167  29.348  1.00  0.00     0.031 C 
ATOM     42  C   UNL A   1      37.447  34.341  33.244  1.00  0.00     0.029 A 
ATOM     43  N   UNL A   1      39.048  32.781  33.305  1.00  0.00    -0.354 N 
ATOM     44  C   UNL A   1      39.442  29.851  30.178  1.00  0.00     0.074 A 
ATOM     45  C   UNL A   1      38.449  30.051  29.145  1.00  0.00     0.031 C 
ATOM     46  C   UNL A   1      38.118  34.499  34.396  1.00  0.00     0.029 A 
ATOM     47  C   UNL A   1      39.160  33.480  34.483  1.00  0.00     0.049 A 
ATOM     48  H   UNL A   1      39.634  32.026  33.070  1.00  0.00     0.167 HD
ATOM     49  C   UNL A   1      40.362  28.856  30.166  1.00  0.00     0.031 A 
ATOM     50  C   UNL A   1      40.000  33.318  35.523  1.00  0.00     0.031 A 
ATOM     51  C   UNL A   1      41.367  28.670  31.178  1.00  0.00     0.049 A 
ATOM     52  C   UNL A   1      41.028  32.224  35.477  1.00  0.00     0.074 A 
ATOM     53  C   UNL A   1      42.396  27.746  31.209  1.00  0.00     0.029 A 
ATOM     54  N   UNL A   1      41.468  29.423  32.338  1.00  0.00    -0.354 N 
ATOM     55  N   UNL A   1      41.239  31.330  34.543  1.00  0.00    -0.248 NA
ATOM     56  C   UNL A   1      41.942  32.126  36.625  1.00  0.00     0.031 C 
ATOM     57  C   UNL A   1      43.092  27.908  32.413  1.00  0.00     0.029 A 
ATOM     58  C   UNL A   1      42.527  28.967  33.105  1.00  0.00     0.049 A 
ATOM     59  H   UNL A   1      40.874  30.171  32.579  1.00  0.00     0.167 HD
ATOM     60  C   UNL A   1      42.321  30.577  34.978  1.00  0.00     0.074 A 
ATOM     61  C   UNL A   1      42.732  31.130  36.253  1.00  0.00     0.031 C 
ATOM     62  C   UNL A   1      42.920  29.522  34.375  1.00  0.00     0.031 A 
BRANCH  49  63
ATOM     63  C   UNL A   1      40.310  27.885  29.019  1.00  0.00    -0.014 A 
ATOM     64  C   UNL A   1      40.998  28.134  27.821  1.00  0.00     0.009 A 
ATOM     65  C   UNL A   1      39.574  26.697  29.145  1.00  0.00     0.009 A 
ATOM     66  C   UNL A   1      40.912  27.235  26.755  1.00  0.00     0.001 A 
ATOM     67  C   UNL A   1      39.515  25.785  28.089  1.00  0.00     0.001 A 
ATOM     68  C   UNL A   1      40.173  26.060  26.892  1.00  0.00     0.000 A 
ENDBRANCH  49  63
BRANCH  50  69
ATOM     69  C   UNL A   1      39.914  34.234  36.691  1.00  0.00    -0.014 A 
ATOM     70  C   UNL A   1      39.153  33.881  37.815  1.00  0.00     0.009 A 
ATOM     71  C   UNL A   1      40.604  35.456  36.692  1.00  0.00     0.009 A 
ATOM     72  C   UNL A   1      39.067  34.744  38.911  1.00  0.00     0.001 A 
ATOM     73  C   UNL A   1      40.539  36.304  37.800  1.00  0.00     0.001 A 
ATOM     74  C   UNL A   1      39.765  35.950  38.905  1.00  0.00     0.000 A 
ENDBRANCH  50  69
BRANCH  62  75
ATOM     75  C   UNL A   1      44.101  28.909  35.073  1.00  0.00    -0.014 A 
ATOM     76  C   UNL A   1      45.403  29.384  34.852  1.00  0.00     0.009 A 
ATOM     77  C   UNL A   1      43.900  27.871  35.996  1.00  0.00     0.009 A 
ATOM     78  C   UNL A   1      46.485  28.810  35.522  1.00  0.00     0.001 A 
ATOM     79  C   UNL A   1      44.981  27.317  36.684  1.00  0.00     0.001 A 
ATOM     80  C   UNL A   1      46.273  27.781  36.440  1.00  0.00     0.000 A 
ENDBRANCH  62  75
ENDBRANCH  36  37
ENDBRANCH  28  31
ENDBRANCH  26  27
ENDBRANCH  25  26
ENDBRANCH   1  25
TORSDOF 14
ENDMDL
