MODEL 1
REMARK VINA RESULT:     -11.6      0.000      0.000
REMARK SMILES Cc1cc(C)c2c(c1)C=C(C(=O)NCCCCNC(=O)c1ccc(-c3c4nc(c(-c5ccccc5)c5ccc([nH]5)c(-c5ccccc5)c5nc(c(-c6ccccc6)c6ccc3[nH]6)C=C5)C=C4)cc1)[C@@H](C(F)(F)F)O2
REMARK SMILES IDX 16 1 15 2 14 3 13 4 11 5 12 6 10 8 1 9 2 10 3 11 8 12 4 13
REMARK SMILES IDX 7 14 5 15 6 16 9 17 74 18 69 19 70 20 71 21 72 22 73 23
REMARK SMILES IDX 17 24 18 25 19 26 20 28 21 29 22 30 68 31 23 32 67 33 24 34
REMARK SMILES IDX 25 35 26 36 61 37 27 38 66 39 60 40 62 41 28 42 65 43 59 44
REMARK SMILES IDX 58 45 29 47 51 48 36 49 50 50 37 51 40 52 49 53 63 54 38 55
REMARK SMILES IDX 39 56 48 58 64 59 41 60 30 61 31 62 35 63 32 64 34 65 33 66
REMARK SMILES IDX 52 67 53 68 57 69 54 70 56 71 55 72 42 73 43 74 47 75 44 76
REMARK SMILES IDX 46 77 45 78
REMARK H PARENT 13 7 18 27 62 46 40 57
REMARK Flexibility Score: inf
ROOT
ATOM      1  C   UNL A   1      33.981  28.622  25.781  1.00  0.00     0.023 C 
ENDROOT
BRANCH   1   2
ATOM      2  C   UNL A   1      32.935  28.904  24.699  1.00  0.00     0.023 C 
BRANCH   2   3
ATOM      3  C   UNL A   1      32.257  27.651  24.151  1.00  0.00     0.116 C 
BRANCH   3   4
ATOM      4  N   UNL A   1      31.357  27.053  25.120  1.00  0.00    -0.352 N 
ATOM      5  C   UNL A   1      31.218  25.849  25.725  1.00  0.00     0.251 C 
ATOM      6  O   UNL A   1      30.269  25.768  26.511  1.00  0.00    -0.270 OA
ATOM      7  H   UNL A   1      30.666  27.689  25.414  1.00  0.00     0.163 HD
BRANCH   5   8
ATOM      8  C   UNL A   1      32.103  24.667  25.509  1.00  0.00     0.067 C 
ATOM      9  C   UNL A   1      38.058  23.044  25.895  1.00  0.00     0.044 C 
ATOM     10  C   UNL A   1      36.588  22.841  25.674  1.00  0.00    -0.050 A 
ATOM     11  C   UNL A   1      36.081  21.574  25.354  1.00  0.00     0.010 A 
ATOM     12  C   UNL A   1      35.702  23.916  25.829  1.00  0.00     0.015 A 
ATOM     13  C   UNL A   1      34.706  21.376  25.175  1.00  0.00    -0.008 A 
ATOM     14  C   UNL A   1      34.327  23.733  25.653  1.00  0.00     0.018 A 
ATOM     15  C   UNL A   1      34.172  20.014  24.833  1.00  0.00     0.048 C 
ATOM     16  C   UNL A   1      33.839  22.467  25.322  1.00  0.00     0.130 A 
ATOM     17  C   UNL A   1      33.393  24.834  25.854  1.00  0.00     0.025 C 
ATOM     18  O   UNL A   1      32.502  22.222  25.182  1.00  0.00    -0.475 OA
ATOM     19  C   UNL A   1      31.652  23.366  24.907  1.00  0.00     0.314 C 
BRANCH  19  20
ATOM     20  C   UNL A   1      31.413  23.463  23.389  1.00  0.00     0.429 C 
ATOM     21  F   UNL A   1      30.155  23.906  23.136  1.00  0.00    -0.167 F 
ATOM     22  F   UNL A   1      32.251  24.341  22.787  1.00  0.00    -0.167 F 
ATOM     23  F   UNL A   1      31.561  22.279  22.755  1.00  0.00    -0.167 F 
ENDBRANCH  19  20
ENDBRANCH   5   8
ENDBRANCH   3   4
ENDBRANCH   2   3
ENDBRANCH   1   2
BRANCH   1  24
ATOM     24  C   UNL A   1      33.515  28.851  27.217  1.00  0.00     0.116 C 
BRANCH  24  25
ATOM     25  N   UNL A   1      33.543  30.246  27.632  1.00  0.00    -0.352 N 
ATOM     26  C   UNL A   1      34.585  30.941  28.195  1.00  0.00     0.251 C 
ATOM     27  H   UNL A   1      32.712  30.755  27.489  1.00  0.00     0.163 HD
ATOM     28  O   UNL A   1      34.447  32.102  28.563  1.00  0.00    -0.269 OA
BRANCH  26  29
ATOM     29  C   UNL A   1      35.868  30.243  28.396  1.00  0.00     0.039 A 
ATOM     30  C   UNL A   1      36.800  30.239  27.357  1.00  0.00     0.014 A 
ATOM     31  C   UNL A   1      36.170  29.669  29.634  1.00  0.00     0.014 A 
ATOM     32  C   UNL A   1      38.073  29.720  27.584  1.00  0.00     0.010 A 
ATOM     33  C   UNL A   1      37.458  29.207  29.877  1.00  0.00     0.010 A 
ATOM     34  C   UNL A   1      38.421  29.235  28.856  1.00  0.00    -0.014 A 
BRANCH  34  35
ATOM     35  C   UNL A   1      39.792  28.753  29.136  1.00  0.00     0.031 A 
ATOM     36  C   UNL A   1      40.768  29.647  29.845  1.00  0.00     0.074 A 
ATOM     37  C   UNL A   1      40.172  27.534  28.709  1.00  0.00     0.049 A 
ATOM     38  N   UNL A   1      42.022  29.424  30.143  1.00  0.00    -0.248 NA
ATOM     39  C   UNL A   1      40.275  30.972  30.256  1.00  0.00     0.031 C 
ATOM     40  C   UNL A   1      39.324  26.587  27.982  1.00  0.00     0.029 A 
ATOM     41  N   UNL A   1      41.373  26.882  28.829  1.00  0.00    -0.354 N 
ATOM     42  C   UNL A   1      42.469  30.581  30.765  1.00  0.00     0.074 A 
ATOM     43  C   UNL A   1      41.370  31.522  30.759  1.00  0.00     0.031 C 
ATOM     44  C   UNL A   1      40.020  25.461  27.753  1.00  0.00     0.029 A 
ATOM     45  C   UNL A   1      41.370  25.621  28.286  1.00  0.00     0.049 A 
ATOM     46  H   UNL A   1      42.161  27.281  29.262  1.00  0.00     0.167 HD
ATOM     47  C   UNL A   1      43.681  30.831  31.313  1.00  0.00     0.031 A 
ATOM     48  C   UNL A   1      42.345  24.694  28.229  1.00  0.00     0.031 A 
ATOM     49  C   UNL A   1      44.769  29.893  31.333  1.00  0.00     0.049 A 
ATOM     50  C   UNL A   1      43.687  25.003  28.829  1.00  0.00     0.074 A 
ATOM     51  C   UNL A   1      46.022  30.038  31.901  1.00  0.00     0.029 A 
ATOM     52  N   UNL A   1      44.729  28.631  30.760  1.00  0.00    -0.354 N 
ATOM     53  N   UNL A   1      44.083  26.087  29.451  1.00  0.00    -0.248 NA
ATOM     54  C   UNL A   1      44.716  23.958  28.722  1.00  0.00     0.031 C 
ATOM     55  C   UNL A   1      46.755  28.875  31.642  1.00  0.00     0.029 A 
ATOM     56  C   UNL A   1      45.942  27.993  30.948  1.00  0.00     0.049 A 
ATOM     57  H   UNL A   1      43.954  28.248  30.290  1.00  0.00     0.167 HD
ATOM     58  C   UNL A   1      45.398  25.849  29.826  1.00  0.00     0.074 A 
ATOM     59  C   UNL A   1      45.729  24.514  29.374  1.00  0.00     0.031 C 
ATOM     60  C   UNL A   1      46.253  26.666  30.487  1.00  0.00     0.031 A 
BRANCH  47  61
ATOM     61  C   UNL A   1      43.884  32.177  31.945  1.00  0.00    -0.014 A 
ATOM     62  C   UNL A   1      43.611  32.381  33.308  1.00  0.00     0.009 A 
ATOM     63  C   UNL A   1      44.380  33.244  31.181  1.00  0.00     0.009 A 
ATOM     64  C   UNL A   1      43.802  33.637  33.885  1.00  0.00     0.001 A 
ATOM     65  C   UNL A   1      44.592  34.492  31.767  1.00  0.00     0.001 A 
ATOM     66  C   UNL A   1      44.295  34.690  33.116  1.00  0.00     0.000 A 
ENDBRANCH  47  61
BRANCH  48  67
ATOM     67  C   UNL A   1      42.075  23.373  27.608  1.00  0.00    -0.014 A 
ATOM     68  C   UNL A   1      41.463  22.356  28.356  1.00  0.00     0.009 A 
ATOM     69  C   UNL A   1      42.414  23.124  26.270  1.00  0.00     0.009 A 
ATOM     70  C   UNL A   1      41.208  21.110  27.780  1.00  0.00     0.001 A 
ATOM     71  C   UNL A   1      42.138  21.884  25.690  1.00  0.00     0.001 A 
ATOM     72  C   UNL A   1      41.542  20.876  26.447  1.00  0.00     0.000 A 
ENDBRANCH  48  67
BRANCH  60  73
ATOM     73  C   UNL A   1      47.627  26.135  30.776  1.00  0.00    -0.014 A 
ATOM     74  C   UNL A   1      48.630  26.162  29.796  1.00  0.00     0.009 A 
ATOM     75  C   UNL A   1      47.938  25.672  32.063  1.00  0.00     0.009 A 
ATOM     76  C   UNL A   1      49.918  25.716  30.097  1.00  0.00     0.001 A 
ATOM     77  C   UNL A   1      49.232  25.248  32.367  1.00  0.00     0.001 A 
ATOM     78  C   UNL A   1      50.219  25.266  31.383  1.00  0.00     0.000 A 
ENDBRANCH  60  73
ENDBRANCH  34  35
ENDBRANCH  26  29
ENDBRANCH  24  25
ENDBRANCH   1  24
TORSDOF 12
ENDMDL
MODEL 2
REMARK VINA RESULT:     -11.4      1.986      3.900
REMARK SMILES Cc1cc(C)c2c(c1)C=C(C(=O)NCCCCNC(=O)c1ccc(-c3c4nc(c(-c5ccccc5)c5ccc([nH]5)c(-c5ccccc5)c5nc(c(-c6ccccc6)c6ccc3[nH]6)C=C5)C=C4)cc1)[C@@H](C(F)(F)F)O2
REMARK SMILES IDX 16 1 15 2 14 3 13 4 11 5 12 6 10 8 1 9 2 10 3 11 8 12 4 13
REMARK SMILES IDX 7 14 5 15 6 16 9 17 74 18 69 19 70 20 71 21 72 22 73 23
REMARK SMILES IDX 17 24 18 25 19 26 20 28 21 29 22 30 68 31 23 32 67 33 24 34
REMARK SMILES IDX 25 35 26 36 61 37 27 38 66 39 60 40 62 41 28 42 65 43 59 44
REMARK SMILES IDX 58 45 29 47 51 48 36 49 50 50 37 51 40 52 49 53 63 54 38 55
REMARK SMILES IDX 39 56 48 58 64 59 41 60 30 61 31 62 35 63 32 64 34 65 33 66
REMARK SMILES IDX 52 67 53 68 57 69 54 70 56 71 55 72 42 73 43 74 47 75 44 76
REMARK SMILES IDX 46 77 45 78
REMARK H PARENT 13 7 18 27 62 46 40 57
REMARK Flexibility Score: inf
ROOT
ATOM      1  C   UNL A   1      33.288  29.182  25.447  1.00  0.00     0.023 C 
ENDROOT
BRANCH   1   2
ATOM      2  C   UNL A   1      34.041  28.259  24.487  1.00  0.00     0.023 C 
BRANCH   2   3
ATOM      3  C   UNL A   1      33.961  26.780  24.857  1.00  0.00     0.116 C 
BRANCH   3   4
ATOM      4  N   UNL A   1      33.596  25.955  23.720  1.00  0.00    -0.352 N 
ATOM      5  C   UNL A   1      32.499  25.770  22.947  1.00  0.00     0.251 C 
ATOM      6  O   UNL A   1      32.627  24.925  22.055  1.00  0.00    -0.270 OA
ATOM      7  H   UNL A   1      34.340  25.376  23.438  1.00  0.00     0.163 HD
BRANCH   5   8
ATOM      8  C   UNL A   1      31.202  26.492  23.102  1.00  0.00     0.067 C 
ATOM      9  C   UNL A   1      28.598  31.940  21.766  1.00  0.00     0.044 C 
ATOM     10  C   UNL A   1      28.653  30.529  22.274  1.00  0.00    -0.050 A 
ATOM     11  C   UNL A   1      27.510  29.911  22.796  1.00  0.00     0.010 A 
ATOM     12  C   UNL A   1      29.849  29.802  22.189  1.00  0.00     0.015 A 
ATOM     13  C   UNL A   1      27.552  28.584  23.244  1.00  0.00    -0.008 A 
ATOM     14  C   UNL A   1      29.907  28.477  22.633  1.00  0.00     0.018 A 
ATOM     15  C   UNL A   1      26.320  27.930  23.802  1.00  0.00     0.048 C 
ATOM     16  C   UNL A   1      28.761  27.880  23.162  1.00  0.00     0.130 A 
ATOM     17  C   UNL A   1      31.133  27.698  22.510  1.00  0.00     0.025 C 
ATOM     18  O   UNL A   1      28.749  26.575  23.570  1.00  0.00    -0.475 OA
ATOM     19  C   UNL A   1      30.032  25.978  23.893  1.00  0.00     0.314 C 
BRANCH  19  20
ATOM     20  C   UNL A   1      30.258  26.061  25.414  1.00  0.00     0.429 C 
ATOM     21  F   UNL A   1      29.108  25.781  26.078  1.00  0.00    -0.167 F 
ATOM     22  F   UNL A   1      31.176  25.165  25.852  1.00  0.00    -0.167 F 
ATOM     23  F   UNL A   1      30.675  27.281  25.820  1.00  0.00    -0.167 F 
ENDBRANCH  19  20
ENDBRANCH   5   8
ENDBRANCH   3   4
ENDBRANCH   2   3
ENDBRANCH   1   2
BRANCH   1  24
ATOM     24  C   UNL A   1      33.714  29.090  26.912  1.00  0.00     0.116 C 
BRANCH  24  25
ATOM     25  N   UNL A   1      33.658  30.360  27.623  1.00  0.00    -0.352 N 
ATOM     26  C   UNL A   1      34.633  30.939  28.398  1.00  0.00     0.251 C 
ATOM     27  H   UNL A   1      32.819  30.866  27.536  1.00  0.00     0.163 HD
ATOM     28  O   UNL A   1      34.423  31.986  29.001  1.00  0.00    -0.269 OA
BRANCH  26  29
ATOM     29  C   UNL A   1      35.927  30.247  28.533  1.00  0.00     0.039 A 
ATOM     30  C   UNL A   1      36.823  30.285  27.463  1.00  0.00     0.014 A 
ATOM     31  C   UNL A   1      36.276  29.637  29.741  1.00  0.00     0.014 A 
ATOM     32  C   UNL A   1      38.107  29.771  27.630  1.00  0.00     0.010 A 
ATOM     33  C   UNL A   1      37.576  29.180  29.925  1.00  0.00     0.010 A 
ATOM     34  C   UNL A   1      38.503  29.249  28.873  1.00  0.00    -0.014 A 
BRANCH  34  35
ATOM     35  C   UNL A   1      39.887  28.771  29.091  1.00  0.00     0.031 A 
ATOM     36  C   UNL A   1      40.898  29.677  29.732  1.00  0.00     0.074 A 
ATOM     37  C   UNL A   1      40.244  27.544  28.668  1.00  0.00     0.049 A 
ATOM     38  N   UNL A   1      42.165  29.459  29.968  1.00  0.00    -0.248 NA
ATOM     39  C   UNL A   1      40.427  31.011  30.142  1.00  0.00     0.031 C 
ATOM     40  C   UNL A   1      39.359  26.584  28.004  1.00  0.00     0.029 A 
ATOM     41  N   UNL A   1      41.450  26.893  28.738  1.00  0.00    -0.354 N 
ATOM     42  C   UNL A   1      42.645  30.628  30.544  1.00  0.00     0.074 A 
ATOM     43  C   UNL A   1      41.547  31.569  30.577  1.00  0.00     0.031 C 
ATOM     44  C   UNL A   1      40.043  25.453  27.761  1.00  0.00     0.029 A 
ATOM     45  C   UNL A   1      41.418  25.622  28.220  1.00  0.00     0.049 A 
ATOM     46  H   UNL A   1      42.260  27.299  29.122  1.00  0.00     0.167 HD
ATOM     47  C   UNL A   1      43.883  30.887  31.024  1.00  0.00     0.031 A 
ATOM     48  C   UNL A   1      42.390  24.694  28.131  1.00  0.00     0.031 A 
ATOM     49  C   UNL A   1      44.971  29.948  31.004  1.00  0.00     0.049 A 
ATOM     50  C   UNL A   1      43.761  25.012  28.654  1.00  0.00     0.074 A 
ATOM     51  C   UNL A   1      46.251  30.103  31.505  1.00  0.00     0.029 A 
ATOM     52  N   UNL A   1      44.902  28.676  30.459  1.00  0.00    -0.354 N 
ATOM     53  N   UNL A   1      44.188  26.108  29.234  1.00  0.00    -0.248 NA
ATOM     54  C   UNL A   1      44.783  23.964  28.515  1.00  0.00     0.031 C 
ATOM     55  C   UNL A   1      46.970  28.935  31.230  1.00  0.00     0.029 A 
ATOM     56  C   UNL A   1      46.122  28.040  30.596  1.00  0.00     0.049 A 
ATOM     57  H   UNL A   1      44.103  28.284  30.037  1.00  0.00     0.167 HD
ATOM     58  C   UNL A   1      45.521  25.876  29.545  1.00  0.00     0.074 A 
ATOM     59  C   UNL A   1      45.829  24.532  29.103  1.00  0.00     0.031 C 
ATOM     60  C   UNL A   1      46.409  26.704  30.145  1.00  0.00     0.031 A 
BRANCH  47  61
ATOM     61  C   UNL A   1      44.119  32.244  31.618  1.00  0.00    -0.014 A 
ATOM     62  C   UNL A   1      43.901  32.479  32.986  1.00  0.00     0.009 A 
ATOM     63  C   UNL A   1      44.590  33.291  30.813  1.00  0.00     0.009 A 
ATOM     64  C   UNL A   1      44.121  33.746  33.528  1.00  0.00     0.001 A 
ATOM     65  C   UNL A   1      44.832  34.551  31.363  1.00  0.00     0.001 A 
ATOM     66  C   UNL A   1      44.590  34.779  32.718  1.00  0.00     0.000 A 
ENDBRANCH  47  61
BRANCH  48  67
ATOM     67  C   UNL A   1      42.088  23.361  27.551  1.00  0.00    -0.014 A 
ATOM     68  C   UNL A   1      42.407  23.088  26.212  1.00  0.00     0.009 A 
ATOM     69  C   UNL A   1      41.496  22.355  28.327  1.00  0.00     0.009 A 
ATOM     70  C   UNL A   1      42.124  21.838  25.658  1.00  0.00     0.001 A 
ATOM     71  C   UNL A   1      41.233  21.098  27.777  1.00  0.00     0.001 A 
ATOM     72  C   UNL A   1      41.542  20.843  26.441  1.00  0.00     0.000 A 
ENDBRANCH  48  67
BRANCH  60  73
ATOM     73  C   UNL A   1      47.797  26.178  30.372  1.00  0.00    -0.014 A 
ATOM     74  C   UNL A   1      48.760  26.223  29.355  1.00  0.00     0.009 A 
ATOM     75  C   UNL A   1      48.160  25.700  31.640  1.00  0.00     0.009 A 
ATOM     76  C   UNL A   1      50.061  25.782  29.599  1.00  0.00     0.001 A 
ATOM     77  C   UNL A   1      49.468  25.279  31.887  1.00  0.00     0.001 A 
ATOM     78  C   UNL A   1      50.415  25.316  30.866  1.00  0.00     0.000 A 
ENDBRANCH  60  73
ENDBRANCH  34  35
ENDBRANCH  26  29
ENDBRANCH  24  25
ENDBRANCH   1  24
TORSDOF 12
ENDMDL
MODEL 3
REMARK VINA RESULT:     -11.4      2.360      7.563
REMARK SMILES Cc1cc(C)c2c(c1)C=C(C(=O)NCCCCNC(=O)c1ccc(-c3c4nc(c(-c5ccccc5)c5ccc([nH]5)c(-c5ccccc5)c5nc(c(-c6ccccc6)c6ccc3[nH]6)C=C5)C=C4)cc1)[C@@H](C(F)(F)F)O2
REMARK SMILES IDX 16 1 15 2 14 3 13 4 11 5 12 6 10 8 1 9 2 10 3 11 8 12 4 13
REMARK SMILES IDX 7 14 5 15 6 16 9 17 74 18 69 19 70 20 71 21 72 22 73 23
REMARK SMILES IDX 17 24 18 25 19 26 20 28 21 29 22 30 68 31 23 32 67 33 24 34
REMARK SMILES IDX 25 35 26 36 61 37 27 38 66 39 60 40 62 41 28 42 65 43 59 44
REMARK SMILES IDX 58 45 29 47 51 48 36 49 50 50 37 51 40 52 49 53 63 54 38 55
REMARK SMILES IDX 39 56 48 58 64 59 41 60 30 61 31 62 35 63 32 64 34 65 33 66
REMARK SMILES IDX 52 67 53 68 57 69 54 70 56 71 55 72 42 73 43 74 47 75 44 76
REMARK SMILES IDX 46 77 45 78
REMARK H PARENT 13 7 18 27 62 46 40 57
REMARK Flexibility Score: inf
ROOT
ATOM      1  C   UNL A   1      36.234  22.827  24.161  1.00  0.00     0.023 C 
ENDROOT
BRANCH   1   2
ATOM      2  C   UNL A   1      35.498  21.591  24.683  1.00  0.00     0.023 C 
BRANCH   2   3
ATOM      3  C   UNL A   1      34.967  21.740  26.106  1.00  0.00     0.116 C 
BRANCH   3   4
ATOM      4  N   UNL A   1      33.518  21.809  26.140  1.00  0.00    -0.352 N 
ATOM      5  C   UNL A   1      32.565  22.712  25.805  1.00  0.00     0.251 C 
ATOM      6  O   UNL A   1      31.404  22.348  26.017  1.00  0.00    -0.270 OA
ATOM      7  H   UNL A   1      33.124  20.984  26.504  1.00  0.00     0.163 HD
BRANCH   5   8
ATOM      8  C   UNL A   1      32.822  24.061  25.220  1.00  0.00     0.067 C 
ATOM      9  C   UNL A   1      34.170  29.834  26.983  1.00  0.00     0.044 C 
ATOM     10  C   UNL A   1      33.920  28.712  26.018  1.00  0.00    -0.050 A 
ATOM     11  C   UNL A   1      34.004  28.927  24.636  1.00  0.00     0.010 A 
ATOM     12  C   UNL A   1      33.641  27.425  26.498  1.00  0.00     0.015 A 
ATOM     13  C   UNL A   1      33.800  27.875  23.733  1.00  0.00    -0.008 A 
ATOM     14  C   UNL A   1      33.435  26.366  25.608  1.00  0.00     0.018 A 
ATOM     15  C   UNL A   1      33.894  28.115  22.252  1.00  0.00     0.048 C 
ATOM     16  C   UNL A   1      33.510  26.599  24.234  1.00  0.00     0.130 A 
ATOM     17  C   UNL A   1      33.187  25.015  26.096  1.00  0.00     0.025 C 
ATOM     18  O   UNL A   1      33.360  25.592  23.321  1.00  0.00    -0.475 OA
ATOM     19  C   UNL A   1      32.656  24.403  23.767  1.00  0.00     0.314 C 
BRANCH  19  20
ATOM     20  C   UNL A   1      31.180  24.503  23.342  1.00  0.00     0.429 C 
ATOM     21  F   UNL A   1      31.065  25.223  22.197  1.00  0.00    -0.167 F 
ATOM     22  F   UNL A   1      30.632  23.290  23.082  1.00  0.00    -0.167 F 
ATOM     23  F   UNL A   1      30.401  25.095  24.274  1.00  0.00    -0.167 F 
ENDBRANCH  19  20
ENDBRANCH   5   8
ENDBRANCH   3   4
ENDBRANCH   2   3
ENDBRANCH   1   2
BRANCH   1  24
ATOM     24  C   UNL A   1      37.250  23.439  25.124  1.00  0.00     0.116 C 
BRANCH  24  25
ATOM     25  N   UNL A   1      38.380  22.570  25.420  1.00  0.00    -0.352 N 
ATOM     26  C   UNL A   1      39.504  22.863  26.153  1.00  0.00     0.251 C 
ATOM     27  H   UNL A   1      38.332  21.659  25.050  1.00  0.00     0.163 HD
ATOM     28  O   UNL A   1      40.417  22.052  26.264  1.00  0.00    -0.269 OA
BRANCH  26  29
ATOM     29  C   UNL A   1      39.614  24.198  26.768  1.00  0.00     0.039 A 
ATOM     30  C   UNL A   1      39.123  24.384  28.062  1.00  0.00     0.014 A 
ATOM     31  C   UNL A   1      40.271  25.231  26.093  1.00  0.00     0.014 A 
ATOM     32  C   UNL A   1      39.359  25.594  28.713  1.00  0.00     0.010 A 
ATOM     33  C   UNL A   1      40.556  26.413  26.766  1.00  0.00     0.010 A 
ATOM     34  C   UNL A   1      40.108  26.601  28.082  1.00  0.00    -0.014 A 
BRANCH  34  35
ATOM     35  C   UNL A   1      40.434  27.860  28.789  1.00  0.00     0.031 A 
ATOM     36  C   UNL A   1      41.782  28.033  29.425  1.00  0.00     0.074 A 
ATOM     37  C   UNL A   1      39.500  28.824  28.900  1.00  0.00     0.049 A 
ATOM     38  N   UNL A   1      42.241  29.041  30.121  1.00  0.00    -0.248 NA
ATOM     39  C   UNL A   1      42.733  26.919  29.275  1.00  0.00     0.031 C 
ATOM     40  C   UNL A   1      38.144  28.760  28.351  1.00  0.00     0.029 A 
ATOM     41  N   UNL A   1      39.555  30.051  29.511  1.00  0.00    -0.354 N 
ATOM     42  C   UNL A   1      43.526  28.678  30.500  1.00  0.00     0.074 A 
ATOM     43  C   UNL A   1      43.758  27.341  30.000  1.00  0.00     0.031 C 
ATOM     44  C   UNL A   1      37.507  29.912  28.620  1.00  0.00     0.029 A 
ATOM     45  C   UNL A   1      38.397  30.779  29.386  1.00  0.00     0.049 A 
ATOM     46  H   UNL A   1      40.348  30.378  29.994  1.00  0.00     0.167 HD
ATOM     47  C   UNL A   1      44.440  29.403  31.185  1.00  0.00     0.031 A 
ATOM     48  C   UNL A   1      38.090  32.012  29.834  1.00  0.00     0.031 A 
ATOM     49  C   UNL A   1      44.216  30.737  31.671  1.00  0.00     0.049 A 
ATOM     50  C   UNL A   1      39.116  32.789  30.607  1.00  0.00     0.074 A 
ATOM     51  C   UNL A   1      45.096  31.569  32.339  1.00  0.00     0.029 A 
ATOM     52  N   UNL A   1      43.026  31.434  31.534  1.00  0.00    -0.354 N 
ATOM     53  N   UNL A   1      40.343  32.449  30.922  1.00  0.00    -0.248 NA
ATOM     54  C   UNL A   1      38.717  34.121  31.083  1.00  0.00     0.031 C 
ATOM     55  C   UNL A   1      44.425  32.760  32.639  1.00  0.00     0.029 A 
ATOM     56  C   UNL A   1      43.143  32.681  32.121  1.00  0.00     0.049 A 
ATOM     57  H   UNL A   1      42.218  31.091  31.088  1.00  0.00     0.167 HD
ATOM     58  C   UNL A   1      40.868  33.531  31.616  1.00  0.00     0.074 A 
ATOM     59  C   UNL A   1      39.833  34.542  31.665  1.00  0.00     0.031 C 
ATOM     60  C   UNL A   1      42.100  33.671  32.163  1.00  0.00     0.031 A 
BRANCH  47  61
ATOM     61  C   UNL A   1      45.773  28.763  31.439  1.00  0.00    -0.014 A 
ATOM     62  C   UNL A   1      46.828  28.907  30.523  1.00  0.00     0.009 A 
ATOM     63  C   UNL A   1      45.988  28.033  32.617  1.00  0.00     0.009 A 
ATOM     64  C   UNL A   1      48.063  28.306  30.768  1.00  0.00     0.001 A 
ATOM     65  C   UNL A   1      47.232  27.453  32.870  1.00  0.00     0.001 A 
ATOM     66  C   UNL A   1      48.265  27.583  31.943  1.00  0.00     0.000 A 
ENDBRANCH  47  61
BRANCH  48  67
ATOM     67  C   UNL A   1      36.761  32.598  29.532  1.00  0.00    -0.014 A 
ATOM     68  C   UNL A   1      35.729  32.528  30.480  1.00  0.00     0.009 A 
ATOM     69  C   UNL A   1      36.518  33.240  28.308  1.00  0.00     0.009 A 
ATOM     70  C   UNL A   1      34.475  33.076  30.202  1.00  0.00     0.001 A 
ATOM     71  C   UNL A   1      35.269  33.805  28.041  1.00  0.00     0.001 A 
ATOM     72  C   UNL A   1      34.247  33.717  28.986  1.00  0.00     0.000 A 
ENDBRANCH  48  67
BRANCH  60  73
ATOM     73  C   UNL A   1      42.404  34.971  32.850  1.00  0.00    -0.014 A 
ATOM     74  C   UNL A   1      41.969  35.211  34.160  1.00  0.00     0.009 A 
ATOM     75  C   UNL A   1      43.195  35.932  32.202  1.00  0.00     0.009 A 
ATOM     76  C   UNL A   1      42.307  36.402  34.806  1.00  0.00     0.001 A 
ATOM     77  C   UNL A   1      43.551  37.111  32.858  1.00  0.00     0.001 A 
ATOM     78  C   UNL A   1      43.102  37.347  34.157  1.00  0.00     0.000 A 
ENDBRANCH  60  73
ENDBRANCH  34  35
ENDBRANCH  26  29
ENDBRANCH  24  25
ENDBRANCH   1  24
TORSDOF 12
ENDMDL
