MODEL 1
REMARK VINA RESULT:     -11.5      0.000      0.000
REMARK SMILES O=C(NCCCCNC(=O)c1ccc(-c2ccn(C(F)F)c(=O)c2)cc1O)c1ccc(-c2c3nc(c(-c4ccccc4)c4ccc([nH]4)c(-c4ccccc4)c4nc(c(-c5ccccc5)c5ccc2[nH]5)C=C4)C=C3)cc1
REMARK SMILES IDX 5 1 4 2 3 3 1 4 2 5 28 7 29 8 75 9 30 10 74 11 31 12 32 13
REMARK SMILES IDX 33 14 68 15 34 16 73 17 67 18 69 19 35 20 72 21 66 22 65 23
REMARK SMILES IDX 36 25 58 26 43 27 57 28 44 29 47 30 56 31 70 32 45 33 46 34
REMARK SMILES IDX 55 36 71 37 48 38 37 39 38 40 42 41 39 42 41 43 40 44 59 45
REMARK SMILES IDX 60 46 64 47 61 48 63 49 62 50 49 51 50 52 54 53 51 54 53 55
REMARK SMILES IDX 52 56 6 57 7 58 8 59 9 60 10 62 11 63 12 64 26 65 13 66
REMARK SMILES IDX 25 67 14 68 27 69 15 71 16 72 24 73 17 74 22 75 18 76 23 77
REMARK SMILES IDX 19 78 20 79 21 80
REMARK H PARENT 3 6 69 24 47 35 8 61 27 70
REMARK Flexibility Score: inf
ROOT
ATOM      1  C   UNL A   1      33.964  28.432  25.910  1.00  0.00     0.023 C 
ENDROOT
BRANCH   1   2
ATOM      2  C   UNL A   1      33.675  28.625  27.393  1.00  0.00     0.116 C 
BRANCH   2   3
ATOM      3  N   UNL A   1      33.626  30.026  27.781  1.00  0.00    -0.352 N 
ATOM      4  O   UNL A   1      34.310  31.935  28.764  1.00  0.00    -0.269 OA
ATOM      5  C   UNL A   1      34.591  30.806  28.368  1.00  0.00     0.251 C 
ATOM      6  H   UNL A   1      32.774  30.484  27.595  1.00  0.00     0.163 HD
BRANCH   5   7
ATOM      7  C   UNL A   1      35.965  30.289  28.540  1.00  0.00     0.039 A 
ATOM      8  C   UNL A   1      36.327  29.720  29.765  1.00  0.00     0.014 A 
ATOM      9  C   UNL A   1      36.907  30.387  27.512  1.00  0.00     0.014 A 
ATOM     10  C   UNL A   1      37.620  29.225  29.945  1.00  0.00     0.010 A 
ATOM     11  C   UNL A   1      38.159  29.799  27.656  1.00  0.00     0.010 A 
ATOM     12  C   UNL A   1      38.542  29.245  28.886  1.00  0.00    -0.014 A 
BRANCH  12  13
ATOM     13  C   UNL A   1      39.937  28.768  29.064  1.00  0.00     0.031 A 
ATOM     14  C   UNL A   1      40.964  29.686  29.670  1.00  0.00     0.074 A 
ATOM     15  C   UNL A   1      40.290  27.532  28.663  1.00  0.00     0.049 A 
ATOM     16  N   UNL A   1      42.242  29.480  29.866  1.00  0.00    -0.248 NA
ATOM     17  C   UNL A   1      40.502  31.021  30.092  1.00  0.00     0.031 C 
ATOM     18  C   UNL A   1      39.391  26.553  28.050  1.00  0.00     0.029 A 
ATOM     19  N   UNL A   1      41.500  26.886  28.719  1.00  0.00    -0.354 N 
ATOM     20  C   UNL A   1      42.730  30.657  30.422  1.00  0.00     0.074 A 
ATOM     21  C   UNL A   1      41.635  31.597  30.462  1.00  0.00     0.031 C 
ATOM     22  C   UNL A   1      40.069  25.416  27.828  1.00  0.00     0.029 A 
ATOM     23  C   UNL A   1      41.460  25.600  28.234  1.00  0.00     0.049 A 
ATOM     24  H   UNL A   1      42.318  27.303  29.072  1.00  0.00     0.167 HD
ATOM     25  C   UNL A   1      43.971  30.919  30.892  1.00  0.00     0.031 A 
ATOM     26  C   UNL A   1      42.432  24.672  28.130  1.00  0.00     0.031 A 
ATOM     27  C   UNL A   1      45.054  29.975  30.868  1.00  0.00     0.049 A 
ATOM     28  C   UNL A   1      43.817  24.997  28.621  1.00  0.00     0.074 A 
ATOM     29  C   UNL A   1      46.341  30.137  31.349  1.00  0.00     0.029 A 
ATOM     30  N   UNL A   1      44.977  28.694  30.345  1.00  0.00    -0.354 N 
ATOM     31  N   UNL A   1      44.255  26.101  29.177  1.00  0.00    -0.248 NA
ATOM     32  C   UNL A   1      44.837  23.948  28.484  1.00  0.00     0.031 C 
ATOM     33  C   UNL A   1      47.063  28.980  31.054  1.00  0.00     0.029 A 
ATOM     34  C   UNL A   1      46.203  28.064  30.469  1.00  0.00     0.049 A 
ATOM     35  H   UNL A   1      44.172  28.293  29.945  1.00  0.00     0.167 HD
ATOM     36  C   UNL A   1      45.592  25.873  29.478  1.00  0.00     0.074 A 
ATOM     37  C   UNL A   1      45.890  24.520  29.059  1.00  0.00     0.031 C 
ATOM     38  C   UNL A   1      46.490  26.714  30.049  1.00  0.00     0.031 A 
BRANCH  25  39
ATOM     39  C   UNL A   1      44.225  32.276  31.493  1.00  0.00    -0.014 A 
ATOM     40  C   UNL A   1      43.969  32.502  32.854  1.00  0.00     0.009 A 
ATOM     41  C   UNL A   1      44.639  33.356  30.694  1.00  0.00     0.009 A 
ATOM     42  C   UNL A   1      44.107  33.780  33.400  1.00  0.00     0.001 A 
ATOM     43  C   UNL A   1      44.813  34.624  31.250  1.00  0.00     0.001 A 
ATOM     44  C   UNL A   1      44.534  34.838  32.599  1.00  0.00     0.000 A 
ENDBRANCH  25  39
BRANCH  26  45
ATOM     45  C   UNL A   1      42.098  23.331  27.578  1.00  0.00    -0.014 A 
ATOM     46  C   UNL A   1      42.294  23.045  26.216  1.00  0.00     0.009 A 
ATOM     47  C   UNL A   1      41.512  22.352  28.395  1.00  0.00     0.009 A 
ATOM     48  C   UNL A   1      41.877  21.825  25.678  1.00  0.00     0.001 A 
ATOM     49  C   UNL A   1      41.126  21.120  27.860  1.00  0.00     0.001 A 
ATOM     50  C   UNL A   1      41.295  20.863  26.501  1.00  0.00     0.000 A 
ENDBRANCH  26  45
BRANCH  38  51
ATOM     51  C   UNL A   1      47.889  26.212  30.282  1.00  0.00    -0.014 A 
ATOM     52  C   UNL A   1      48.250  25.718  31.546  1.00  0.00     0.009 A 
ATOM     53  C   UNL A   1      48.882  26.350  29.301  1.00  0.00     0.009 A 
ATOM     54  C   UNL A   1      49.577  25.399  31.834  1.00  0.00     0.001 A 
ATOM     55  C   UNL A   1      50.204  25.996  29.579  1.00  0.00     0.001 A 
ATOM     56  C   UNL A   1      50.553  25.535  30.848  1.00  0.00     0.000 A 
ENDBRANCH  38  51
ENDBRANCH  12  13
ENDBRANCH   5   7
ENDBRANCH   2   3
ENDBRANCH   1   2
BRANCH   1  57
ATOM     57  C   UNL A   1      33.230  29.391  24.980  1.00  0.00     0.023 C 
BRANCH  57  58
ATOM     58  C   UNL A   1      33.359  29.073  23.495  1.00  0.00     0.116 C 
BRANCH  58  59
ATOM     59  N   UNL A   1      32.072  29.016  22.820  1.00  0.00    -0.352 N 
ATOM     60  C   UNL A   1      31.343  27.903  22.477  1.00  0.00     0.255 C 
ATOM     61  H   UNL A   1      31.674  29.883  22.579  1.00  0.00     0.163 HD
ATOM     62  O   UNL A   1      30.297  28.013  21.843  1.00  0.00    -0.269 OA
BRANCH  60  63
ATOM     63  C   UNL A   1      31.871  26.563  22.797  1.00  0.00     0.081 A 
ATOM     64  C   UNL A   1      31.397  25.942  23.958  1.00  0.00     0.018 A 
ATOM     65  C   UNL A   1      32.774  25.897  21.963  1.00  0.00     0.128 A 
ATOM     66  C   UNL A   1      31.769  24.627  24.245  1.00  0.00     0.010 A 
ATOM     67  C   UNL A   1      33.135  24.581  22.243  1.00  0.00     0.055 A 
ATOM     68  C   UNL A   1      32.620  23.932  23.376  1.00  0.00    -0.014 A 
BRANCH  65  69
ATOM     69  O   UNL A   1      33.276  26.511  20.849  1.00  0.00    -0.507 OA
ATOM     70  H   UNL A   1      34.158  26.829  20.846  1.00  0.00     0.293 HD
ENDBRANCH  65  69
BRANCH  68  71
ATOM     71  C   UNL A   1      32.979  22.521  23.603  1.00  0.00    -0.011 A 
ATOM     72  C   UNL A   1      32.166  21.425  23.112  1.00  0.00     0.027 A 
ATOM     73  C   UNL A   1      34.048  22.248  24.373  1.00  0.00     0.080 A 
ATOM     74  C   UNL A   1      32.443  20.164  23.459  1.00  0.00     0.095 A 
ATOM     75  C   UNL A   1      34.383  20.846  24.747  1.00  0.00     0.255 A 
ATOM     76  N   UNL A   1      33.522  19.871  24.270  1.00  0.00    -0.258 N 
ATOM     77  O   UNL A   1      35.365  20.651  25.457  1.00  0.00    -0.269 OA
BRANCH  76  78
ATOM     78  C   UNL A   1      33.780  18.514  24.679  1.00  0.00     0.451 C 
ATOM     79  F   UNL A   1      32.716  17.985  25.328  1.00  0.00    -0.185 F 
ATOM     80  F   UNL A   1      34.053  17.731  23.607  1.00  0.00    -0.185 F 
ENDBRANCH  76  78
ENDBRANCH  68  71
ENDBRANCH  60  63
ENDBRANCH  58  59
ENDBRANCH  57  58
ENDBRANCH   1  57
TORSDOF 14
ENDMDL
MODEL 2
REMARK VINA RESULT:     -11.5      1.159      1.776
REMARK SMILES O=C(NCCCCNC(=O)c1ccc(-c2ccn(C(F)F)c(=O)c2)cc1O)c1ccc(-c2c3nc(c(-c4ccccc4)c4ccc([nH]4)c(-c4ccccc4)c4nc(c(-c5ccccc5)c5ccc2[nH]5)C=C4)C=C3)cc1
REMARK SMILES IDX 5 1 4 2 3 3 1 4 2 5 28 7 29 8 75 9 30 10 74 11 31 12 32 13
REMARK SMILES IDX 33 14 68 15 34 16 73 17 67 18 69 19 35 20 72 21 66 22 65 23
REMARK SMILES IDX 36 25 58 26 43 27 57 28 44 29 47 30 56 31 70 32 45 33 46 34
REMARK SMILES IDX 55 36 71 37 48 38 37 39 38 40 42 41 39 42 41 43 40 44 59 45
REMARK SMILES IDX 60 46 64 47 61 48 63 49 62 50 49 51 50 52 54 53 51 54 53 55
REMARK SMILES IDX 52 56 6 57 7 58 8 59 9 60 10 62 11 63 12 64 26 65 13 66
REMARK SMILES IDX 25 67 14 68 27 69 15 71 16 72 24 73 17 74 22 75 18 76 23 77
REMARK SMILES IDX 19 78 20 79 21 80
REMARK H PARENT 3 6 69 24 47 35 8 61 27 70
REMARK Flexibility Score: inf
ROOT
ATOM      1  C   UNL A   1      32.275  27.929  27.299  1.00  0.00     0.023 C 
ENDROOT
BRANCH   1   2
ATOM      2  C   UNL A   1      33.595  28.661  27.097  1.00  0.00     0.116 C 
BRANCH   2   3
ATOM      3  N   UNL A   1      33.537  30.055  27.511  1.00  0.00    -0.352 N 
ATOM      4  O   UNL A   1      34.185  31.937  28.568  1.00  0.00    -0.269 OA
ATOM      5  C   UNL A   1      34.476  30.813  28.164  1.00  0.00     0.251 C 
ATOM      6  H   UNL A   1      32.700  30.524  27.291  1.00  0.00     0.163 HD
BRANCH   5   7
ATOM      7  C   UNL A   1      35.836  30.280  28.396  1.00  0.00     0.039 A 
ATOM      8  C   UNL A   1      36.140  29.717  29.639  1.00  0.00     0.014 A 
ATOM      9  C   UNL A   1      36.820  30.357  27.407  1.00  0.00     0.014 A 
ATOM     10  C   UNL A   1      37.417  29.207  29.876  1.00  0.00     0.010 A 
ATOM     11  C   UNL A   1      38.057  29.755  27.607  1.00  0.00     0.010 A 
ATOM     12  C   UNL A   1      38.382  29.206  28.856  1.00  0.00    -0.014 A 
BRANCH  12  13
ATOM     13  C   UNL A   1      39.762  28.712  29.095  1.00  0.00     0.031 A 
ATOM     14  C   UNL A   1      40.761  29.604  29.784  1.00  0.00     0.074 A 
ATOM     15  C   UNL A   1      40.128  27.487  28.677  1.00  0.00     0.049 A 
ATOM     16  N   UNL A   1      42.025  29.382  30.043  1.00  0.00    -0.248 NA
ATOM     17  C   UNL A   1      40.285  30.929  30.220  1.00  0.00     0.031 C 
ATOM     18  C   UNL A   1      39.258  26.533  27.986  1.00  0.00     0.029 A 
ATOM     19  N   UNL A   1      41.330  26.829  28.778  1.00  0.00    -0.354 N 
ATOM     20  C   UNL A   1      42.489  30.537  30.659  1.00  0.00     0.074 A 
ATOM     21  C   UNL A   1      41.400  31.485  30.669  1.00  0.00     0.031 C 
ATOM     22  C   UNL A   1      39.940  25.399  27.766  1.00  0.00     0.029 A 
ATOM     23  C   UNL A   1      41.308  25.559  28.253  1.00  0.00     0.049 A 
ATOM     24  H   UNL A   1      42.130  27.229  29.188  1.00  0.00     0.167 HD
ATOM     25  C   UNL A   1      43.704  30.775  31.204  1.00  0.00     0.031 A 
ATOM     26  C   UNL A   1      42.278  24.626  28.173  1.00  0.00     0.031 A 
ATOM     27  C   UNL A   1      44.781  29.824  31.210  1.00  0.00     0.049 A 
ATOM     28  C   UNL A   1      43.636  24.926  28.749  1.00  0.00     0.074 A 
ATOM     29  C   UNL A   1      46.041  29.961  31.765  1.00  0.00     0.029 A 
ATOM     30  N   UNL A   1      44.724  28.560  30.645  1.00  0.00    -0.354 N 
ATOM     31  N   UNL A   1      44.050  26.009  29.361  1.00  0.00    -0.248 NA
ATOM     32  C   UNL A   1      44.656  23.873  28.635  1.00  0.00     0.031 C 
ATOM     33  C   UNL A   1      46.770  28.807  31.475  1.00  0.00     0.029 A 
ATOM     34  C   UNL A   1      45.938  27.916  30.816  1.00  0.00     0.049 A 
ATOM     35  H   UNL A   1      43.939  28.177  30.190  1.00  0.00     0.167 HD
ATOM     36  C   UNL A   1      45.368  25.761  29.728  1.00  0.00     0.074 A 
ATOM     37  C   UNL A   1      45.679  24.419  29.284  1.00  0.00     0.031 C 
ATOM     38  C   UNL A   1      46.238  26.577  30.371  1.00  0.00     0.031 A 
BRANCH  25  39
ATOM     39  C   UNL A   1      43.933  32.111  31.858  1.00  0.00    -0.014 A 
ATOM     40  C   UNL A   1      44.480  33.173  31.120  1.00  0.00     0.009 A 
ATOM     41  C   UNL A   1      43.686  32.299  33.229  1.00  0.00     0.009 A 
ATOM     42  C   UNL A   1      44.787  34.385  31.740  1.00  0.00     0.001 A 
ATOM     43  C   UNL A   1      43.959  33.524  33.839  1.00  0.00     0.001 A 
ATOM     44  C   UNL A   1      44.522  34.561  33.097  1.00  0.00     0.000 A 
ENDBRANCH  25  39
BRANCH  26  45
ATOM     45  C   UNL A   1      41.966  23.305  27.564  1.00  0.00    -0.014 A 
ATOM     46  C   UNL A   1      41.383  22.280  28.328  1.00  0.00     0.009 A 
ATOM     47  C   UNL A   1      42.319  23.036  26.232  1.00  0.00     0.009 A 
ATOM     48  C   UNL A   1      41.194  21.007  27.784  1.00  0.00     0.001 A 
ATOM     49  C   UNL A   1      42.098  21.771  25.681  1.00  0.00     0.001 A 
ATOM     50  C   UNL A   1      41.549  20.754  26.461  1.00  0.00     0.000 A 
ENDBRANCH  26  45
BRANCH  38  51
ATOM     51  C   UNL A   1      47.620  26.057  30.664  1.00  0.00    -0.014 A 
ATOM     52  C   UNL A   1      47.948  25.651  31.968  1.00  0.00     0.009 A 
ATOM     53  C   UNL A   1      48.630  26.094  29.692  1.00  0.00     0.009 A 
ATOM     54  C   UNL A   1      49.262  25.320  32.301  1.00  0.00     0.001 A 
ATOM     55  C   UNL A   1      49.937  25.727  30.018  1.00  0.00     0.001 A 
ATOM     56  C   UNL A   1      50.255  25.354  31.324  1.00  0.00     0.000 A 
ENDBRANCH  38  51
ENDBRANCH  12  13
ENDBRANCH   5   7
ENDBRANCH   2   3
ENDBRANCH   1   2
BRANCH   1  57
ATOM     57  C   UNL A   1      31.928  26.916  26.214  1.00  0.00     0.023 C 
BRANCH  57  58
ATOM     58  C   UNL A   1      32.853  26.925  25.003  1.00  0.00     0.116 C 
BRANCH  58  59
ATOM     59  N   UNL A   1      32.177  27.338  23.784  1.00  0.00    -0.352 N 
ATOM     60  C   UNL A   1      31.682  26.544  22.778  1.00  0.00     0.255 C 
ATOM     61  H   UNL A   1      32.059  28.308  23.665  1.00  0.00     0.163 HD
ATOM     62  O   UNL A   1      31.194  27.047  21.769  1.00  0.00    -0.269 OA
BRANCH  60  63
ATOM     63  C   UNL A   1      31.822  25.079  22.876  1.00  0.00     0.081 A 
ATOM     64  C   UNL A   1      32.894  24.486  22.198  1.00  0.00     0.018 A 
ATOM     65  C   UNL A   1      30.961  24.295  23.649  1.00  0.00     0.128 A 
ATOM     66  C   UNL A   1      33.146  23.122  22.354  1.00  0.00     0.010 A 
ATOM     67  C   UNL A   1      31.220  22.937  23.815  1.00  0.00     0.055 A 
ATOM     68  C   UNL A   1      32.325  22.345  23.183  1.00  0.00    -0.014 A 
BRANCH  65  69
ATOM     69  O   UNL A   1      29.887  24.858  24.281  1.00  0.00    -0.507 OA
ATOM     70  H   UNL A   1      29.687  24.622  25.166  1.00  0.00     0.293 HD
ENDBRANCH  65  69
BRANCH  68  71
ATOM     71  C   UNL A   1      32.599  20.919  23.432  1.00  0.00    -0.011 A 
ATOM     72  C   UNL A   1      33.449  20.471  24.518  1.00  0.00     0.027 A 
ATOM     73  C   UNL A   1      32.116  20.013  22.563  1.00  0.00     0.080 A 
ATOM     74  C   UNL A   1      33.791  19.182  24.626  1.00  0.00     0.095 A 
ATOM     75  C   UNL A   1      32.468  18.571  22.686  1.00  0.00     0.255 A 
ATOM     76  N   UNL A   1      33.324  18.245  23.726  1.00  0.00    -0.258 N 
ATOM     77  O   UNL A   1      32.007  17.786  21.864  1.00  0.00    -0.269 OA
BRANCH  76  78
ATOM     78  C   UNL A   1      33.740  16.870  23.822  1.00  0.00     0.451 C 
ATOM     79  F   UNL A   1      34.523  16.517  22.775  1.00  0.00    -0.185 F 
ATOM     80  F   UNL A   1      34.442  16.657  24.963  1.00  0.00    -0.185 F 
ENDBRANCH  76  78
ENDBRANCH  68  71
ENDBRANCH  60  63
ENDBRANCH  58  59
ENDBRANCH  57  58
ENDBRANCH   1  57
TORSDOF 14
ENDMDL
MODEL 3
REMARK VINA RESULT:     -11.5      3.665      8.284
REMARK SMILES O=C(NCCCCNC(=O)c1ccc(-c2ccn(C(F)F)c(=O)c2)cc1O)c1ccc(-c2c3nc(c(-c4ccccc4)c4ccc([nH]4)c(-c4ccccc4)c4nc(c(-c5ccccc5)c5ccc2[nH]5)C=C4)C=C3)cc1
REMARK SMILES IDX 5 1 4 2 3 3 1 4 2 5 28 7 29 8 75 9 30 10 74 11 31 12 32 13
REMARK SMILES IDX 33 14 68 15 34 16 73 17 67 18 69 19 35 20 72 21 66 22 65 23
REMARK SMILES IDX 36 25 58 26 43 27 57 28 44 29 47 30 56 31 70 32 45 33 46 34
REMARK SMILES IDX 55 36 71 37 48 38 37 39 38 40 42 41 39 42 41 43 40 44 59 45
REMARK SMILES IDX 60 46 64 47 61 48 63 49 62 50 49 51 50 52 54 53 51 54 53 55
REMARK SMILES IDX 52 56 6 57 7 58 8 59 9 60 10 62 11 63 12 64 26 65 13 66
REMARK SMILES IDX 25 67 14 68 27 69 15 71 16 72 24 73 17 74 22 75 18 76 23 77
REMARK SMILES IDX 19 78 20 79 21 80
REMARK H PARENT 3 6 69 24 47 35 8 61 27 70
REMARK Flexibility Score: inf
ROOT
ATOM      1  C   UNL A   1      36.195  23.288  24.000  1.00  0.00     0.023 C 
ENDROOT
BRANCH   1   2
ATOM      2  C   UNL A   1      37.101  23.682  25.159  1.00  0.00     0.116 C 
BRANCH   2   3
ATOM      3  N   UNL A   1      38.107  22.674  25.457  1.00  0.00    -0.352 N 
ATOM      4  O   UNL A   1      40.098  21.861  26.131  1.00  0.00    -0.269 OA
ATOM      5  C   UNL A   1      39.307  22.802  26.109  1.00  0.00     0.251 C 
ATOM      6  H   UNL A   1      37.895  21.764  25.146  1.00  0.00     0.163 HD
BRANCH   5   7
ATOM      7  C   UNL A   1      39.662  24.073  26.776  1.00  0.00     0.039 A 
ATOM      8  C   UNL A   1      40.377  25.038  26.059  1.00  0.00     0.014 A 
ATOM      9  C   UNL A   1      39.321  24.309  28.110  1.00  0.00     0.014 A 
ATOM     10  C   UNL A   1      40.719  26.245  26.671  1.00  0.00     0.010 A 
ATOM     11  C   UNL A   1      39.570  25.550  28.684  1.00  0.00     0.010 A 
ATOM     12  C   UNL A   1      40.303  26.519  27.983  1.00  0.00    -0.014 A 
BRANCH  12  13
ATOM     13  C   UNL A   1      40.693  27.774  28.674  1.00  0.00     0.031 A 
ATOM     14  C   UNL A   1      39.691  28.890  28.810  1.00  0.00     0.074 A 
ATOM     15  C   UNL A   1      41.942  27.928  29.153  1.00  0.00     0.049 A 
ATOM     16  N   UNL A   1      39.846  30.080  29.334  1.00  0.00    -0.248 NA
ATOM     17  C   UNL A   1      38.342  28.646  28.269  1.00  0.00     0.031 C 
ATOM     18  C   UNL A   1      43.008  26.928  29.071  1.00  0.00     0.029 A 
ATOM     19  N   UNL A   1      42.524  28.983  29.811  1.00  0.00    -0.354 N 
ATOM     20  C   UNL A   1      38.624  30.721  29.174  1.00  0.00     0.074 A 
ATOM     21  C   UNL A   1      37.762  29.824  28.441  1.00  0.00     0.031 C 
ATOM     22  C   UNL A   1      44.098  27.400  29.695  1.00  0.00     0.029 A 
ATOM     23  C   UNL A   1      43.828  28.752  30.177  1.00  0.00     0.049 A 
ATOM     24  H   UNL A   1      42.051  29.825  30.002  1.00  0.00     0.167 HD
ATOM     25  C   UNL A   1      38.239  31.935  29.630  1.00  0.00     0.031 A 
ATOM     26  C   UNL A   1      44.709  29.538  30.828  1.00  0.00     0.031 A 
ATOM     27  C   UNL A   1      39.093  32.819  30.376  1.00  0.00     0.049 A 
ATOM     28  C   UNL A   1      44.275  30.902  31.292  1.00  0.00     0.074 A 
ATOM     29  C   UNL A   1      38.786  34.058  30.908  1.00  0.00     0.029 A 
ATOM     30  N   UNL A   1      40.414  32.556  30.702  1.00  0.00    -0.354 N 
ATOM     31  N   UNL A   1      43.105  31.482  31.166  1.00  0.00    -0.248 NA
ATOM     32  C   UNL A   1      45.274  31.717  31.998  1.00  0.00     0.031 C 
ATOM     33  C   UNL A   1      39.940  34.575  31.496  1.00  0.00     0.029 A 
ATOM     34  C   UNL A   1      40.943  33.623  31.407  1.00  0.00     0.049 A 
ATOM     35  H   UNL A   1      40.903  31.734  30.467  1.00  0.00     0.167 HD
ATOM     36  C   UNL A   1      43.219  32.715  31.796  1.00  0.00     0.074 A 
ATOM     37  C   UNL A   1      44.567  32.794  32.319  1.00  0.00     0.031 C 
ATOM     38  C   UNL A   1      42.288  33.692  31.925  1.00  0.00     0.031 A 
BRANCH  25  39
ATOM     39  C   UNL A   1      36.827  32.377  29.355  1.00  0.00    -0.014 A 
ATOM     40  C   UNL A   1      36.532  33.108  28.194  1.00  0.00     0.009 A 
ATOM     41  C   UNL A   1      35.800  32.142  30.285  1.00  0.00     0.009 A 
ATOM     42  C   UNL A   1      35.246  33.607  27.977  1.00  0.00     0.001 A 
ATOM     43  C   UNL A   1      34.507  32.609  30.047  1.00  0.00     0.001 A 
ATOM     44  C   UNL A   1      34.234  33.352  28.901  1.00  0.00     0.000 A 
ENDBRANCH  25  39
BRANCH  26  45
ATOM     45  C   UNL A   1      46.072  29.016  31.117  1.00  0.00    -0.014 A 
ATOM     46  C   UNL A   1      47.117  29.187  30.194  1.00  0.00     0.009 A 
ATOM     47  C   UNL A   1      46.318  28.278  32.285  1.00  0.00     0.009 A 
ATOM     48  C   UNL A   1      48.366  28.600  30.416  1.00  0.00     0.001 A 
ATOM     49  C   UNL A   1      47.577  27.720  32.520  1.00  0.00     0.001 A 
ATOM     50  C   UNL A   1      48.595  27.869  31.580  1.00  0.00     0.000 A 
ENDBRANCH  26  45
BRANCH  38  51
ATOM     51  C   UNL A   1      42.665  34.941  32.675  1.00  0.00    -0.014 A 
ATOM     52  C   UNL A   1      42.226  35.118  33.997  1.00  0.00     0.009 A 
ATOM     53  C   UNL A   1      43.333  35.996  32.036  1.00  0.00     0.009 A 
ATOM     54  C   UNL A   1      42.423  36.332  34.656  1.00  0.00     0.001 A 
ATOM     55  C   UNL A   1      43.561  37.198  32.709  1.00  0.00     0.001 A 
ATOM     56  C   UNL A   1      43.094  37.370  34.013  1.00  0.00     0.000 A 
ENDBRANCH  38  51
ENDBRANCH  12  13
ENDBRANCH   5   7
ENDBRANCH   2   3
ENDBRANCH   1   2
BRANCH   1  57
ATOM     57  C   UNL A   1      35.067  22.329  24.361  1.00  0.00     0.023 C 
BRANCH  57  58
ATOM     58  C   UNL A   1      34.133  22.817  25.462  1.00  0.00     0.116 C 
BRANCH  58  59
ATOM     59  N   UNL A   1      33.000  21.930  25.671  1.00  0.00    -0.352 N 
ATOM     60  C   UNL A   1      31.665  22.204  25.495  1.00  0.00     0.255 C 
ATOM     61  H   UNL A   1      33.216  21.020  25.975  1.00  0.00     0.163 HD
ATOM     62  O   UNL A   1      30.813  21.367  25.780  1.00  0.00    -0.269 OA
BRANCH  60  63
ATOM     63  C   UNL A   1      31.254  23.548  25.045  1.00  0.00     0.081 A 
ATOM     64  C   UNL A   1      30.988  23.719  23.681  1.00  0.00     0.018 A 
ATOM     65  C   UNL A   1      31.081  24.614  25.933  1.00  0.00     0.128 A 
ATOM     66  C   UNL A   1      30.479  24.934  23.220  1.00  0.00     0.010 A 
ATOM     67  C   UNL A   1      30.561  25.821  25.475  1.00  0.00     0.055 A 
ATOM     68  C   UNL A   1      30.240  25.983  24.118  1.00  0.00    -0.014 A 
BRANCH  65  69
ATOM     69  O   UNL A   1      31.378  24.468  27.260  1.00  0.00    -0.507 OA
ATOM     70  H   UNL A   1      31.261  23.638  27.678  1.00  0.00     0.293 HD
ENDBRANCH  65  69
BRANCH  68  71
ATOM     71  C   UNL A   1      29.636  27.255  23.684  1.00  0.00    -0.011 A 
ATOM     72  C   UNL A   1      30.423  28.454  23.470  1.00  0.00     0.027 A 
ATOM     73  C   UNL A   1      28.296  27.324  23.575  1.00  0.00     0.080 A 
ATOM     74  C   UNL A   1      29.825  29.623  23.217  1.00  0.00     0.095 A 
ATOM     75  C   UNL A   1      27.619  28.614  23.270  1.00  0.00     0.255 A 
ATOM     76  N   UNL A   1      28.450  29.715  23.128  1.00  0.00    -0.258 N 
ATOM     77  O   UNL A   1      26.395  28.625  23.188  1.00  0.00    -0.269 OA
BRANCH  76  78
ATOM     78  C   UNL A   1      27.815  30.988  22.907  1.00  0.00     0.451 C 
ATOM     79  F   UNL A   1      27.155  31.408  24.013  1.00  0.00    -0.185 F 
ATOM     80  F   UNL A   1      28.731  31.932  22.579  1.00  0.00    -0.185 F 
ENDBRANCH  76  78
ENDBRANCH  68  71
ENDBRANCH  60  63
ENDBRANCH  58  59
ENDBRANCH  57  58
ENDBRANCH   1  57
TORSDOF 14
ENDMDL
