MODEL 1
REMARK VINA RESULT:     -11.5      0.000      0.000
REMARK SMILES CC[C@@H](Oc1cc(Cl)ccc1Cl)C(=O)NNC(=O)[C@@H]1[C@@H]2CC[C@@H](C2)[C@@H]1C(=O)NCCCCNC(=O)c1ccc(-c2c3nc(c(-c4ccccc4)c4ccc([nH]4)c(-c4ccccc4)c4nc(c(-c5ccccc5)c5ccc2[nH]5)C=C4)C=C3)cc1
REMARK SMILES IDX 29 1 28 2 26 3 27 4 25 6 19 7 20 8 21 9 24 10 23 11 22 12
REMARK SMILES IDX 17 13 16 14 18 16 15 17 13 18 14 19 3 21 2 22 1 23 4 24 5 25
REMARK SMILES IDX 6 26 11 27 7 28 10 29 12 30 8 31 9 32 30 33 31 34 32 35
REMARK SMILES IDX 33 36 34 37 35 39 36 40 37 41 83 42 38 43 82 44 39 45 40 46
REMARK SMILES IDX 41 47 76 48 42 49 81 50 75 51 77 52 43 53 80 54 74 55 73 56
REMARK SMILES IDX 44 58 66 59 51 60 65 61 52 62 55 63 64 64 78 65 53 66 54 67
REMARK SMILES IDX 63 69 79 70 56 71 45 72 46 73 50 74 47 75 49 76 48 77 67 78
REMARK SMILES IDX 68 79 72 80 69 81 71 82 70 83 57 84 58 85 62 86 59 87 61 88
REMARK SMILES IDX 60 89
REMARK H PARENT 28 5 16 15 15 20 33 38 77 57 55 68
REMARK Flexibility Score: inf
ROOT
ATOM      1  C   UNL A   1      33.607  28.317  27.056  1.00  0.00     0.116 C 
ENDROOT
BRANCH   1   2
ATOM      2  N   UNL A   1      34.073  27.554  25.897  1.00  0.00    -0.356 N 
ATOM      3  C   UNL A   1      33.401  27.175  24.754  1.00  0.00     0.224 C 
ATOM      4  O   UNL A   1      34.068  26.858  23.774  1.00  0.00    -0.275 OA
ATOM      5  H   UNL A   1      35.013  27.266  25.941  1.00  0.00     0.163 HD
BRANCH   3   6
ATOM      6  C   UNL A   1      31.900  27.036  24.808  1.00  0.00     0.094 C 
ATOM      7  C   UNL A   1      31.174  25.951  25.651  1.00  0.00     0.096 C 
ATOM      8  C   UNL A   1      29.963  25.612  24.683  1.00  0.00     0.002 C 
ATOM      9  C   UNL A   1      30.428  24.650  23.574  1.00  0.00     0.005 C 
ATOM     10  C   UNL A   1      29.772  26.879  23.844  1.00  0.00     0.009 C 
ATOM     11  C   UNL A   1      31.238  26.914  23.413  1.00  0.00     0.002 C 
ATOM     12  C   UNL A   1      31.425  25.511  22.795  1.00  0.00     0.005 C 
BRANCH   7  13
ATOM     13  C   UNL A   1      31.690  24.607  26.229  1.00  0.00     0.242 C 
ATOM     14  N   UNL A   1      32.742  23.862  25.795  1.00  0.00    -0.267 N 
ATOM     15  H   UNL A   1      32.919  23.032  26.293  1.00  0.00     0.191 HD
ATOM     16  O   UNL A   1      31.173  24.184  27.278  1.00  0.00    -0.273 OA
BRANCH  14  17
ATOM     17  N   UNL A   1      33.582  24.128  24.754  1.00  0.00    -0.264 N 
ATOM     18  C   UNL A   1      34.231  23.221  23.963  1.00  0.00     0.279 C 
ATOM     19  O   UNL A   1      34.832  23.641  22.966  1.00  0.00    -0.269 OA
ATOM     20  H   UNL A   1      33.737  25.079  24.550  1.00  0.00     0.191 HD
BRANCH  18  21
ATOM     21  C   UNL A   1      34.353  21.765  24.399  1.00  0.00     0.263 C 
BRANCH  21  22
ATOM     22  C   UNL A   1      35.427  21.621  25.497  1.00  0.00     0.052 C 
ATOM     23  C   UNL A   1      36.742  21.102  24.925  1.00  0.00     0.008 C 
ENDBRANCH  21  22
BRANCH  21  24
ATOM     24  O   UNL A   1      33.090  21.268  24.863  1.00  0.00    -0.479 OA
BRANCH  24  25
ATOM     25  C   UNL A   1      32.885  20.008  24.350  1.00  0.00     0.140 A 
ATOM     26  C   UNL A   1      33.236  18.922  25.153  1.00  0.00     0.068 A 
ATOM     27  C   UNL A   1      32.391  19.803  23.055  1.00  0.00     0.083 A 
ATOM     28  C   UNL A   1      33.181  17.636  24.625  1.00  0.00     0.044 A 
ATOM     29  C   UNL A   1      32.331  18.509  22.536  1.00  0.00     0.026 A 
ATOM     30  Cl  UNL A   1      31.884  21.118  22.061  1.00  0.00    -0.080 Cl
ATOM     31  Cl  UNL A   1      33.698  16.302  25.579  1.00  0.00    -0.084 Cl
ATOM     32  C   UNL A   1      32.742  17.425  23.317  1.00  0.00     0.022 A 
ENDBRANCH  24  25
ENDBRANCH  21  24
ENDBRANCH  18  21
ENDBRANCH  14  17
ENDBRANCH   7  13
ENDBRANCH   3   6
ENDBRANCH   1   2
BRANCH   1  33
ATOM     33  C   UNL A   1      34.156  29.743  27.193  1.00  0.00     0.023 C 
BRANCH  33  34
ATOM     34  C   UNL A   1      33.367  30.903  26.575  1.00  0.00     0.023 C 
BRANCH  34  35
ATOM     35  C   UNL A   1      32.138  31.417  27.318  1.00  0.00     0.116 C 
BRANCH  35  36
ATOM     36  N   UNL A   1      32.110  32.867  27.360  1.00  0.00    -0.352 N 
ATOM     37  C   UNL A   1      32.945  33.746  28.010  1.00  0.00     0.251 C 
ATOM     38  H   UNL A   1      31.383  33.285  26.845  1.00  0.00     0.163 HD
ATOM     39  O   UNL A   1      32.596  34.919  28.123  1.00  0.00    -0.269 OA
BRANCH  37  40
ATOM     40  C   UNL A   1      34.252  33.322  28.580  1.00  0.00     0.039 A 
ATOM     41  C   UNL A   1      35.417  33.591  27.848  1.00  0.00     0.014 A 
ATOM     42  C   UNL A   1      34.347  32.579  29.760  1.00  0.00     0.014 A 
ATOM     43  C   UNL A   1      36.662  33.138  28.301  1.00  0.00     0.010 A 
ATOM     44  C   UNL A   1      35.598  32.174  30.241  1.00  0.00     0.010 A 
ATOM     45  C   UNL A   1      36.767  32.430  29.509  1.00  0.00    -0.014 A 
BRANCH  45  46
ATOM     46  C   UNL A   1      38.082  31.921  29.989  1.00  0.00     0.031 A 
ATOM     47  C   UNL A   1      38.625  30.610  29.480  1.00  0.00     0.074 A 
ATOM     48  C   UNL A   1      38.784  32.613  30.909  1.00  0.00     0.049 A 
ATOM     49  N   UNL A   1      39.728  29.986  29.812  1.00  0.00    -0.248 NA
ATOM     50  C   UNL A   1      37.813  29.898  28.480  1.00  0.00     0.031 C 
ATOM     51  C   UNL A   1      38.375  33.884  31.507  1.00  0.00     0.029 A 
ATOM     52  N   UNL A   1      39.992  32.338  31.503  1.00  0.00    -0.354 N 
ATOM     53  C   UNL A   1      39.732  28.803  29.082  1.00  0.00     0.074 A 
ATOM     54  C   UNL A   1      38.505  28.780  28.315  1.00  0.00     0.031 C 
ATOM     55  C   UNL A   1      39.324  34.288  32.369  1.00  0.00     0.029 A 
ATOM     56  C   UNL A   1      40.391  33.290  32.408  1.00  0.00     0.049 A 
ATOM     57  H   UNL A   1      40.521  31.533  31.299  1.00  0.00     0.167 HD
ATOM     58  C   UNL A   1      40.672  27.829  29.039  1.00  0.00     0.031 A 
ATOM     59  C   UNL A   1      41.489  33.357  33.186  1.00  0.00     0.031 A 
ATOM     60  C   UNL A   1      41.906  27.850  29.778  1.00  0.00     0.049 A 
ATOM     61  C   UNL A   1      42.518  32.264  33.121  1.00  0.00     0.074 A 
ATOM     62  C   UNL A   1      42.944  26.931  29.751  1.00  0.00     0.029 A 
ATOM     63  N   UNL A   1      42.272  28.837  30.677  1.00  0.00    -0.354 N 
ATOM     64  N   UNL A   1      42.527  31.181  32.384  1.00  0.00    -0.248 NA
ATOM     65  C   UNL A   1      43.694  32.410  33.992  1.00  0.00     0.031 C 
ATOM     66  C   UNL A   1      43.921  27.346  30.661  1.00  0.00     0.029 A 
ATOM     67  C   UNL A   1      43.510  28.544  31.224  1.00  0.00     0.049 A 
ATOM     68  H   UNL A   1      41.732  29.632  30.894  1.00  0.00     0.167 HD
ATOM     69  C   UNL A   1      43.717  30.530  32.683  1.00  0.00     0.074 A 
ATOM     70  C   UNL A   1      44.410  31.345  33.659  1.00  0.00     0.031 C 
ATOM     71  C   UNL A   1      44.191  29.360  32.192  1.00  0.00     0.031 A 
BRANCH  58  72
ATOM     72  C   UNL A   1      40.398  26.640  28.160  1.00  0.00    -0.014 A 
ATOM     73  C   UNL A   1      39.602  25.574  28.608  1.00  0.00     0.009 A 
ATOM     74  C   UNL A   1      40.908  26.607  26.853  1.00  0.00     0.009 A 
ATOM     75  C   UNL A   1      39.348  24.483  27.775  1.00  0.00     0.001 A 
ATOM     76  C   UNL A   1      40.633  25.525  26.014  1.00  0.00     0.001 A 
ATOM     77  C   UNL A   1      39.861  24.462  26.477  1.00  0.00     0.000 A 
ENDBRANCH  58  72
BRANCH  59  78
ATOM     78  C   UNL A   1      41.683  34.515  34.096  1.00  0.00    -0.014 A 
ATOM     79  C   UNL A   1      42.354  35.664  33.649  1.00  0.00     0.009 A 
ATOM     80  C   UNL A   1      41.209  34.473  35.416  1.00  0.00     0.009 A 
ATOM     81  C   UNL A   1      42.569  36.739  34.515  1.00  0.00     0.001 A 
ATOM     82  C   UNL A   1      41.403  35.560  36.271  1.00  0.00     0.001 A 
ATOM     83  C   UNL A   1      42.090  36.687  35.823  1.00  0.00     0.000 A 
ENDBRANCH  59  78
BRANCH  71  84
ATOM     84  C   UNL A   1      45.536  28.904  32.679  1.00  0.00    -0.014 A 
ATOM     85  C   UNL A   1      46.720  29.359  32.078  1.00  0.00     0.009 A 
ATOM     86  C   UNL A   1      45.622  28.035  33.779  1.00  0.00     0.009 A 
ATOM     87  C   UNL A   1      47.961  28.930  32.550  1.00  0.00     0.001 A 
ATOM     88  C   UNL A   1      46.865  27.627  34.264  1.00  0.00     0.001 A 
ATOM     89  C   UNL A   1      48.033  28.068  33.644  1.00  0.00     0.000 A 
ENDBRANCH  71  84
ENDBRANCH  45  46
ENDBRANCH  37  40
ENDBRANCH  35  36
ENDBRANCH  34  35
ENDBRANCH  33  34
ENDBRANCH   1  33
TORSDOF 17
ENDMDL
MODEL 2
REMARK VINA RESULT:     -11.4      3.743      9.114
REMARK SMILES CC[C@@H](Oc1cc(Cl)ccc1Cl)C(=O)NNC(=O)[C@@H]1[C@@H]2CC[C@@H](C2)[C@@H]1C(=O)NCCCCNC(=O)c1ccc(-c2c3nc(c(-c4ccccc4)c4ccc([nH]4)c(-c4ccccc4)c4nc(c(-c5ccccc5)c5ccc2[nH]5)C=C4)C=C3)cc1
REMARK SMILES IDX 29 1 28 2 26 3 27 4 25 6 19 7 20 8 21 9 24 10 23 11 22 12
REMARK SMILES IDX 17 13 16 14 18 16 15 17 13 18 14 19 3 21 2 22 1 23 4 24 5 25
REMARK SMILES IDX 6 26 11 27 7 28 10 29 12 30 8 31 9 32 30 33 31 34 32 35
REMARK SMILES IDX 33 36 34 37 35 39 36 40 37 41 83 42 38 43 82 44 39 45 40 46
REMARK SMILES IDX 41 47 76 48 42 49 81 50 75 51 77 52 43 53 80 54 74 55 73 56
REMARK SMILES IDX 44 58 66 59 51 60 65 61 52 62 55 63 64 64 78 65 53 66 54 67
REMARK SMILES IDX 63 69 79 70 56 71 45 72 46 73 50 74 47 75 49 76 48 77 67 78
REMARK SMILES IDX 68 79 72 80 69 81 71 82 70 83 57 84 58 85 62 86 59 87 61 88
REMARK SMILES IDX 60 89
REMARK H PARENT 28 5 16 15 15 20 33 38 77 57 55 68
REMARK Flexibility Score: inf
ROOT
ATOM      1  C   UNL A   1      37.013  21.829  25.207  1.00  0.00     0.116 C 
ENDROOT
BRANCH   1   2
ATOM      2  N   UNL A   1      36.089  22.332  26.225  1.00  0.00    -0.356 N 
ATOM      3  C   UNL A   1      34.718  22.479  26.186  1.00  0.00     0.224 C 
ATOM      4  O   UNL A   1      34.121  22.579  27.253  1.00  0.00    -0.275 OA
ATOM      5  H   UNL A   1      36.512  22.610  27.069  1.00  0.00     0.163 HD
BRANCH   3   6
ATOM      6  C   UNL A   1      34.045  22.649  24.846  1.00  0.00     0.094 C 
ATOM      7  C   UNL A   1      33.458  24.000  24.352  1.00  0.00     0.096 C 
ATOM      8  C   UNL A   1      32.176  23.477  23.577  1.00  0.00     0.002 C 
ATOM      9  C   UNL A   1      31.041  23.180  24.575  1.00  0.00     0.005 C 
ATOM     10  C   UNL A   1      32.527  22.043  23.170  1.00  0.00     0.009 C 
ATOM     11  C   UNL A   1      32.895  21.641  24.599  1.00  0.00     0.002 C 
ATOM     12  C   UNL A   1      31.614  22.009  25.377  1.00  0.00     0.005 C 
BRANCH   7  13
ATOM     13  C   UNL A   1      33.033  25.266  25.140  1.00  0.00     0.242 C 
ATOM     14  N   UNL A   1      33.265  26.567  24.816  1.00  0.00    -0.267 N 
ATOM     15  H   UNL A   1      32.915  27.239  25.444  1.00  0.00     0.191 HD
ATOM     16  O   UNL A   1      32.300  25.119  26.133  1.00  0.00    -0.273 OA
BRANCH  14  17
ATOM     17  N   UNL A   1      33.925  27.052  23.725  1.00  0.00    -0.264 N 
ATOM     18  C   UNL A   1      33.378  27.670  22.634  1.00  0.00     0.279 C 
ATOM     19  O   UNL A   1      34.143  28.184  21.810  1.00  0.00    -0.269 OA
ATOM     20  H   UNL A   1      34.903  26.945  23.723  1.00  0.00     0.191 HD
BRANCH  18  21
ATOM     21  C   UNL A   1      31.881  27.570  22.362  1.00  0.00     0.263 C 
BRANCH  21  22
ATOM     22  C   UNL A   1      31.517  26.157  21.861  1.00  0.00     0.052 C 
ATOM     23  C   UNL A   1      32.367  25.755  20.661  1.00  0.00     0.008 C 
ENDBRANCH  21  22
BRANCH  21  24
ATOM     24  O   UNL A   1      31.129  27.895  23.540  1.00  0.00    -0.479 OA
BRANCH  24  25
ATOM     25  C   UNL A   1      29.943  28.486  23.170  1.00  0.00     0.140 A 
ATOM     26  C   UNL A   1      30.007  29.768  22.621  1.00  0.00     0.068 A 
ATOM     27  C   UNL A   1      28.704  27.862  23.373  1.00  0.00     0.083 A 
ATOM     28  C   UNL A   1      28.828  30.460  22.363  1.00  0.00     0.044 A 
ATOM     29  C   UNL A   1      27.527  28.562  23.104  1.00  0.00     0.026 A 
ATOM     30  Cl  UNL A   1      28.591  26.254  23.986  1.00  0.00    -0.080 Cl
ATOM     31  Cl  UNL A   1      28.902  32.074  21.772  1.00  0.00    -0.084 Cl
ATOM     32  C   UNL A   1      27.590  29.869  22.614  1.00  0.00     0.022 A 
ENDBRANCH  24  25
ENDBRANCH  21  24
ENDBRANCH  18  21
ENDBRANCH  14  17
ENDBRANCH   7  13
ENDBRANCH   3   6
ENDBRANCH   1   2
BRANCH   1  33
ATOM     33  C   UNL A   1      36.952  20.323  24.924  1.00  0.00     0.023 C 
BRANCH  33  34
ATOM     34  C   UNL A   1      38.237  19.495  25.041  1.00  0.00     0.023 C 
BRANCH  34  35
ATOM     35  C   UNL A   1      39.378  20.050  25.888  1.00  0.00     0.116 C 
BRANCH  35  36
ATOM     36  N   UNL A   1      40.509  19.142  25.918  1.00  0.00    -0.352 N 
ATOM     37  C   UNL A   1      41.851  19.411  26.046  1.00  0.00     0.251 C 
ATOM     38  H   UNL A   1      40.281  18.188  25.834  1.00  0.00     0.163 HD
ATOM     39  O   UNL A   1      42.660  18.520  25.793  1.00  0.00    -0.269 OA
BRANCH  37  40
ATOM     40  C   UNL A   1      42.355  20.742  26.479  1.00  0.00     0.039 A 
ATOM     41  C   UNL A   1      42.236  21.093  27.831  1.00  0.00     0.014 A 
ATOM     42  C   UNL A   1      42.842  21.688  25.572  1.00  0.00     0.014 A 
ATOM     43  C   UNL A   1      42.617  22.366  28.271  1.00  0.00     0.010 A 
ATOM     44  C   UNL A   1      43.275  22.941  26.021  1.00  0.00     0.010 A 
ATOM     45  C   UNL A   1      43.149  23.303  27.371  1.00  0.00    -0.014 A 
BRANCH  45  46
ATOM     46  C   UNL A   1      43.534  24.669  27.822  1.00  0.00     0.031 A 
ATOM     47  C   UNL A   1      42.477  25.704  28.112  1.00  0.00     0.074 A 
ATOM     48  C   UNL A   1      44.835  25.003  27.944  1.00  0.00     0.049 A 
ATOM     49  N   UNL A   1      42.620  26.955  28.474  1.00  0.00    -0.248 NA
ATOM     50  C   UNL A   1      41.075  25.282  27.959  1.00  0.00     0.031 C 
ATOM     51  C   UNL A   1      45.966  24.115  27.677  1.00  0.00     0.029 A 
ATOM     52  N   UNL A   1      45.422  26.187  28.321  1.00  0.00    -0.354 N 
ATOM     53  C   UNL A   1      41.334  27.474  28.569  1.00  0.00     0.074 A 
ATOM     54  C   UNL A   1      40.425  26.413  28.195  1.00  0.00     0.031 C 
ATOM     55  C   UNL A   1      47.110  24.779  27.917  1.00  0.00     0.029 A 
ATOM     56  C   UNL A   1      46.794  26.146  28.323  1.00  0.00     0.049 A 
ATOM     57  H   UNL A   1      44.906  26.989  28.566  1.00  0.00     0.167 HD
ATOM     58  C   UNL A   1      40.940  28.714  28.945  1.00  0.00     0.031 A 
ATOM     59  C   UNL A   1      47.700  27.100  28.613  1.00  0.00     0.031 A 
ATOM     60  C   UNL A   1      41.831  29.772  29.342  1.00  0.00     0.049 A 
ATOM     61  C   UNL A   1      47.238  28.468  29.028  1.00  0.00     0.074 A 
ATOM     62  C   UNL A   1      41.514  31.043  29.795  1.00  0.00     0.029 A 
ATOM     63  N   UNL A   1      43.212  29.683  29.336  1.00  0.00    -0.354 N 
ATOM     64  N   UNL A   1      46.016  28.922  29.164  1.00  0.00    -0.248 NA
ATOM     65  C   UNL A   1      48.284  29.453  29.340  1.00  0.00     0.031 C 
ATOM     66  C   UNL A   1      42.707  31.735  30.027  1.00  0.00     0.029 A 
ATOM     67  C   UNL A   1      43.765  30.881  29.759  1.00  0.00     0.049 A 
ATOM     68  H   UNL A   1      43.727  28.886  29.071  1.00  0.00     0.167 HD
ATOM     69  C   UNL A   1      46.146  30.234  29.598  1.00  0.00     0.074 A 
ATOM     70  C   UNL A   1      47.564  30.501  29.717  1.00  0.00     0.031 C 
ATOM     71  C   UNL A   1      45.175  31.137  29.874  1.00  0.00     0.031 A 
BRANCH  58  72
ATOM     72  C   UNL A   1      39.464  29.003  28.940  1.00  0.00    -0.014 A 
ATOM     73  C   UNL A   1      38.823  29.487  27.789  1.00  0.00     0.009 A 
ATOM     74  C   UNL A   1      38.699  28.746  30.088  1.00  0.00     0.009 A 
ATOM     75  C   UNL A   1      37.450  29.740  27.797  1.00  0.00     0.001 A 
ATOM     76  C   UNL A   1      37.322  28.977  30.086  1.00  0.00     0.001 A 
ATOM     77  C   UNL A   1      36.700  29.480  28.945  1.00  0.00     0.000 A 
ENDBRANCH  58  72
BRANCH  59  78
ATOM     78  C   UNL A   1      49.151  26.791  28.533  1.00  0.00    -0.014 A 
ATOM     79  C   UNL A   1      49.837  26.306  29.658  1.00  0.00     0.009 A 
ATOM     80  C   UNL A   1      49.859  26.992  27.339  1.00  0.00     0.009 A 
ATOM     81  C   UNL A   1      51.209  26.051  29.594  1.00  0.00     0.001 A 
ATOM     82  C   UNL A   1      51.225  26.711  27.271  1.00  0.00     0.001 A 
ATOM     83  C   UNL A   1      51.900  26.249  28.400  1.00  0.00     0.000 A 
ENDBRANCH  59  78
BRANCH  71  84
ATOM     84  C   UNL A   1      45.611  32.490  30.359  1.00  0.00    -0.014 A 
ATOM     85  C   UNL A   1      45.796  32.747  31.726  1.00  0.00     0.009 A 
ATOM     86  C   UNL A   1      45.874  33.511  29.432  1.00  0.00     0.009 A 
ATOM     87  C   UNL A   1      46.209  34.009  32.157  1.00  0.00     0.001 A 
ATOM     88  C   UNL A   1      46.310  34.764  29.864  1.00  0.00     0.001 A 
ATOM     89  C   UNL A   1      46.469  35.014  31.225  1.00  0.00     0.000 A 
ENDBRANCH  71  84
ENDBRANCH  45  46
ENDBRANCH  37  40
ENDBRANCH  35  36
ENDBRANCH  34  35
ENDBRANCH  33  34
ENDBRANCH   1  33
TORSDOF 17
ENDMDL
MODEL 3
REMARK VINA RESULT:     -11.3      3.246      8.671
REMARK SMILES CC[C@@H](Oc1cc(Cl)ccc1Cl)C(=O)NNC(=O)[C@@H]1[C@@H]2CC[C@@H](C2)[C@@H]1C(=O)NCCCCNC(=O)c1ccc(-c2c3nc(c(-c4ccccc4)c4ccc([nH]4)c(-c4ccccc4)c4nc(c(-c5ccccc5)c5ccc2[nH]5)C=C4)C=C3)cc1
REMARK SMILES IDX 29 1 28 2 26 3 27 4 25 6 19 7 20 8 21 9 24 10 23 11 22 12
REMARK SMILES IDX 17 13 16 14 18 16 15 17 13 18 14 19 3 21 2 22 1 23 4 24 5 25
REMARK SMILES IDX 6 26 11 27 7 28 10 29 12 30 8 31 9 32 30 33 31 34 32 35
REMARK SMILES IDX 33 36 34 37 35 39 36 40 37 41 83 42 38 43 82 44 39 45 40 46
REMARK SMILES IDX 41 47 76 48 42 49 81 50 75 51 77 52 43 53 80 54 74 55 73 56
REMARK SMILES IDX 44 58 66 59 51 60 65 61 52 62 55 63 64 64 78 65 53 66 54 67
REMARK SMILES IDX 63 69 79 70 56 71 45 72 46 73 50 74 47 75 49 76 48 77 67 78
REMARK SMILES IDX 68 79 72 80 69 81 71 82 70 83 57 84 58 85 62 86 59 87 61 88
REMARK SMILES IDX 60 89
REMARK H PARENT 28 5 16 15 15 20 33 38 77 57 55 68
REMARK Flexibility Score: inf
ROOT
ATOM      1  C   UNL A   1      36.781  21.448  25.402  1.00  0.00     0.116 C 
ENDROOT
BRANCH   1   2
ATOM      2  N   UNL A   1      35.612  21.757  26.226  1.00  0.00    -0.356 N 
ATOM      3  C   UNL A   1      34.278  21.480  26.014  1.00  0.00     0.224 C 
ATOM      4  O   UNL A   1      33.524  21.509  26.982  1.00  0.00    -0.275 OA
ATOM      5  H   UNL A   1      35.809  22.237  27.063  1.00  0.00     0.163 HD
BRANCH   3   6
ATOM      6  C   UNL A   1      33.792  21.296  24.598  1.00  0.00     0.094 C 
ATOM      7  C   UNL A   1      33.981  22.365  23.486  1.00  0.00     0.096 C 
ATOM      8  C   UNL A   1      32.615  22.189  22.698  1.00  0.00     0.002 C 
ATOM      9  C   UNL A   1      31.483  22.935  23.429  1.00  0.00     0.005 C 
ATOM     10  C   UNL A   1      32.185  20.747  22.987  1.00  0.00     0.009 C 
ATOM     11  C   UNL A   1      32.289  20.933  24.500  1.00  0.00     0.002 C 
ATOM     12  C   UNL A   1      31.373  22.152  24.740  1.00  0.00     0.005 C 
BRANCH   7  13
ATOM     13  C   UNL A   1      34.260  23.888  23.585  1.00  0.00     0.242 C 
ATOM     14  N   UNL A   1      33.941  24.729  24.604  1.00  0.00    -0.267 N 
ATOM     15  H   UNL A   1      34.202  25.671  24.487  1.00  0.00     0.191 HD
ATOM     16  O   UNL A   1      34.949  24.415  22.695  1.00  0.00    -0.273 OA
BRANCH  14  17
ATOM     17  N   UNL A   1      33.303  24.426  25.771  1.00  0.00    -0.264 N 
ATOM     18  C   UNL A   1      32.273  25.112  26.354  1.00  0.00     0.279 C 
ATOM     19  O   UNL A   1      31.713  24.604  27.333  1.00  0.00    -0.269 OA
ATOM     20  H   UNL A   1      33.618  23.623  26.245  1.00  0.00     0.191 HD
BRANCH  18  21
ATOM     21  C   UNL A   1      31.949  26.536  25.913  1.00  0.00     0.263 C 
BRANCH  21  22
ATOM     22  C   UNL A   1      32.613  27.557  26.859  1.00  0.00     0.052 C 
ATOM     23  C   UNL A   1      33.989  27.973  26.352  1.00  0.00     0.008 C 
ENDBRANCH  21  22
BRANCH  21  24
ATOM     24  O   UNL A   1      32.371  26.755  24.559  1.00  0.00    -0.479 OA
BRANCH  24  25
ATOM     25  C   UNL A   1      31.439  27.540  23.918  1.00  0.00     0.140 A 
ATOM     26  C   UNL A   1      30.093  27.237  24.123  1.00  0.00     0.068 A 
ATOM     27  C   UNL A   1      31.810  28.576  23.050  1.00  0.00     0.083 A 
ATOM     28  C   UNL A   1      29.122  27.910  23.388  1.00  0.00     0.044 A 
ATOM     29  C   UNL A   1      30.829  29.251  22.322  1.00  0.00     0.026 A 
ATOM     30  Cl  UNL A   1      33.461  29.021  22.825  1.00  0.00    -0.080 Cl
ATOM     31  Cl  UNL A   1      27.467  27.479  23.570  1.00  0.00    -0.084 Cl
ATOM     32  C   UNL A   1      29.484  28.906  22.480  1.00  0.00     0.022 A 
ENDBRANCH  24  25
ENDBRANCH  21  24
ENDBRANCH  18  21
ENDBRANCH  14  17
ENDBRANCH   7  13
ENDBRANCH   3   6
ENDBRANCH   1   2
BRANCH   1  33
ATOM     33  C   UNL A   1      36.914  19.995  24.932  1.00  0.00     0.023 C 
BRANCH  33  34
ATOM     34  C   UNL A   1      38.246  19.266  25.144  1.00  0.00     0.023 C 
BRANCH  34  35
ATOM     35  C   UNL A   1      39.382  20.024  25.824  1.00  0.00     0.116 C 
BRANCH  35  36
ATOM     36  N   UNL A   1      40.594  19.227  25.879  1.00  0.00    -0.352 N 
ATOM     37  C   UNL A   1      41.896  19.618  26.087  1.00  0.00     0.251 C 
ATOM     38  H   UNL A   1      40.464  18.260  25.750  1.00  0.00     0.163 HD
ATOM     39  O   UNL A   1      42.799  18.819  25.845  1.00  0.00    -0.269 OA
BRANCH  37  40
ATOM     40  C   UNL A   1      42.245  20.972  26.593  1.00  0.00     0.039 A 
ATOM     41  C   UNL A   1      42.098  21.232  27.962  1.00  0.00     0.014 A 
ATOM     42  C   UNL A   1      42.612  22.017  25.739  1.00  0.00     0.014 A 
ATOM     43  C   UNL A   1      42.333  22.514  28.473  1.00  0.00     0.010 A 
ATOM     44  C   UNL A   1      42.901  23.285  26.257  1.00  0.00     0.010 A 
ATOM     45  C   UNL A   1      42.746  23.555  27.626  1.00  0.00    -0.014 A 
BRANCH  45  46
ATOM     46  C   UNL A   1      42.974  24.929  28.152  1.00  0.00     0.031 A 
ATOM     47  C   UNL A   1      44.356  25.370  28.561  1.00  0.00     0.074 A 
ATOM     48  C   UNL A   1      41.940  25.781  28.299  1.00  0.00     0.049 A 
ATOM     49  N   UNL A   1      44.743  26.510  29.079  1.00  0.00    -0.248 NA
ATOM     50  C   UNL A   1      45.445  24.396  28.381  1.00  0.00     0.031 C 
ATOM     51  C   UNL A   1      40.546  25.487  27.966  1.00  0.00     0.029 A 
ATOM     52  N   UNL A   1      41.905  27.071  28.771  1.00  0.00    -0.354 N 
ATOM     53  C   UNL A   1      46.108  26.383  29.307  1.00  0.00     0.074 A 
ATOM     54  C   UNL A   1      46.477  25.043  28.902  1.00  0.00     0.031 C 
ATOM     55  C   UNL A   1      39.795  26.570  28.228  1.00  0.00     0.029 A 
ATOM     56  C   UNL A   1      40.648  27.623  28.774  1.00  0.00     0.049 A 
ATOM     57  H   UNL A   1      42.706  27.553  29.080  1.00  0.00     0.167 HD
ATOM     58  C   UNL A   1      46.981  27.296  29.794  1.00  0.00     0.031 A 
ATOM     59  C   UNL A   1      40.223  28.837  29.175  1.00  0.00     0.031 A 
ATOM     60  C   UNL A   1      46.632  28.639  30.177  1.00  0.00     0.049 A 
ATOM     61  C   UNL A   1      41.211  29.834  29.712  1.00  0.00     0.074 A 
ATOM     62  C   UNL A   1      47.465  29.651  30.627  1.00  0.00     0.029 A 
ATOM     63  N   UNL A   1      45.349  29.157  30.157  1.00  0.00    -0.354 N 
ATOM     64  N   UNL A   1      42.507  29.712  29.868  1.00  0.00    -0.248 NA
ATOM     65  C   UNL A   1      40.676  31.142  30.120  1.00  0.00     0.031 C 
ATOM     66  C   UNL A   1      46.678  30.771  30.914  1.00  0.00     0.029 A 
ATOM     67  C   UNL A   1      45.362  30.468  30.602  1.00  0.00     0.049 A 
ATOM     68  H   UNL A   1      44.546  28.666  29.867  1.00  0.00     0.167 HD
ATOM     69  C   UNL A   1      42.943  30.932  30.368  1.00  0.00     0.074 A 
ATOM     70  C   UNL A   1      41.780  31.785  30.477  1.00  0.00     0.031 C 
ATOM     71  C   UNL A   1      44.200  31.309  30.707  1.00  0.00     0.031 A 
BRANCH  58  72
ATOM     72  C   UNL A   1      48.415  26.871  29.948  1.00  0.00    -0.014 A 
ATOM     73  C   UNL A   1      48.863  26.241  31.120  1.00  0.00     0.009 A 
ATOM     74  C   UNL A   1      49.318  27.063  28.891  1.00  0.00     0.009 A 
ATOM     75  C   UNL A   1      50.195  25.842  31.243  1.00  0.00     0.001 A 
ATOM     76  C   UNL A   1      50.644  26.641  29.008  1.00  0.00     0.001 A 
ATOM     77  C   UNL A   1      51.083  26.039  30.185  1.00  0.00     0.000 A 
ENDBRANCH  58  72
BRANCH  59  78
ATOM     78  C   UNL A   1      38.784  29.190  29.073  1.00  0.00    -0.014 A 
ATOM     79  C   UNL A   1      38.257  29.684  27.869  1.00  0.00     0.009 A 
ATOM     80  C   UNL A   1      37.933  29.045  30.180  1.00  0.00     0.009 A 
ATOM     81  C   UNL A   1      36.912  30.050  27.784  1.00  0.00     0.001 A 
ATOM     82  C   UNL A   1      36.583  29.388  30.083  1.00  0.00     0.001 A 
ATOM     83  C   UNL A   1      36.076  29.897  28.889  1.00  0.00     0.000 A 
ENDBRANCH  59  78
BRANCH  71  84
ATOM     84  C   UNL A   1      44.387  32.715  31.200  1.00  0.00    -0.014 A 
ATOM     85  C   UNL A   1      44.222  33.038  32.556  1.00  0.00     0.009 A 
ATOM     86  C   UNL A   1      44.767  33.724  30.301  1.00  0.00     0.009 A 
ATOM     87  C   UNL A   1      44.407  34.350  32.996  1.00  0.00     0.001 A 
ATOM     88  C   UNL A   1      44.975  35.029  30.748  1.00  0.00     0.001 A 
ATOM     89  C   UNL A   1      44.787  35.342  32.093  1.00  0.00     0.000 A 
ENDBRANCH  71  84
ENDBRANCH  45  46
ENDBRANCH  37  40
ENDBRANCH  35  36
ENDBRANCH  34  35
ENDBRANCH  33  34
ENDBRANCH   1  33
TORSDOF 17
ENDMDL
