MODEL 1
REMARK VINA RESULT:     -11.6      0.000      0.000
REMARK SMILES C/C(=C/c1cccc(OCC(=O)NCCCCNC(=O)c2ccc(-c3c4nc(c(-c5ccccc5)c5ccc([nH]5)c(-c5ccccc5)c5nc(c(-c6ccccc6)c6ccc3[nH]6)C=C5)C=C4)cc2)c1)c1nc2sccc2c(=O)[nH]1
REMARK SMILES IDX 14 1 13 2 11 3 12 4 10 6 9 7 8 8 4 9 5 10 69 11 6 12 7 13
REMARK SMILES IDX 3 14 1 15 2 16 70 17 71 18 79 19 72 20 77 21 73 23 76 24
REMARK SMILES IDX 78 25 74 26 75 27 15 28 16 29 17 30 18 31 19 32 20 34 21 35
REMARK SMILES IDX 22 36 68 37 23 38 67 39 24 40 25 41 26 42 61 43 27 44 66 45
REMARK SMILES IDX 60 46 62 47 28 48 65 49 59 50 58 51 29 53 51 54 36 55 50 56
REMARK SMILES IDX 37 57 40 58 49 59 63 60 38 61 39 62 48 64 64 65 41 66 30 67
REMARK SMILES IDX 31 68 35 69 32 70 34 71 33 72 52 73 53 74 57 75 54 76 56 77
REMARK SMILES IDX 55 78 42 79 43 80 47 81 44 82 46 83 45 84
REMARK H PARENT 13 5 79 22 18 33 62 52 40 63
REMARK Flexibility Score: inf
ROOT
ATOM      1  C   UNL A   1      33.083  29.004  23.262  1.00  0.00     0.116 C 
ENDROOT
BRANCH   1   2
ATOM      2  N   UNL A   1      31.875  29.301  22.518  1.00  0.00    -0.353 N 
ATOM      3  C   UNL A   1      30.778  28.501  22.355  1.00  0.00     0.257 C 
ATOM      4  O   UNL A   1      29.722  29.004  21.970  1.00  0.00    -0.271 OA
ATOM      5  H   UNL A   1      31.842  30.181  22.077  1.00  0.00     0.163 HD
BRANCH   3   6
ATOM      6  C   UNL A   1      30.849  27.014  22.704  1.00  0.00     0.329 C 
BRANCH   6   7
ATOM      7  O   UNL A   1      30.157  26.608  23.873  1.00  0.00    -0.484 OA
BRANCH   7   8
ATOM      8  C   UNL A   1      30.814  25.828  24.783  1.00  0.00     0.120 A 
ATOM      9  C   UNL A   1      32.726  24.844  25.915  1.00  0.00    -0.022 A 
ATOM     10  C   UNL A   1      31.862  24.150  26.768  1.00  0.00     0.008 A 
ATOM     11  C   UNL A   1      32.196  25.679  24.916  1.00  0.00     0.054 A 
ATOM     12  C   UNL A   1      30.483  24.299  26.638  1.00  0.00     0.004 A 
ATOM     13  C   UNL A   1      29.965  25.133  25.649  1.00  0.00     0.046 A 
BRANCH   9  14
ATOM     14  C   UNL A   1      34.176  24.639  26.042  1.00  0.00     0.015 C 
ATOM     15  C   UNL A   1      36.327  23.361  25.962  1.00  0.00     0.048 C 
ATOM     16  C   UNL A   1      34.863  23.532  25.698  1.00  0.00    -0.008 C 
BRANCH  16  17
ATOM     17  C   UNL A   1      34.194  22.371  25.053  1.00  0.00     0.137 A 
ATOM     18  N   UNL A   1      34.175  21.194  25.597  1.00  0.00    -0.219 NA
ATOM     19  N   UNL A   1      33.630  22.670  23.829  1.00  0.00    -0.306 N 
ATOM     20  C   UNL A   1      33.477  20.261  24.894  1.00  0.00     0.131 A 
ATOM     21  C   UNL A   1      32.944  21.753  23.066  1.00  0.00     0.259 A 
ATOM     22  H   UNL A   1      33.724  23.587  23.484  1.00  0.00     0.171 HD
ATOM     23  S   UNL A   1      33.258  18.666  25.468  1.00  0.00    -0.124 S 
ATOM     24  C   UNL A   1      32.852  20.447  23.680  1.00  0.00     0.077 A 
ATOM     25  O   UNL A   1      32.456  22.032  21.981  1.00  0.00    -0.269 OA
ATOM     26  C   UNL A   1      32.286  18.243  24.120  1.00  0.00     0.068 A 
ATOM     27  C   UNL A   1      32.176  19.279  23.219  1.00  0.00     0.028 A 
ENDBRANCH  16  17
ENDBRANCH   9  14
ENDBRANCH   7   8
ENDBRANCH   6   7
ENDBRANCH   3   6
ENDBRANCH   1   2
BRANCH   1  28
ATOM     28  C   UNL A   1      33.023  29.376  24.741  1.00  0.00     0.023 C 
BRANCH  28  29
ATOM     29  C   UNL A   1      33.850  28.518  25.702  1.00  0.00     0.023 C 
BRANCH  29  30
ATOM     30  C   UNL A   1      33.567  28.684  27.193  1.00  0.00     0.116 C 
BRANCH  30  31
ATOM     31  N   UNL A   1      33.574  30.069  27.630  1.00  0.00    -0.352 N 
ATOM     32  C   UNL A   1      34.565  30.796  28.247  1.00  0.00     0.251 C 
ATOM     33  H   UNL A   1      32.741  30.565  27.458  1.00  0.00     0.163 HD
ATOM     34  O   UNL A   1      34.326  31.937  28.635  1.00  0.00    -0.269 OA
BRANCH  32  35
ATOM     35  C   UNL A   1      35.908  30.213  28.483  1.00  0.00     0.039 A 
ATOM     36  C   UNL A   1      36.838  30.238  27.438  1.00  0.00     0.014 A 
ATOM     37  C   UNL A   1      36.249  29.614  29.698  1.00  0.00     0.014 A 
ATOM     38  C   UNL A   1      38.125  29.727  27.631  1.00  0.00     0.010 A 
ATOM     39  C   UNL A   1      37.552  29.153  29.908  1.00  0.00     0.010 A 
ATOM     40  C   UNL A   1      38.505  29.212  28.879  1.00  0.00    -0.014 A 
BRANCH  40  41
ATOM     41  C   UNL A   1      39.899  28.756  29.132  1.00  0.00     0.031 A 
ATOM     42  C   UNL A   1      40.912  29.680  29.749  1.00  0.00     0.074 A 
ATOM     43  C   UNL A   1      40.275  27.519  28.750  1.00  0.00     0.049 A 
ATOM     44  N   UNL A   1      42.186  29.476  29.979  1.00  0.00    -0.248 NA
ATOM     45  C   UNL A   1      40.437  31.016  30.143  1.00  0.00     0.031 C 
ATOM     46  C   UNL A   1      39.405  26.525  28.120  1.00  0.00     0.029 A 
ATOM     47  N   UNL A   1      41.495  26.891  28.828  1.00  0.00    -0.354 N 
ATOM     48  C   UNL A   1      42.667  30.658  30.527  1.00  0.00     0.074 A 
ATOM     49  C   UNL A   1      41.558  31.588  30.561  1.00  0.00     0.031 C 
ATOM     50  C   UNL A   1      40.112  25.409  27.883  1.00  0.00     0.029 A 
ATOM     51  C   UNL A   1      41.494  25.620  28.304  1.00  0.00     0.049 A 
ATOM     52  H   UNL A   1      42.294  27.311  29.220  1.00  0.00     0.167 HD
ATOM     53  C   UNL A   1      43.914  30.942  30.975  1.00  0.00     0.031 A 
ATOM     54  C   UNL A   1      42.493  24.728  28.164  1.00  0.00     0.031 A 
ATOM     55  C   UNL A   1      45.021  30.022  30.948  1.00  0.00     0.049 A 
ATOM     56  C   UNL A   1      43.875  25.080  28.637  1.00  0.00     0.074 A 
ATOM     57  C   UNL A   1      46.307  30.208  31.428  1.00  0.00     0.029 A 
ATOM     58  N   UNL A   1      44.979  28.747  30.407  1.00  0.00    -0.354 N 
ATOM     59  N   UNL A   1      44.298  26.180  29.210  1.00  0.00    -0.248 NA
ATOM     60  C   UNL A   1      44.919  24.059  28.451  1.00  0.00     0.031 C 
ATOM     61  C   UNL A   1      47.056  29.064  31.130  1.00  0.00     0.029 A 
ATOM     62  C   UNL A   1      46.221  28.145  30.516  1.00  0.00     0.049 A 
ATOM     63  H   UNL A   1      44.182  28.331  30.005  1.00  0.00     0.167 HD
ATOM     64  C   UNL A   1      45.645  25.974  29.477  1.00  0.00     0.074 A 
ATOM     65  C   UNL A   1      45.967  24.640  29.017  1.00  0.00     0.031 C 
ATOM     66  C   UNL A   1      46.534  26.818  30.055  1.00  0.00     0.031 A 
BRANCH  53  67
ATOM     67  C   UNL A   1      44.156  32.321  31.524  1.00  0.00    -0.014 A 
ATOM     68  C   UNL A   1      44.029  32.590  32.896  1.00  0.00     0.009 A 
ATOM     69  C   UNL A   1      44.562  33.354  30.665  1.00  0.00     0.009 A 
ATOM     70  C   UNL A   1      44.270  33.874  33.391  1.00  0.00     0.001 A 
ATOM     71  C   UNL A   1      44.829  34.630  31.165  1.00  0.00     0.001 A 
ATOM     72  C   UNL A   1      44.674  34.891  32.526  1.00  0.00     0.000 A 
ENDBRANCH  53  67
BRANCH  54  73
ATOM     73  C   UNL A   1      42.224  23.403  27.546  1.00  0.00    -0.014 A 
ATOM     74  C   UNL A   1      41.664  22.364  28.305  1.00  0.00     0.009 A 
ATOM     75  C   UNL A   1      42.535  23.168  26.198  1.00  0.00     0.009 A 
ATOM     76  C   UNL A   1      41.445  21.109  27.733  1.00  0.00     0.001 A 
ATOM     77  C   UNL A   1      42.288  21.920  25.621  1.00  0.00     0.001 A 
ATOM     78  C   UNL A   1      41.752  20.889  26.392  1.00  0.00     0.000 A 
ENDBRANCH  54  73
BRANCH  66  79
ATOM     79  C   UNL A   1      47.935  26.312  30.259  1.00  0.00    -0.014 A 
ATOM     80  C   UNL A   1      48.340  25.754  31.481  1.00  0.00     0.009 A 
ATOM     81  C   UNL A   1      48.852  26.358  29.196  1.00  0.00     0.009 A 
ATOM     82  C   UNL A   1      49.644  25.280  31.643  1.00  0.00     0.001 A 
ATOM     83  C   UNL A   1      50.144  25.857  29.352  1.00  0.00     0.001 A 
ATOM     84  C   UNL A   1      50.543  25.327  30.578  1.00  0.00     0.000 A 
ENDBRANCH  66  79
ENDBRANCH  40  41
ENDBRANCH  32  35
ENDBRANCH  30  31
ENDBRANCH  29  30
ENDBRANCH  28  29
ENDBRANCH   1  28
TORSDOF 15
ENDMDL
MODEL 2
REMARK VINA RESULT:     -11.5      1.514      2.546
REMARK SMILES C/C(=C/c1cccc(OCC(=O)NCCCCNC(=O)c2ccc(-c3c4nc(c(-c5ccccc5)c5ccc([nH]5)c(-c5ccccc5)c5nc(c(-c6ccccc6)c6ccc3[nH]6)C=C5)C=C4)cc2)c1)c1nc2sccc2c(=O)[nH]1
REMARK SMILES IDX 14 1 13 2 11 3 12 4 10 6 9 7 8 8 4 9 5 10 69 11 6 12 7 13
REMARK SMILES IDX 3 14 1 15 2 16 70 17 71 18 79 19 72 20 77 21 73 23 76 24
REMARK SMILES IDX 78 25 74 26 75 27 15 28 16 29 17 30 18 31 19 32 20 34 21 35
REMARK SMILES IDX 22 36 68 37 23 38 67 39 24 40 25 41 26 42 61 43 27 44 66 45
REMARK SMILES IDX 60 46 62 47 28 48 65 49 59 50 58 51 29 53 51 54 36 55 50 56
REMARK SMILES IDX 37 57 40 58 49 59 63 60 38 61 39 62 48 64 64 65 41 66 30 67
REMARK SMILES IDX 31 68 35 69 32 70 34 71 33 72 52 73 53 74 57 75 54 76 56 77
REMARK SMILES IDX 55 78 42 79 43 80 47 81 44 82 46 83 45 84
REMARK H PARENT 13 5 79 22 18 33 62 52 40 63
REMARK Flexibility Score: inf
ROOT
ATOM      1  C   UNL A   1      32.773  28.751  23.387  1.00  0.00     0.116 C 
ENDROOT
BRANCH   1   2
ATOM      2  N   UNL A   1      33.619  27.665  22.933  1.00  0.00    -0.353 N 
ATOM      3  C   UNL A   1      33.237  26.395  22.597  1.00  0.00     0.257 C 
ATOM      4  O   UNL A   1      34.006  25.693  21.939  1.00  0.00    -0.271 OA
ATOM      5  H   UNL A   1      34.580  27.865  22.859  1.00  0.00     0.163 HD
BRANCH   3   6
ATOM      6  C   UNL A   1      31.850  25.878  22.983  1.00  0.00     0.329 C 
BRANCH   6   7
ATOM      7  O   UNL A   1      31.569  24.528  22.655  1.00  0.00    -0.484 OA
BRANCH   7   8
ATOM      8  C   UNL A   1      31.628  23.590  23.648  1.00  0.00     0.120 A 
ATOM      9  C   UNL A   1      32.028  21.407  24.638  1.00  0.00    -0.022 A 
ATOM     10  C   UNL A   1      31.659  21.909  25.890  1.00  0.00     0.008 A 
ATOM     11  C   UNL A   1      32.004  22.252  23.515  1.00  0.00     0.054 A 
ATOM     12  C   UNL A   1      31.285  23.244  26.026  1.00  0.00     0.004 A 
ATOM     13  C   UNL A   1      31.270  24.077  24.908  1.00  0.00     0.046 A 
BRANCH   9  14
ATOM     14  C   UNL A   1      32.378  19.985  24.511  1.00  0.00     0.015 C 
ATOM     15  C   UNL A   1      33.898  18.007  24.304  1.00  0.00     0.048 C 
ATOM     16  C   UNL A   1      33.616  19.457  24.551  1.00  0.00    -0.008 C 
BRANCH  16  17
ATOM     17  C   UNL A   1      34.813  20.300  24.814  1.00  0.00     0.137 A 
ATOM     18  N   UNL A   1      34.732  21.583  24.984  1.00  0.00    -0.219 NA
ATOM     19  N   UNL A   1      35.995  19.588  24.834  1.00  0.00    -0.306 N 
ATOM     20  C   UNL A   1      35.917  22.190  25.263  1.00  0.00     0.131 A 
ATOM     21  C   UNL A   1      37.222  20.161  25.079  1.00  0.00     0.259 A 
ATOM     22  H   UNL A   1      35.959  18.619  24.664  1.00  0.00     0.171 HD
ATOM     23  S   UNL A   1      36.026  23.862  25.599  1.00  0.00    -0.124 S 
ATOM     24  C   UNL A   1      37.152  21.583  25.335  1.00  0.00     0.077 A 
ATOM     25  O   UNL A   1      38.261  19.518  25.086  1.00  0.00    -0.269 OA
ATOM     26  C   UNL A   1      37.712  23.762  25.891  1.00  0.00     0.068 A 
ATOM     27  C   UNL A   1      38.197  22.490  25.681  1.00  0.00     0.028 A 
ENDBRANCH  16  17
ENDBRANCH   9  14
ENDBRANCH   7   8
ENDBRANCH   6   7
ENDBRANCH   3   6
ENDBRANCH   1   2
BRANCH   1  28
ATOM     28  C   UNL A   1      33.117  29.285  24.775  1.00  0.00     0.023 C 
BRANCH  28  29
ATOM     29  C   UNL A   1      33.747  28.296  25.758  1.00  0.00     0.023 C 
BRANCH  29  30
ATOM     30  C   UNL A   1      33.534  28.569  27.245  1.00  0.00     0.116 C 
BRANCH  30  31
ATOM     31  N   UNL A   1      33.556  29.982  27.580  1.00  0.00    -0.352 N 
ATOM     32  C   UNL A   1      34.560  30.743  28.132  1.00  0.00     0.251 C 
ATOM     33  H   UNL A   1      32.725  30.470  27.381  1.00  0.00     0.163 HD
ATOM     34  O   UNL A   1      34.334  31.911  28.438  1.00  0.00    -0.269 OA
BRANCH  32  35
ATOM     35  C   UNL A   1      35.901  30.168  28.394  1.00  0.00     0.039 A 
ATOM     36  C   UNL A   1      36.835  30.153  27.353  1.00  0.00     0.014 A 
ATOM     37  C   UNL A   1      36.236  29.614  29.632  1.00  0.00     0.014 A 
ATOM     38  C   UNL A   1      38.121  29.648  27.570  1.00  0.00     0.010 A 
ATOM     39  C   UNL A   1      37.538  29.160  29.864  1.00  0.00     0.010 A 
ATOM     40  C   UNL A   1      38.496  29.179  28.838  1.00  0.00    -0.014 A 
BRANCH  40  41
ATOM     41  C   UNL A   1      39.888  28.731  29.113  1.00  0.00     0.031 A 
ATOM     42  C   UNL A   1      40.886  29.662  29.744  1.00  0.00     0.074 A 
ATOM     43  C   UNL A   1      40.276  27.495  28.740  1.00  0.00     0.049 A 
ATOM     44  N   UNL A   1      42.157  29.465  29.994  1.00  0.00    -0.248 NA
ATOM     45  C   UNL A   1      40.397  30.996  30.128  1.00  0.00     0.031 C 
ATOM     46  C   UNL A   1      39.421  26.495  28.098  1.00  0.00     0.029 A 
ATOM     47  N   UNL A   1      41.498  26.874  28.838  1.00  0.00    -0.354 N 
ATOM     48  C   UNL A   1      42.624  30.651  30.548  1.00  0.00     0.074 A 
ATOM     49  C   UNL A   1      41.509  31.575  30.563  1.00  0.00     0.031 C 
ATOM     50  C   UNL A   1      40.138  25.383  27.875  1.00  0.00     0.029 A 
ATOM     51  C   UNL A   1      41.512  25.603  28.316  1.00  0.00     0.049 A 
ATOM     52  H   UNL A   1      42.288  27.299  29.242  1.00  0.00     0.167 HD
ATOM     53  C   UNL A   1      43.862  30.943  31.014  1.00  0.00     0.031 A 
ATOM     54  C   UNL A   1      42.518  24.716  28.194  1.00  0.00     0.031 A 
ATOM     55  C   UNL A   1      44.974  30.029  31.006  1.00  0.00     0.049 A 
ATOM     56  C   UNL A   1      43.891  25.076  28.688  1.00  0.00     0.074 A 
ATOM     57  C   UNL A   1      46.251  30.222  31.505  1.00  0.00     0.029 A 
ATOM     58  N   UNL A   1      44.947  28.753  30.467  1.00  0.00    -0.354 N 
ATOM     59  N   UNL A   1      44.299  26.179  29.265  1.00  0.00    -0.248 NA
ATOM     60  C   UNL A   1      44.942  24.061  28.520  1.00  0.00     0.031 C 
ATOM     61  C   UNL A   1      47.011  29.082  31.222  1.00  0.00     0.029 A 
ATOM     62  C   UNL A   1      46.191  28.158  30.596  1.00  0.00     0.049 A 
ATOM     63  H   UNL A   1      44.158  28.331  30.053  1.00  0.00     0.167 HD
ATOM     64  C   UNL A   1      45.643  25.981  29.553  1.00  0.00     0.074 A 
ATOM     65  C   UNL A   1      45.979  24.648  29.101  1.00  0.00     0.031 C 
ATOM     66  C   UNL A   1      46.518  26.831  30.143  1.00  0.00     0.031 A 
BRANCH  53  67
ATOM     67  C   UNL A   1      44.088  32.324  31.564  1.00  0.00    -0.014 A 
ATOM     68  C   UNL A   1      44.516  33.375  30.737  1.00  0.00     0.009 A 
ATOM     69  C   UNL A   1      43.826  32.588  32.917  1.00  0.00     0.009 A 
ATOM     70  C   UNL A   1      44.710  34.655  31.263  1.00  0.00     0.001 A 
ATOM     71  C   UNL A   1      43.992  33.875  33.434  1.00  0.00     0.001 A 
ATOM     72  C   UNL A   1      44.443  34.904  32.609  1.00  0.00     0.000 A 
ENDBRANCH  53  67
BRANCH  54  73
ATOM     73  C   UNL A   1      42.266  23.388  27.575  1.00  0.00    -0.014 A 
ATOM     74  C   UNL A   1      42.642  23.140  26.246  1.00  0.00     0.009 A 
ATOM     75  C   UNL A   1      41.638  22.367  28.305  1.00  0.00     0.009 A 
ATOM     76  C   UNL A   1      42.372  21.904  25.653  1.00  0.00     0.001 A 
ATOM     77  C   UNL A   1      41.396  21.123  27.718  1.00  0.00     0.001 A 
ATOM     78  C   UNL A   1      41.755  20.896  26.390  1.00  0.00     0.000 A 
ENDBRANCH  54  73
BRANCH  66  79
ATOM     79  C   UNL A   1      47.919  26.333  30.370  1.00  0.00    -0.014 A 
ATOM     80  C   UNL A   1      48.306  25.778  31.599  1.00  0.00     0.009 A 
ATOM     81  C   UNL A   1      48.852  26.384  29.322  1.00  0.00     0.009 A 
ATOM     82  C   UNL A   1      49.610  25.311  31.782  1.00  0.00     0.001 A 
ATOM     83  C   UNL A   1      50.144  25.890  29.499  1.00  0.00     0.001 A 
ATOM     84  C   UNL A   1      50.526  25.363  30.732  1.00  0.00     0.000 A 
ENDBRANCH  66  79
ENDBRANCH  40  41
ENDBRANCH  32  35
ENDBRANCH  30  31
ENDBRANCH  29  30
ENDBRANCH  28  29
ENDBRANCH   1  28
TORSDOF 15
ENDMDL
MODEL 3
REMARK VINA RESULT:     -11.4      4.325      6.352
REMARK SMILES C/C(=C/c1cccc(OCC(=O)NCCCCNC(=O)c2ccc(-c3c4nc(c(-c5ccccc5)c5ccc([nH]5)c(-c5ccccc5)c5nc(c(-c6ccccc6)c6ccc3[nH]6)C=C5)C=C4)cc2)c1)c1nc2sccc2c(=O)[nH]1
REMARK SMILES IDX 14 1 13 2 11 3 12 4 10 6 9 7 8 8 4 9 5 10 69 11 6 12 7 13
REMARK SMILES IDX 3 14 1 15 2 16 70 17 71 18 79 19 72 20 77 21 73 23 76 24
REMARK SMILES IDX 78 25 74 26 75 27 15 28 16 29 17 30 18 31 19 32 20 34 21 35
REMARK SMILES IDX 22 36 68 37 23 38 67 39 24 40 25 41 26 42 61 43 27 44 66 45
REMARK SMILES IDX 60 46 62 47 28 48 65 49 59 50 58 51 29 53 51 54 36 55 50 56
REMARK SMILES IDX 37 57 40 58 49 59 63 60 38 61 39 62 48 64 64 65 41 66 30 67
REMARK SMILES IDX 31 68 35 69 32 70 34 71 33 72 52 73 53 74 57 75 54 76 56 77
REMARK SMILES IDX 55 78 42 79 43 80 47 81 44 82 46 83 45 84
REMARK H PARENT 13 5 79 22 18 33 62 52 40 63
REMARK Flexibility Score: inf
ROOT
ATOM      1  C   UNL A   1      34.343  32.966  27.897  1.00  0.00     0.116 C 
ENDROOT
BRANCH   1   2
ATOM      2  N   UNL A   1      35.451  32.046  28.056  1.00  0.00    -0.353 N 
ATOM      3  C   UNL A   1      35.524  30.748  27.629  1.00  0.00     0.257 C 
ATOM      4  O   UNL A   1      36.626  30.203  27.558  1.00  0.00    -0.271 OA
ATOM      5  H   UNL A   1      36.241  32.395  28.528  1.00  0.00     0.163 HD
BRANCH   3   6
ATOM      6  C   UNL A   1      34.260  30.007  27.191  1.00  0.00     0.329 C 
BRANCH   6   7
ATOM      7  O   UNL A   1      34.448  28.903  26.322  1.00  0.00    -0.484 OA
BRANCH   7   8
ATOM      8  C   UNL A   1      33.345  28.292  25.795  1.00  0.00     0.120 A 
ATOM      9  C   UNL A   1      31.572  26.638  25.628  1.00  0.00    -0.022 A 
ATOM     10  C   UNL A   1      31.078  27.284  24.490  1.00  0.00     0.008 A 
ATOM     11  C   UNL A   1      32.713  27.143  26.275  1.00  0.00     0.054 A 
ATOM     12  C   UNL A   1      31.706  28.432  24.010  1.00  0.00     0.004 A 
ATOM     13  C   UNL A   1      32.833  28.929  24.661  1.00  0.00     0.046 A 
BRANCH   9  14
ATOM     14  C   UNL A   1      30.920  25.405  26.091  1.00  0.00     0.015 C 
ATOM     15  C   UNL A   1      30.578  22.935  26.311  1.00  0.00     0.048 C 
ATOM     16  C   UNL A   1      31.358  24.145  25.901  1.00  0.00    -0.008 C 
BRANCH  16  17
ATOM     17  C   UNL A   1      32.655  23.867  25.228  1.00  0.00     0.137 A 
ATOM     18  N   UNL A   1      33.758  23.704  25.891  1.00  0.00    -0.219 NA
ATOM     19  N   UNL A   1      32.564  23.827  23.852  1.00  0.00    -0.306 N 
ATOM     20  C   UNL A   1      34.839  23.408  25.121  1.00  0.00     0.131 A 
ATOM     21  C   UNL A   1      33.635  23.565  23.029  1.00  0.00     0.259 A 
ATOM     22  H   UNL A   1      31.687  23.994  23.438  1.00  0.00     0.171 HD
ATOM     23  S   UNL A   1      36.374  23.076  25.796  1.00  0.00    -0.124 S 
ATOM     24  C   UNL A   1      34.866  23.315  23.746  1.00  0.00     0.077 A 
ATOM     25  O   UNL A   1      33.540  23.540  21.810  1.00  0.00    -0.269 OA
ATOM     26  C   UNL A   1      37.056  22.758  24.256  1.00  0.00     0.068 A 
ATOM     27  C   UNL A   1      36.149  22.956  23.239  1.00  0.00     0.028 A 
ENDBRANCH  16  17
ENDBRANCH   9  14
ENDBRANCH   7   8
ENDBRANCH   6   7
ENDBRANCH   3   6
ENDBRANCH   1   2
BRANCH   1  28
ATOM     28  C   UNL A   1      34.140  33.924  29.068  1.00  0.00     0.023 C 
BRANCH  28  29
ATOM     29  C   UNL A   1      33.121  35.049  28.872  1.00  0.00     0.023 C 
BRANCH  29  30
ATOM     30  C   UNL A   1      33.294  36.295  29.736  1.00  0.00     0.116 C 
BRANCH  30  31
ATOM     31  N   UNL A   1      32.381  36.343  30.866  1.00  0.00    -0.352 N 
ATOM     32  C   UNL A   1      32.495  35.785  32.117  1.00  0.00     0.251 C 
ATOM     33  H   UNL A   1      31.554  36.854  30.711  1.00  0.00     0.163 HD
ATOM     34  O   UNL A   1      31.549  35.856  32.899  1.00  0.00    -0.269 OA
BRANCH  32  35
ATOM     35  C   UNL A   1      33.727  35.071  32.529  1.00  0.00     0.039 A 
ATOM     36  C   UNL A   1      33.610  33.766  33.017  1.00  0.00     0.014 A 
ATOM     37  C   UNL A   1      34.984  35.679  32.475  1.00  0.00     0.014 A 
ATOM     38  C   UNL A   1      34.752  33.048  33.386  1.00  0.00     0.010 A 
ATOM     39  C   UNL A   1      36.130  34.944  32.792  1.00  0.00     0.010 A 
ATOM     40  C   UNL A   1      36.026  33.618  33.244  1.00  0.00    -0.014 A 
BRANCH  40  41
ATOM     41  C   UNL A   1      37.257  32.835  33.537  1.00  0.00     0.031 A 
ATOM     42  C   UNL A   1      38.038  33.073  34.800  1.00  0.00     0.074 A 
ATOM     43  C   UNL A   1      37.712  31.945  32.632  1.00  0.00     0.049 A 
ATOM     44  N   UNL A   1      39.169  32.533  35.187  1.00  0.00    -0.248 NA
ATOM     45  C   UNL A   1      37.488  34.057  35.744  1.00  0.00     0.031 C 
ATOM     46  C   UNL A   1      37.069  31.630  31.356  1.00  0.00     0.029 A 
ATOM     47  N   UNL A   1      38.831  31.148  32.647  1.00  0.00    -0.354 N 
ATOM     48  C   UNL A   1      39.473  33.123  36.407  1.00  0.00     0.074 A 
ATOM     49  C   UNL A   1      38.428  34.088  36.680  1.00  0.00     0.031 C 
ATOM     50  C   UNL A   1      37.793  30.697  30.718  1.00  0.00     0.029 A 
ATOM     51  C   UNL A   1      38.972  30.379  31.517  1.00  0.00     0.049 A 
ATOM     52  H   UNL A   1      39.471  31.130  33.394  1.00  0.00     0.167 HD
ATOM     53  C   UNL A   1      40.517  32.876  37.234  1.00  0.00     0.031 A 
ATOM     54  C   UNL A   1      39.947  29.522  31.155  1.00  0.00     0.031 A 
ATOM     55  C   UNL A   1      41.557  31.916  36.973  1.00  0.00     0.049 A 
ATOM     56  C   UNL A   1      41.113  29.291  32.074  1.00  0.00     0.074 A 
ATOM     57  C   UNL A   1      42.626  31.563  37.779  1.00  0.00     0.029 A 
ATOM     58  N   UNL A   1      41.665  31.160  35.816  1.00  0.00    -0.354 N 
ATOM     59  N   UNL A   1      41.352  29.811  33.253  1.00  0.00    -0.248 NA
ATOM     60  C   UNL A   1      42.141  28.345  31.615  1.00  0.00     0.031 C 
ATOM     61  C   UNL A   1      43.409  30.632  37.088  1.00  0.00     0.029 A 
ATOM     62  C   UNL A   1      42.796  30.363  35.875  1.00  0.00     0.049 A 
ATOM     63  H   UNL A   1      41.030  31.186  35.064  1.00  0.00     0.167 HD
ATOM     64  C   UNL A   1      42.539  29.237  33.687  1.00  0.00     0.074 A 
ATOM     65  C   UNL A   1      42.965  28.318  32.652  1.00  0.00     0.031 C 
ATOM     66  C   UNL A   1      43.214  29.452  34.842  1.00  0.00     0.031 A 
BRANCH  53  67
ATOM     67  C   UNL A   1      40.598  33.674  38.506  1.00  0.00    -0.014 A 
ATOM     68  C   UNL A   1      40.060  33.185  39.708  1.00  0.00     0.009 A 
ATOM     69  C   UNL A   1      41.261  34.911  38.514  1.00  0.00     0.009 A 
ATOM     70  C   UNL A   1      40.155  33.935  40.882  1.00  0.00     0.001 A 
ATOM     71  C   UNL A   1      41.380  35.646  39.696  1.00  0.00     0.001 A 
ATOM     72  C   UNL A   1      40.818  35.161  40.876  1.00  0.00     0.000 A 
ENDBRANCH  53  67
BRANCH  54  73
ATOM     73  C   UNL A   1      39.863  28.810  29.853  1.00  0.00    -0.014 A 
ATOM     74  C   UNL A   1      39.418  27.481  29.795  1.00  0.00     0.009 A 
ATOM     75  C   UNL A   1      40.238  29.453  28.662  1.00  0.00     0.009 A 
ATOM     76  C   UNL A   1      39.374  26.801  28.576  1.00  0.00     0.001 A 
ATOM     77  C   UNL A   1      40.165  28.780  27.441  1.00  0.00     0.001 A 
ATOM     78  C   UNL A   1      39.743  27.452  27.400  1.00  0.00     0.000 A 
ENDBRANCH  54  73
BRANCH  66  79
ATOM     79  C   UNL A   1      44.467  28.653  35.070  1.00  0.00    -0.014 A 
ATOM     80  C   UNL A   1      44.429  27.397  35.694  1.00  0.00     0.009 A 
ATOM     81  C   UNL A   1      45.700  29.150  34.616  1.00  0.00     0.009 A 
ATOM     82  C   UNL A   1      45.605  26.667  35.884  1.00  0.00     0.001 A 
ATOM     83  C   UNL A   1      46.868  28.406  34.781  1.00  0.00     0.001 A 
ATOM     84  C   UNL A   1      46.822  27.170  35.423  1.00  0.00     0.000 A 
ENDBRANCH  66  79
ENDBRANCH  40  41
ENDBRANCH  32  35
ENDBRANCH  30  31
ENDBRANCH  29  30
ENDBRANCH  28  29
ENDBRANCH   1  28
TORSDOF 15
ENDMDL
