MODEL 1
REMARK VINA RESULT:     -12.6      0.000      0.000
REMARK SMILES O=C1CC[C@@H](CC(=O)N2CCC(Oc3ccccc3)(C(=O)NCCCCNC(=O)c3ccc(-c4c5nc(c(-c6ccccc6)c6ccc([nH]6)c(-c6ccccc6)c6nc(c(-c7ccccc7)c7ccc4[nH]7)C=C6)C=C5)cc3)CC2)N1
REMARK SMILES IDX 24 1 23 2 22 3 20 4 21 5 12 7 7 8 8 9 9 10 10 11 79 12 11 13
REMARK SMILES IDX 78 14 6 15 5 16 1 17 2 18 3 19 80 20 4 21 13 23 14 24 15 25
REMARK SMILES IDX 19 26 16 27 18 28 17 29 25 30 26 31 27 32 28 33 29 35 30 36
REMARK SMILES IDX 31 37 77 38 32 39 76 40 33 41 34 42 35 43 70 44 36 45 75 46
REMARK SMILES IDX 69 47 71 48 37 49 74 50 68 51 67 52 38 54 60 55 45 56 59 57
REMARK SMILES IDX 46 58 49 59 58 60 72 61 47 62 48 63 57 65 73 66 50 67 39 68
REMARK SMILES IDX 40 69 44 70 41 71 43 72 42 73 61 74 62 75 66 76 63 77 65 78
REMARK SMILES IDX 64 79 51 80 52 81 56 82 53 83 55 84 54 85
REMARK H PARENT 22 6 80 22 27 34 71 53 49 64
REMARK Flexibility Score: inf
ROOT
ATOM      1  C   UNL A   1      37.421  21.164  24.806  1.00  0.00     0.023 C 
ENDROOT
BRANCH   1   2
ATOM      2  C   UNL A   1      35.970  20.874  25.174  1.00  0.00     0.116 C 
BRANCH   2   3
ATOM      3  N   UNL A   1      35.559  21.706  26.280  1.00  0.00    -0.353 N 
ATOM      4  C   UNL A   1      34.446  22.470  26.428  1.00  0.00     0.264 C 
ATOM      5  O   UNL A   1      34.352  23.053  27.514  1.00  0.00    -0.270 OA
ATOM      6  H   UNL A   1      36.181  21.723  27.043  1.00  0.00     0.163 HD
BRANCH   4   7
ATOM      7  C   UNL A   1      33.364  22.573  25.313  1.00  0.00     0.190 C 
ATOM      8  C   UNL A   1      33.704  25.958  22.909  1.00  0.00     0.224 C 
ATOM      9  O   UNL A   1      33.747  25.602  21.723  1.00  0.00    -0.275 OA
ATOM     10  N   UNL A   1      34.019  25.054  23.904  1.00  0.00    -0.342 N 
ATOM     11  C   UNL A   1      34.767  23.839  23.584  1.00  0.00     0.124 C 
ATOM     12  C   UNL A   1      33.496  25.082  25.248  1.00  0.00     0.124 C 
ATOM     13  C   UNL A   1      33.949  22.587  23.882  1.00  0.00     0.080 C 
ATOM     14  C   UNL A   1      32.598  23.882  25.536  1.00  0.00     0.080 C 
BRANCH   8  15
ATOM     15  C   UNL A   1      33.531  27.466  23.180  1.00  0.00     0.125 C 
BRANCH  15  16
ATOM     16  C   UNL A   1      32.243  28.244  23.455  1.00  0.00     0.091 C 
ATOM     17  O   UNL A   1      29.865  29.859  21.435  1.00  0.00    -0.275 OA
ATOM     18  C   UNL A   1      30.455  29.141  22.228  1.00  0.00     0.220 C 
ATOM     19  C   UNL A   1      29.836  28.061  23.079  1.00  0.00     0.102 C 
ATOM     20  N   UNL A   1      31.815  29.161  22.443  1.00  0.00    -0.353 N 
ATOM     21  C   UNL A   1      31.014  27.401  23.801  1.00  0.00     0.035 C 
ATOM     22  H   UNL A   1      32.432  29.747  21.947  1.00  0.00     0.163 HD
ENDBRANCH  15  16
ENDBRANCH   8  15
BRANCH   7  23
ATOM     23  O   UNL A   1      32.550  21.413  25.628  1.00  0.00    -0.477 OA
BRANCH  23  24
ATOM     24  C   UNL A   1      32.637  20.323  24.817  1.00  0.00     0.120 A 
ATOM     25  C   UNL A   1      32.268  20.463  23.481  1.00  0.00     0.046 A 
ATOM     26  C   UNL A   1      32.924  19.061  25.334  1.00  0.00     0.046 A 
ATOM     27  C   UNL A   1      32.266  19.349  22.642  1.00  0.00     0.004 A 
ATOM     28  C   UNL A   1      32.943  17.951  24.492  1.00  0.00     0.004 A 
ATOM     29  C   UNL A   1      32.618  18.097  23.143  1.00  0.00     0.000 A 
ENDBRANCH  23  24
ENDBRANCH   7  23
ENDBRANCH   4   7
ENDBRANCH   2   3
ENDBRANCH   1   2
BRANCH   1  30
ATOM     30  C   UNL A   1      38.354  19.964  24.968  1.00  0.00     0.023 C 
BRANCH  30  31
ATOM     31  C   UNL A   1      39.394  20.117  26.069  1.00  0.00     0.116 C 
BRANCH  31  32
ATOM     32  N   UNL A   1      40.511  19.198  25.911  1.00  0.00    -0.352 N 
ATOM     33  C   UNL A   1      41.855  19.460  25.995  1.00  0.00     0.251 C 
ATOM     34  H   UNL A   1      40.271  18.263  25.719  1.00  0.00     0.163 HD
ATOM     35  O   UNL A   1      42.678  18.608  25.681  1.00  0.00    -0.269 OA
BRANCH  33  36
ATOM     36  C   UNL A   1      42.294  20.796  26.439  1.00  0.00     0.039 A 
ATOM     37  C   UNL A   1      42.663  21.738  25.478  1.00  0.00     0.014 A 
ATOM     38  C   UNL A   1      42.299  21.123  27.798  1.00  0.00     0.014 A 
ATOM     39  C   UNL A   1      42.987  23.033  25.879  1.00  0.00     0.010 A 
ATOM     40  C   UNL A   1      42.540  22.435  28.186  1.00  0.00     0.010 A 
ATOM     41  C   UNL A   1      42.895  23.400  27.233  1.00  0.00    -0.014 A 
BRANCH  41  42
ATOM     42  C   UNL A   1      43.191  24.784  27.675  1.00  0.00     0.031 A 
ATOM     43  C   UNL A   1      44.620  25.218  27.865  1.00  0.00     0.074 A 
ATOM     44  C   UNL A   1      42.181  25.633  27.949  1.00  0.00     0.049 A 
ATOM     45  N   UNL A   1      45.084  26.359  28.306  1.00  0.00    -0.248 NA
ATOM     46  C   UNL A   1      45.665  24.232  27.540  1.00  0.00     0.031 C 
ATOM     47  C   UNL A   1      40.754  25.323  27.833  1.00  0.00     0.029 A 
ATOM     48  N   UNL A   1      42.203  26.933  28.386  1.00  0.00    -0.354 N 
ATOM     49  C   UNL A   1      46.466  26.224  28.318  1.00  0.00     0.074 A 
ATOM     50  C   UNL A   1      46.766  24.873  27.901  1.00  0.00     0.031 C 
ATOM     51  C   UNL A   1      40.039  26.412  28.163  1.00  0.00     0.029 A 
ATOM     52  C   UNL A   1      40.953  27.480  28.557  1.00  0.00     0.049 A 
ATOM     53  H   UNL A   1      43.036  27.428  28.562  1.00  0.00     0.167 HD
ATOM     54  C   UNL A   1      47.405  27.151  28.619  1.00  0.00     0.031 A 
ATOM     55  C   UNL A   1      40.587  28.700  28.990  1.00  0.00     0.031 A 
ATOM     56  C   UNL A   1      47.109  28.498  29.025  1.00  0.00     0.049 A 
ATOM     57  C   UNL A   1      41.654  29.696  29.357  1.00  0.00     0.074 A 
ATOM     58  C   UNL A   1      47.992  29.521  29.324  1.00  0.00     0.029 A 
ATOM     59  N   UNL A   1      45.832  29.011  29.181  1.00  0.00    -0.354 N 
ATOM     60  N   UNL A   1      42.959  29.569  29.307  1.00  0.00    -0.248 NA
ATOM     61  C   UNL A   1      41.196  31.012  29.828  1.00  0.00     0.031 C 
ATOM     62  C   UNL A   1      47.249  30.639  29.710  1.00  0.00     0.029 A 
ATOM     63  C   UNL A   1      45.903  30.332  29.589  1.00  0.00     0.049 A 
ATOM     64  H   UNL A   1      44.998  28.510  29.027  1.00  0.00     0.167 HD
ATOM     65  C   UNL A   1      43.473  30.798  29.701  1.00  0.00     0.074 A 
ATOM     66  C   UNL A   1      42.342  31.662  29.967  1.00  0.00     0.031 C 
ATOM     67  C   UNL A   1      44.767  31.180  29.831  1.00  0.00     0.031 A 
BRANCH  54  68
ATOM     68  C   UNL A   1      48.847  26.742  28.512  1.00  0.00    -0.014 A 
ATOM     69  C   UNL A   1      49.540  26.240  29.626  1.00  0.00     0.009 A 
ATOM     70  C   UNL A   1      49.505  26.803  27.274  1.00  0.00     0.009 A 
ATOM     71  C   UNL A   1      50.870  25.830  29.506  1.00  0.00     0.001 A 
ATOM     72  C   UNL A   1      50.825  26.364  27.151  1.00  0.00     0.001 A 
ATOM     73  C   UNL A   1      51.508  25.885  28.267  1.00  0.00     0.000 A 
ENDBRANCH  54  68
BRANCH  55  74
ATOM     74  C   UNL A   1      39.149  29.064  29.109  1.00  0.00    -0.014 A 
ATOM     75  C   UNL A   1      38.447  28.825  30.303  1.00  0.00     0.009 A 
ATOM     76  C   UNL A   1      38.455  29.599  28.013  1.00  0.00     0.009 A 
ATOM     77  C   UNL A   1      37.074  29.068  30.378  1.00  0.00     0.001 A 
ATOM     78  C   UNL A   1      37.088  29.875  28.104  1.00  0.00     0.001 A 
ATOM     79  C   UNL A   1      36.396  29.594  29.280  1.00  0.00     0.000 A 
ENDBRANCH  55  74
BRANCH  67  80
ATOM     80  C   UNL A   1      45.029  32.609  30.220  1.00  0.00    -0.014 A 
ATOM     81  C   UNL A   1      45.196  32.986  31.561  1.00  0.00     0.009 A 
ATOM     82  C   UNL A   1      45.152  33.584  29.217  1.00  0.00     0.009 A 
ATOM     83  C   UNL A   1      45.442  34.320  31.891  1.00  0.00     0.001 A 
ATOM     84  C   UNL A   1      45.432  34.909  29.549  1.00  0.00     0.001 A 
ATOM     85  C   UNL A   1      45.565  35.279  30.886  1.00  0.00     0.000 A 
ENDBRANCH  67  80
ENDBRANCH  41  42
ENDBRANCH  33  36
ENDBRANCH  31  32
ENDBRANCH  30  31
ENDBRANCH   1  30
TORSDOF 15
ENDMDL
MODEL 2
REMARK VINA RESULT:     -12.5      4.490     10.128
REMARK SMILES O=C1CC[C@@H](CC(=O)N2CCC(Oc3ccccc3)(C(=O)NCCCCNC(=O)c3ccc(-c4c5nc(c(-c6ccccc6)c6ccc([nH]6)c(-c6ccccc6)c6nc(c(-c7ccccc7)c7ccc4[nH]7)C=C6)C=C5)cc3)CC2)N1
REMARK SMILES IDX 24 1 23 2 22 3 20 4 21 5 12 7 7 8 8 9 9 10 10 11 79 12 11 13
REMARK SMILES IDX 78 14 6 15 5 16 1 17 2 18 3 19 80 20 4 21 13 23 14 24 15 25
REMARK SMILES IDX 19 26 16 27 18 28 17 29 25 30 26 31 27 32 28 33 29 35 30 36
REMARK SMILES IDX 31 37 77 38 32 39 76 40 33 41 34 42 35 43 70 44 36 45 75 46
REMARK SMILES IDX 69 47 71 48 37 49 74 50 68 51 67 52 38 54 60 55 45 56 59 57
REMARK SMILES IDX 46 58 49 59 58 60 72 61 47 62 48 63 57 65 73 66 50 67 39 68
REMARK SMILES IDX 40 69 44 70 41 71 43 72 42 73 61 74 62 75 66 76 63 77 65 78
REMARK SMILES IDX 64 79 51 80 52 81 56 82 53 83 55 84 54 85
REMARK H PARENT 22 6 80 22 27 34 71 53 49 64
REMARK Flexibility Score: inf
ROOT
ATOM      1  C   UNL A   1      31.764  30.570  26.702  1.00  0.00     0.023 C 
ENDROOT
BRANCH   1   2
ATOM      2  C   UNL A   1      31.524  30.069  25.283  1.00  0.00     0.116 C 
BRANCH   2   3
ATOM      3  N   UNL A   1      32.753  29.565  24.716  1.00  0.00    -0.353 N 
ATOM      4  C   UNL A   1      33.013  28.373  24.120  1.00  0.00     0.264 C 
ATOM      5  O   UNL A   1      34.167  28.239  23.698  1.00  0.00    -0.270 OA
ATOM      6  H   UNL A   1      33.520  30.180  24.771  1.00  0.00     0.163 HD
BRANCH   4   7
ATOM      7  C   UNL A   1      31.919  27.275  23.963  1.00  0.00     0.190 C 
ATOM      8  C   UNL A   1      32.265  24.120  26.660  1.00  0.00     0.224 C 
ATOM      9  O   UNL A   1      31.186  23.982  27.252  1.00  0.00    -0.275 OA
ATOM     10  N   UNL A   1      32.557  25.323  26.048  1.00  0.00    -0.342 N 
ATOM     11  C   UNL A   1      31.820  26.532  26.412  1.00  0.00     0.124 C 
ATOM     12  C   UNL A   1      33.412  25.483  24.897  1.00  0.00     0.124 C 
ATOM     13  C   UNL A   1      31.043  27.089  25.224  1.00  0.00     0.080 C 
ATOM     14  C   UNL A   1      32.636  25.952  23.671  1.00  0.00     0.080 C 
BRANCH   8  15
ATOM     15  C   UNL A   1      33.315  23.009  26.855  1.00  0.00     0.125 C 
BRANCH  15  16
ATOM     16  C   UNL A   1      33.635  21.827  25.937  1.00  0.00     0.091 C 
ATOM     17  O   UNL A   1      32.538  18.495  25.743  1.00  0.00    -0.275 OA
ATOM     18  C   UNL A   1      32.815  19.666  25.532  1.00  0.00     0.220 C 
ATOM     19  C   UNL A   1      32.552  20.424  24.255  1.00  0.00     0.102 C 
ATOM     20  N   UNL A   1      33.375  20.519  26.456  1.00  0.00    -0.353 N 
ATOM     21  C   UNL A   1      32.986  21.862  24.551  1.00  0.00     0.035 C 
ATOM     22  H   UNL A   1      33.576  20.254  27.383  1.00  0.00     0.163 HD
ENDBRANCH  15  16
ENDBRANCH   8  15
BRANCH   7  23
ATOM     23  O   UNL A   1      31.212  27.773  22.797  1.00  0.00    -0.477 OA
BRANCH  23  24
ATOM     24  C   UNL A   1      29.925  28.191  22.951  1.00  0.00     0.120 A 
ATOM     25  C   UNL A   1      28.988  27.278  23.429  1.00  0.00     0.046 A 
ATOM     26  C   UNL A   1      29.513  29.440  22.490  1.00  0.00     0.046 A 
ATOM     27  C   UNL A   1      27.646  27.646  23.520  1.00  0.00     0.004 A 
ATOM     28  C   UNL A   1      28.176  29.816  22.602  1.00  0.00     0.004 A 
ATOM     29  C   UNL A   1      27.242  28.920  23.122  1.00  0.00     0.000 A 
ENDBRANCH  23  24
ENDBRANCH   7  23
ENDBRANCH   4   7
ENDBRANCH   2   3
ENDBRANCH   1   2
BRANCH   1  30
ATOM     30  C   UNL A   1      31.526  32.070  26.879  1.00  0.00     0.023 C 
BRANCH  30  31
ATOM     31  C   UNL A   1      32.773  32.871  27.226  1.00  0.00     0.116 C 
BRANCH  31  32
ATOM     32  N   UNL A   1      32.461  34.221  27.671  1.00  0.00    -0.352 N 
ATOM     33  C   UNL A   1      33.023  34.937  28.698  1.00  0.00     0.251 C 
ATOM     34  H   UNL A   1      31.752  34.683  27.167  1.00  0.00     0.163 HD
ATOM     35  O   UNL A   1      32.541  36.008  29.048  1.00  0.00    -0.269 OA
BRANCH  33  36
ATOM     36  C   UNL A   1      34.197  34.381  29.394  1.00  0.00     0.039 A 
ATOM     37  C   UNL A   1      34.009  33.702  30.598  1.00  0.00     0.014 A 
ATOM     38  C   UNL A   1      35.473  34.498  28.833  1.00  0.00     0.014 A 
ATOM     39  C   UNL A   1      35.098  33.089  31.215  1.00  0.00     0.010 A 
ATOM     40  C   UNL A   1      36.539  33.816  29.405  1.00  0.00     0.010 A 
ATOM     41  C   UNL A   1      36.365  33.114  30.607  1.00  0.00    -0.014 A 
BRANCH  41  42
ATOM     42  C   UNL A   1      37.527  32.430  31.224  1.00  0.00     0.031 A 
ATOM     43  C   UNL A   1      38.088  32.939  32.524  1.00  0.00     0.074 A 
ATOM     44  C   UNL A   1      38.103  31.386  30.597  1.00  0.00     0.049 A 
ATOM     45  N   UNL A   1      39.134  32.522  33.190  1.00  0.00    -0.248 NA
ATOM     46  C   UNL A   1      37.398  34.082  33.147  1.00  0.00     0.031 C 
ATOM     47  C   UNL A   1      37.671  30.817  29.318  1.00  0.00     0.029 A 
ATOM     48  N   UNL A   1      39.183  30.618  30.953  1.00  0.00    -0.354 N 
ATOM     49  C   UNL A   1      39.230  33.353  34.299  1.00  0.00     0.074 A 
ATOM     50  C   UNL A   1      38.177  34.337  34.187  1.00  0.00     0.031 C 
ATOM     51  C   UNL A   1      38.461  29.773  29.012  1.00  0.00     0.029 A 
ATOM     52  C   UNL A   1      39.480  29.628  30.046  1.00  0.00     0.049 A 
ATOM     53  H   UNL A   1      39.698  30.763  31.780  1.00  0.00     0.167 HD
ATOM     54  C   UNL A   1      40.099  33.287  35.335  1.00  0.00     0.031 A 
ATOM     55  C   UNL A   1      40.468  28.714  30.045  1.00  0.00     0.031 A 
ATOM     56  C   UNL A   1      41.141  32.304  35.452  1.00  0.00     0.049 A 
ATOM     57  C   UNL A   1      41.443  28.691  31.192  1.00  0.00     0.074 A 
ATOM     58  C   UNL A   1      42.055  32.136  36.479  1.00  0.00     0.029 A 
ATOM     59  N   UNL A   1      41.405  31.319  34.515  1.00  0.00    -0.354 N 
ATOM     60  N   UNL A   1      41.484  29.449  32.261  1.00  0.00    -0.248 NA
ATOM     61  C   UNL A   1      42.503  27.674  31.136  1.00  0.00     0.031 C 
ATOM     62  C   UNL A   1      42.903  31.080  36.139  1.00  0.00     0.029 A 
ATOM     63  C   UNL A   1      42.478  30.550  34.931  1.00  0.00     0.049 A 
ATOM     64  H   UNL A   1      40.906  31.187  33.677  1.00  0.00     0.167 HD
ATOM     65  C   UNL A   1      42.545  28.975  33.021  1.00  0.00     0.074 A 
ATOM     66  C   UNL A   1      43.110  27.853  32.301  1.00  0.00     0.031 C 
ATOM     67  C   UNL A   1      43.013  29.426  34.210  1.00  0.00     0.031 A 
BRANCH  54  68
ATOM     68  C   UNL A   1      39.952  34.302  36.433  1.00  0.00    -0.014 A 
ATOM     69  C   UNL A   1      39.189  34.022  37.578  1.00  0.00     0.009 A 
ATOM     70  C   UNL A   1      40.629  35.529  36.352  1.00  0.00     0.009 A 
ATOM     71  C   UNL A   1      39.088  34.959  38.609  1.00  0.00     0.001 A 
ATOM     72  C   UNL A   1      40.551  36.451  37.397  1.00  0.00     0.001 A 
ATOM     73  C   UNL A   1      39.776  36.169  38.520  1.00  0.00     0.000 A 
ENDBRANCH  54  68
BRANCH  55  74
ATOM     74  C   UNL A   1      40.600  27.740  28.929  1.00  0.00    -0.014 A 
ATOM     75  C   UNL A   1      41.410  28.029  27.818  1.00  0.00     0.009 A 
ATOM     76  C   UNL A   1      39.872  26.540  28.939  1.00  0.00     0.009 A 
ATOM     77  C   UNL A   1      41.449  27.162  26.724  1.00  0.00     0.001 A 
ATOM     78  C   UNL A   1      39.942  25.657  27.858  1.00  0.00     0.001 A 
ATOM     79  C   UNL A   1      40.717  25.977  26.745  1.00  0.00     0.000 A 
ENDBRANCH  55  74
BRANCH  67  80
ATOM     80  C   UNL A   1      44.151  28.670  34.836  1.00  0.00    -0.014 A 
ATOM     81  C   UNL A   1      45.488  29.029  34.604  1.00  0.00     0.009 A 
ATOM     82  C   UNL A   1      43.874  27.604  35.707  1.00  0.00     0.009 A 
ATOM     83  C   UNL A   1      46.524  28.309  35.202  1.00  0.00     0.001 A 
ATOM     84  C   UNL A   1      44.910  26.909  36.330  1.00  0.00     0.001 A 
ATOM     85  C   UNL A   1      46.235  27.254  36.068  1.00  0.00     0.000 A 
ENDBRANCH  67  80
ENDBRANCH  41  42
ENDBRANCH  33  36
ENDBRANCH  31  32
ENDBRANCH  30  31
ENDBRANCH   1  30
TORSDOF 15
ENDMDL
MODEL 3
REMARK VINA RESULT:     -12.5      0.685      5.796
REMARK SMILES O=C1CC[C@@H](CC(=O)N2CCC(Oc3ccccc3)(C(=O)NCCCCNC(=O)c3ccc(-c4c5nc(c(-c6ccccc6)c6ccc([nH]6)c(-c6ccccc6)c6nc(c(-c7ccccc7)c7ccc4[nH]7)C=C6)C=C5)cc3)CC2)N1
REMARK SMILES IDX 24 1 23 2 22 3 20 4 21 5 12 7 7 8 8 9 9 10 10 11 79 12 11 13
REMARK SMILES IDX 78 14 6 15 5 16 1 17 2 18 3 19 80 20 4 21 13 23 14 24 15 25
REMARK SMILES IDX 19 26 16 27 18 28 17 29 25 30 26 31 27 32 28 33 29 35 30 36
REMARK SMILES IDX 31 37 77 38 32 39 76 40 33 41 34 42 35 43 70 44 36 45 75 46
REMARK SMILES IDX 69 47 71 48 37 49 74 50 68 51 67 52 38 54 60 55 45 56 59 57
REMARK SMILES IDX 46 58 49 59 58 60 72 61 47 62 48 63 57 65 73 66 50 67 39 68
REMARK SMILES IDX 40 69 44 70 41 71 43 72 42 73 61 74 62 75 66 76 63 77 65 78
REMARK SMILES IDX 64 79 51 80 52 81 56 82 53 83 55 84 54 85
REMARK H PARENT 22 6 80 22 27 34 71 53 49 64
REMARK Flexibility Score: inf
ROOT
ATOM      1  C   UNL A   1      36.375  20.111  24.993  1.00  0.00     0.023 C 
ENDROOT
BRANCH   1   2
ATOM      2  C   UNL A   1      36.253  21.627  24.889  1.00  0.00     0.116 C 
BRANCH   2   3
ATOM      3  N   UNL A   1      35.699  22.168  26.108  1.00  0.00    -0.353 N 
ATOM      4  C   UNL A   1      34.459  22.660  26.358  1.00  0.00     0.264 C 
ATOM      5  O   UNL A   1      34.265  23.026  27.522  1.00  0.00    -0.270 OA
ATOM      6  H   UNL A   1      36.316  22.184  26.875  1.00  0.00     0.163 HD
BRANCH   4   7
ATOM      7  C   UNL A   1      33.361  22.726  25.254  1.00  0.00     0.190 C 
ATOM      8  C   UNL A   1      33.620  26.073  22.786  1.00  0.00     0.224 C 
ATOM      9  O   UNL A   1      33.655  25.696  21.607  1.00  0.00    -0.275 OA
ATOM     10  N   UNL A   1      33.961  25.191  23.793  1.00  0.00    -0.342 N 
ATOM     11  C   UNL A   1      34.724  23.982  23.486  1.00  0.00     0.124 C 
ATOM     12  C   UNL A   1      33.454  25.235  25.143  1.00  0.00     0.124 C 
ATOM     13  C   UNL A   1      33.930  22.723  23.816  1.00  0.00     0.080 C 
ATOM     14  C   UNL A   1      32.578  24.028  25.463  1.00  0.00     0.080 C 
BRANCH   8  15
ATOM     15  C   UNL A   1      33.427  27.582  23.032  1.00  0.00     0.125 C 
BRANCH  15  16
ATOM     16  C   UNL A   1      32.136  28.340  23.348  1.00  0.00     0.091 C 
ATOM     17  O   UNL A   1      29.730  30.015  21.412  1.00  0.00    -0.275 OA
ATOM     18  C   UNL A   1      30.332  29.271  22.171  1.00  0.00     0.220 C 
ATOM     19  C   UNL A   1      29.727  28.154  22.984  1.00  0.00     0.102 C 
ATOM     20  N   UNL A   1      31.693  29.292  22.376  1.00  0.00    -0.353 N 
ATOM     21  C   UNL A   1      30.915  27.474  23.670  1.00  0.00     0.035 C 
ATOM     22  H   UNL A   1      32.302  29.902  21.899  1.00  0.00     0.163 HD
ENDBRANCH  15  16
ENDBRANCH   8  15
BRANCH   7  23
ATOM     23  O   UNL A   1      32.570  21.560  25.599  1.00  0.00    -0.477 OA
BRANCH  23  24
ATOM     24  C   UNL A   1      32.673  20.452  24.814  1.00  0.00     0.120 A 
ATOM     25  C   UNL A   1      32.222  20.532  23.499  1.00  0.00     0.046 A 
ATOM     26  C   UNL A   1      33.062  19.225  25.347  1.00  0.00     0.046 A 
ATOM     27  C   UNL A   1      32.237  19.395  22.691  1.00  0.00     0.004 A 
ATOM     28  C   UNL A   1      33.097  18.093  24.535  1.00  0.00     0.004 A 
ATOM     29  C   UNL A   1      32.689  18.180  23.204  1.00  0.00     0.000 A 
ENDBRANCH  23  24
ENDBRANCH   7  23
ENDBRANCH   4   7
ENDBRANCH   2   3
ENDBRANCH   1   2
BRANCH   1  30
ATOM     30  C   UNL A   1      37.789  19.584  24.744  1.00  0.00     0.023 C 
BRANCH  30  31
ATOM     31  C   UNL A   1      38.841  20.123  25.703  1.00  0.00     0.116 C 
BRANCH  31  32
ATOM     32  N   UNL A   1      40.026  19.280  25.759  1.00  0.00    -0.352 N 
ATOM     33  C   UNL A   1      41.311  19.629  26.092  1.00  0.00     0.251 C 
ATOM     34  H   UNL A   1      39.888  18.334  25.526  1.00  0.00     0.163 HD
ATOM     35  O   UNL A   1      42.232  18.835  25.939  1.00  0.00    -0.269 OA
BRANCH  33  36
ATOM     36  C   UNL A   1      41.570  20.985  26.608  1.00  0.00     0.039 A 
ATOM     37  C   UNL A   1      41.464  21.216  27.980  1.00  0.00     0.014 A 
ATOM     38  C   UNL A   1      41.957  22.010  25.740  1.00  0.00     0.014 A 
ATOM     39  C   UNL A   1      41.800  22.468  28.491  1.00  0.00     0.010 A 
ATOM     40  C   UNL A   1      42.373  23.229  26.261  1.00  0.00     0.010 A 
ATOM     41  C   UNL A   1      42.289  23.474  27.640  1.00  0.00    -0.014 A 
BRANCH  41  42
ATOM     42  C   UNL A   1      42.696  24.798  28.169  1.00  0.00     0.031 A 
ATOM     43  C   UNL A   1      41.662  25.876  28.357  1.00  0.00     0.074 A 
ATOM     44  C   UNL A   1      43.993  25.045  28.436  1.00  0.00     0.049 A 
ATOM     45  N   UNL A   1      41.825  27.115  28.745  1.00  0.00    -0.248 NA
ATOM     46  C   UNL A   1      40.266  25.523  28.046  1.00  0.00     0.031 C 
ATOM     47  C   UNL A   1      45.094  24.094  28.267  1.00  0.00     0.029 A 
ATOM     48  N   UNL A   1      44.606  26.180  28.904  1.00  0.00    -0.354 N 
ATOM     49  C   UNL A   1      40.559  27.687  28.716  1.00  0.00     0.074 A 
ATOM     50  C   UNL A   1      39.648  26.682  28.214  1.00  0.00     0.031 C 
ATOM     51  C   UNL A   1      46.242  24.675  28.654  1.00  0.00     0.029 A 
ATOM     52  C   UNL A   1      45.966  26.052  29.053  1.00  0.00     0.049 A 
ATOM     53  H   UNL A   1      44.117  27.009  29.114  1.00  0.00     0.167 HD
ATOM     54  C   UNL A   1      40.182  28.928  29.101  1.00  0.00     0.031 A 
ATOM     55  C   UNL A   1      46.888  26.946  29.456  1.00  0.00     0.031 A 
ATOM     56  C   UNL A   1      41.084  29.925  29.608  1.00  0.00     0.049 A 
ATOM     57  C   UNL A   1      46.442  28.332  29.840  1.00  0.00     0.074 A 
ATOM     58  C   UNL A   1      40.794  31.204  30.052  1.00  0.00     0.029 A 
ATOM     59  N   UNL A   1      42.452  29.754  29.745  1.00  0.00    -0.354 N 
ATOM     60  N   UNL A   1      45.232  28.838  29.860  1.00  0.00    -0.248 NA
ATOM     61  C   UNL A   1      47.492  29.268  30.269  1.00  0.00     0.031 C 
ATOM     62  C   UNL A   1      41.993  31.823  30.412  1.00  0.00     0.029 A 
ATOM     63  C   UNL A   1      43.022  30.909  30.252  1.00  0.00     0.049 A 
ATOM     64  H   UNL A   1      42.945  28.933  29.515  1.00  0.00     0.167 HD
ATOM     65  C   UNL A   1      45.372  30.133  30.341  1.00  0.00     0.074 A 
ATOM     66  C   UNL A   1      46.780  30.330  30.618  1.00  0.00     0.031 C 
ATOM     67  C   UNL A   1      44.421  31.079  30.538  1.00  0.00     0.031 A 
BRANCH  54  68
ATOM     68  C   UNL A   1      38.723  29.276  28.998  1.00  0.00    -0.014 A 
ATOM     69  C   UNL A   1      38.173  29.729  27.787  1.00  0.00     0.009 A 
ATOM     70  C   UNL A   1      37.877  29.095  30.102  1.00  0.00     0.009 A 
ATOM     71  C   UNL A   1      36.809  30.016  27.694  1.00  0.00     0.001 A 
ATOM     72  C   UNL A   1      36.509  29.353  29.997  1.00  0.00     0.001 A 
ATOM     73  C   UNL A   1      35.978  29.821  28.796  1.00  0.00     0.000 A 
ENDBRANCH  54  68
BRANCH  55  74
ATOM     74  C   UNL A   1      48.327  26.576  29.522  1.00  0.00    -0.014 A 
ATOM     75  C   UNL A   1      49.170  26.781  28.417  1.00  0.00     0.009 A 
ATOM     76  C   UNL A   1      48.855  25.964  30.669  1.00  0.00     0.009 A 
ATOM     77  C   UNL A   1      50.494  26.336  28.443  1.00  0.00     0.001 A 
ATOM     78  C   UNL A   1      50.190  25.553  30.705  1.00  0.00     0.001 A 
ATOM     79  C   UNL A   1      51.003  25.724  29.586  1.00  0.00     0.000 A 
ENDBRANCH  55  74
BRANCH  67  80
ATOM     80  C   UNL A   1      44.861  32.386  31.135  1.00  0.00    -0.014 A 
ATOM     81  C   UNL A   1      44.910  32.581  32.524  1.00  0.00     0.009 A 
ATOM     82  C   UNL A   1      45.274  33.427  30.287  1.00  0.00     0.009 A 
ATOM     83  C   UNL A   1      45.326  33.806  33.049  1.00  0.00     0.001 A 
ATOM     84  C   UNL A   1      45.722  34.637  30.816  1.00  0.00     0.001 A 
ATOM     85  C   UNL A   1      45.737  34.830  32.196  1.00  0.00     0.000 A 
ENDBRANCH  67  80
ENDBRANCH  41  42
ENDBRANCH  33  36
ENDBRANCH  31  32
ENDBRANCH  30  31
ENDBRANCH   1  30
TORSDOF 15
ENDMDL
