MODEL 1
REMARK VINA RESULT:     -10.8      0.000      0.000
REMARK SMILES O=C(COc1ccc(S(=O)(=O)N2CCC(O)CC2)cc1)NCCCCNC(=O)c1ccc(-c2c3nc(c(-c4ccccc4)c4ccc([nH]4)c(-c4ccccc4)c4nc(c(-c5ccccc5)c5ccc2[nH]5)C=C4)C=C3)cc1
REMARK SMILES IDX 22 1 21 2 1 3 2 4 3 6 4 7 5 8 6 9 20 10 7 11 19 12 8 13 9 14
REMARK SMILES IDX 10 15 11 16 12 17 13 18 18 19 14 20 17 21 15 22 16 23 23 25
REMARK SMILES IDX 24 26 25 27 26 28 27 29 28 31 29 32 30 33 76 34 31 35 75 36
REMARK SMILES IDX 32 37 33 38 34 39 69 40 35 41 74 42 68 43 70 44 36 45 73 46
REMARK SMILES IDX 67 47 66 48 37 50 59 51 44 52 58 53 45 54 48 55 57 56 71 57
REMARK SMILES IDX 46 58 47 59 56 61 72 62 49 63 38 64 39 65 43 66 40 67 42 68
REMARK SMILES IDX 41 69 60 70 61 71 65 72 62 73 64 74 63 75 50 76 51 77 55 78
REMARK SMILES IDX 52 79 54 80 53 81
REMARK H PARENT 21 5 16 24 26 30 70 49 48 60
REMARK Flexibility Score: inf
ROOT
ATOM      1  C   UNL A   1      35.302  33.320  28.148  1.00  0.00     0.116 C 
ENDROOT
BRANCH   1   2
ATOM      2  N   UNL A   1      35.448  31.879  28.052  1.00  0.00    -0.353 N 
ATOM      3  O   UNL A   1      33.275  31.465  27.426  1.00  0.00    -0.271 OA
ATOM      4  C   UNL A   1      34.428  31.072  27.581  1.00  0.00     0.257 C 
ATOM      5  H   UNL A   1      36.297  31.465  28.329  1.00  0.00     0.163 HD
BRANCH   4   6
ATOM      6  C   UNL A   1      34.863  29.645  27.204  1.00  0.00     0.329 C 
BRANCH   6   7
ATOM      7  O   UNL A   1      34.027  28.557  27.602  1.00  0.00    -0.484 OA
BRANCH   7   8
ATOM      8  C   UNL A   1      33.240  28.036  26.608  1.00  0.00     0.120 A 
ATOM      9  C   UNL A   1      33.813  27.810  25.355  1.00  0.00     0.048 A 
ATOM     10  C   UNL A   1      31.872  27.849  26.764  1.00  0.00     0.048 A 
ATOM     11  C   UNL A   1      33.020  27.372  24.279  1.00  0.00     0.025 A 
ATOM     12  C   UNL A   1      31.083  27.431  25.702  1.00  0.00     0.025 A 
ATOM     13  C   UNL A   1      31.643  27.186  24.457  1.00  0.00     0.082 A 
BRANCH  13  14
ATOM     14  S   UNL A   1      30.651  26.657  23.069  1.00  0.00     0.243 S 
ATOM     15  O   UNL A   1      31.581  26.369  21.995  1.00  0.00    -0.207 OA
ATOM     16  O   UNL A   1      29.747  25.651  23.582  1.00  0.00    -0.207 OA
BRANCH  14  17
ATOM     17  N   UNL A   1      29.698  28.008  22.585  1.00  0.00    -0.198 NA
ATOM     18  C   UNL A   1      30.448  29.257  22.281  1.00  0.00     0.105 C 
ATOM     19  C   UNL A   1      28.362  28.114  23.222  1.00  0.00     0.105 C 
ATOM     20  C   UNL A   1      29.557  30.360  21.732  1.00  0.00     0.048 C 
ATOM     21  C   UNL A   1      27.535  29.280  22.699  1.00  0.00     0.048 C 
ATOM     22  C   UNL A   1      28.326  30.577  22.593  1.00  0.00     0.117 C 
BRANCH  22  23
ATOM     23  O   UNL A   1      28.716  31.102  23.860  1.00  0.00    -0.393 OA
ATOM     24  H   UNL A   1      29.684  31.145  23.908  1.00  0.00     0.210 HD
ENDBRANCH  22  23
ENDBRANCH  14  17
ENDBRANCH  13  14
ENDBRANCH   7   8
ENDBRANCH   6   7
ENDBRANCH   4   6
ENDBRANCH   1   2
BRANCH   1  25
ATOM     25  C   UNL A   1      34.541  33.767  29.390  1.00  0.00     0.023 C 
BRANCH  25  26
ATOM     26  C   UNL A   1      33.320  34.642  29.108  1.00  0.00     0.023 C 
BRANCH  26  27
ATOM     27  C   UNL A   1      33.369  36.047  29.700  1.00  0.00     0.116 C 
BRANCH  27  28
ATOM     28  N   UNL A   1      32.455  36.229  30.816  1.00  0.00    -0.352 N 
ATOM     29  C   UNL A   1      32.544  35.761  32.107  1.00  0.00     0.251 C 
ATOM     30  H   UNL A   1      31.654  36.767  30.620  1.00  0.00     0.163 HD
ATOM     31  O   UNL A   1      31.597  35.896  32.876  1.00  0.00    -0.269 OA
BRANCH  29  32
ATOM     32  C   UNL A   1      33.766  35.061  32.564  1.00  0.00     0.039 A 
ATOM     33  C   UNL A   1      33.657  33.741  33.012  1.00  0.00     0.014 A 
ATOM     34  C   UNL A   1      35.011  35.693  32.552  1.00  0.00     0.014 A 
ATOM     35  C   UNL A   1      34.807  33.034  33.374  1.00  0.00     0.010 A 
ATOM     36  C   UNL A   1      36.164  34.963  32.836  1.00  0.00     0.010 A 
ATOM     37  C   UNL A   1      36.075  33.624  33.248  1.00  0.00    -0.014 A 
BRANCH  37  38
ATOM     38  C   UNL A   1      37.315  32.853  33.527  1.00  0.00     0.031 A 
ATOM     39  C   UNL A   1      38.096  33.094  34.791  1.00  0.00     0.074 A 
ATOM     40  C   UNL A   1      37.777  31.975  32.614  1.00  0.00     0.049 A 
ATOM     41  N   UNL A   1      39.227  32.558  35.179  1.00  0.00    -0.248 NA
ATOM     42  C   UNL A   1      37.547  34.084  35.732  1.00  0.00     0.031 C 
ATOM     43  C   UNL A   1      37.139  31.672  31.332  1.00  0.00     0.029 A 
ATOM     44  N   UNL A   1      38.896  31.180  32.623  1.00  0.00    -0.354 N 
ATOM     45  C   UNL A   1      39.528  33.152  36.399  1.00  0.00     0.074 A 
ATOM     46  C   UNL A   1      38.493  34.129  36.659  1.00  0.00     0.031 C 
ATOM     47  C   UNL A   1      37.859  30.738  30.691  1.00  0.00     0.029 A 
ATOM     48  C   UNL A   1      39.035  30.411  31.492  1.00  0.00     0.049 A 
ATOM     49  H   UNL A   1      39.539  31.162  33.368  1.00  0.00     0.167 HD
ATOM     50  C   UNL A   1      40.560  32.894  37.238  1.00  0.00     0.031 A 
ATOM     51  C   UNL A   1      40.003  29.547  31.132  1.00  0.00     0.031 A 
ATOM     52  C   UNL A   1      41.592  31.926  36.980  1.00  0.00     0.049 A 
ATOM     53  C   UNL A   1      41.158  29.305  32.064  1.00  0.00     0.074 A 
ATOM     54  C   UNL A   1      42.653  31.561  37.790  1.00  0.00     0.029 A 
ATOM     55  N   UNL A   1      41.697  31.171  35.821  1.00  0.00    -0.354 N 
ATOM     56  N   UNL A   1      41.392  29.826  33.245  1.00  0.00    -0.248 NA
ATOM     57  C   UNL A   1      42.178  28.346  31.617  1.00  0.00     0.031 C 
ATOM     58  C   UNL A   1      43.436  30.634  37.095  1.00  0.00     0.029 A 
ATOM     59  C   UNL A   1      42.823  30.367  35.883  1.00  0.00     0.049 A 
ATOM     60  H   UNL A   1      41.066  31.204  35.067  1.00  0.00     0.167 HD
ATOM     61  C   UNL A   1      42.566  29.236  33.694  1.00  0.00     0.074 A 
ATOM     62  C   UNL A   1      42.987  28.305  32.668  1.00  0.00     0.031 C 
ATOM     63  C   UNL A   1      43.235  29.446  34.854  1.00  0.00     0.031 A 
BRANCH  50  64
ATOM     64  C   UNL A   1      40.627  33.687  38.516  1.00  0.00    -0.014 A 
ATOM     65  C   UNL A   1      41.342  34.894  38.589  1.00  0.00     0.009 A 
ATOM     66  C   UNL A   1      39.936  33.241  39.654  1.00  0.00     0.009 A 
ATOM     67  C   UNL A   1      41.398  35.614  39.785  1.00  0.00     0.001 A 
ATOM     68  C   UNL A   1      39.966  33.980  40.838  1.00  0.00     0.001 A 
ATOM     69  C   UNL A   1      40.706  35.159  40.906  1.00  0.00     0.000 A 
ENDBRANCH  50  64
BRANCH  51  70
ATOM     70  C   UNL A   1      39.923  28.841  29.825  1.00  0.00    -0.014 A 
ATOM     71  C   UNL A   1      39.410  27.536  29.747  1.00  0.00     0.009 A 
ATOM     72  C   UNL A   1      40.372  29.462  28.649  1.00  0.00     0.009 A 
ATOM     73  C   UNL A   1      39.376  26.860  28.525  1.00  0.00     0.001 A 
ATOM     74  C   UNL A   1      40.305  28.797  27.423  1.00  0.00     0.001 A 
ATOM     75  C   UNL A   1      39.818  27.492  27.364  1.00  0.00     0.000 A 
ENDBRANCH  51  70
BRANCH  63  76
ATOM     76  C   UNL A   1      44.473  28.625  35.096  1.00  0.00    -0.014 A 
ATOM     77  C   UNL A   1      44.410  27.368  35.716  1.00  0.00     0.009 A 
ATOM     78  C   UNL A   1      45.718  29.104  34.659  1.00  0.00     0.009 A 
ATOM     79  C   UNL A   1      45.574  26.625  35.927  1.00  0.00     0.001 A 
ATOM     80  C   UNL A   1      46.875  28.346  34.839  1.00  0.00     0.001 A 
ATOM     81  C   UNL A   1      46.803  27.112  35.483  1.00  0.00     0.000 A 
ENDBRANCH  63  76
ENDBRANCH  37  38
ENDBRANCH  29  32
ENDBRANCH  27  28
ENDBRANCH  26  27
ENDBRANCH  25  26
ENDBRANCH   1  25
TORSDOF 16
ENDMDL
MODEL 2
REMARK VINA RESULT:     -10.6      4.351      6.930
REMARK SMILES O=C(COc1ccc(S(=O)(=O)N2CCC(O)CC2)cc1)NCCCCNC(=O)c1ccc(-c2c3nc(c(-c4ccccc4)c4ccc([nH]4)c(-c4ccccc4)c4nc(c(-c5ccccc5)c5ccc2[nH]5)C=C4)C=C3)cc1
REMARK SMILES IDX 22 1 21 2 1 3 2 4 3 6 4 7 5 8 6 9 20 10 7 11 19 12 8 13 9 14
REMARK SMILES IDX 10 15 11 16 12 17 13 18 18 19 14 20 17 21 15 22 16 23 23 25
REMARK SMILES IDX 24 26 25 27 26 28 27 29 28 31 29 32 30 33 76 34 31 35 75 36
REMARK SMILES IDX 32 37 33 38 34 39 69 40 35 41 74 42 68 43 70 44 36 45 73 46
REMARK SMILES IDX 67 47 66 48 37 50 59 51 44 52 58 53 45 54 48 55 57 56 71 57
REMARK SMILES IDX 46 58 47 59 56 61 72 62 49 63 38 64 39 65 43 66 40 67 42 68
REMARK SMILES IDX 41 69 60 70 61 71 65 72 62 73 64 74 63 75 50 76 51 77 55 78
REMARK SMILES IDX 52 79 54 80 53 81
REMARK H PARENT 21 5 16 24 26 30 70 49 48 60
REMARK Flexibility Score: inf
ROOT
ATOM      1  C   UNL A   1      33.175  28.728  23.409  1.00  0.00     0.116 C 
ENDROOT
BRANCH   1   2
ATOM      2  N   UNL A   1      31.734  28.864  23.503  1.00  0.00    -0.353 N 
ATOM      3  O   UNL A   1      31.252  27.481  21.731  1.00  0.00    -0.271 OA
ATOM      4  C   UNL A   1      30.877  28.125  22.708  1.00  0.00     0.257 C 
ATOM      5  H   UNL A   1      31.355  29.500  24.151  1.00  0.00     0.163 HD
BRANCH   4   6
ATOM      6  C   UNL A   1      29.412  28.118  23.178  1.00  0.00     0.329 C 
BRANCH   6   7
ATOM      7  O   UNL A   1      28.798  26.858  23.456  1.00  0.00    -0.484 OA
BRANCH   7   8
ATOM      8  C   UNL A   1      29.600  25.951  24.097  1.00  0.00     0.120 A 
ATOM      9  C   UNL A   1      30.048  24.837  23.382  1.00  0.00     0.048 A 
ATOM     10  C   UNL A   1      29.875  26.030  25.457  1.00  0.00     0.048 A 
ATOM     11  C   UNL A   1      30.789  23.831  24.026  1.00  0.00     0.025 A 
ATOM     12  C   UNL A   1      30.592  25.033  26.099  1.00  0.00     0.025 A 
ATOM     13  C   UNL A   1      31.058  23.930  25.398  1.00  0.00     0.082 A 
BRANCH  13  14
ATOM     14  S   UNL A   1      31.977  22.625  26.201  1.00  0.00     0.243 S 
ATOM     15  O   UNL A   1      31.928  22.913  27.620  1.00  0.00    -0.207 OA
ATOM     16  O   UNL A   1      31.469  21.385  25.659  1.00  0.00    -0.207 OA
BRANCH  14  17
ATOM     17  N   UNL A   1      33.617  22.777  25.694  1.00  0.00    -0.198 NA
ATOM     18  C   UNL A   1      34.106  24.167  25.485  1.00  0.00     0.105 C 
ATOM     19  C   UNL A   1      34.115  21.701  24.801  1.00  0.00     0.105 C 
ATOM     20  C   UNL A   1      35.593  24.226  25.173  1.00  0.00     0.048 C 
ATOM     21  C   UNL A   1      35.590  21.845  24.451  1.00  0.00     0.048 C 
ATOM     22  C   UNL A   1      35.979  23.265  24.063  1.00  0.00     0.117 C 
BRANCH  22  23
ATOM     23  O   UNL A   1      35.392  23.693  22.835  1.00  0.00    -0.393 OA
ATOM     24  H   UNL A   1      35.755  24.558  22.588  1.00  0.00     0.210 HD
ENDBRANCH  22  23
ENDBRANCH  14  17
ENDBRANCH  13  14
ENDBRANCH   7   8
ENDBRANCH   6   7
ENDBRANCH   4   6
ENDBRANCH   1   2
BRANCH   1  25
ATOM     25  C   UNL A   1      33.832  28.344  24.729  1.00  0.00     0.023 C 
BRANCH  25  26
ATOM     26  C   UNL A   1      32.880  28.299  25.924  1.00  0.00     0.023 C 
BRANCH  26  27
ATOM     27  C   UNL A   1      33.520  28.571  27.282  1.00  0.00     0.116 C 
BRANCH  27  28
ATOM     28  N   UNL A   1      33.550  29.983  27.628  1.00  0.00    -0.352 N 
ATOM     29  C   UNL A   1      34.560  30.725  28.194  1.00  0.00     0.251 C 
ATOM     30  H   UNL A   1      32.725  30.482  27.427  1.00  0.00     0.163 HD
ATOM     31  O   UNL A   1      34.349  31.881  28.548  1.00  0.00    -0.269 OA
BRANCH  29  32
ATOM     32  C   UNL A   1      35.895  30.123  28.412  1.00  0.00     0.039 A 
ATOM     33  C   UNL A   1      36.816  30.131  27.361  1.00  0.00     0.014 A 
ATOM     34  C   UNL A   1      36.244  29.557  29.640  1.00  0.00     0.014 A 
ATOM     35  C   UNL A   1      38.109  29.641  27.566  1.00  0.00     0.010 A 
ATOM     36  C   UNL A   1      37.555  29.143  29.867  1.00  0.00     0.010 A 
ATOM     37  C   UNL A   1      38.503  29.182  28.833  1.00  0.00    -0.014 A 
BRANCH  37  38
ATOM     38  C   UNL A   1      39.903  28.756  29.097  1.00  0.00     0.031 A 
ATOM     39  C   UNL A   1      40.883  29.706  29.733  1.00  0.00     0.074 A 
ATOM     40  C   UNL A   1      40.315  27.533  28.709  1.00  0.00     0.049 A 
ATOM     41  N   UNL A   1      42.155  29.531  29.990  1.00  0.00    -0.248 NA
ATOM     42  C   UNL A   1      40.372  31.033  30.109  1.00  0.00     0.031 C 
ATOM     43  C   UNL A   1      39.479  26.527  28.049  1.00  0.00     0.029 A 
ATOM     44  N   UNL A   1      41.543  26.928  28.809  1.00  0.00    -0.354 N 
ATOM     45  C   UNL A   1      42.597  30.726  30.545  1.00  0.00     0.074 A 
ATOM     46  C   UNL A   1      41.473  31.636  30.535  1.00  0.00     0.031 C 
ATOM     47  C   UNL A   1      40.210  25.423  27.830  1.00  0.00     0.029 A 
ATOM     48  C   UNL A   1      41.577  25.657  28.287  1.00  0.00     0.049 A 
ATOM     49  H   UNL A   1      42.327  27.364  29.215  1.00  0.00     0.167 HD
ATOM     50  C   UNL A   1      43.821  31.033  31.038  1.00  0.00     0.031 A 
ATOM     51  C   UNL A   1      42.593  24.780  28.177  1.00  0.00     0.031 A 
ATOM     52  C   UNL A   1      44.942  30.131  31.045  1.00  0.00     0.049 A 
ATOM     53  C   UNL A   1      43.951  25.158  28.698  1.00  0.00     0.074 A 
ATOM     54  C   UNL A   1      46.208  30.335  31.564  1.00  0.00     0.029 A 
ATOM     55  N   UNL A   1      44.933  28.854  30.504  1.00  0.00    -0.354 N 
ATOM     56  N   UNL A   1      44.334  26.268  29.282  1.00  0.00    -0.248 NA
ATOM     57  C   UNL A   1      45.016  24.155  28.555  1.00  0.00     0.031 C 
ATOM     58  C   UNL A   1      46.985  29.208  31.279  1.00  0.00     0.029 A 
ATOM     59  C   UNL A   1      46.182  28.273  30.648  1.00  0.00     0.049 A 
ATOM     60  H   UNL A   1      44.156  28.426  30.079  1.00  0.00     0.167 HD
ATOM     61  C   UNL A   1      45.673  26.086  29.603  1.00  0.00     0.074 A 
ATOM     62  C   UNL A   1      46.031  24.752  29.166  1.00  0.00     0.031 C 
ATOM     63  C   UNL A   1      46.529  26.946  30.206  1.00  0.00     0.031 A 
BRANCH  50  64
ATOM     64  C   UNL A   1      44.012  32.416  31.602  1.00  0.00    -0.014 A 
ATOM     65  C   UNL A   1      44.425  33.485  30.789  1.00  0.00     0.009 A 
ATOM     66  C   UNL A   1      43.742  32.663  32.957  1.00  0.00     0.009 A 
ATOM     67  C   UNL A   1      44.603  34.760  31.330  1.00  0.00     0.001 A 
ATOM     68  C   UNL A   1      43.888  33.945  33.488  1.00  0.00     0.001 A 
ATOM     69  C   UNL A   1      44.330  34.990  32.678  1.00  0.00     0.000 A 
ENDBRANCH  50  64
BRANCH  51  70
ATOM     70  C   UNL A   1      42.365  23.451  27.548  1.00  0.00    -0.014 A 
ATOM     71  C   UNL A   1      42.636  23.249  26.185  1.00  0.00     0.009 A 
ATOM     72  C   UNL A   1      41.863  22.380  28.303  1.00  0.00     0.009 A 
ATOM     73  C   UNL A   1      42.381  22.012  25.587  1.00  0.00     0.001 A 
ATOM     74  C   UNL A   1      41.641  21.135  27.711  1.00  0.00     0.001 A 
ATOM     75  C   UNL A   1      41.889  20.955  26.351  1.00  0.00     0.000 A 
ENDBRANCH  51  70
BRANCH  63  76
ATOM     76  C   UNL A   1      47.928  26.458  30.469  1.00  0.00    -0.014 A 
ATOM     77  C   UNL A   1      48.264  25.797  31.660  1.00  0.00     0.009 A 
ATOM     78  C   UNL A   1      48.917  26.630  29.487  1.00  0.00     0.009 A 
ATOM     79  C   UNL A   1      49.570  25.352  31.877  1.00  0.00     0.001 A 
ATOM     80  C   UNL A   1      50.212  26.154  29.691  1.00  0.00     0.001 A 
ATOM     81  C   UNL A   1      50.541  25.525  30.891  1.00  0.00     0.000 A 
ENDBRANCH  63  76
ENDBRANCH  37  38
ENDBRANCH  29  32
ENDBRANCH  27  28
ENDBRANCH  26  27
ENDBRANCH  25  26
ENDBRANCH   1  25
TORSDOF 16
ENDMDL
MODEL 3
REMARK VINA RESULT:     -10.4      1.441      2.530
REMARK SMILES O=C(COc1ccc(S(=O)(=O)N2CCC(O)CC2)cc1)NCCCCNC(=O)c1ccc(-c2c3nc(c(-c4ccccc4)c4ccc([nH]4)c(-c4ccccc4)c4nc(c(-c5ccccc5)c5ccc2[nH]5)C=C4)C=C3)cc1
REMARK SMILES IDX 22 1 21 2 1 3 2 4 3 6 4 7 5 8 6 9 20 10 7 11 19 12 8 13 9 14
REMARK SMILES IDX 10 15 11 16 12 17 13 18 18 19 14 20 17 21 15 22 16 23 23 25
REMARK SMILES IDX 24 26 25 27 26 28 27 29 28 31 29 32 30 33 76 34 31 35 75 36
REMARK SMILES IDX 32 37 33 38 34 39 69 40 35 41 74 42 68 43 70 44 36 45 73 46
REMARK SMILES IDX 67 47 66 48 37 50 59 51 44 52 58 53 45 54 48 55 57 56 71 57
REMARK SMILES IDX 46 58 47 59 56 61 72 62 49 63 38 64 39 65 43 66 40 67 42 68
REMARK SMILES IDX 41 69 60 70 61 71 65 72 62 73 64 74 63 75 50 76 51 77 55 78
REMARK SMILES IDX 52 79 54 80 53 81
REMARK H PARENT 21 5 16 24 26 30 70 49 48 60
REMARK Flexibility Score: inf
ROOT
ATOM      1  C   UNL A   1      34.781  34.306  29.035  1.00  0.00     0.116 C 
ENDROOT
BRANCH   1   2
ATOM      2  N   UNL A   1      34.216  33.136  28.390  1.00  0.00    -0.353 N 
ATOM      3  O   UNL A   1      36.228  32.113  27.959  1.00  0.00    -0.271 OA
ATOM      4  C   UNL A   1      35.001  32.067  28.000  1.00  0.00     0.257 C 
ATOM      5  H   UNL A   1      33.246  33.101  28.227  1.00  0.00     0.163 HD
BRANCH   4   6
ATOM      6  C   UNL A   1      34.220  30.782  27.675  1.00  0.00     0.329 C 
BRANCH   6   7
ATOM      7  O   UNL A   1      33.001  30.901  26.939  1.00  0.00    -0.484 OA
BRANCH   7   8
ATOM      8  C   UNL A   1      32.475  29.718  26.491  1.00  0.00     0.120 A 
ATOM      9  C   UNL A   1      31.842  29.699  25.246  1.00  0.00     0.048 A 
ATOM     10  C   UNL A   1      32.436  28.575  27.281  1.00  0.00     0.048 A 
ATOM     11  C   UNL A   1      31.201  28.532  24.793  1.00  0.00     0.025 A 
ATOM     12  C   UNL A   1      31.793  27.427  26.844  1.00  0.00     0.025 A 
ATOM     13  C   UNL A   1      31.174  27.389  25.602  1.00  0.00     0.082 A 
BRANCH  13  14
ATOM     14  S   UNL A   1      30.331  25.928  25.017  1.00  0.00     0.243 S 
ATOM     15  O   UNL A   1      29.792  25.276  26.193  1.00  0.00    -0.207 OA
ATOM     16  O   UNL A   1      29.479  26.364  23.932  1.00  0.00    -0.207 OA
BRANCH  14  17
ATOM     17  N   UNL A   1      31.529  24.887  24.347  1.00  0.00    -0.198 NA
ATOM     18  C   UNL A   1      32.766  25.553  23.855  1.00  0.00     0.105 C 
ATOM     19  C   UNL A   1      31.015  23.703  23.615  1.00  0.00     0.105 C 
ATOM     20  C   UNL A   1      33.828  24.563  23.405  1.00  0.00     0.048 C 
ATOM     21  C   UNL A   1      32.118  22.780  23.114  1.00  0.00     0.048 C 
ATOM     22  C   UNL A   1      33.268  23.524  22.450  1.00  0.00     0.117 C 
BRANCH  22  23
ATOM     23  O   UNL A   1      32.899  24.153  21.224  1.00  0.00    -0.393 OA
ATOM     24  H   UNL A   1      33.246  25.058  21.208  1.00  0.00     0.210 HD
ENDBRANCH  22  23
ENDBRANCH  14  17
ENDBRANCH  13  14
ENDBRANCH   7   8
ENDBRANCH   6   7
ENDBRANCH   4   6
ENDBRANCH   1   2
BRANCH   1  25
ATOM     25  C   UNL A   1      34.396  35.614  28.355  1.00  0.00     0.023 C 
BRANCH  25  26
ATOM     26  C   UNL A   1      33.363  36.446  29.113  1.00  0.00     0.023 C 
BRANCH  26  27
ATOM     27  C   UNL A   1      32.477  35.668  30.081  1.00  0.00     0.116 C 
BRANCH  27  28
ATOM     28  N   UNL A   1      32.234  36.374  31.328  1.00  0.00    -0.352 N 
ATOM     29  C   UNL A   1      32.839  36.220  32.554  1.00  0.00     0.251 C 
ATOM     30  H   UNL A   1      31.533  37.065  31.290  1.00  0.00     0.163 HD
ATOM     31  O   UNL A   1      32.398  36.812  33.535  1.00  0.00    -0.269 OA
BRANCH  29  32
ATOM     32  C   UNL A   1      34.001  35.315  32.704  1.00  0.00     0.039 A 
ATOM     33  C   UNL A   1      35.259  35.761  32.291  1.00  0.00     0.014 A 
ATOM     34  C   UNL A   1      33.858  34.037  33.249  1.00  0.00     0.014 A 
ATOM     35  C   UNL A   1      36.383  34.956  32.495  1.00  0.00     0.010 A 
ATOM     36  C   UNL A   1      34.989  33.270  33.526  1.00  0.00     0.010 A 
ATOM     37  C   UNL A   1      36.264  33.721  33.153  1.00  0.00    -0.014 A 
BRANCH  37  38
ATOM     38  C   UNL A   1      37.462  32.900  33.473  1.00  0.00     0.031 A 
ATOM     39  C   UNL A   1      38.235  33.140  34.742  1.00  0.00     0.074 A 
ATOM     40  C   UNL A   1      37.893  31.975  32.593  1.00  0.00     0.049 A 
ATOM     41  N   UNL A   1      39.332  32.562  35.163  1.00  0.00    -0.248 NA
ATOM     42  C   UNL A   1      37.721  34.181  35.646  1.00  0.00     0.031 C 
ATOM     43  C   UNL A   1      37.260  31.665  31.309  1.00  0.00     0.029 A 
ATOM     44  N   UNL A   1      38.972  31.128  32.641  1.00  0.00    -0.354 N 
ATOM     45  C   UNL A   1      39.644  33.175  36.370  1.00  0.00     0.074 A 
ATOM     46  C   UNL A   1      38.654  34.207  36.586  1.00  0.00     0.031 C 
ATOM     47  C   UNL A   1      37.944  30.681  30.707  1.00  0.00     0.029 A 
ATOM     48  C   UNL A   1      39.091  30.321  31.535  1.00  0.00     0.049 A 
ATOM     49  H   UNL A   1      39.603  31.101  33.397  1.00  0.00     0.167 HD
ATOM     50  C   UNL A   1      40.650  32.893  37.232  1.00  0.00     0.031 A 
ATOM     51  C   UNL A   1      40.021  29.401  31.215  1.00  0.00     0.031 A 
ATOM     52  C   UNL A   1      41.638  31.869  37.017  1.00  0.00     0.049 A 
ATOM     53  C   UNL A   1      41.150  29.132  32.171  1.00  0.00     0.074 A 
ATOM     54  C   UNL A   1      42.669  31.478  37.854  1.00  0.00     0.029 A 
ATOM     55  N   UNL A   1      41.724  31.078  35.882  1.00  0.00    -0.354 N 
ATOM     56  N   UNL A   1      41.391  29.675  33.340  1.00  0.00    -0.248 NA
ATOM     57  C   UNL A   1      42.129  28.113  31.767  1.00  0.00     0.031 C 
ATOM     58  C   UNL A   1      43.417  30.495  37.198  1.00  0.00     0.029 A 
ATOM     59  C   UNL A   1      42.809  30.222  35.984  1.00  0.00     0.049 A 
ATOM     60  H   UNL A   1      41.106  31.119  35.117  1.00  0.00     0.167 HD
ATOM     61  C   UNL A   1      42.529  29.043  33.824  1.00  0.00     0.074 A 
ATOM     62  C   UNL A   1      42.919  28.063  32.831  1.00  0.00     0.031 C 
ATOM     63  C   UNL A   1      43.190  29.254  34.988  1.00  0.00     0.031 A 
BRANCH  50  64
ATOM     64  C   UNL A   1      40.737  33.718  38.488  1.00  0.00    -0.014 A 
ATOM     65  C   UNL A   1      40.083  33.323  39.667  1.00  0.00     0.009 A 
ATOM     66  C   UNL A   1      41.513  34.888  38.505  1.00  0.00     0.009 A 
ATOM     67  C   UNL A   1      40.170  34.104  40.823  1.00  0.00     0.001 A 
ATOM     68  C   UNL A   1      41.625  35.649  39.670  1.00  0.00     0.001 A 
ATOM     69  C   UNL A   1      40.945  35.263  40.824  1.00  0.00     0.000 A 
ENDBRANCH  50  64
BRANCH  51  70
ATOM     70  C   UNL A   1      39.926  28.663  29.927  1.00  0.00    -0.014 A 
ATOM     71  C   UNL A   1      39.324  27.396  29.872  1.00  0.00     0.009 A 
ATOM     72  C   UNL A   1      40.449  29.215  28.747  1.00  0.00     0.009 A 
ATOM     73  C   UNL A   1      39.274  26.686  28.669  1.00  0.00     0.001 A 
ATOM     74  C   UNL A   1      40.368  28.518  27.539  1.00  0.00     0.001 A 
ATOM     75  C   UNL A   1      39.792  27.250  27.503  1.00  0.00     0.000 A 
ENDBRANCH  51  70
BRANCH  63  76
ATOM     76  C   UNL A   1      44.384  28.382  35.273  1.00  0.00    -0.014 A 
ATOM     77  C   UNL A   1      45.682  28.774  34.912  1.00  0.00     0.009 A 
ATOM     78  C   UNL A   1      44.206  27.165  35.951  1.00  0.00     0.009 A 
ATOM     79  C   UNL A   1      46.772  27.947  35.191  1.00  0.00     0.001 A 
ATOM     80  C   UNL A   1      45.300  26.357  36.259  1.00  0.00     0.001 A 
ATOM     81  C   UNL A   1      46.582  26.743  35.869  1.00  0.00     0.000 A 
ENDBRANCH  63  76
ENDBRANCH  37  38
ENDBRANCH  29  32
ENDBRANCH  27  28
ENDBRANCH  26  27
ENDBRANCH  25  26
ENDBRANCH   1  25
TORSDOF 16
ENDMDL
