MODEL 1
REMARK VINA RESULT:     -10.7      0.000      0.000
REMARK SMILES O=C(/C=C/c1cc(C(=O)NCCn2cccn2)cs1)NCCCCNC(=O)c1ccc(-c2c3nc(c(-c4ccccc4)c4ccc([nH]4)c(-c4ccccc4)c4nc(c(-c5ccccc5)c5ccc2[nH]5)C=C4)C=C3)cc1
REMARK SMILES IDX 21 1 20 2 1 3 2 4 3 6 4 7 5 8 6 9 19 10 7 11 18 12 8 13 9 14
REMARK SMILES IDX 10 15 11 17 12 18 13 19 14 20 17 21 15 22 16 23 22 24 23 25
REMARK SMILES IDX 24 26 25 27 26 28 27 30 28 31 29 32 75 33 30 34 74 35 31 36
REMARK SMILES IDX 32 37 33 38 68 39 34 40 73 41 67 42 69 43 35 44 72 45 66 46
REMARK SMILES IDX 65 47 36 49 58 50 43 51 57 52 44 53 47 54 56 55 70 56 45 57
REMARK SMILES IDX 46 58 55 60 71 61 48 62 37 63 38 64 42 65 39 66 41 67 40 68
REMARK SMILES IDX 59 69 60 70 64 71 61 72 63 73 62 74 49 75 50 76 54 77 51 78
REMARK SMILES IDX 53 79 52 80
REMARK H PARENT 20 5 10 16 25 29 69 48 47 59
REMARK Flexibility Score: inf
ROOT
ATOM      1  C   UNL A   1      40.086  21.963  26.215  1.00  0.00     0.116 C 
ENDROOT
BRANCH   1   2
ATOM      2  N   UNL A   1      38.886  22.175  25.430  1.00  0.00    -0.353 N 
ATOM      3  O   UNL A   1      38.087  23.922  26.690  1.00  0.00    -0.270 OA
ATOM      4  C   UNL A   1      37.973  23.143  25.751  1.00  0.00     0.244 C 
ATOM      5  H   UNL A   1      38.722  21.605  24.644  1.00  0.00     0.163 HD
BRANCH   4   6
ATOM      6  C   UNL A   1      36.833  23.298  24.820  1.00  0.00     0.072 C 
ATOM      7  C   UNL A   1      35.527  23.189  25.110  1.00  0.00     0.024 C 
BRANCH   7   8
ATOM      8  C   UNL A   1      34.573  23.377  24.070  1.00  0.00     0.028 A 
ATOM      9  C   UNL A   1      34.455  24.435  23.182  1.00  0.00     0.033 A 
ATOM     10  S   UNL A   1      33.360  22.211  23.761  1.00  0.00    -0.144 S 
ATOM     11  C   UNL A   1      33.250  24.428  22.412  1.00  0.00     0.051 A 
ATOM     12  C   UNL A   1      32.601  23.218  22.609  1.00  0.00     0.079 A 
BRANCH  11  13
ATOM     13  C   UNL A   1      32.691  25.430  21.498  1.00  0.00     0.252 C 
ATOM     14  O   UNL A   1      33.159  25.579  20.369  1.00  0.00    -0.269 OA
ATOM     15  N   UNL A   1      31.624  26.214  21.840  1.00  0.00    -0.350 N 
ATOM     16  H   UNL A   1      31.357  26.823  21.114  1.00  0.00     0.163 HD
BRANCH  15  17
ATOM     17  C   UNL A   1      30.789  26.359  23.025  1.00  0.00     0.140 C 
BRANCH  17  18
ATOM     18  C   UNL A   1      31.633  26.632  24.275  1.00  0.00     0.165 C 
BRANCH  18  19
ATOM     19  N   UNL A   1      31.572  25.555  25.254  1.00  0.00    -0.271 N 
ATOM     20  C   UNL A   1      32.464  25.326  26.265  1.00  0.00     0.108 A 
ATOM     21  N   UNL A   1      30.585  24.638  25.206  1.00  0.00    -0.181 NA
ATOM     22  C   UNL A   1      32.055  24.164  26.877  1.00  0.00     0.042 A 
ATOM     23  C   UNL A   1      30.895  23.782  26.181  1.00  0.00     0.135 A 
ENDBRANCH  18  19
ENDBRANCH  17  18
ENDBRANCH  15  17
ENDBRANCH  11  13
ENDBRANCH   7   8
ENDBRANCH   4   6
ENDBRANCH   1   2
BRANCH   1  24
ATOM     24  C   UNL A   1      40.161  20.554  26.805  1.00  0.00     0.023 C 
BRANCH  24  25
ATOM     25  C   UNL A   1      41.153  19.600  26.124  1.00  0.00     0.023 C 
BRANCH  25  26
ATOM     26  C   UNL A   1      42.563  19.622  26.702  1.00  0.00     0.116 C 
BRANCH  26  27
ATOM     27  N   UNL A   1      43.597  19.467  25.684  1.00  0.00    -0.352 N 
ATOM     28  C   UNL A   1      44.190  20.453  24.927  1.00  0.00     0.251 C 
ATOM     29  H   UNL A   1      43.907  18.547  25.519  1.00  0.00     0.163 HD
ATOM     30  O   UNL A   1      44.727  20.177  23.853  1.00  0.00    -0.269 OA
BRANCH  28  31
ATOM     31  C   UNL A   1      44.180  21.848  25.404  1.00  0.00     0.039 A 
ATOM     32  C   UNL A   1      43.263  22.769  24.886  1.00  0.00     0.014 A 
ATOM     33  C   UNL A   1      45.104  22.240  26.372  1.00  0.00     0.014 A 
ATOM     34  C   UNL A   1      43.226  24.058  25.413  1.00  0.00     0.010 A 
ATOM     35  C   UNL A   1      45.000  23.479  26.966  1.00  0.00     0.010 A 
ATOM     36  C   UNL A   1      44.079  24.401  26.477  1.00  0.00    -0.014 A 
BRANCH  36  37
ATOM     37  C   UNL A   1      43.852  25.645  27.215  1.00  0.00     0.031 A 
ATOM     38  C   UNL A   1      44.832  26.711  26.866  1.00  0.00     0.074 A 
ATOM     39  C   UNL A   1      42.740  25.910  27.938  1.00  0.00     0.049 A 
ATOM     40  N   UNL A   1      45.724  27.249  27.627  1.00  0.00    -0.248 NA
ATOM     41  C   UNL A   1      44.935  27.120  25.450  1.00  0.00     0.031 C 
ATOM     42  C   UNL A   1      41.549  25.059  28.050  1.00  0.00     0.029 A 
ATOM     43  N   UNL A   1      42.366  27.038  28.618  1.00  0.00    -0.354 N 
ATOM     44  C   UNL A   1      46.323  28.243  26.855  1.00  0.00     0.074 A 
ATOM     45  C   UNL A   1      45.967  27.964  25.490  1.00  0.00     0.031 C 
ATOM     46  C   UNL A   1      40.513  25.787  28.522  1.00  0.00     0.029 A 
ATOM     47  C   UNL A   1      41.003  27.097  28.909  1.00  0.00     0.049 A 
ATOM     48  H   UNL A   1      43.001  27.743  28.877  1.00  0.00     0.167 HD
ATOM     49  C   UNL A   1      46.731  29.407  27.436  1.00  0.00     0.031 A 
ATOM     50  C   UNL A   1      40.307  28.146  29.413  1.00  0.00     0.031 A 
ATOM     51  C   UNL A   1      46.806  29.262  28.868  1.00  0.00     0.049 A 
ATOM     52  C   UNL A   1      41.267  29.060  30.061  1.00  0.00     0.074 A 
ATOM     53  C   UNL A   1      47.633  28.664  29.790  1.00  0.00     0.029 A 
ATOM     54  N   UNL A   1      45.611  29.508  29.488  1.00  0.00    -0.354 N 
ATOM     55  N   UNL A   1      41.923  28.758  31.143  1.00  0.00    -0.248 NA
ATOM     56  C   UNL A   1      41.757  30.225  29.332  1.00  0.00     0.031 C 
ATOM     57  C   UNL A   1      46.837  28.445  30.956  1.00  0.00     0.029 A 
ATOM     58  C   UNL A   1      45.562  28.962  30.739  1.00  0.00     0.049 A 
ATOM     59  H   UNL A   1      44.875  30.018  29.081  1.00  0.00     0.167 HD
ATOM     60  C   UNL A   1      43.140  29.389  30.981  1.00  0.00     0.074 A 
ATOM     61  C   UNL A   1      42.915  30.413  29.970  1.00  0.00     0.031 C 
ATOM     62  C   UNL A   1      44.292  28.801  31.412  1.00  0.00     0.031 A 
BRANCH  49  63
ATOM     63  C   UNL A   1      46.465  30.780  26.827  1.00  0.00    -0.014 A 
ATOM     64  C   UNL A   1      47.499  31.737  26.880  1.00  0.00     0.009 A 
ATOM     65  C   UNL A   1      45.186  31.270  26.502  1.00  0.00     0.009 A 
ATOM     66  C   UNL A   1      47.249  33.105  26.709  1.00  0.00     0.001 A 
ATOM     67  C   UNL A   1      44.936  32.632  26.302  1.00  0.00     0.001 A 
ATOM     68  C   UNL A   1      45.963  33.554  26.433  1.00  0.00     0.000 A 
ENDBRANCH  49  63
BRANCH  50  69
ATOM     69  C   UNL A   1      38.886  28.524  29.250  1.00  0.00    -0.014 A 
ATOM     70  C   UNL A   1      38.046  28.656  30.370  1.00  0.00     0.009 A 
ATOM     71  C   UNL A   1      38.422  29.035  28.025  1.00  0.00     0.009 A 
ATOM     72  C   UNL A   1      36.820  29.328  30.281  1.00  0.00     0.001 A 
ATOM     73  C   UNL A   1      37.194  29.701  27.934  1.00  0.00     0.001 A 
ATOM     74  C   UNL A   1      36.402  29.866  29.066  1.00  0.00     0.000 A 
ENDBRANCH  50  69
BRANCH  62  75
ATOM     75  C   UNL A   1      44.202  27.814  32.535  1.00  0.00    -0.014 A 
ATOM     76  C   UNL A   1      44.155  26.422  32.363  1.00  0.00     0.009 A 
ATOM     77  C   UNL A   1      44.224  28.328  33.840  1.00  0.00     0.009 A 
ATOM     78  C   UNL A   1      44.106  25.572  33.473  1.00  0.00     0.001 A 
ATOM     79  C   UNL A   1      44.199  27.480  34.946  1.00  0.00     0.001 A 
ATOM     80  C   UNL A   1      44.133  26.102  34.763  1.00  0.00     0.000 A 
ENDBRANCH  62  75
ENDBRANCH  36  37
ENDBRANCH  28  31
ENDBRANCH  26  27
ENDBRANCH  25  26
ENDBRANCH  24  25
ENDBRANCH   1  24
TORSDOF 16
ENDMDL
MODEL 2
REMARK VINA RESULT:     -10.6      1.531      2.254
REMARK SMILES O=C(/C=C/c1cc(C(=O)NCCn2cccn2)cs1)NCCCCNC(=O)c1ccc(-c2c3nc(c(-c4ccccc4)c4ccc([nH]4)c(-c4ccccc4)c4nc(c(-c5ccccc5)c5ccc2[nH]5)C=C4)C=C3)cc1
REMARK SMILES IDX 21 1 20 2 1 3 2 4 3 6 4 7 5 8 6 9 19 10 7 11 18 12 8 13 9 14
REMARK SMILES IDX 10 15 11 17 12 18 13 19 14 20 17 21 15 22 16 23 22 24 23 25
REMARK SMILES IDX 24 26 25 27 26 28 27 30 28 31 29 32 75 33 30 34 74 35 31 36
REMARK SMILES IDX 32 37 33 38 68 39 34 40 73 41 67 42 69 43 35 44 72 45 66 46
REMARK SMILES IDX 65 47 36 49 58 50 43 51 57 52 44 53 47 54 56 55 70 56 45 57
REMARK SMILES IDX 46 58 55 60 71 61 48 62 37 63 38 64 42 65 39 66 41 67 40 68
REMARK SMILES IDX 59 69 60 70 64 71 61 72 63 73 62 74 49 75 50 76 54 77 51 78
REMARK SMILES IDX 53 79 52 80
REMARK H PARENT 20 5 10 16 25 29 69 48 47 59
REMARK Flexibility Score: inf
ROOT
ATOM      1  C   UNL A   1      39.650  22.024  26.897  1.00  0.00     0.116 C 
ENDROOT
BRANCH   1   2
ATOM      2  N   UNL A   1      38.668  22.972  26.409  1.00  0.00    -0.353 N 
ATOM      3  O   UNL A   1      37.227  21.400  25.556  1.00  0.00    -0.270 OA
ATOM      4  C   UNL A   1      37.533  22.569  25.760  1.00  0.00     0.244 C 
ATOM      5  H   UNL A   1      38.823  23.935  26.547  1.00  0.00     0.163 HD
BRANCH   4   6
ATOM      6  C   UNL A   1      36.582  23.639  25.384  1.00  0.00     0.072 C 
ATOM      7  C   UNL A   1      35.329  23.488  24.926  1.00  0.00     0.024 C 
BRANCH   7   8
ATOM      8  C   UNL A   1      34.564  24.650  24.619  1.00  0.00     0.028 A 
ATOM      9  C   UNL A   1      34.190  25.138  23.377  1.00  0.00     0.033 A 
ATOM     10  S   UNL A   1      33.957  25.661  25.858  1.00  0.00    -0.144 S 
ATOM     11  C   UNL A   1      33.623  26.451  23.405  1.00  0.00     0.051 A 
ATOM     12  C   UNL A   1      33.394  26.810  24.726  1.00  0.00     0.079 A 
BRANCH  11  13
ATOM     13  C   UNL A   1      33.253  27.359  22.315  1.00  0.00     0.252 C 
ATOM     14  O   UNL A   1      34.115  27.835  21.574  1.00  0.00    -0.269 OA
ATOM     15  N   UNL A   1      31.953  27.694  22.054  1.00  0.00    -0.350 N 
ATOM     16  H   UNL A   1      31.868  28.298  21.281  1.00  0.00     0.163 HD
BRANCH  15  17
ATOM     17  C   UNL A   1      30.665  27.367  22.651  1.00  0.00     0.140 C 
BRANCH  17  18
ATOM     18  C   UNL A   1      30.179  28.484  23.581  1.00  0.00     0.165 C 
BRANCH  18  19
ATOM     19  N   UNL A   1      29.508  29.567  22.874  1.00  0.00    -0.271 N 
ATOM     20  C   UNL A   1      28.710  30.528  23.431  1.00  0.00     0.108 A 
ATOM     21  N   UNL A   1      29.612  29.681  21.534  1.00  0.00    -0.181 NA
ATOM     22  C   UNL A   1      28.232  31.280  22.382  1.00  0.00     0.042 A 
ATOM     23  C   UNL A   1      28.817  30.711  21.239  1.00  0.00     0.135 A 
ENDBRANCH  18  19
ENDBRANCH  17  18
ENDBRANCH  15  17
ENDBRANCH  11  13
ENDBRANCH   7   8
ENDBRANCH   4   6
ENDBRANCH   1   2
BRANCH   1  24
ATOM     24  C   UNL A   1      40.460  21.384  25.769  1.00  0.00     0.023 C 
BRANCH  24  25
ATOM     25  C   UNL A   1      40.935  19.946  26.024  1.00  0.00     0.023 C 
BRANCH  25  26
ATOM     26  C   UNL A   1      42.300  19.831  26.690  1.00  0.00     0.116 C 
BRANCH  26  27
ATOM     27  N   UNL A   1      43.385  19.637  25.734  1.00  0.00    -0.352 N 
ATOM     28  C   UNL A   1      44.064  20.600  25.022  1.00  0.00     0.251 C 
ATOM     29  H   UNL A   1      43.664  18.705  25.579  1.00  0.00     0.163 HD
ATOM     30  O   UNL A   1      44.651  20.309  23.979  1.00  0.00    -0.269 OA
BRANCH  28  31
ATOM     31  C   UNL A   1      44.086  21.992  25.510  1.00  0.00     0.039 A 
ATOM     32  C   UNL A   1      43.317  22.977  24.882  1.00  0.00     0.014 A 
ATOM     33  C   UNL A   1      44.892  22.314  26.602  1.00  0.00     0.014 A 
ATOM     34  C   UNL A   1      43.299  24.264  25.415  1.00  0.00     0.010 A 
ATOM     35  C   UNL A   1      44.794  23.556  27.191  1.00  0.00     0.010 A 
ATOM     36  C   UNL A   1      44.017  24.543  26.590  1.00  0.00    -0.014 A 
BRANCH  36  37
ATOM     37  C   UNL A   1      43.778  25.798  27.305  1.00  0.00     0.031 A 
ATOM     38  C   UNL A   1      44.748  26.867  26.937  1.00  0.00     0.074 A 
ATOM     39  C   UNL A   1      42.663  26.066  28.022  1.00  0.00     0.049 A 
ATOM     40  N   UNL A   1      45.635  27.427  27.689  1.00  0.00    -0.248 NA
ATOM     41  C   UNL A   1      44.849  27.250  25.514  1.00  0.00     0.031 C 
ATOM     42  C   UNL A   1      41.479  25.206  28.149  1.00  0.00     0.029 A 
ATOM     43  N   UNL A   1      42.278  27.203  28.681  1.00  0.00    -0.354 N 
ATOM     44  C   UNL A   1      46.225  28.411  26.899  1.00  0.00     0.074 A 
ATOM     45  C   UNL A   1      45.873  28.104  25.540  1.00  0.00     0.031 C 
ATOM     46  C   UNL A   1      40.436  25.934  28.606  1.00  0.00     0.029 A 
ATOM     47  C   UNL A   1      40.914  27.255  28.969  1.00  0.00     0.049 A 
ATOM     48  H   UNL A   1      42.907  27.918  28.928  1.00  0.00     0.167 HD
ATOM     49  C   UNL A   1      46.622  29.590  27.459  1.00  0.00     0.031 A 
ATOM     50  C   UNL A   1      40.208  28.307  29.454  1.00  0.00     0.031 A 
ATOM     51  C   UNL A   1      46.697  29.472  28.894  1.00  0.00     0.049 A 
ATOM     52  C   UNL A   1      41.159  29.241  30.085  1.00  0.00     0.074 A 
ATOM     53  C   UNL A   1      47.529  28.899  29.827  1.00  0.00     0.029 A 
ATOM     54  N   UNL A   1      45.499  29.719  29.508  1.00  0.00    -0.354 N 
ATOM     55  N   UNL A   1      41.817  28.965  31.173  1.00  0.00    -0.248 NA
ATOM     56  C   UNL A   1      41.638  30.396  29.335  1.00  0.00     0.031 C 
ATOM     57  C   UNL A   1      46.733  28.694  30.997  1.00  0.00     0.029 A 
ATOM     58  C   UNL A   1      45.454  29.195  30.768  1.00  0.00     0.049 A 
ATOM     59  H   UNL A   1      44.758  30.214  29.091  1.00  0.00     0.167 HD
ATOM     60  C   UNL A   1      43.028  29.604  31.001  1.00  0.00     0.074 A 
ATOM     61  C   UNL A   1      42.794  30.607  29.971  1.00  0.00     0.031 C 
ATOM     62  C   UNL A   1      44.185  29.035  31.443  1.00  0.00     0.031 A 
BRANCH  49  63
ATOM     63  C   UNL A   1      46.343  30.949  26.825  1.00  0.00    -0.014 A 
ATOM     64  C   UNL A   1      47.375  31.910  26.844  1.00  0.00     0.009 A 
ATOM     65  C   UNL A   1      45.059  31.428  26.505  1.00  0.00     0.009 A 
ATOM     66  C   UNL A   1      47.119  33.273  26.647  1.00  0.00     0.001 A 
ATOM     67  C   UNL A   1      44.803  32.785  26.280  1.00  0.00     0.001 A 
ATOM     68  C   UNL A   1      45.828  33.712  26.378  1.00  0.00     0.000 A 
ENDBRANCH  49  63
BRANCH  50  69
ATOM     69  C   UNL A   1      38.783  28.668  29.282  1.00  0.00    -0.014 A 
ATOM     70  C   UNL A   1      37.918  28.716  30.390  1.00  0.00     0.009 A 
ATOM     71  C   UNL A   1      38.336  29.244  28.081  1.00  0.00     0.009 A 
ATOM     72  C   UNL A   1      36.682  29.370  30.314  1.00  0.00     0.001 A 
ATOM     73  C   UNL A   1      37.097  29.893  28.003  1.00  0.00     0.001 A 
ATOM     74  C   UNL A   1      36.279  29.974  29.126  1.00  0.00     0.000 A 
ENDBRANCH  50  69
BRANCH  62  75
ATOM     75  C   UNL A   1      44.102  28.068  32.585  1.00  0.00    -0.014 A 
ATOM     76  C   UNL A   1      43.939  28.443  33.928  1.00  0.00     0.009 A 
ATOM     77  C   UNL A   1      44.133  26.702  32.268  1.00  0.00     0.009 A 
ATOM     78  C   UNL A   1      43.836  27.468  34.927  1.00  0.00     0.001 A 
ATOM     79  C   UNL A   1      44.006  25.732  33.261  1.00  0.00     0.001 A 
ATOM     80  C   UNL A   1      43.865  26.115  34.592  1.00  0.00     0.000 A 
ENDBRANCH  62  75
ENDBRANCH  36  37
ENDBRANCH  28  31
ENDBRANCH  26  27
ENDBRANCH  25  26
ENDBRANCH  24  25
ENDBRANCH   1  24
TORSDOF 16
ENDMDL
MODEL 3
REMARK VINA RESULT:     -10.6      4.281      9.598
REMARK SMILES O=C(/C=C/c1cc(C(=O)NCCn2cccn2)cs1)NCCCCNC(=O)c1ccc(-c2c3nc(c(-c4ccccc4)c4ccc([nH]4)c(-c4ccccc4)c4nc(c(-c5ccccc5)c5ccc2[nH]5)C=C4)C=C3)cc1
REMARK SMILES IDX 21 1 20 2 1 3 2 4 3 6 4 7 5 8 6 9 19 10 7 11 18 12 8 13 9 14
REMARK SMILES IDX 10 15 11 17 12 18 13 19 14 20 17 21 15 22 16 23 22 24 23 25
REMARK SMILES IDX 24 26 25 27 26 28 27 30 28 31 29 32 75 33 30 34 74 35 31 36
REMARK SMILES IDX 32 37 33 38 68 39 34 40 73 41 67 42 69 43 35 44 72 45 66 46
REMARK SMILES IDX 65 47 36 49 58 50 43 51 57 52 44 53 47 54 56 55 70 56 45 57
REMARK SMILES IDX 46 58 55 60 71 61 48 62 37 63 38 64 42 65 39 66 41 67 40 68
REMARK SMILES IDX 59 69 60 70 64 71 61 72 63 73 62 74 49 75 50 76 54 77 51 78
REMARK SMILES IDX 53 79 52 80
REMARK H PARENT 20 5 10 16 25 29 69 48 47 59
REMARK Flexibility Score: inf
ROOT
ATOM      1  C   UNL A   1      34.263  32.492  28.439  1.00  0.00     0.116 C 
ENDROOT
BRANCH   1   2
ATOM      2  N   UNL A   1      33.773  31.588  27.418  1.00  0.00    -0.353 N 
ATOM      3  O   UNL A   1      34.991  29.768  28.112  1.00  0.00    -0.270 OA
ATOM      4  C   UNL A   1      34.198  30.289  27.337  1.00  0.00     0.244 C 
ATOM      5  H   UNL A   1      33.116  31.917  26.762  1.00  0.00     0.163 HD
BRANCH   4   6
ATOM      6  C   UNL A   1      33.559  29.458  26.293  1.00  0.00     0.072 C 
ATOM      7  C   UNL A   1      33.995  28.284  25.809  1.00  0.00     0.024 C 
BRANCH   7   8
ATOM      8  C   UNL A   1      33.232  27.630  24.800  1.00  0.00     0.028 A 
ATOM      9  C   UNL A   1      33.615  26.599  23.956  1.00  0.00     0.033 A 
ATOM     10  S   UNL A   1      31.610  28.074  24.490  1.00  0.00    -0.144 S 
ATOM     11  C   UNL A   1      32.689  26.327  22.899  1.00  0.00     0.051 A 
ATOM     12  C   UNL A   1      31.523  27.041  23.133  1.00  0.00     0.079 A 
BRANCH  11  13
ATOM     13  C   UNL A   1      32.796  25.440  21.735  1.00  0.00     0.252 C 
ATOM     14  O   UNL A   1      33.142  25.883  20.640  1.00  0.00    -0.269 OA
ATOM     15  N   UNL A   1      32.548  24.098  21.815  1.00  0.00    -0.350 N 
ATOM     16  H   UNL A   1      32.679  23.639  20.954  1.00  0.00     0.163 HD
BRANCH  15  17
ATOM     17  C   UNL A   1      32.136  23.188  22.876  1.00  0.00     0.140 C 
BRANCH  17  18
ATOM     18  C   UNL A   1      33.289  22.278  23.313  1.00  0.00     0.165 C 
BRANCH  18  19
ATOM     19  N   UNL A   1      34.196  22.915  24.257  1.00  0.00    -0.271 N 
ATOM     20  C   UNL A   1      33.910  23.264  25.548  1.00  0.00     0.108 A 
ATOM     21  N   UNL A   1      35.448  23.252  23.886  1.00  0.00    -0.181 NA
ATOM     22  C   UNL A   1      35.029  23.907  26.025  1.00  0.00     0.042 A 
ATOM     23  C   UNL A   1      35.943  23.874  24.958  1.00  0.00     0.135 A 
ENDBRANCH  18  19
ENDBRANCH  17  18
ENDBRANCH  15  17
ENDBRANCH  11  13
ENDBRANCH   7   8
ENDBRANCH   4   6
ENDBRANCH   1   2
BRANCH   1  24
ATOM     24  C   UNL A   1      34.099  33.962  28.050  1.00  0.00     0.023 C 
BRANCH  24  25
ATOM     25  C   UNL A   1      32.976  34.720  28.773  1.00  0.00     0.023 C 
BRANCH  25  26
ATOM     26  C   UNL A   1      33.435  35.923  29.587  1.00  0.00     0.116 C 
BRANCH  26  27
ATOM     27  N   UNL A   1      32.767  36.025  30.880  1.00  0.00    -0.352 N 
ATOM     28  C   UNL A   1      32.951  35.231  31.990  1.00  0.00     0.251 C 
ATOM     29  H   UNL A   1      32.103  36.747  30.968  1.00  0.00     0.163 HD
ATOM     30  O   UNL A   1      32.074  35.147  32.851  1.00  0.00    -0.269 OA
BRANCH  28  31
ATOM     31  C   UNL A   1      34.207  34.475  32.149  1.00  0.00     0.039 A 
ATOM     32  C   UNL A   1      34.234  33.092  31.940  1.00  0.00     0.014 A 
ATOM     33  C   UNL A   1      35.367  35.157  32.517  1.00  0.00     0.014 A 
ATOM     34  C   UNL A   1      35.452  32.419  32.021  1.00  0.00     0.010 A 
ATOM     35  C   UNL A   1      36.585  34.513  32.494  1.00  0.00     0.010 A 
ATOM     36  C   UNL A   1      36.632  33.140  32.270  1.00  0.00    -0.014 A 
BRANCH  36  37
ATOM     37  C   UNL A   1      37.931  32.492  32.075  1.00  0.00     0.031 A 
ATOM     38  C   UNL A   1      38.660  32.264  33.354  1.00  0.00     0.074 A 
ATOM     39  C   UNL A   1      38.333  31.924  30.915  1.00  0.00     0.049 A 
ATOM     40  N   UNL A   1      39.773  32.792  33.738  1.00  0.00    -0.248 NA
ATOM     41  C   UNL A   1      37.988  31.467  34.401  1.00  0.00     0.031 C 
ATOM     42  C   UNL A   1      37.535  31.779  29.692  1.00  0.00     0.029 A 
ATOM     43  N   UNL A   1      39.476  31.235  30.609  1.00  0.00    -0.354 N 
ATOM     44  C   UNL A   1      40.066  32.193  34.963  1.00  0.00     0.074 A 
ATOM     45  C   UNL A   1      38.847  31.579  35.414  1.00  0.00     0.031 C 
ATOM     46  C   UNL A   1      38.098  30.849  28.889  1.00  0.00     0.029 A 
ATOM     47  C   UNL A   1      39.378  30.462  29.453  1.00  0.00     0.049 A 
ATOM     48  H   UNL A   1      40.292  31.282  31.156  1.00  0.00     0.167 HD
ATOM     49  C   UNL A   1      41.360  31.931  35.303  1.00  0.00     0.031 A 
ATOM     50  C   UNL A   1      40.266  29.549  28.986  1.00  0.00     0.031 A 
ATOM     51  C   UNL A   1      42.268  32.674  34.464  1.00  0.00     0.049 A 
ATOM     52  C   UNL A   1      41.573  29.826  29.612  1.00  0.00     0.074 A 
ATOM     53  C   UNL A   1      42.702  33.973  34.332  1.00  0.00     0.029 A 
ATOM     54  N   UNL A   1      42.565  32.022  33.298  1.00  0.00    -0.354 N 
ATOM     55  N   UNL A   1      42.276  30.890  29.357  1.00  0.00    -0.248 NA
ATOM     56  C   UNL A   1      41.985  29.065  30.786  1.00  0.00     0.031 C 
ATOM     57  C   UNL A   1      43.158  34.105  32.984  1.00  0.00     0.029 A 
ATOM     58  C   UNL A   1      43.043  32.874  32.343  1.00  0.00     0.049 A 
ATOM     59  H   UNL A   1      42.447  31.055  33.163  1.00  0.00     0.167 HD
ATOM     60  C   UNL A   1      42.897  31.174  30.556  1.00  0.00     0.074 A 
ATOM     61  C   UNL A   1      42.841  29.937  31.324  1.00  0.00     0.031 C 
ATOM     62  C   UNL A   1      43.081  32.464  30.957  1.00  0.00     0.031 A 
BRANCH  49  63
ATOM     63  C   UNL A   1      41.809  30.609  35.917  1.00  0.00    -0.014 A 
ATOM     64  C   UNL A   1      43.019  30.595  36.641  1.00  0.00     0.009 A 
ATOM     65  C   UNL A   1      41.286  29.351  35.563  1.00  0.00     0.009 A 
ATOM     66  C   UNL A   1      43.705  29.403  36.911  1.00  0.00     0.001 A 
ATOM     67  C   UNL A   1      41.953  28.156  35.856  1.00  0.00     0.001 A 
ATOM     68  C   UNL A   1      43.177  28.184  36.506  1.00  0.00     0.000 A 
ENDBRANCH  49  63
BRANCH  50  69
ATOM     69  C   UNL A   1      40.056  28.340  28.160  1.00  0.00    -0.014 A 
ATOM     70  C   UNL A   1      40.748  28.172  26.947  1.00  0.00     0.009 A 
ATOM     71  C   UNL A   1      39.399  27.218  28.694  1.00  0.00     0.009 A 
ATOM     72  C   UNL A   1      40.831  26.918  26.328  1.00  0.00     0.001 A 
ATOM     73  C   UNL A   1      39.476  25.966  28.072  1.00  0.00     0.001 A 
ATOM     74  C   UNL A   1      40.209  25.811  26.900  1.00  0.00     0.000 A 
ENDBRANCH  50  69
BRANCH  62  75
ATOM     75  C   UNL A   1      43.161  33.525  29.902  1.00  0.00    -0.014 A 
ATOM     76  C   UNL A   1      42.094  34.363  29.542  1.00  0.00     0.009 A 
ATOM     77  C   UNL A   1      44.405  33.718  29.284  1.00  0.00     0.009 A 
ATOM     78  C   UNL A   1      42.270  35.353  28.568  1.00  0.00     0.001 A 
ATOM     79  C   UNL A   1      44.585  34.719  28.331  1.00  0.00     0.001 A 
ATOM     80  C   UNL A   1      43.515  35.532  27.968  1.00  0.00     0.000 A 
ENDBRANCH  62  75
ENDBRANCH  36  37
ENDBRANCH  28  31
ENDBRANCH  26  27
ENDBRANCH  25  26
ENDBRANCH  24  25
ENDBRANCH   1  24
TORSDOF 16
ENDMDL
