MODEL 1
REMARK VINA RESULT:     -11.5      0.000      0.000
REMARK SMILES Cc1ccc(S(=O)(=O)n2cc(C(=O)C(=O)NCC(=O)N[C@H](Cc3c[nH]c4ccccc34)C(=O)NCCCCNC(=O)c3ccc(-c4c5nc(c(-c6ccccc6)c6ccc([nH]6)c(-c6ccccc6)c6nc(c(-c7ccccc7)c7ccc4[nH]7)C=C6)C=C5)cc3)c3ccccc32)cc1
REMARK SMILES IDX 32 1 33 2 34 3 21 5 20 6 18 7 19 8 17 10 16 11 14 12 15 13
REMARK SMILES IDX 12 15 13 16 11 17 9 18 10 19 95 20 90 21 94 22 91 23 93 24
REMARK SMILES IDX 92 25 6 26 7 27 8 28 5 29 1 30 2 31 3 32 97 33 4 34 96 35
REMARK SMILES IDX 22 36 23 37 24 38 31 39 25 40 26 41 30 42 27 44 29 45 28 46
REMARK SMILES IDX 35 47 36 48 37 49 38 50 39 51 40 52 41 54 42 55 43 56 89 57
REMARK SMILES IDX 44 58 88 59 45 60 46 61 47 62 82 63 48 64 87 65 81 66 83 67
REMARK SMILES IDX 49 68 86 69 80 70 79 71 50 73 72 74 57 75 71 76 58 77 61 78
REMARK SMILES IDX 70 79 84 80 59 81 60 82 69 84 85 85 62 86 51 87 52 88 56 89
REMARK SMILES IDX 53 90 55 91 54 92 73 93 74 94 78 95 75 96 77 97 76 98 63 99
REMARK SMILES IDX 64 100 68 101 65 102 67 103 66 104
REMARK H PARENT 34 4 20 9 16 14 25 43 39 53 83 72 61 83
REMARK Flexibility Score: inf
ROOT
ATOM      1  C   UNL A   1      37.005  33.357  29.941  1.00  0.00     0.242 C 
ATOM      2  O   UNL A   1      37.951  33.570  29.171  1.00  0.00    -0.273 OA
ATOM      3  N   UNL A   1      37.037  34.061  31.099  1.00  0.00    -0.354 N 
ATOM      4  H   UNL A   1      37.821  34.652  31.165  1.00  0.00     0.163 HD
ENDROOT
BRANCH   1   5
ATOM      5  C   UNL A   1      35.918  32.337  29.546  1.00  0.00     0.175 C 
BRANCH   5   6
ATOM      6  N   UNL A   1      34.731  33.105  29.150  1.00  0.00    -0.342 N 
ATOM      7  C   UNL A   1      33.809  32.836  28.182  1.00  0.00     0.240 C 
ATOM      8  O   UNL A   1      32.978  33.720  27.955  1.00  0.00    -0.273 OA
ATOM      9  H   UNL A   1      34.579  33.936  29.658  1.00  0.00     0.164 HD
BRANCH   7  10
ATOM     10  C   UNL A   1      33.661  31.431  27.558  1.00  0.00     0.216 C 
BRANCH  10  11
ATOM     11  N   UNL A   1      32.583  31.211  26.598  1.00  0.00    -0.340 N 
ATOM     12  C   UNL A   1      32.122  30.010  26.081  1.00  0.00     0.292 C 
ATOM     13  O   UNL A   1      31.156  29.947  25.330  1.00  0.00    -0.265 OA
ATOM     14  H   UNL A   1      32.122  32.020  26.277  1.00  0.00     0.164 HD
BRANCH  12  15
ATOM     15  C   UNL A   1      32.841  28.719  26.464  1.00  0.00     0.252 C 
ATOM     16  O   UNL A   1      33.942  28.844  26.997  1.00  0.00    -0.283 OA
BRANCH  15  17
ATOM     17  C   UNL A   1      32.326  27.413  26.032  1.00  0.00     0.054 A 
ATOM     18  N   UNL A   1      31.317  25.397  25.845  1.00  0.00    -0.240 N 
ATOM     19  C   UNL A   1      31.540  26.470  26.707  1.00  0.00     0.117 A 
ATOM     20  C   UNL A   1      31.759  25.784  24.568  1.00  0.00     0.065 A 
ATOM     21  C   UNL A   1      32.655  26.829  24.775  1.00  0.00     0.012 A 
ATOM     22  C   UNL A   1      31.673  25.126  23.325  1.00  0.00     0.028 A 
ATOM     23  C   UNL A   1      33.615  27.105  23.777  1.00  0.00     0.011 A 
ATOM     24  C   UNL A   1      32.677  25.363  22.388  1.00  0.00     0.002 A 
ATOM     25  C   UNL A   1      33.660  26.313  22.626  1.00  0.00     0.001 A 
BRANCH  18  26
ATOM     26  S   UNL A   1      31.708  23.726  26.171  1.00  0.00     0.268 S 
ATOM     27  O   UNL A   1      30.656  23.003  25.473  1.00  0.00    -0.201 OA
ATOM     28  O   UNL A   1      31.798  23.704  27.625  1.00  0.00    -0.201 OA
BRANCH  26  29
ATOM     29  C   UNL A   1      33.195  22.909  25.726  1.00  0.00     0.088 A 
ATOM     30  C   UNL A   1      37.257  21.914  24.637  1.00  0.00     0.044 C 
ATOM     31  C   UNL A   1      35.840  22.202  25.045  1.00  0.00    -0.051 A 
ATOM     32  C   UNL A   1      35.605  23.382  25.736  1.00  0.00     0.005 A 
ATOM     33  C   UNL A   1      34.743  21.373  24.715  1.00  0.00     0.005 A 
ATOM     34  C   UNL A   1      34.307  23.716  26.078  1.00  0.00     0.022 A 
ATOM     35  C   UNL A   1      33.408  21.722  25.048  1.00  0.00     0.022 A 
ENDBRANCH  26  29
ENDBRANCH  18  26
ENDBRANCH  15  17
ENDBRANCH  12  15
ENDBRANCH  10  11
ENDBRANCH   7  10
ENDBRANCH   5   6
BRANCH   5  36
ATOM     36  C   UNL A   1      35.574  31.209  30.543  1.00  0.00     0.072 C 
BRANCH  36  37
ATOM     37  C   UNL A   1      36.654  30.292  31.061  1.00  0.00    -0.020 A 
ATOM     38  C   UNL A   1      37.060  30.050  32.358  1.00  0.00     0.087 A 
ATOM     39  C   UNL A   1      37.487  29.448  30.239  1.00  0.00     0.003 A 
ATOM     40  N   UNL A   1      37.876  28.952  32.368  1.00  0.00    -0.361 N 
ATOM     41  C   UNL A   1      38.155  28.561  31.085  1.00  0.00     0.046 A 
ATOM     42  C   UNL A   1      37.711  29.326  28.851  1.00  0.00     0.010 A 
ATOM     43  H   UNL A   1      38.214  28.507  33.179  1.00  0.00     0.166 HD
ATOM     44  C   UNL A   1      38.946  27.505  30.625  1.00  0.00     0.026 A 
ATOM     45  C   UNL A   1      38.566  28.322  28.374  1.00  0.00     0.001 A 
ATOM     46  C   UNL A   1      39.148  27.408  29.248  1.00  0.00     0.002 A 
ENDBRANCH  36  37
ENDBRANCH   5  36
ENDBRANCH   1   5
BRANCH   3  47
ATOM     47  C   UNL A   1      36.173  34.137  32.261  1.00  0.00     0.116 C 
BRANCH  47  48
ATOM     48  C   UNL A   1      36.920  34.189  33.598  1.00  0.00     0.023 C 
BRANCH  48  49
ATOM     49  C   UNL A   1      36.838  32.918  34.446  1.00  0.00     0.023 C 
BRANCH  49  50
ATOM     50  C   UNL A   1      37.938  32.767  35.484  1.00  0.00     0.116 C 
BRANCH  50  51
ATOM     51  N   UNL A   1      38.932  31.747  35.151  1.00  0.00    -0.352 N 
ATOM     52  C   UNL A   1      40.289  31.910  34.890  1.00  0.00     0.251 C 
ATOM     53  H   UNL A   1      38.597  30.823  35.105  1.00  0.00     0.163 HD
ATOM     54  O   UNL A   1      41.013  30.963  34.666  1.00  0.00    -0.269 OA
BRANCH  52  55
ATOM     55  C   UNL A   1      40.855  33.271  35.047  1.00  0.00     0.039 A 
ATOM     56  C   UNL A   1      40.232  34.288  34.318  1.00  0.00     0.014 A 
ATOM     57  C   UNL A   1      42.153  33.417  35.524  1.00  0.00     0.014 A 
ATOM     58  C   UNL A   1      41.021  35.299  33.785  1.00  0.00     0.010 A 
ATOM     59  C   UNL A   1      42.956  34.351  34.901  1.00  0.00     0.010 A 
ATOM     60  C   UNL A   1      42.403  35.226  33.959  1.00  0.00    -0.014 A 
BRANCH  60  61
ATOM     61  C   UNL A   1      43.337  35.942  33.097  1.00  0.00     0.031 A 
ATOM     62  C   UNL A   1      43.423  37.415  33.198  1.00  0.00     0.074 A 
ATOM     63  C   UNL A   1      44.129  35.270  32.226  1.00  0.00     0.049 A 
ATOM     64  N   UNL A   1      43.795  38.192  32.238  1.00  0.00    -0.248 NA
ATOM     65  C   UNL A   1      43.023  38.143  34.399  1.00  0.00     0.031 C 
ATOM     66  C   UNL A   1      45.232  35.829  31.443  1.00  0.00     0.029 A 
ATOM     67  N   UNL A   1      43.976  33.983  31.696  1.00  0.00    -0.354 N 
ATOM     68  C   UNL A   1      43.970  39.451  32.766  1.00  0.00     0.074 A 
ATOM     69  C   UNL A   1      43.394  39.387  34.088  1.00  0.00     0.031 C 
ATOM     70  C   UNL A   1      45.423  35.059  30.359  1.00  0.00     0.029 A 
ATOM     71  C   UNL A   1      44.360  34.071  30.346  1.00  0.00     0.049 A 
ATOM     72  H   UNL A   1      43.664  33.180  32.172  1.00  0.00     0.167 HD
ATOM     73  C   UNL A   1      44.705  40.372  32.081  1.00  0.00     0.031 A 
ATOM     74  C   UNL A   1      43.524  33.835  29.291  1.00  0.00     0.031 A 
ATOM     75  C   UNL A   1      45.099  39.874  30.766  1.00  0.00     0.049 A 
ATOM     76  C   UNL A   1      43.400  35.019  28.347  1.00  0.00     0.074 A 
ATOM     77  C   UNL A   1      46.269  39.316  30.278  1.00  0.00     0.029 A 
ATOM     78  N   UNL A   1      44.117  39.626  29.816  1.00  0.00    -0.354 N 
ATOM     79  N   UNL A   1      43.783  36.228  28.653  1.00  0.00    -0.248 NA
ATOM     80  C   UNL A   1      42.783  34.959  27.020  1.00  0.00     0.031 C 
ATOM     81  C   UNL A   1      45.960  38.649  29.063  1.00  0.00     0.029 A 
ATOM     82  C   UNL A   1      44.615  38.835  28.800  1.00  0.00     0.049 A 
ATOM     83  H   UNL A   1      43.194  39.966  29.861  1.00  0.00     0.167 HD
ATOM     84  C   UNL A   1      43.480  37.086  27.628  1.00  0.00     0.074 A 
ATOM     85  C   UNL A   1      42.862  36.242  26.623  1.00  0.00     0.031 C 
ATOM     86  C   UNL A   1      43.747  38.422  27.706  1.00  0.00     0.031 A 
BRANCH  73  87
ATOM     87  C   UNL A   1      45.299  41.605  32.719  1.00  0.00    -0.014 A 
ATOM     88  C   UNL A   1      44.519  42.773  32.829  1.00  0.00     0.009 A 
ATOM     89  C   UNL A   1      46.625  41.712  33.173  1.00  0.00     0.009 A 
ATOM     90  C   UNL A   1      45.058  43.991  33.266  1.00  0.00     0.001 A 
ATOM     91  C   UNL A   1      47.183  42.935  33.573  1.00  0.00     0.001 A 
ATOM     92  C   UNL A   1      46.401  44.079  33.608  1.00  0.00     0.000 A 
ENDBRANCH  73  87
BRANCH  74  93
ATOM     93  C   UNL A   1      42.437  32.861  29.569  1.00  0.00    -0.014 A 
ATOM     94  C   UNL A   1      42.735  31.488  29.475  1.00  0.00     0.009 A 
ATOM     95  C   UNL A   1      41.283  33.251  30.263  1.00  0.00     0.009 A 
ATOM     96  C   UNL A   1      41.973  30.542  30.166  1.00  0.00     0.001 A 
ATOM     97  C   UNL A   1      40.518  32.298  30.948  1.00  0.00     0.001 A 
ATOM     98  C   UNL A   1      40.887  30.953  30.933  1.00  0.00     0.000 A 
ENDBRANCH  74  93
BRANCH  86  99
ATOM     99  C   UNL A   1      43.262  39.483  26.751  1.00  0.00    -0.014 A 
ATOM    100  C   UNL A   1      41.912  39.790  26.535  1.00  0.00     0.009 A 
ATOM    101  C   UNL A   1      44.213  40.336  26.146  1.00  0.00     0.009 A 
ATOM    102  C   UNL A   1      41.535  40.875  25.729  1.00  0.00     0.001 A 
ATOM    103  C   UNL A   1      43.841  41.443  25.379  1.00  0.00     0.001 A 
ATOM    104  C   UNL A   1      42.497  41.706  25.164  1.00  0.00     0.000 A 
ENDBRANCH  86  99
ENDBRANCH  60  61
ENDBRANCH  52  55
ENDBRANCH  50  51
ENDBRANCH  49  50
ENDBRANCH  48  49
ENDBRANCH  47  48
ENDBRANCH   3  47
TORSDOF 20
ENDMDL
MODEL 2
REMARK VINA RESULT:     -11.3      4.673      9.307
REMARK SMILES Cc1ccc(S(=O)(=O)n2cc(C(=O)C(=O)NCC(=O)N[C@H](Cc3c[nH]c4ccccc34)C(=O)NCCCCNC(=O)c3ccc(-c4c5nc(c(-c6ccccc6)c6ccc([nH]6)c(-c6ccccc6)c6nc(c(-c7ccccc7)c7ccc4[nH]7)C=C6)C=C5)cc3)c3ccccc32)cc1
REMARK SMILES IDX 32 1 33 2 34 3 21 5 20 6 18 7 19 8 17 10 16 11 14 12 15 13
REMARK SMILES IDX 12 15 13 16 11 17 9 18 10 19 95 20 90 21 94 22 91 23 93 24
REMARK SMILES IDX 92 25 6 26 7 27 8 28 5 29 1 30 2 31 3 32 97 33 4 34 96 35
REMARK SMILES IDX 22 36 23 37 24 38 31 39 25 40 26 41 30 42 27 44 29 45 28 46
REMARK SMILES IDX 35 47 36 48 37 49 38 50 39 51 40 52 41 54 42 55 43 56 89 57
REMARK SMILES IDX 44 58 88 59 45 60 46 61 47 62 82 63 48 64 87 65 81 66 83 67
REMARK SMILES IDX 49 68 86 69 80 70 79 71 50 73 72 74 57 75 71 76 58 77 61 78
REMARK SMILES IDX 70 79 84 80 59 81 60 82 69 84 85 85 62 86 51 87 52 88 56 89
REMARK SMILES IDX 53 90 55 91 54 92 73 93 74 94 78 95 75 96 77 97 76 98 63 99
REMARK SMILES IDX 64 100 68 101 65 102 67 103 66 104
REMARK H PARENT 34 4 20 9 16 14 25 43 39 53 83 72 61 83
REMARK Flexibility Score: inf
ROOT
ATOM      1  C   UNL A   1      43.648  24.300  27.133  1.00  0.00     0.242 C 
ATOM      2  O   UNL A   1      44.029  23.782  28.192  1.00  0.00    -0.273 OA
ATOM      3  N   UNL A   1      44.216  25.495  26.842  1.00  0.00    -0.354 N 
ATOM      4  H   UNL A   1      44.862  25.789  27.524  1.00  0.00     0.163 HD
ENDROOT
BRANCH   1   5
ATOM      5  C   UNL A   1      42.590  23.580  26.273  1.00  0.00     0.175 C 
BRANCH   5   6
ATOM      6  N   UNL A   1      42.077  22.459  27.069  1.00  0.00    -0.342 N 
ATOM      7  C   UNL A   1      40.787  22.107  27.340  1.00  0.00     0.240 C 
ATOM      8  O   UNL A   1      40.627  21.195  28.157  1.00  0.00    -0.273 OA
ATOM      9  H   UNL A   1      42.765  21.876  27.466  1.00  0.00     0.164 HD
BRANCH   7  10
ATOM     10  C   UNL A   1      39.599  22.652  26.518  1.00  0.00     0.216 C 
BRANCH  10  11
ATOM     11  N   UNL A   1      38.995  21.781  25.514  1.00  0.00    -0.340 N 
ATOM     12  C   UNL A   1      37.693  21.790  25.036  1.00  0.00     0.292 C 
ATOM     13  O   UNL A   1      37.321  21.049  24.135  1.00  0.00    -0.265 OA
ATOM     14  H   UNL A   1      39.589  21.098  25.126  1.00  0.00     0.164 HD
BRANCH  12  15
ATOM     15  C   UNL A   1      36.691  22.762  25.650  1.00  0.00     0.252 C 
ATOM     16  O   UNL A   1      36.838  23.020  26.844  1.00  0.00    -0.283 OA
BRANCH  15  17
ATOM     17  C   UNL A   1      35.506  23.198  24.899  1.00  0.00     0.054 A 
ATOM     18  N   UNL A   1      33.907  24.342  23.780  1.00  0.00    -0.240 N 
ATOM     19  C   UNL A   1      35.115  24.471  24.464  1.00  0.00     0.117 A 
ATOM     20  C   UNL A   1      33.678  22.968  23.585  1.00  0.00     0.065 A 
ATOM     21  C   UNL A   1      34.446  22.314  24.545  1.00  0.00     0.012 A 
ATOM     22  C   UNL A   1      32.669  22.295  22.869  1.00  0.00     0.028 A 
ATOM     23  C   UNL A   1      34.078  21.007  24.930  1.00  0.00     0.011 A 
ATOM     24  C   UNL A   1      32.276  21.036  23.319  1.00  0.00     0.002 A 
ATOM     25  C   UNL A   1      32.946  20.414  24.363  1.00  0.00     0.001 A 
BRANCH  18  26
ATOM     26  S   UNL A   1      32.424  25.184  24.155  1.00  0.00     0.268 S 
ATOM     27  O   UNL A   1      31.636  24.169  24.836  1.00  0.00    -0.201 OA
ATOM     28  O   UNL A   1      32.020  25.702  22.854  1.00  0.00    -0.201 OA
BRANCH  26  29
ATOM     29  C   UNL A   1      32.278  26.620  25.153  1.00  0.00     0.088 A 
ATOM     30  C   UNL A   1      32.935  30.337  27.255  1.00  0.00     0.044 C 
ATOM     31  C   UNL A   1      32.643  29.060  26.521  1.00  0.00    -0.051 A 
ATOM     32  C   UNL A   1      33.383  28.801  25.376  1.00  0.00     0.005 A 
ATOM     33  C   UNL A   1      31.708  28.096  26.963  1.00  0.00     0.005 A 
ATOM     34  C   UNL A   1      33.189  27.609  24.703  1.00  0.00     0.022 A 
ATOM     35  C   UNL A   1      31.520  26.862  26.285  1.00  0.00     0.022 A 
ENDBRANCH  26  29
ENDBRANCH  18  26
ENDBRANCH  15  17
ENDBRANCH  12  15
ENDBRANCH  10  11
ENDBRANCH   7  10
ENDBRANCH   5   6
BRANCH   5  36
ATOM     36  C   UNL A   1      42.978  23.148  24.842  1.00  0.00     0.072 C 
BRANCH  36  37
ATOM     37  C   UNL A   1      44.294  22.459  24.583  1.00  0.00    -0.020 A 
ATOM     38  C   UNL A   1      45.476  22.968  24.084  1.00  0.00     0.087 A 
ATOM     39  C   UNL A   1      44.563  21.065  24.846  1.00  0.00     0.003 A 
ATOM     40  N   UNL A   1      46.471  22.049  24.278  1.00  0.00    -0.361 N 
ATOM     41  C   UNL A   1      45.942  20.875  24.743  1.00  0.00     0.046 A 
ATOM     42  C   UNL A   1      43.771  19.951  25.196  1.00  0.00     0.010 A 
ATOM     43  H   UNL A   1      47.428  22.208  24.109  1.00  0.00     0.166 HD
ATOM     44  C   UNL A   1      46.581  19.674  25.068  1.00  0.00     0.026 A 
ATOM     45  C   UNL A   1      44.386  18.716  25.448  1.00  0.00     0.001 A 
ATOM     46  C   UNL A   1      45.772  18.591  25.414  1.00  0.00     0.002 A 
ENDBRANCH  36  37
ENDBRANCH   5  36
ENDBRANCH   1   5
BRANCH   3  47
ATOM     47  C   UNL A   1      44.084  26.438  25.747  1.00  0.00     0.116 C 
BRANCH  47  48
ATOM     48  C   UNL A   1      42.636  26.777  25.380  1.00  0.00     0.023 C 
BRANCH  48  49
ATOM     49  C   UNL A   1      42.208  28.219  25.660  1.00  0.00     0.023 C 
BRANCH  49  50
ATOM     50  C   UNL A   1      41.094  28.371  26.683  1.00  0.00     0.116 C 
BRANCH  50  51
ATOM     51  N   UNL A   1      40.150  27.252  26.702  1.00  0.00    -0.352 N 
ATOM     52  C   UNL A   1      39.793  26.436  27.770  1.00  0.00     0.251 C 
ATOM     53  H   UNL A   1      39.709  27.051  25.845  1.00  0.00     0.163 HD
ATOM     54  O   UNL A   1      38.958  25.563  27.655  1.00  0.00    -0.269 OA
BRANCH  52  55
ATOM     55  C   UNL A   1      40.356  26.769  29.101  1.00  0.00     0.039 A 
ATOM     56  C   UNL A   1      39.467  27.317  30.029  1.00  0.00     0.014 A 
ATOM     57  C   UNL A   1      41.730  26.932  29.236  1.00  0.00     0.014 A 
ATOM     58  C   UNL A   1      39.933  28.299  30.893  1.00  0.00     0.010 A 
ATOM     59  C   UNL A   1      42.171  27.987  30.009  1.00  0.00     0.010 A 
ATOM     60  C   UNL A   1      41.253  28.730  30.760  1.00  0.00    -0.014 A 
BRANCH  60  61
ATOM     61  C   UNL A   1      41.709  30.017  31.272  1.00  0.00     0.031 A 
ATOM     62  C   UNL A   1      42.602  30.045  32.452  1.00  0.00     0.074 A 
ATOM     63  C   UNL A   1      41.336  31.173  30.670  1.00  0.00     0.049 A 
ATOM     64  N   UNL A   1      42.686  31.031  33.279  1.00  0.00    -0.248 NA
ATOM     65  C   UNL A   1      43.438  28.909  32.829  1.00  0.00     0.031 C 
ATOM     66  C   UNL A   1      41.860  32.511  30.954  1.00  0.00     0.029 A 
ATOM     67  N   UNL A   1      40.252  31.424  29.821  1.00  0.00    -0.354 N 
ATOM     68  C   UNL A   1      43.768  30.796  34.097  1.00  0.00     0.074 A 
ATOM     69  C   UNL A   1      44.146  29.428  33.835  1.00  0.00     0.031 C 
ATOM     70  C   UNL A   1      40.940  33.418  30.587  1.00  0.00     0.029 A 
ATOM     71  C   UNL A   1      39.751  32.685  30.191  1.00  0.00     0.049 A 
ATOM     72  H   UNL A   1      39.910  30.837  29.109  1.00  0.00     0.167 HD
ATOM     73  C   UNL A   1      44.312  31.825  34.806  1.00  0.00     0.031 A 
ATOM     74  C   UNL A   1      38.497  32.899  30.690  1.00  0.00     0.031 A 
ATOM     75  C   UNL A   1      43.528  33.048  34.664  1.00  0.00     0.049 A 
ATOM     76  C   UNL A   1      38.500  33.553  32.061  1.00  0.00     0.074 A 
ATOM     77  C   UNL A   1      43.672  34.178  33.874  1.00  0.00     0.029 A 
ATOM     78  N   UNL A   1      42.238  33.087  35.177  1.00  0.00    -0.354 N 
ATOM     79  N   UNL A   1      39.555  33.620  32.826  1.00  0.00    -0.248 NA
ATOM     80  C   UNL A   1      37.317  34.122  32.710  1.00  0.00     0.031 C 
ATOM     81  C   UNL A   1      42.422  34.851  33.844  1.00  0.00     0.029 A 
ATOM     82  C   UNL A   1      41.537  34.149  34.644  1.00  0.00     0.049 A 
ATOM     83  H   UNL A   1      41.875  32.445  35.829  1.00  0.00     0.167 HD
ATOM     84  C   UNL A   1      39.228  34.203  34.022  1.00  0.00     0.074 A 
ATOM     85  C   UNL A   1      37.815  34.508  33.899  1.00  0.00     0.031 C 
ATOM     86  C   UNL A   1      40.146  34.366  35.018  1.00  0.00     0.031 A 
BRANCH  73  87
ATOM     87  C   UNL A   1      45.704  31.788  35.392  1.00  0.00    -0.014 A 
ATOM     88  C   UNL A   1      46.776  32.343  34.666  1.00  0.00     0.009 A 
ATOM     89  C   UNL A   1      46.044  31.174  36.609  1.00  0.00     0.009 A 
ATOM     90  C   UNL A   1      48.109  32.202  35.080  1.00  0.00     0.001 A 
ATOM     91  C   UNL A   1      47.375  30.993  37.011  1.00  0.00     0.001 A 
ATOM     92  C   UNL A   1      48.410  31.498  36.239  1.00  0.00     0.000 A 
ENDBRANCH  73  87
BRANCH  74  93
ATOM     93  C   UNL A   1      37.471  31.935  30.218  1.00  0.00    -0.014 A 
ATOM     94  C   UNL A   1      37.149  31.924  28.847  1.00  0.00     0.009 A 
ATOM     95  C   UNL A   1      37.113  30.827  30.999  1.00  0.00     0.009 A 
ATOM     96  C   UNL A   1      36.603  30.786  28.250  1.00  0.00     0.001 A 
ATOM     97  C   UNL A   1      36.559  29.690  30.396  1.00  0.00     0.001 A 
ATOM     98  C   UNL A   1      36.344  29.655  29.020  1.00  0.00     0.000 A 
ENDBRANCH  74  93
BRANCH  86  99
ATOM     99  C   UNL A   1      39.854  34.782  36.438  1.00  0.00    -0.014 A 
ATOM    100  C   UNL A   1      40.101  36.063  36.949  1.00  0.00     0.009 A 
ATOM    101  C   UNL A   1      39.145  33.888  37.273  1.00  0.00     0.009 A 
ATOM    102  C   UNL A   1      39.686  36.420  38.241  1.00  0.00     0.001 A 
ATOM    103  C   UNL A   1      38.694  34.254  38.543  1.00  0.00     0.001 A 
ATOM    104  C   UNL A   1      38.974  35.522  39.031  1.00  0.00     0.000 A 
ENDBRANCH  86  99
ENDBRANCH  60  61
ENDBRANCH  52  55
ENDBRANCH  50  51
ENDBRANCH  49  50
ENDBRANCH  48  49
ENDBRANCH  47  48
ENDBRANCH   3  47
TORSDOF 20
ENDMDL
MODEL 3
REMARK VINA RESULT:     -11.2      4.382      8.467
REMARK SMILES Cc1ccc(S(=O)(=O)n2cc(C(=O)C(=O)NCC(=O)N[C@H](Cc3c[nH]c4ccccc34)C(=O)NCCCCNC(=O)c3ccc(-c4c5nc(c(-c6ccccc6)c6ccc([nH]6)c(-c6ccccc6)c6nc(c(-c7ccccc7)c7ccc4[nH]7)C=C6)C=C5)cc3)c3ccccc32)cc1
REMARK SMILES IDX 32 1 33 2 34 3 21 5 20 6 18 7 19 8 17 10 16 11 14 12 15 13
REMARK SMILES IDX 12 15 13 16 11 17 9 18 10 19 95 20 90 21 94 22 91 23 93 24
REMARK SMILES IDX 92 25 6 26 7 27 8 28 5 29 1 30 2 31 3 32 97 33 4 34 96 35
REMARK SMILES IDX 22 36 23 37 24 38 31 39 25 40 26 41 30 42 27 44 29 45 28 46
REMARK SMILES IDX 35 47 36 48 37 49 38 50 39 51 40 52 41 54 42 55 43 56 89 57
REMARK SMILES IDX 44 58 88 59 45 60 46 61 47 62 82 63 48 64 87 65 81 66 83 67
REMARK SMILES IDX 49 68 86 69 80 70 79 71 50 73 72 74 57 75 71 76 58 77 61 78
REMARK SMILES IDX 70 79 84 80 59 81 60 82 69 84 85 85 62 86 51 87 52 88 56 89
REMARK SMILES IDX 53 90 55 91 54 92 73 93 74 94 78 95 75 96 77 97 76 98 63 99
REMARK SMILES IDX 64 100 68 101 65 102 67 103 66 104
REMARK H PARENT 34 4 20 9 16 14 25 43 39 53 83 72 61 83
REMARK Flexibility Score: inf
ROOT
ATOM      1  C   UNL A   1      44.125  23.538  28.144  1.00  0.00     0.242 C 
ATOM      2  O   UNL A   1      45.109  23.773  27.429  1.00  0.00    -0.273 OA
ATOM      3  N   UNL A   1      44.384  23.473  29.473  1.00  0.00    -0.354 N 
ATOM      4  H   UNL A   1      45.334  23.626  29.686  1.00  0.00     0.163 HD
ENDROOT
BRANCH   1   5
ATOM      5  C   UNL A   1      42.743  23.329  27.493  1.00  0.00     0.175 C 
BRANCH   5   6
ATOM      6  N   UNL A   1      42.854  22.160  26.613  1.00  0.00    -0.342 N 
ATOM      7  C   UNL A   1      41.877  21.329  26.148  1.00  0.00     0.240 C 
ATOM      8  O   UNL A   1      42.254  20.329  25.531  1.00  0.00    -0.273 OA
ATOM      9  H   UNL A   1      43.768  21.943  26.315  1.00  0.00     0.164 HD
BRANCH   7  10
ATOM     10  C   UNL A   1      40.383  21.718  26.189  1.00  0.00     0.216 C 
BRANCH  10  11
ATOM     11  N   UNL A   1      39.397  20.719  25.788  1.00  0.00    -0.340 N 
ATOM     12  C   UNL A   1      38.101  20.919  25.336  1.00  0.00     0.292 C 
ATOM     13  O   UNL A   1      37.389  19.997  24.959  1.00  0.00    -0.265 OA
ATOM     14  H   UNL A   1      39.689  19.780  25.846  1.00  0.00     0.164 HD
BRANCH  12  15
ATOM     15  C   UNL A   1      37.546  22.340  25.301  1.00  0.00     0.252 C 
ATOM     16  O   UNL A   1      38.227  23.208  25.844  1.00  0.00    -0.283 OA
BRANCH  15  17
ATOM     17  C   UNL A   1      36.183  22.605  24.820  1.00  0.00     0.054 A 
ATOM     18  N   UNL A   1      34.328  23.102  23.625  1.00  0.00    -0.240 N 
ATOM     19  C   UNL A   1      35.716  22.996  23.559  1.00  0.00     0.117 A 
ATOM     20  C   UNL A   1      33.921  22.547  24.851  1.00  0.00     0.065 A 
ATOM     21  C   UNL A   1      35.043  22.580  25.675  1.00  0.00     0.012 A 
ATOM     22  C   UNL A   1      32.634  22.309  25.372  1.00  0.00     0.028 A 
ATOM     23  C   UNL A   1      34.856  22.555  27.074  1.00  0.00     0.011 A 
ATOM     24  C   UNL A   1      32.468  22.365  26.755  1.00  0.00     0.002 A 
ATOM     25  C   UNL A   1      33.560  22.525  27.596  1.00  0.00     0.001 A 
BRANCH  18  26
ATOM     26  S   UNL A   1      33.392  24.523  23.231  1.00  0.00     0.268 S 
ATOM     27  O   UNL A   1      32.321  23.989  22.405  1.00  0.00    -0.201 OA
ATOM     28  O   UNL A   1      34.399  25.416  22.672  1.00  0.00    -0.201 OA
BRANCH  26  29
ATOM     29  C   UNL A   1      32.597  25.585  24.380  1.00  0.00     0.088 A 
ATOM     30  C   UNL A   1      31.623  28.198  27.681  1.00  0.00     0.044 C 
ATOM     31  C   UNL A   1      31.917  27.321  26.497  1.00  0.00    -0.051 A 
ATOM     32  C   UNL A   1      33.241  27.223  26.091  1.00  0.00     0.005 A 
ATOM     33  C   UNL A   1      30.938  26.557  25.823  1.00  0.00     0.005 A 
ATOM     34  C   UNL A   1      33.564  26.380  25.044  1.00  0.00     0.022 A 
ATOM     35  C   UNL A   1      31.269  25.676  24.759  1.00  0.00     0.022 A 
ENDBRANCH  26  29
ENDBRANCH  18  26
ENDBRANCH  15  17
ENDBRANCH  12  15
ENDBRANCH  10  11
ENDBRANCH   7  10
ENDBRANCH   5   6
BRANCH   5  36
ATOM     36  C   UNL A   1      42.078  24.529  26.784  1.00  0.00     0.072 C 
BRANCH  36  37
ATOM     37  C   UNL A   1      40.898  25.227  27.411  1.00  0.00    -0.020 A 
ATOM     38  C   UNL A   1      39.939  24.740  28.276  1.00  0.00     0.087 A 
ATOM     39  C   UNL A   1      40.558  26.617  27.212  1.00  0.00     0.003 A 
ATOM     40  N   UNL A   1      39.231  25.793  28.790  1.00  0.00    -0.361 N 
ATOM     41  C   UNL A   1      39.589  26.954  28.158  1.00  0.00     0.046 A 
ATOM     42  C   UNL A   1      41.008  27.632  26.342  1.00  0.00     0.010 A 
ATOM     43  H   UNL A   1      38.562  25.726  29.510  1.00  0.00     0.166 HD
ATOM     44  C   UNL A   1      39.121  28.257  28.351  1.00  0.00     0.026 A 
ATOM     45  C   UNL A   1      40.491  28.930  26.467  1.00  0.00     0.001 A 
ATOM     46  C   UNL A   1      39.586  29.241  27.478  1.00  0.00     0.002 A 
ENDBRANCH  36  37
ENDBRANCH   5  36
ENDBRANCH   1   5
BRANCH   3  47
ATOM     47  C   UNL A   1      43.574  23.232  30.651  1.00  0.00     0.116 C 
BRANCH  47  48
ATOM     48  C   UNL A   1      44.199  23.731  31.958  1.00  0.00     0.023 C 
BRANCH  48  49
ATOM     49  C   UNL A   1      43.812  22.946  33.213  1.00  0.00     0.023 C 
BRANCH  49  50
ATOM     50  C   UNL A   1      43.695  23.778  34.480  1.00  0.00     0.116 C 
BRANCH  50  51
ATOM     51  N   UNL A   1      42.329  23.884  34.996  1.00  0.00    -0.352 N 
ATOM     52  C   UNL A   1      41.682  24.999  35.516  1.00  0.00     0.251 C 
ATOM     53  H   UNL A   1      41.798  23.056  34.970  1.00  0.00     0.163 HD
ATOM     54  O   UNL A   1      40.523  24.956  35.872  1.00  0.00    -0.269 OA
BRANCH  52  55
ATOM     55  C   UNL A   1      42.412  26.290  35.479  1.00  0.00     0.039 A 
ATOM     56  C   UNL A   1      41.997  27.261  36.393  1.00  0.00     0.014 A 
ATOM     57  C   UNL A   1      43.127  26.633  34.337  1.00  0.00     0.014 A 
ATOM     58  C   UNL A   1      42.007  28.592  35.997  1.00  0.00     0.010 A 
ATOM     59  C   UNL A   1      43.029  27.938  33.896  1.00  0.00     0.010 A 
ATOM     60  C   UNL A   1      42.380  28.893  34.687  1.00  0.00    -0.014 A 
BRANCH  60  61
ATOM     61  C   UNL A   1      42.008  30.144  34.037  1.00  0.00     0.031 A 
ATOM     62  C   UNL A   1      40.978  30.123  32.975  1.00  0.00     0.074 A 
ATOM     63  C   UNL A   1      42.582  31.314  34.408  1.00  0.00     0.049 A 
ATOM     64  N   UNL A   1      40.898  30.986  32.020  1.00  0.00    -0.248 NA
ATOM     65  C   UNL A   1      39.978  29.064  32.874  1.00  0.00     0.031 C 
ATOM     66  C   UNL A   1      42.179  32.656  33.981  1.00  0.00     0.029 A 
ATOM     67  N   UNL A   1      43.790  31.539  35.081  1.00  0.00    -0.354 N 
ATOM     68  C   UNL A   1      39.699  30.781  31.374  1.00  0.00     0.074 A 
ATOM     69  C   UNL A   1      39.208  29.524  31.885  1.00  0.00     0.031 C 
ATOM     70  C   UNL A   1      43.234  33.479  34.098  1.00  0.00     0.029 A 
ATOM     71  C   UNL A   1      44.375  32.660  34.467  1.00  0.00     0.049 A 
ATOM     72  H   UNL A   1      44.153  31.017  35.833  1.00  0.00     0.167 HD
ATOM     73  C   UNL A   1      39.186  31.763  30.581  1.00  0.00     0.031 A 
ATOM     74  C   UNL A   1      45.570  32.638  33.804  1.00  0.00     0.031 A 
ATOM     75  C   UNL A   1      40.113  32.882  30.444  1.00  0.00     0.049 A 
ATOM     76  C   UNL A   1      45.461  33.089  32.357  1.00  0.00     0.074 A 
ATOM     77  C   UNL A   1      40.200  34.120  31.061  1.00  0.00     0.029 A 
ATOM     78  N   UNL A   1      41.321  32.681  29.790  1.00  0.00    -0.354 N 
ATOM     79  N   UNL A   1      44.330  33.185  31.715  1.00  0.00    -0.248 NA
ATOM     80  C   UNL A   1      46.607  33.403  31.500  1.00  0.00     0.031 C 
ATOM     81  C   UNL A   1      41.510  34.623  30.846  1.00  0.00     0.029 A 
ATOM     82  C   UNL A   1      42.200  33.708  30.071  1.00  0.00     0.049 A 
ATOM     83  H   UNL A   1      41.523  31.914  29.208  1.00  0.00     0.167 HD
ATOM     84  C   UNL A   1      44.562  33.548  30.414  1.00  0.00     0.074 A 
ATOM     85  C   UNL A   1      46.004  33.682  30.329  1.00  0.00     0.031 C 
ATOM     86  C   UNL A   1      43.546  33.688  29.514  1.00  0.00     0.031 A 
BRANCH  73  87
ATOM     87  C   UNL A   1      37.734  31.826  30.168  1.00  0.00    -0.014 A 
ATOM     88  C   UNL A   1      37.404  31.834  28.799  1.00  0.00     0.009 A 
ATOM     89  C   UNL A   1      36.652  31.942  31.057  1.00  0.00     0.009 A 
ATOM     90  C   UNL A   1      36.092  32.048  28.349  1.00  0.00     0.001 A 
ATOM     91  C   UNL A   1      35.345  32.196  30.618  1.00  0.00     0.001 A 
ATOM     92  C   UNL A   1      35.067  32.260  29.261  1.00  0.00     0.000 A 
ENDBRANCH  73  87
BRANCH  74  93
ATOM     93  C   UNL A   1      46.535  31.624  34.301  1.00  0.00    -0.014 A 
ATOM     94  C   UNL A   1      47.124  31.829  35.563  1.00  0.00     0.009 A 
ATOM     95  C   UNL A   1      46.578  30.339  33.742  1.00  0.00     0.009 A 
ATOM     96  C   UNL A   1      47.625  30.754  36.302  1.00  0.00     0.001 A 
ATOM     97  C   UNL A   1      47.089  29.266  34.483  1.00  0.00     0.001 A 
ATOM     98  C   UNL A   1      47.572  29.467  35.775  1.00  0.00     0.000 A 
ENDBRANCH  74  93
BRANCH  86  99
ATOM     99  C   UNL A   1      43.695  33.860  28.023  1.00  0.00    -0.014 A 
ATOM    100  C   UNL A   1      44.205  32.878  27.164  1.00  0.00     0.009 A 
ATOM    101  C   UNL A   1      43.148  35.015  27.417  1.00  0.00     0.009 A 
ATOM    102  C   UNL A   1      44.197  33.056  25.773  1.00  0.00     0.001 A 
ATOM    103  C   UNL A   1      43.099  35.176  26.030  1.00  0.00     0.001 A 
ATOM    104  C   UNL A   1      43.634  34.196  25.207  1.00  0.00     0.000 A 
ENDBRANCH  86  99
ENDBRANCH  60  61
ENDBRANCH  52  55
ENDBRANCH  50  51
ENDBRANCH  49  50
ENDBRANCH  48  49
ENDBRANCH  47  48
ENDBRANCH   3  47
TORSDOF 20
ENDMDL
