MODEL 1
REMARK VINA RESULT:     -11.7      0.000      0.000
REMARK SMILES CS(=O)(=O)c1ccc(N2N=C(C(=O)NCCCCNC(=O)c3ccc(-c4c5nc(c(-c6ccccc6)c6ccc([nH]6)c(-c6ccccc6)c6nc(c(-c7ccccc7)c7ccc4[nH]7)C=C6)C=C5)cc3)C[C@H]2c2ccco2)cc1
REMARK SMILES IDX 16 1 15 2 14 3 12 4 13 5 11 7 9 8 10 9 71 10 70 11 8 12 5 13
REMARK SMILES IDX 6 14 78 15 7 16 77 17 2 18 1 19 3 20 4 21 72 22 73 23 76 24
REMARK SMILES IDX 74 25 75 26 17 27 18 28 19 29 20 30 21 32 22 33 23 34 69 35
REMARK SMILES IDX 24 36 68 37 25 38 26 39 27 40 62 41 28 42 67 43 61 44 63 45
REMARK SMILES IDX 29 46 66 47 60 48 59 49 30 51 52 52 37 53 51 54 38 55 41 56
REMARK SMILES IDX 50 57 64 58 39 59 40 60 49 62 65 63 42 64 31 65 32 66 36 67
REMARK SMILES IDX 33 68 35 69 34 70 53 71 54 72 58 73 55 74 57 75 56 76 43 77
REMARK SMILES IDX 44 78 48 79 45 80 47 81 46 82
REMARK H PARENT 14 6 19 31 63 50 41 61
REMARK Flexibility Score: inf
ROOT
ATOM      1  C   UNL A   1      31.689  27.753  26.574  1.00  0.00     0.023 C 
ENDROOT
BRANCH   1   2
ATOM      2  C   UNL A   1      31.202  26.631  25.661  1.00  0.00     0.116 C 
BRANCH   2   3
ATOM      3  N   UNL A   1      30.525  25.594  26.415  1.00  0.00    -0.351 N 
ATOM      4  C   UNL A   1      30.702  24.241  26.566  1.00  0.00     0.267 C 
ATOM      5  O   UNL A   1      29.865  23.633  27.229  1.00  0.00    -0.268 OA
ATOM      6  H   UNL A   1      29.765  25.939  26.939  1.00  0.00     0.163 HD
BRANCH   4   7
ATOM      7  C   UNL A   1      31.880  23.464  25.994  1.00  0.00     0.128 C 
ATOM      8  N   UNL A   1      33.239  21.827  25.712  1.00  0.00    -0.254 N 
ATOM      9  N   UNL A   1      32.033  22.196  26.240  1.00  0.00    -0.171 NA
ATOM     10  C   UNL A   1      33.834  22.874  24.865  1.00  0.00     0.180 C 
ATOM     11  C   UNL A   1      32.935  24.079  25.149  1.00  0.00     0.099 C 
BRANCH   8  12
ATOM     12  C   UNL A   1      33.452  20.488  25.369  1.00  0.00     0.060 A 
ATOM     13  C   UNL A   1      33.902  17.766  24.851  1.00  0.00     0.067 A 
ATOM     14  C   UNL A   1      34.908  18.697  24.582  1.00  0.00     0.022 A 
ATOM     15  C   UNL A   1      32.666  18.180  25.346  1.00  0.00     0.022 A 
ATOM     16  C   UNL A   1      34.672  20.054  24.825  1.00  0.00     0.029 A 
ATOM     17  C   UNL A   1      32.450  19.537  25.598  1.00  0.00     0.029 A 
BRANCH  13  18
ATOM     18  S   UNL A   1      34.209  16.036  24.595  1.00  0.00     0.175 S 
ATOM     19  C   UNL A   1      32.808  15.219  25.306  1.00  0.00     0.163 C 
ATOM     20  O   UNL A   1      35.371  15.675  25.388  1.00  0.00    -0.224 OA
ATOM     21  O   UNL A   1      34.190  15.818  23.161  1.00  0.00    -0.224 OA
ENDBRANCH  13  18
ENDBRANCH   8  12
BRANCH  10  22
ATOM     22  C   UNL A   1      35.291  23.188  25.052  1.00  0.00     0.128 A 
ATOM     23  C   UNL A   1      36.355  23.261  24.172  1.00  0.00     0.048 A 
ATOM     24  O   UNL A   1      35.723  23.516  26.308  1.00  0.00    -0.467 OA
ATOM     25  C   UNL A   1      37.487  23.640  24.934  1.00  0.00     0.042 A 
ATOM     26  C   UNL A   1      37.046  23.794  26.224  1.00  0.00     0.195 A 
ENDBRANCH  10  22
ENDBRANCH   4   7
ENDBRANCH   2   3
ENDBRANCH   1   2
BRANCH   1  27
ATOM     27  C   UNL A   1      33.207  27.805  26.750  1.00  0.00     0.023 C 
BRANCH  27  28
ATOM     28  C   UNL A   1      33.903  28.967  26.047  1.00  0.00     0.116 C 
BRANCH  28  29
ATOM     29  N   UNL A   1      33.724  30.245  26.719  1.00  0.00    -0.352 N 
ATOM     30  C   UNL A   1      34.530  30.845  27.657  1.00  0.00     0.251 C 
ATOM     31  H   UNL A   1      32.915  30.748  26.468  1.00  0.00     0.163 HD
ATOM     32  O   UNL A   1      34.182  31.888  28.201  1.00  0.00    -0.269 OA
BRANCH  30  33
ATOM     33  C   UNL A   1      35.802  30.199  28.032  1.00  0.00     0.039 A 
ATOM     34  C   UNL A   1      36.882  30.276  27.151  1.00  0.00     0.014 A 
ATOM     35  C   UNL A   1      35.938  29.563  29.269  1.00  0.00     0.014 A 
ATOM     36  C   UNL A   1      38.126  29.781  27.544  1.00  0.00     0.010 A 
ATOM     37  C   UNL A   1      37.193  29.133  29.686  1.00  0.00     0.010 A 
ATOM     38  C   UNL A   1      38.299  29.243  28.830  1.00  0.00    -0.014 A 
BRANCH  38  39
ATOM     39  C   UNL A   1      39.633  28.803  29.306  1.00  0.00     0.031 A 
ATOM     40  C   UNL A   1      40.199  27.486  28.858  1.00  0.00     0.074 A 
ATOM     41  C   UNL A   1      40.297  29.552  30.209  1.00  0.00     0.049 A 
ATOM     42  N   UNL A   1      41.312  26.901  29.219  1.00  0.00    -0.248 NA
ATOM     43  C   UNL A   1      39.393  26.712  27.901  1.00  0.00     0.031 C 
ATOM     44  C   UNL A   1      39.831  30.824  30.765  1.00  0.00     0.029 A 
ATOM     45  N   UNL A   1      41.503  29.340  30.827  1.00  0.00    -0.354 N 
ATOM     46  C   UNL A   1      41.327  25.682  28.555  1.00  0.00     0.074 A 
ATOM     47  C   UNL A   1      40.093  25.592  27.805  1.00  0.00     0.031 C 
ATOM     48  C   UNL A   1      40.751  31.290  31.626  1.00  0.00     0.029 A 
ATOM     49  C   UNL A   1      41.852  30.336  31.707  1.00  0.00     0.049 A 
ATOM     50  H   UNL A   1      42.066  28.551  30.657  1.00  0.00     0.167 HD
ATOM     51  C   UNL A   1      42.290  24.728  28.554  1.00  0.00     0.031 A 
ATOM     52  C   UNL A   1      42.935  30.465  32.495  1.00  0.00     0.031 A 
ATOM     53  C   UNL A   1      43.524  24.825  29.285  1.00  0.00     0.049 A 
ATOM     54  C   UNL A   1      43.997  29.402  32.467  1.00  0.00     0.074 A 
ATOM     55  C   UNL A   1      44.595  23.948  29.291  1.00  0.00     0.029 A 
ATOM     56  N   UNL A   1      43.852  25.863  30.143  1.00  0.00    -0.354 N 
ATOM     57  N   UNL A   1      44.034  28.292  31.773  1.00  0.00    -0.248 NA
ATOM     58  C   UNL A   1      45.172  29.619  33.324  1.00  0.00     0.031 C 
ATOM     59  C   UNL A   1      45.552  24.433  30.188  1.00  0.00     0.029 A 
ATOM     60  C   UNL A   1      45.098  25.637  30.703  1.00  0.00     0.049 A 
ATOM     61  H   UNL A   1      43.283  26.645  30.329  1.00  0.00     0.167 HD
ATOM     62  C   UNL A   1      45.244  27.688  32.089  1.00  0.00     0.074 A 
ATOM     63  C   UNL A   1      45.917  28.563  33.026  1.00  0.00     0.031 C 
ATOM     64  C   UNL A   1      45.752  26.515  31.639  1.00  0.00     0.031 A 
BRANCH  51  65
ATOM     65  C   UNL A   1      42.031  23.492  27.741  1.00  0.00    -0.014 A 
ATOM     66  C   UNL A   1      42.484  23.382  26.416  1.00  0.00     0.009 A 
ATOM     67  C   UNL A   1      41.337  22.415  28.312  1.00  0.00     0.009 A 
ATOM     68  C   UNL A   1      42.209  22.237  25.667  1.00  0.00     0.001 A 
ATOM     69  C   UNL A   1      41.089  21.259  27.570  1.00  0.00     0.001 A 
ATOM     70  C   UNL A   1      41.514  21.175  26.245  1.00  0.00     0.000 A 
ENDBRANCH  51  65
BRANCH  52  71
ATOM     71  C   UNL A   1      43.079  31.663  33.360  1.00  0.00    -0.014 A 
ATOM     72  C   UNL A   1      42.413  31.732  34.593  1.00  0.00     0.009 A 
ATOM     73  C   UNL A   1      43.894  32.736  32.967  1.00  0.00     0.009 A 
ATOM     74  C   UNL A   1      42.544  32.860  35.405  1.00  0.00     0.001 A 
ATOM     75  C   UNL A   1      44.043  33.852  33.794  1.00  0.00     0.001 A 
ATOM     76  C   UNL A   1      43.363  33.916  35.008  1.00  0.00     0.000 A 
ENDBRANCH  52  71
BRANCH  64  77
ATOM     77  C   UNL A   1      47.113  26.123  32.135  1.00  0.00    -0.014 A 
ATOM     78  C   UNL A   1      47.272  25.386  33.318  1.00  0.00     0.009 A 
ATOM     79  C   UNL A   1      48.250  26.459  31.383  1.00  0.00     0.009 A 
ATOM     80  C   UNL A   1      48.547  25.017  33.754  1.00  0.00     0.001 A 
ATOM     81  C   UNL A   1      49.521  26.068  31.806  1.00  0.00     0.001 A 
ATOM     82  C   UNL A   1      49.668  25.354  32.995  1.00  0.00     0.000 A 
ENDBRANCH  64  77
ENDBRANCH  38  39
ENDBRANCH  30  33
ENDBRANCH  28  29
ENDBRANCH  27  28
ENDBRANCH   1  27
TORSDOF 14
ENDMDL
MODEL 2
REMARK VINA RESULT:     -11.7      0.998      5.847
REMARK SMILES CS(=O)(=O)c1ccc(N2N=C(C(=O)NCCCCNC(=O)c3ccc(-c4c5nc(c(-c6ccccc6)c6ccc([nH]6)c(-c6ccccc6)c6nc(c(-c7ccccc7)c7ccc4[nH]7)C=C6)C=C5)cc3)C[C@H]2c2ccco2)cc1
REMARK SMILES IDX 16 1 15 2 14 3 12 4 13 5 11 7 9 8 10 9 71 10 70 11 8 12 5 13
REMARK SMILES IDX 6 14 78 15 7 16 77 17 2 18 1 19 3 20 4 21 72 22 73 23 76 24
REMARK SMILES IDX 74 25 75 26 17 27 18 28 19 29 20 30 21 32 22 33 23 34 69 35
REMARK SMILES IDX 24 36 68 37 25 38 26 39 27 40 62 41 28 42 67 43 61 44 63 45
REMARK SMILES IDX 29 46 66 47 60 48 59 49 30 51 52 52 37 53 51 54 38 55 41 56
REMARK SMILES IDX 50 57 64 58 39 59 40 60 49 62 65 63 42 64 31 65 32 66 36 67
REMARK SMILES IDX 33 68 35 69 34 70 53 71 54 72 58 73 55 74 57 75 56 76 43 77
REMARK SMILES IDX 44 78 48 79 45 80 47 81 46 82
REMARK H PARENT 14 6 19 31 63 50 41 61
REMARK Flexibility Score: inf
ROOT
ATOM      1  C   UNL A   1      31.603  28.082  26.198  1.00  0.00     0.023 C 
ENDROOT
BRANCH   1   2
ATOM      2  C   UNL A   1      31.088  26.922  25.352  1.00  0.00     0.116 C 
BRANCH   2   3
ATOM      3  N   UNL A   1      30.456  25.910  26.175  1.00  0.00    -0.351 N 
ATOM      4  C   UNL A   1      30.664  24.568  26.383  1.00  0.00     0.267 C 
ATOM      5  O   UNL A   1      29.860  23.977  27.101  1.00  0.00    -0.268 OA
ATOM      6  H   UNL A   1      29.706  26.265  26.706  1.00  0.00     0.163 HD
BRANCH   4   7
ATOM      7  C   UNL A   1      31.839  23.787  25.811  1.00  0.00     0.128 C 
ATOM      8  N   UNL A   1      33.169  22.132  25.501  1.00  0.00    -0.254 N 
ATOM      9  N   UNL A   1      31.959  22.508  26.014  1.00  0.00    -0.171 NA
ATOM     10  C   UNL A   1      33.806  23.195  24.707  1.00  0.00     0.180 C 
ATOM     11  C   UNL A   1      32.927  24.409  25.014  1.00  0.00     0.099 C 
BRANCH   8  12
ATOM     12  C   UNL A   1      33.362  20.802  25.115  1.00  0.00     0.060 A 
ATOM     13  C   UNL A   1      33.684  18.083  24.494  1.00  0.00     0.067 A 
ATOM     14  C   UNL A   1      34.798  18.849  24.845  1.00  0.00     0.022 A 
ATOM     15  C   UNL A   1      32.418  18.664  24.420  1.00  0.00     0.022 A 
ATOM     16  C   UNL A   1      34.634  20.207  25.136  1.00  0.00     0.029 A 
ATOM     17  C   UNL A   1      32.268  20.017  24.728  1.00  0.00     0.029 A 
BRANCH  13  18
ATOM     18  S   UNL A   1      33.872  16.347  24.174  1.00  0.00     0.175 S 
ATOM     19  C   UNL A   1      35.264  15.857  25.153  1.00  0.00     0.163 C 
ATOM     20  O   UNL A   1      34.249  16.196  22.779  1.00  0.00    -0.224 OA
ATOM     21  O   UNL A   1      32.688  15.696  24.700  1.00  0.00    -0.224 OA
ENDBRANCH  13  18
ENDBRANCH   8  12
BRANCH  10  22
ATOM     22  C   UNL A   1      35.265  23.471  24.940  1.00  0.00     0.128 A 
ATOM     23  C   UNL A   1      35.956  24.040  25.993  1.00  0.00     0.048 A 
ATOM     24  O   UNL A   1      36.156  23.073  23.980  1.00  0.00    -0.467 OA
ATOM     25  C   UNL A   1      37.329  23.996  25.651  1.00  0.00     0.042 A 
ATOM     26  C   UNL A   1      37.397  23.387  24.422  1.00  0.00     0.195 A 
ENDBRANCH  10  22
ENDBRANCH   4   7
ENDBRANCH   2   3
ENDBRANCH   1   2
BRANCH   1  27
ATOM     27  C   UNL A   1      33.029  27.897  26.717  1.00  0.00     0.023 C 
BRANCH  27  28
ATOM     28  C   UNL A   1      34.011  28.999  26.331  1.00  0.00     0.116 C 
BRANCH  28  29
ATOM     29  N   UNL A   1      33.844  30.222  27.100  1.00  0.00    -0.352 N 
ATOM     30  C   UNL A   1      34.693  30.779  28.027  1.00  0.00     0.251 C 
ATOM     31  H   UNL A   1      33.009  30.719  26.935  1.00  0.00     0.163 HD
ATOM     32  O   UNL A   1      34.356  31.772  28.663  1.00  0.00    -0.269 OA
BRANCH  30  33
ATOM     33  C   UNL A   1      36.001  30.144  28.279  1.00  0.00     0.039 A 
ATOM     34  C   UNL A   1      36.983  30.210  27.288  1.00  0.00     0.014 A 
ATOM     35  C   UNL A   1      36.269  29.531  29.505  1.00  0.00     0.014 A 
ATOM     36  C   UNL A   1      38.263  29.727  27.557  1.00  0.00     0.010 A 
ATOM     37  C   UNL A   1      37.563  29.114  29.796  1.00  0.00     0.010 A 
ATOM     38  C   UNL A   1      38.574  29.212  28.826  1.00  0.00    -0.014 A 
BRANCH  38  39
ATOM     39  C   UNL A   1      39.952  28.786  29.168  1.00  0.00     0.031 A 
ATOM     40  C   UNL A   1      40.879  29.729  29.881  1.00  0.00     0.074 A 
ATOM     41  C   UNL A   1      40.397  27.581  28.760  1.00  0.00     0.049 A 
ATOM     42  N   UNL A   1      42.137  29.564  30.202  1.00  0.00    -0.248 NA
ATOM     43  C   UNL A   1      40.327  31.040  30.256  1.00  0.00     0.031 C 
ATOM     44  C   UNL A   1      39.613  26.595  28.012  1.00  0.00     0.029 A 
ATOM     45  N   UNL A   1      41.625  26.988  28.909  1.00  0.00    -0.354 N 
ATOM     46  C   UNL A   1      42.533  30.757  30.792  1.00  0.00     0.074 A 
ATOM     47  C   UNL A   1      41.396  31.651  30.744  1.00  0.00     0.031 C 
ATOM     48  C   UNL A   1      40.373  25.511  27.787  1.00  0.00     0.029 A 
ATOM     49  C   UNL A   1      41.703  25.738  28.342  1.00  0.00     0.049 A 
ATOM     50  H   UNL A   1      42.377  27.415  29.376  1.00  0.00     0.167 HD
ATOM     51  C   UNL A   1      43.730  31.075  31.340  1.00  0.00     0.031 A 
ATOM     52  C   UNL A   1      42.732  24.874  28.274  1.00  0.00     0.031 A 
ATOM     53  C   UNL A   1      44.854  30.180  31.403  1.00  0.00     0.049 A 
ATOM     54  C   UNL A   1      44.046  25.242  28.902  1.00  0.00     0.074 A 
ATOM     55  C   UNL A   1      46.084  30.382  32.004  1.00  0.00     0.029 A 
ATOM     56  N   UNL A   1      44.884  28.913  30.842  1.00  0.00    -0.354 N 
ATOM     57  N   UNL A   1      44.381  26.344  29.527  1.00  0.00    -0.248 NA
ATOM     58  C   UNL A   1      45.119  24.241  28.824  1.00  0.00     0.031 C 
ATOM     59  C   UNL A   1      46.876  29.253  31.767  1.00  0.00     0.029 A 
ATOM     60  C   UNL A   1      46.120  28.329  31.062  1.00  0.00     0.049 A 
ATOM     61  H   UNL A   1      44.138  28.490  30.359  1.00  0.00     0.167 HD
ATOM     62  C   UNL A   1      45.695  26.161  29.938  1.00  0.00     0.074 A 
ATOM     63  C   UNL A   1      46.090  24.837  29.504  1.00  0.00     0.031 C 
ATOM     64  C   UNL A   1      46.500  27.013  30.618  1.00  0.00     0.031 A 
BRANCH  51  65
ATOM     65  C   UNL A   1      43.880  32.459  31.905  1.00  0.00    -0.014 A 
ATOM     66  C   UNL A   1      44.324  33.527  31.108  1.00  0.00     0.009 A 
ATOM     67  C   UNL A   1      43.559  32.703  33.248  1.00  0.00     0.009 A 
ATOM     68  C   UNL A   1      44.484  34.800  31.657  1.00  0.00     0.001 A 
ATOM     69  C   UNL A   1      43.693  33.983  33.788  1.00  0.00     0.001 A 
ATOM     70  C   UNL A   1      44.166  35.029  32.995  1.00  0.00     0.000 A 
ENDBRANCH  51  65
BRANCH  52  71
ATOM     71  C   UNL A   1      42.549  23.562  27.603  1.00  0.00    -0.014 A 
ATOM     72  C   UNL A   1      42.038  22.465  28.315  1.00  0.00     0.009 A 
ATOM     73  C   UNL A   1      42.870  23.401  26.246  1.00  0.00     0.009 A 
ATOM     74  C   UNL A   1      41.871  21.230  27.686  1.00  0.00     0.001 A 
ATOM     75  C   UNL A   1      42.677  22.170  25.614  1.00  0.00     0.001 A 
ATOM     76  C   UNL A   1      42.186  21.085  26.336  1.00  0.00     0.000 A 
ENDBRANCH  52  71
BRANCH  64  77
ATOM     77  C   UNL A   1      47.879  26.529  30.958  1.00  0.00    -0.014 A 
ATOM     78  C   UNL A   1      48.134  25.831  32.148  1.00  0.00     0.009 A 
ATOM     79  C   UNL A   1      48.931  26.737  30.051  1.00  0.00     0.009 A 
ATOM     80  C   UNL A   1      49.422  25.376  32.437  1.00  0.00     0.001 A 
ATOM     81  C   UNL A   1      50.211  26.259  30.330  1.00  0.00     0.001 A 
ATOM     82  C   UNL A   1      50.457  25.586  31.526  1.00  0.00     0.000 A 
ENDBRANCH  64  77
ENDBRANCH  38  39
ENDBRANCH  30  33
ENDBRANCH  28  29
ENDBRANCH  27  28
ENDBRANCH   1  27
TORSDOF 14
ENDMDL
MODEL 3
REMARK VINA RESULT:     -11.3      0.512      5.859
REMARK SMILES CS(=O)(=O)c1ccc(N2N=C(C(=O)NCCCCNC(=O)c3ccc(-c4c5nc(c(-c6ccccc6)c6ccc([nH]6)c(-c6ccccc6)c6nc(c(-c7ccccc7)c7ccc4[nH]7)C=C6)C=C5)cc3)C[C@H]2c2ccco2)cc1
REMARK SMILES IDX 16 1 15 2 14 3 12 4 13 5 11 7 9 8 10 9 71 10 70 11 8 12 5 13
REMARK SMILES IDX 6 14 78 15 7 16 77 17 2 18 1 19 3 20 4 21 72 22 73 23 76 24
REMARK SMILES IDX 74 25 75 26 17 27 18 28 19 29 20 30 21 32 22 33 23 34 69 35
REMARK SMILES IDX 24 36 68 37 25 38 26 39 27 40 62 41 28 42 67 43 61 44 63 45
REMARK SMILES IDX 29 46 66 47 60 48 59 49 30 51 52 52 37 53 51 54 38 55 41 56
REMARK SMILES IDX 50 57 64 58 39 59 40 60 49 62 65 63 42 64 31 65 32 66 36 67
REMARK SMILES IDX 33 68 35 69 34 70 53 71 54 72 58 73 55 74 57 75 56 76 43 77
REMARK SMILES IDX 44 78 48 79 45 80 47 81 46 82
REMARK H PARENT 14 6 19 31 63 50 41 61
REMARK Flexibility Score: inf
ROOT
ATOM      1  C   UNL A   1      32.219  27.605  26.622  1.00  0.00     0.023 C 
ENDROOT
BRANCH   1   2
ATOM      2  C   UNL A   1      31.546  26.639  25.652  1.00  0.00     0.116 C 
BRANCH   2   3
ATOM      3  N   UNL A   1      30.770  25.638  26.358  1.00  0.00    -0.351 N 
ATOM      4  C   UNL A   1      30.878  24.280  26.530  1.00  0.00     0.267 C 
ATOM      5  O   UNL A   1      29.966  23.714  27.130  1.00  0.00    -0.268 OA
ATOM      6  H   UNL A   1      29.987  26.019  26.819  1.00  0.00     0.163 HD
BRANCH   4   7
ATOM      7  C   UNL A   1      32.062  23.449  26.056  1.00  0.00     0.128 C 
ATOM      8  N   UNL A   1      33.393  21.772  25.925  1.00  0.00    -0.254 N 
ATOM      9  N   UNL A   1      32.174  22.194  26.376  1.00  0.00    -0.171 NA
ATOM     10  C   UNL A   1      34.051  22.758  25.053  1.00  0.00     0.180 C 
ATOM     11  C   UNL A   1      33.169  23.996  25.230  1.00  0.00     0.099 C 
BRANCH   8  12
ATOM     12  C   UNL A   1      33.591  20.412  25.664  1.00  0.00     0.060 A 
ATOM     13  C   UNL A   1      33.938  17.713  24.973  1.00  0.00     0.067 A 
ATOM     14  C   UNL A   1      32.818  18.099  25.713  1.00  0.00     0.022 A 
ATOM     15  C   UNL A   1      34.900  18.652  24.599  1.00  0.00     0.022 A 
ATOM     16  C   UNL A   1      32.660  19.442  26.069  1.00  0.00     0.029 A 
ATOM     17  C   UNL A   1      34.720  19.991  24.950  1.00  0.00     0.029 A 
BRANCH  13  18
ATOM     18  S   UNL A   1      34.122  16.021  24.470  1.00  0.00     0.175 S 
ATOM     19  C   UNL A   1      32.710  15.193  25.147  1.00  0.00     0.163 C 
ATOM     20  O   UNL A   1      35.297  15.489  25.137  1.00  0.00    -0.224 OA
ATOM     21  O   UNL A   1      34.016  16.002  23.023  1.00  0.00    -0.224 OA
ENDBRANCH  13  18
ENDBRANCH   8  12
BRANCH  10  22
ATOM     22  C   UNL A   1      35.505  23.052  25.291  1.00  0.00     0.128 A 
ATOM     23  C   UNL A   1      36.158  24.035  26.013  1.00  0.00     0.048 A 
ATOM     24  O   UNL A   1      36.430  22.201  24.752  1.00  0.00    -0.467 OA
ATOM     25  C   UNL A   1      37.544  23.773  25.895  1.00  0.00     0.042 A 
ATOM     26  C   UNL A   1      37.656  22.639  25.129  1.00  0.00     0.195 A 
ENDBRANCH  10  22
ENDBRANCH   4   7
ENDBRANCH   2   3
ENDBRANCH   1   2
BRANCH   1  27
ATOM     27  C   UNL A   1      33.748  27.564  26.591  1.00  0.00     0.023 C 
BRANCH  27  28
ATOM     28  C   UNL A   1      34.422  28.826  26.061  1.00  0.00     0.116 C 
BRANCH  28  29
ATOM     29  N   UNL A   1      33.881  30.054  26.625  1.00  0.00    -0.352 N 
ATOM     30  C   UNL A   1      34.393  30.838  27.630  1.00  0.00     0.251 C 
ATOM     31  H   UNL A   1      33.032  30.365  26.232  1.00  0.00     0.163 HD
ATOM     32  O   UNL A   1      33.759  31.797  28.057  1.00  0.00    -0.269 OA
BRANCH  30  33
ATOM     33  C   UNL A   1      35.700  30.490  28.220  1.00  0.00     0.039 A 
ATOM     34  C   UNL A   1      35.730  29.700  29.371  1.00  0.00     0.014 A 
ATOM     35  C   UNL A   1      36.888  30.902  27.610  1.00  0.00     0.014 A 
ATOM     36  C   UNL A   1      36.956  29.257  29.869  1.00  0.00     0.010 A 
ATOM     37  C   UNL A   1      38.103  30.403  28.065  1.00  0.00     0.010 A 
ATOM     38  C   UNL A   1      38.149  29.573  29.196  1.00  0.00    -0.014 A 
BRANCH  38  39
ATOM     39  C   UNL A   1      39.453  29.031  29.647  1.00  0.00     0.031 A 
ATOM     40  C   UNL A   1      40.313  29.820  30.592  1.00  0.00     0.074 A 
ATOM     41  C   UNL A   1      39.900  27.865  29.140  1.00  0.00     0.049 A 
ATOM     42  N   UNL A   1      41.510  29.546  31.043  1.00  0.00    -0.248 NA
ATOM     43  C   UNL A   1      39.768  31.101  31.068  1.00  0.00     0.031 C 
ATOM     44  C   UNL A   1      39.185  27.029  28.173  1.00  0.00     0.029 A 
ATOM     45  N   UNL A   1      41.074  27.190  29.360  1.00  0.00    -0.354 N 
ATOM     46  C   UNL A   1      41.871  30.629  31.833  1.00  0.00     0.074 A 
ATOM     47  C   UNL A   1      40.786  31.584  31.764  1.00  0.00     0.031 C 
ATOM     48  C   UNL A   1      39.925  25.942  27.901  1.00  0.00     0.029 A 
ATOM     49  C   UNL A   1      41.179  26.022  28.644  1.00  0.00     0.049 A 
ATOM     50  H   UNL A   1      41.775  27.511  29.971  1.00  0.00     0.167 HD
ATOM     51  C   UNL A   1      42.997  30.807  32.565  1.00  0.00     0.031 A 
ATOM     52  C   UNL A   1      42.173  25.117  28.590  1.00  0.00     0.031 A 
ATOM     53  C   UNL A   1      44.067  29.851  32.648  1.00  0.00     0.049 A 
ATOM     54  C   UNL A   1      43.407  25.328  29.421  1.00  0.00     0.074 A 
ATOM     55  C   UNL A   1      45.214  29.905  33.419  1.00  0.00     0.029 A 
ATOM     56  N   UNL A   1      44.122  28.667  31.929  1.00  0.00    -0.354 N 
ATOM     57  N   UNL A   1      43.699  26.320  30.226  1.00  0.00    -0.248 NA
ATOM     58  C   UNL A   1      44.442  24.287  29.345  1.00  0.00     0.031 C 
ATOM     59  C   UNL A   1      45.987  28.774  33.134  1.00  0.00     0.029 A 
ATOM     60  C   UNL A   1      45.296  27.992  32.221  1.00  0.00     0.049 A 
ATOM     61  H   UNL A   1      43.431  28.352  31.303  1.00  0.00     0.167 HD
ATOM     62  C   UNL A   1      44.939  26.013  30.771  1.00  0.00     0.074 A 
ATOM     63  C   UNL A   1      45.337  24.736  30.215  1.00  0.00     0.031 C 
ATOM     64  C   UNL A   1      45.679  26.724  31.655  1.00  0.00     0.031 A 
BRANCH  51  65
ATOM     65  C   UNL A   1      43.124  32.096  33.326  1.00  0.00    -0.014 A 
ATOM     66  C   UNL A   1      42.517  32.265  34.581  1.00  0.00     0.009 A 
ATOM     67  C   UNL A   1      43.875  33.152  32.787  1.00  0.00     0.009 A 
ATOM     68  C   UNL A   1      42.622  33.480  35.260  1.00  0.00     0.001 A 
ATOM     69  C   UNL A   1      44.003  34.356  33.482  1.00  0.00     0.001 A 
ATOM     70  C   UNL A   1      43.367  34.524  34.712  1.00  0.00     0.000 A 
ENDBRANCH  51  65
BRANCH  52  71
ATOM     71  C   UNL A   1      42.031  23.915  27.731  1.00  0.00    -0.014 A 
ATOM     72  C   UNL A   1      41.384  22.768  28.216  1.00  0.00     0.009 A 
ATOM     73  C   UNL A   1      42.527  23.911  26.417  1.00  0.00     0.009 A 
ATOM     74  C   UNL A   1      41.253  21.635  27.410  1.00  0.00     0.001 A 
ATOM     75  C   UNL A   1      42.372  22.784  25.606  1.00  0.00     0.001 A 
ATOM     76  C   UNL A   1      41.742  21.647  26.105  1.00  0.00     0.000 A 
ENDBRANCH  52  71
BRANCH  64  77
ATOM     77  C   UNL A   1      46.983  26.125  32.097  1.00  0.00    -0.014 A 
ATOM     78  C   UNL A   1      47.052  25.271  33.207  1.00  0.00     0.009 A 
ATOM     79  C   UNL A   1      48.150  26.385  31.363  1.00  0.00     0.009 A 
ATOM     80  C   UNL A   1      48.272  24.711  33.592  1.00  0.00     0.001 A 
ATOM     81  C   UNL A   1      49.364  25.805  31.733  1.00  0.00     0.001 A 
ATOM     82  C   UNL A   1      49.425  24.974  32.852  1.00  0.00     0.000 A 
ENDBRANCH  64  77
ENDBRANCH  38  39
ENDBRANCH  30  33
ENDBRANCH  28  29
ENDBRANCH  27  28
ENDBRANCH   1  27
TORSDOF 14
ENDMDL
