MODEL 1
REMARK VINA RESULT:     -12.0      0.000      0.000
REMARK SMILES C[C@H]1CCCCN1C(=O)N1Cc2nc[nH]c2C[C@H]1C(=O)NCCCCNC(=O)c1ccc(-c2c3nc(c(-c4ccccc4)c4ccc([nH]4)c(-c4ccccc4)c4nc(c(-c5ccccc5)c5ccc2[nH]5)C=C4)C=C3)cc1
REMARK SMILES IDX 23 1 22 2 21 3 19 4 20 5 18 7 10 8 11 9 12 10 17 11 13 12
REMARK SMILES IDX 16 13 14 14 15 15 8 17 9 18 7 19 1 20 2 21 3 22 4 23 6 24
REMARK SMILES IDX 5 25 24 26 25 27 26 28 27 29 28 31 29 32 30 33 76 34 31 35
REMARK SMILES IDX 75 36 32 37 33 38 34 39 69 40 35 41 74 42 68 43 70 44 36 45
REMARK SMILES IDX 73 46 67 47 66 48 37 50 59 51 44 52 58 53 45 54 48 55 57 56
REMARK SMILES IDX 71 57 46 58 47 59 56 61 72 62 49 63 38 64 39 65 43 66 40 67
REMARK SMILES IDX 42 68 41 69 60 70 61 71 65 72 62 73 64 74 63 75 50 76 51 77
REMARK SMILES IDX 55 78 52 79 54 80 53 81
REMARK H PARENT 21 6 15 16 26 30 70 49 48 60
REMARK Flexibility Score: inf
ROOT
ATOM      1  C   UNL A   1      39.020  22.211  26.122  1.00  0.00     0.023 C 
ENDROOT
BRANCH   1   2
ATOM      2  C   UNL A   1      37.706  22.857  25.684  1.00  0.00     0.116 C 
BRANCH   2   3
ATOM      3  N   UNL A   1      37.183  22.367  24.421  1.00  0.00    -0.354 N 
ATOM      4  C   UNL A   1      36.361  22.999  23.532  1.00  0.00     0.243 C 
ATOM      5  O   UNL A   1      36.775  23.016  22.362  1.00  0.00    -0.273 OA
ATOM      6  H   UNL A   1      37.457  21.455  24.172  1.00  0.00     0.163 HD
BRANCH   4   7
ATOM      7  C   UNL A   1      35.018  23.727  23.870  1.00  0.00     0.182 C 
ATOM      8  N   UNL A   1      34.018  24.023  22.787  1.00  0.00    -0.306 N 
ATOM      9  C   UNL A   1      33.043  22.947  22.437  1.00  0.00     0.180 C 
ATOM     10  C   UNL A   1      32.888  21.932  23.520  1.00  0.00     0.081 A 
ATOM     11  C   UNL A   1      34.406  23.088  25.156  1.00  0.00     0.091 C 
ATOM     12  N   UNL A   1      32.292  20.705  23.364  1.00  0.00    -0.240 NA
ATOM     13  C   UNL A   1      33.507  21.996  24.744  1.00  0.00     0.042 A 
ATOM     14  C   UNL A   1      32.515  20.061  24.492  1.00  0.00     0.197 A 
ATOM     15  N   UNL A   1      33.241  20.818  25.375  1.00  0.00    -0.348 N 
ATOM     16  H   UNL A   1      33.515  20.561  26.285  1.00  0.00     0.167 HD
BRANCH   8  17
ATOM     17  C   UNL A   1      33.497  25.295  22.622  1.00  0.00     0.321 C 
ATOM     18  O   UNL A   1      33.797  25.907  21.587  1.00  0.00    -0.248 OA
BRANCH  17  19
ATOM     19  N   UNL A   1      32.713  25.923  23.580  1.00  0.00    -0.322 N 
ATOM     20  C   UNL A   1      30.387  24.731  23.573  1.00  0.00     0.031 C 
ATOM     21  C   UNL A   1      31.399  25.642  24.222  1.00  0.00     0.083 C 
ATOM     22  C   UNL A   1      31.590  25.187  25.683  1.00  0.00     0.025 C 
ATOM     23  C   UNL A   1      32.369  26.221  26.486  1.00  0.00     0.004 C 
ATOM     24  C   UNL A   1      33.421  26.988  24.332  1.00  0.00     0.121 C 
ATOM     25  C   UNL A   1      33.678  26.558  25.782  1.00  0.00     0.022 C 
ENDBRANCH  17  19
ENDBRANCH   8  17
ENDBRANCH   4   7
ENDBRANCH   2   3
ENDBRANCH   1   2
BRANCH   1  26
ATOM     26  C   UNL A   1      39.361  20.865  25.475  1.00  0.00     0.023 C 
BRANCH  26  27
ATOM     27  C   UNL A   1      39.882  19.792  26.428  1.00  0.00     0.116 C 
BRANCH  27  28
ATOM     28  N   UNL A   1      41.049  19.065  25.935  1.00  0.00    -0.352 N 
ATOM     29  C   UNL A   1      42.302  19.595  25.666  1.00  0.00     0.251 C 
ATOM     30  H   UNL A   1      40.935  18.100  25.778  1.00  0.00     0.163 HD
ATOM     31  O   UNL A   1      43.089  19.064  24.910  1.00  0.00    -0.269 OA
BRANCH  29  32
ATOM     32  C   UNL A   1      42.659  20.845  26.360  1.00  0.00     0.039 A 
ATOM     33  C   UNL A   1      43.051  21.985  25.655  1.00  0.00     0.014 A 
ATOM     34  C   UNL A   1      42.472  20.871  27.741  1.00  0.00     0.014 A 
ATOM     35  C   UNL A   1      43.155  23.193  26.340  1.00  0.00     0.010 A 
ATOM     36  C   UNL A   1      42.461  22.083  28.388  1.00  0.00     0.010 A 
ATOM     37  C   UNL A   1      42.829  23.245  27.705  1.00  0.00    -0.014 A 
BRANCH  37  38
ATOM     38  C   UNL A   1      42.727  24.529  28.398  1.00  0.00     0.031 A 
ATOM     39  C   UNL A   1      41.521  25.351  28.081  1.00  0.00     0.074 A 
ATOM     40  C   UNL A   1      43.508  24.845  29.454  1.00  0.00     0.049 A 
ATOM     41  N   UNL A   1      41.478  26.543  27.583  1.00  0.00    -0.248 NA
ATOM     42  C   UNL A   1      40.195  24.742  28.277  1.00  0.00     0.031 C 
ATOM     43  C   UNL A   1      44.532  24.011  30.098  1.00  0.00     0.029 A 
ATOM     44  N   UNL A   1      43.451  25.933  30.270  1.00  0.00    -0.354 N 
ATOM     45  C   UNL A   1      40.134  26.916  27.574  1.00  0.00     0.074 A 
ATOM     46  C   UNL A   1      39.385  25.719  27.863  1.00  0.00     0.031 C 
ATOM     47  C   UNL A   1      44.805  24.500  31.326  1.00  0.00     0.029 A 
ATOM     48  C   UNL A   1      44.127  25.772  31.474  1.00  0.00     0.049 A 
ATOM     49  H   UNL A   1      42.973  26.760  30.030  1.00  0.00     0.167 HD
ATOM     50  C   UNL A   1      39.756  28.227  27.573  1.00  0.00     0.031 A 
ATOM     51  C   UNL A   1      44.126  26.613  32.534  1.00  0.00     0.031 A 
ATOM     52  C   UNL A   1      40.843  29.094  27.197  1.00  0.00     0.049 A 
ATOM     53  C   UNL A   1      43.698  27.940  32.047  1.00  0.00     0.074 A 
ATOM     54  C   UNL A   1      41.658  29.231  26.092  1.00  0.00     0.029 A 
ATOM     55  N   UNL A   1      41.473  29.775  28.211  1.00  0.00    -0.354 N 
ATOM     56  N   UNL A   1      44.403  28.661  31.224  1.00  0.00    -0.248 NA
ATOM     57  C   UNL A   1      42.292  28.296  32.141  1.00  0.00     0.031 C 
ATOM     58  C   UNL A   1      42.943  29.556  26.623  1.00  0.00     0.029 A 
ATOM     59  C   UNL A   1      42.821  29.661  28.010  1.00  0.00     0.049 A 
ATOM     60  H   UNL A   1      41.034  30.257  28.948  1.00  0.00     0.167 HD
ATOM     61  C   UNL A   1      43.471  29.242  30.379  1.00  0.00     0.074 A 
ATOM     62  C   UNL A   1      42.193  29.092  31.072  1.00  0.00     0.031 C 
ATOM     63  C   UNL A   1      43.784  29.528  29.080  1.00  0.00     0.031 A 
BRANCH  50  64
ATOM     64  C   UNL A   1      38.558  28.755  28.341  1.00  0.00    -0.014 A 
ATOM     65  C   UNL A   1      37.756  29.745  27.735  1.00  0.00     0.009 A 
ATOM     66  C   UNL A   1      38.370  28.561  29.722  1.00  0.00     0.009 A 
ATOM     67  C   UNL A   1      36.910  30.569  28.492  1.00  0.00     0.001 A 
ATOM     68  C   UNL A   1      37.494  29.352  30.472  1.00  0.00     0.001 A 
ATOM     69  C   UNL A   1      36.793  30.381  29.863  1.00  0.00     0.000 A 
ENDBRANCH  50  64
BRANCH  51  70
ATOM     70  C   UNL A   1      44.275  26.295  33.966  1.00  0.00    -0.014 A 
ATOM     71  C   UNL A   1      45.370  26.766  34.704  1.00  0.00     0.009 A 
ATOM     72  C   UNL A   1      43.196  25.733  34.676  1.00  0.00     0.009 A 
ATOM     73  C   UNL A   1      45.370  26.709  36.104  1.00  0.00     0.001 A 
ATOM     74  C   UNL A   1      43.196  25.675  36.073  1.00  0.00     0.001 A 
ATOM     75  C   UNL A   1      44.278  26.177  36.787  1.00  0.00     0.000 A 
ENDBRANCH  51  70
BRANCH  63  76
ATOM     76  C   UNL A   1      45.233  29.425  28.667  1.00  0.00    -0.014 A 
ATOM     77  C   UNL A   1      45.826  28.218  28.255  1.00  0.00     0.009 A 
ATOM     78  C   UNL A   1      45.978  30.606  28.541  1.00  0.00     0.009 A 
ATOM     79  C   UNL A   1      47.135  28.190  27.763  1.00  0.00     0.001 A 
ATOM     80  C   UNL A   1      47.278  30.582  28.031  1.00  0.00     0.001 A 
ATOM     81  C   UNL A   1      47.857  29.374  27.646  1.00  0.00     0.000 A 
ENDBRANCH  63  76
ENDBRANCH  37  38
ENDBRANCH  29  32
ENDBRANCH  27  28
ENDBRANCH  26  27
ENDBRANCH   1  26
TORSDOF 13
ENDMDL
MODEL 2
REMARK VINA RESULT:     -11.5      2.810      7.824
REMARK SMILES C[C@H]1CCCCN1C(=O)N1Cc2nc[nH]c2C[C@H]1C(=O)NCCCCNC(=O)c1ccc(-c2c3nc(c(-c4ccccc4)c4ccc([nH]4)c(-c4ccccc4)c4nc(c(-c5ccccc5)c5ccc2[nH]5)C=C4)C=C3)cc1
REMARK SMILES IDX 23 1 22 2 21 3 19 4 20 5 18 7 10 8 11 9 12 10 17 11 13 12
REMARK SMILES IDX 16 13 14 14 15 15 8 17 9 18 7 19 1 20 2 21 3 22 4 23 6 24
REMARK SMILES IDX 5 25 24 26 25 27 26 28 27 29 28 31 29 32 30 33 76 34 31 35
REMARK SMILES IDX 75 36 32 37 33 38 34 39 69 40 35 41 74 42 68 43 70 44 36 45
REMARK SMILES IDX 73 46 67 47 66 48 37 50 59 51 44 52 58 53 45 54 48 55 57 56
REMARK SMILES IDX 71 57 46 58 47 59 56 61 72 62 49 63 38 64 39 65 43 66 40 67
REMARK SMILES IDX 42 68 41 69 60 70 61 71 65 72 62 73 64 74 63 75 50 76 51 77
REMARK SMILES IDX 55 78 52 79 54 80 53 81
REMARK H PARENT 21 6 15 16 26 30 70 49 48 60
REMARK Flexibility Score: inf
ROOT
ATOM      1  C   UNL A   1      34.996  30.027  27.372  1.00  0.00     0.023 C 
ENDROOT
BRANCH   1   2
ATOM      2  C   UNL A   1      34.219  29.277  26.290  1.00  0.00     0.116 C 
BRANCH   2   3
ATOM      3  N   UNL A   1      33.198  30.065  25.622  1.00  0.00    -0.354 N 
ATOM      4  C   UNL A   1      32.062  29.639  24.996  1.00  0.00     0.243 C 
ATOM      5  O   UNL A   1      31.019  30.198  25.372  1.00  0.00    -0.273 OA
ATOM      6  H   UNL A   1      33.346  31.038  25.620  1.00  0.00     0.163 HD
BRANCH   4   7
ATOM      7  C   UNL A   1      31.965  28.504  23.923  1.00  0.00     0.182 C 
ATOM      8  N   UNL A   1      30.954  27.402  24.067  1.00  0.00    -0.306 N 
ATOM      9  C   UNL A   1      29.579  27.655  23.541  1.00  0.00     0.180 C 
ATOM     10  C   UNL A   1      29.539  28.756  22.534  1.00  0.00     0.081 A 
ATOM     11  C   UNL A   1      32.022  29.147  22.502  1.00  0.00     0.091 C 
ATOM     12  N   UNL A   1      28.396  29.385  22.107  1.00  0.00    -0.240 NA
ATOM     13  C   UNL A   1      30.642  29.430  22.070  1.00  0.00     0.042 A 
ATOM     14  C   UNL A   1      28.807  30.393  21.365  1.00  0.00     0.197 A 
ATOM     15  N   UNL A   1      30.175  30.452  21.299  1.00  0.00    -0.348 N 
ATOM     16  H   UNL A   1      30.714  31.103  20.793  1.00  0.00     0.167 HD
BRANCH   8  17
ATOM     17  C   UNL A   1      31.327  26.072  23.978  1.00  0.00     0.321 C 
ATOM     18  O   UNL A   1      30.490  25.218  24.305  1.00  0.00    -0.248 OA
BRANCH  17  19
ATOM     19  N   UNL A   1      32.600  25.666  23.600  1.00  0.00    -0.322 N 
ATOM     20  C   UNL A   1      34.083  25.683  25.753  1.00  0.00     0.031 C 
ATOM     21  C   UNL A   1      33.842  25.272  24.322  1.00  0.00     0.083 C 
ATOM     22  C   UNL A   1      34.082  23.753  24.209  1.00  0.00     0.025 C 
ATOM     23  C   UNL A   1      34.144  23.311  22.753  1.00  0.00     0.004 C 
ATOM     24  C   UNL A   1      32.713  25.297  22.169  1.00  0.00     0.121 C 
ATOM     25  C   UNL A   1      32.903  23.784  22.004  1.00  0.00     0.022 C 
ENDBRANCH  17  19
ENDBRANCH   8  17
ENDBRANCH   4   7
ENDBRANCH   2   3
ENDBRANCH   1   2
BRANCH   1  26
ATOM     26  C   UNL A   1      34.322  31.277  27.945  1.00  0.00     0.023 C 
BRANCH  26  27
ATOM     27  C   UNL A   1      35.266  32.410  28.338  1.00  0.00     0.116 C 
BRANCH  27  28
ATOM     28  N   UNL A   1      35.271  32.722  29.765  1.00  0.00    -0.352 N 
ATOM     29  C   UNL A   1      35.899  31.998  30.769  1.00  0.00     0.251 C 
ATOM     30  H   UNL A   1      34.779  33.528  30.043  1.00  0.00     0.163 HD
ATOM     31  O   UNL A   1      35.557  32.060  31.931  1.00  0.00    -0.269 OA
BRANCH  29  32
ATOM     32  C   UNL A   1      37.031  31.146  30.365  1.00  0.00     0.039 A 
ATOM     33  C   UNL A   1      38.283  31.690  30.068  1.00  0.00     0.014 A 
ATOM     34  C   UNL A   1      36.827  29.769  30.411  1.00  0.00     0.014 A 
ATOM     35  C   UNL A   1      39.367  30.829  29.916  1.00  0.00     0.010 A 
ATOM     36  C   UNL A   1      37.917  28.933  30.377  1.00  0.00     0.010 A 
ATOM     37  C   UNL A   1      39.186  29.449  30.102  1.00  0.00    -0.014 A 
BRANCH  37  38
ATOM     38  C   UNL A   1      40.337  28.547  30.155  1.00  0.00     0.031 A 
ATOM     39  C   UNL A   1      40.932  28.323  31.507  1.00  0.00     0.074 A 
ATOM     40  C   UNL A   1      40.681  27.751  29.120  1.00  0.00     0.049 A 
ATOM     41  N   UNL A   1      42.140  28.569  31.896  1.00  0.00    -0.248 NA
ATOM     42  C   UNL A   1      40.052  27.831  32.580  1.00  0.00     0.031 C 
ATOM     43  C   UNL A   1      40.001  27.614  27.825  1.00  0.00     0.029 A 
ATOM     44  N   UNL A   1      41.636  26.782  29.061  1.00  0.00    -0.354 N 
ATOM     45  C   UNL A   1      42.235  28.092  33.203  1.00  0.00     0.074 A 
ATOM     46  C   UNL A   1      40.889  27.795  33.620  1.00  0.00     0.031 C 
ATOM     47  C   UNL A   1      40.392  26.468  27.229  1.00  0.00     0.029 A 
ATOM     48  C   UNL A   1      41.478  25.897  28.001  1.00  0.00     0.049 A 
ATOM     49  H   UNL A   1      42.372  26.714  29.711  1.00  0.00     0.167 HD
ATOM     50  C   UNL A   1      43.436  27.748  33.753  1.00  0.00     0.031 A 
ATOM     51  C   UNL A   1      42.176  24.762  27.769  1.00  0.00     0.031 A 
ATOM     52  C   UNL A   1      44.540  28.289  33.002  1.00  0.00     0.049 A 
ATOM     53  C   UNL A   1      43.437  24.853  28.532  1.00  0.00     0.074 A 
ATOM     54  C   UNL A   1      44.961  29.553  32.641  1.00  0.00     0.029 A 
ATOM     55  N   UNL A   1      45.213  27.421  32.176  1.00  0.00    -0.354 N 
ATOM     56  N   UNL A   1      44.373  25.717  28.266  1.00  0.00    -0.248 NA
ATOM     57  C   UNL A   1      43.492  24.263  29.859  1.00  0.00     0.031 C 
ATOM     58  C   UNL A   1      45.475  29.402  31.317  1.00  0.00     0.029 A 
ATOM     59  C   UNL A   1      45.395  28.051  30.975  1.00  0.00     0.049 A 
ATOM     60  H   UNL A   1      45.511  26.512  32.406  1.00  0.00     0.167 HD
ATOM     61  C   UNL A   1      44.848  26.114  29.505  1.00  0.00     0.074 A 
ATOM     62  C   UNL A   1      44.368  25.092  30.434  1.00  0.00     0.031 C 
ATOM     63  C   UNL A   1      45.337  27.376  29.698  1.00  0.00     0.031 A 
BRANCH  50  64
ATOM     64  C   UNL A   1      43.624  26.564  34.684  1.00  0.00    -0.014 A 
ATOM     65  C   UNL A   1      43.482  25.264  34.156  1.00  0.00     0.009 A 
ATOM     66  C   UNL A   1      43.623  26.669  36.088  1.00  0.00     0.009 A 
ATOM     67  C   UNL A   1      43.230  24.160  34.981  1.00  0.00     0.001 A 
ATOM     68  C   UNL A   1      43.417  25.561  36.916  1.00  0.00     0.001 A 
ATOM     69  C   UNL A   1      43.182  24.313  36.361  1.00  0.00     0.000 A 
ENDBRANCH  50  64
BRANCH  51  70
ATOM     70  C   UNL A   1      41.733  23.526  27.097  1.00  0.00    -0.014 A 
ATOM     71  C   UNL A   1      42.656  22.650  26.509  1.00  0.00     0.009 A 
ATOM     72  C   UNL A   1      40.409  23.075  27.259  1.00  0.00     0.009 A 
ATOM     73  C   UNL A   1      42.275  21.357  26.128  1.00  0.00     0.001 A 
ATOM     74  C   UNL A   1      40.028  21.785  26.877  1.00  0.00     0.001 A 
ATOM     75  C   UNL A   1      40.966  20.921  26.325  1.00  0.00     0.000 A 
ENDBRANCH  51  70
BRANCH  63  76
ATOM     76  C   UNL A   1      45.572  28.233  28.478  1.00  0.00    -0.014 A 
ATOM     77  C   UNL A   1      44.576  29.050  27.913  1.00  0.00     0.009 A 
ATOM     78  C   UNL A   1      46.877  28.337  27.975  1.00  0.00     0.009 A 
ATOM     79  C   UNL A   1      44.871  29.921  26.860  1.00  0.00     0.001 A 
ATOM     80  C   UNL A   1      47.177  29.221  26.937  1.00  0.00     0.001 A 
ATOM     81  C   UNL A   1      46.174  30.009  26.377  1.00  0.00     0.000 A 
ENDBRANCH  63  76
ENDBRANCH  37  38
ENDBRANCH  29  32
ENDBRANCH  27  28
ENDBRANCH  26  27
ENDBRANCH   1  26
TORSDOF 13
ENDMDL
MODEL 3
REMARK VINA RESULT:     -11.5      2.666      6.256
REMARK SMILES C[C@H]1CCCCN1C(=O)N1Cc2nc[nH]c2C[C@H]1C(=O)NCCCCNC(=O)c1ccc(-c2c3nc(c(-c4ccccc4)c4ccc([nH]4)c(-c4ccccc4)c4nc(c(-c5ccccc5)c5ccc2[nH]5)C=C4)C=C3)cc1
REMARK SMILES IDX 23 1 22 2 21 3 19 4 20 5 18 7 10 8 11 9 12 10 17 11 13 12
REMARK SMILES IDX 16 13 14 14 15 15 8 17 9 18 7 19 1 20 2 21 3 22 4 23 6 24
REMARK SMILES IDX 5 25 24 26 25 27 26 28 27 29 28 31 29 32 30 33 76 34 31 35
REMARK SMILES IDX 75 36 32 37 33 38 34 39 69 40 35 41 74 42 68 43 70 44 36 45
REMARK SMILES IDX 73 46 67 47 66 48 37 50 59 51 44 52 58 53 45 54 48 55 57 56
REMARK SMILES IDX 71 57 46 58 47 59 56 61 72 62 49 63 38 64 39 65 43 66 40 67
REMARK SMILES IDX 42 68 41 69 60 70 61 71 65 72 62 73 64 74 63 75 50 76 51 77
REMARK SMILES IDX 55 78 52 79 54 80 53 81
REMARK H PARENT 21 6 15 16 26 30 70 49 48 60
REMARK Flexibility Score: inf
ROOT
ATOM      1  C   UNL A   1      38.414  23.923  26.405  1.00  0.00     0.023 C 
ENDROOT
BRANCH   1   2
ATOM      2  C   UNL A   1      36.934  23.592  26.213  1.00  0.00     0.116 C 
BRANCH   2   3
ATOM      3  N   UNL A   1      36.642  22.176  26.085  1.00  0.00    -0.354 N 
ATOM      4  C   UNL A   1      35.590  21.572  25.458  1.00  0.00     0.243 C 
ATOM      5  O   UNL A   1      35.906  20.696  24.637  1.00  0.00    -0.273 OA
ATOM      6  H   UNL A   1      37.290  21.568  26.509  1.00  0.00     0.163 HD
BRANCH   4   7
ATOM      7  C   UNL A   1      34.076  21.923  25.643  1.00  0.00     0.182 C 
ATOM      8  N   UNL A   1      33.192  22.141  24.447  1.00  0.00    -0.306 N 
ATOM      9  C   UNL A   1      32.566  20.936  23.824  1.00  0.00     0.180 C 
ATOM     10  C   UNL A   1      32.517  19.767  24.750  1.00  0.00     0.081 A 
ATOM     11  C   UNL A   1      33.469  20.984  26.732  1.00  0.00     0.091 C 
ATOM     12  N   UNL A   1      32.265  18.473  24.365  1.00  0.00    -0.240 NA
ATOM     13  C   UNL A   1      32.928  19.790  26.060  1.00  0.00     0.042 A 
ATOM     14  C   UNL A   1      32.482  17.739  25.438  1.00  0.00     0.197 A 
ATOM     15  N   UNL A   1      32.874  18.503  26.506  1.00  0.00    -0.348 N 
ATOM     16  H   UNL A   1      33.075  18.186  27.416  1.00  0.00     0.167 HD
BRANCH   8  17
ATOM     17  C   UNL A   1      32.405  23.274  24.335  1.00  0.00     0.321 C 
ATOM     18  O   UNL A   1      31.828  23.467  23.256  1.00  0.00    -0.248 OA
BRANCH  17  19
ATOM     19  N   UNL A   1      32.286  24.217  25.348  1.00  0.00    -0.322 N 
ATOM     20  C   UNL A   1      34.344  25.817  25.154  1.00  0.00     0.031 C 
ATOM     21  C   UNL A   1      32.971  25.494  25.689  1.00  0.00     0.083 C 
ATOM     22  C   UNL A   1      32.050  26.700  25.412  1.00  0.00     0.025 C 
ATOM     23  C   UNL A   1      30.736  26.576  26.172  1.00  0.00     0.004 C 
ATOM     24  C   UNL A   1      31.050  24.079  26.155  1.00  0.00     0.121 C 
ATOM     25  C   UNL A   1      30.079  25.233  25.875  1.00  0.00     0.022 C 
ENDBRANCH  17  19
ENDBRANCH   8  17
ENDBRANCH   4   7
ENDBRANCH   2   3
ENDBRANCH   1   2
BRANCH   1  26
ATOM     26  C   UNL A   1      39.362  22.727  26.532  1.00  0.00     0.023 C 
BRANCH  26  27
ATOM     27  C   UNL A   1      40.695  23.017  27.218  1.00  0.00     0.116 C 
BRANCH  27  28
ATOM     28  N   UNL A   1      41.870  22.711  26.404  1.00  0.00    -0.352 N 
ATOM     29  C   UNL A   1      42.645  23.618  25.696  1.00  0.00     0.251 C 
ATOM     30  H   UNL A   1      42.138  21.766  26.354  1.00  0.00     0.163 HD
ATOM     31  O   UNL A   1      43.334  23.292  24.752  1.00  0.00    -0.269 OA
BRANCH  29  32
ATOM     32  C   UNL A   1      42.614  25.019  26.152  1.00  0.00     0.039 A 
ATOM     33  C   UNL A   1      41.732  25.948  25.595  1.00  0.00     0.014 A 
ATOM     34  C   UNL A   1      43.418  25.342  27.243  1.00  0.00     0.014 A 
ATOM     35  C   UNL A   1      41.587  27.187  26.214  1.00  0.00     0.010 A 
ATOM     36  C   UNL A   1      43.187  26.516  27.917  1.00  0.00     0.010 A 
ATOM     37  C   UNL A   1      42.295  27.458  27.396  1.00  0.00    -0.014 A 
BRANCH  37  38
ATOM     38  C   UNL A   1      42.008  28.660  28.178  1.00  0.00     0.031 A 
ATOM     39  C   UNL A   1      42.982  29.783  28.035  1.00  0.00     0.074 A 
ATOM     40  C   UNL A   1      40.814  28.867  28.776  1.00  0.00     0.049 A 
ATOM     41  N   UNL A   1      43.695  30.342  28.958  1.00  0.00    -0.248 NA
ATOM     42  C   UNL A   1      43.251  30.301  26.683  1.00  0.00     0.031 C 
ATOM     43  C   UNL A   1      39.630  27.999  28.743  1.00  0.00     0.029 A 
ATOM     44  N   UNL A   1      40.358  29.973  29.425  1.00  0.00    -0.354 N 
ATOM     45  C   UNL A   1      44.361  31.404  28.348  1.00  0.00     0.074 A 
ATOM     46  C   UNL A   1      44.173  31.234  26.930  1.00  0.00     0.031 C 
ATOM     47  C   UNL A   1      38.541  28.708  29.109  1.00  0.00     0.029 A 
ATOM     48  C   UNL A   1      38.978  30.008  29.580  1.00  0.00     0.049 A 
ATOM     49  H   UNL A   1      40.953  30.685  29.755  1.00  0.00     0.167 HD
ATOM     50  C   UNL A   1      44.808  32.475  29.067  1.00  0.00     0.031 A 
ATOM     51  C   UNL A   1      38.230  31.033  30.049  1.00  0.00     0.031 A 
ATOM     52  C   UNL A   1      44.856  32.187  30.478  1.00  0.00     0.049 A 
ATOM     53  C   UNL A   1      39.127  31.921  30.816  1.00  0.00     0.074 A 
ATOM     54  C   UNL A   1      45.503  31.263  31.273  1.00  0.00     0.029 A 
ATOM     55  N   UNL A   1      43.842  32.700  31.251  1.00  0.00    -0.354 N 
ATOM     56  N   UNL A   1      39.700  31.569  31.930  1.00  0.00    -0.248 NA
ATOM     57  C   UNL A   1      39.727  33.058  30.139  1.00  0.00     0.031 C 
ATOM     58  C   UNL A   1      44.554  30.924  32.285  1.00  0.00     0.029 A 
ATOM     59  C   UNL A   1      43.413  31.704  32.084  1.00  0.00     0.049 A 
ATOM     60  H   UNL A   1      43.489  33.618  31.212  1.00  0.00     0.167 HD
ATOM     61  C   UNL A   1      40.967  32.126  31.865  1.00  0.00     0.074 A 
ATOM     62  C   UNL A   1      40.878  33.136  30.813  1.00  0.00     0.031 C 
ATOM     63  C   UNL A   1      42.032  31.518  32.469  1.00  0.00     0.031 A 
BRANCH  50  64
ATOM     64  C   UNL A   1      44.765  33.904  28.558  1.00  0.00    -0.014 A 
ATOM     65  C   UNL A   1      43.507  34.488  28.301  1.00  0.00     0.009 A 
ATOM     66  C   UNL A   1      45.883  34.579  28.034  1.00  0.00     0.009 A 
ATOM     67  C   UNL A   1      43.373  35.606  27.466  1.00  0.00     0.001 A 
ATOM     68  C   UNL A   1      45.756  35.722  27.237  1.00  0.00     0.001 A 
ATOM     69  C   UNL A   1      44.499  36.212  26.922  1.00  0.00     0.000 A 
ENDBRANCH  50  64
BRANCH  51  70
ATOM     70  C   UNL A   1      36.842  31.397  29.708  1.00  0.00    -0.014 A 
ATOM     71  C   UNL A   1      35.945  31.834  30.692  1.00  0.00     0.009 A 
ATOM     72  C   UNL A   1      36.471  31.559  28.359  1.00  0.00     0.009 A 
ATOM     73  C   UNL A   1      34.733  32.443  30.338  1.00  0.00     0.001 A 
ATOM     74  C   UNL A   1      35.262  32.166  28.006  1.00  0.00     0.001 A 
ATOM     75  C   UNL A   1      34.400  32.622  28.997  1.00  0.00     0.000 A 
ENDBRANCH  51  70
BRANCH  63  76
ATOM     76  C   UNL A   1      41.748  30.369  33.406  1.00  0.00    -0.014 A 
ATOM     77  C   UNL A   1      41.600  29.041  32.966  1.00  0.00     0.009 A 
ATOM     78  C   UNL A   1      41.784  30.608  34.787  1.00  0.00     0.009 A 
ATOM     79  C   UNL A   1      41.461  27.991  33.879  1.00  0.00     0.001 A 
ATOM     80  C   UNL A   1      41.667  29.558  35.700  1.00  0.00     0.001 A 
ATOM     81  C   UNL A   1      41.501  28.251  35.246  1.00  0.00     0.000 A 
ENDBRANCH  63  76
ENDBRANCH  37  38
ENDBRANCH  29  32
ENDBRANCH  27  28
ENDBRANCH  26  27
ENDBRANCH   1  26
TORSDOF 13
ENDMDL
