MODEL 1
REMARK VINA RESULT:     -12.0      0.000      0.000
REMARK SMILES COc1c(C)cc(Br)cc1C(=O)Nc1ccc(O)c(C(=O)NCCCCNC(=O)c2ccc(-c3c4nc(c(-c5ccccc5)c5ccc([nH]5)c(-c5ccccc5)c5nc(c(-c6ccccc6)c6ccc3[nH]6)C=C5)C=C4)cc2)c1
REMARK SMILES IDX 24 1 23 2 22 3 20 4 21 5 19 7 14 8 15 9 78 10 16 11 17 12
REMARK SMILES IDX 13 13 11 14 12 15 10 17 3 18 4 19 5 20 6 21 9 22 7 23 8 24
REMARK SMILES IDX 2 25 1 26 18 27 25 29 26 30 27 31 28 32 29 34 30 35 31 36
REMARK SMILES IDX 77 37 32 38 76 39 33 40 34 41 35 42 70 43 36 44 75 45 69 46
REMARK SMILES IDX 71 47 37 48 74 49 68 50 67 51 38 53 60 54 45 55 59 56 46 57
REMARK SMILES IDX 49 58 58 59 72 60 47 61 48 62 57 64 73 65 50 66 39 67 40 68
REMARK SMILES IDX 44 69 41 70 43 71 42 72 61 73 62 74 66 75 63 76 65 77 64 78
REMARK SMILES IDX 51 79 52 80 56 81 53 82 55 83 54 84
REMARK H PARENT 22 6 13 16 18 28 27 33 71 52 49 63
REMARK Flexibility Score: inf
ROOT
ATOM      1  C   UNL A   1      31.987  30.410  26.495  1.00  0.00     0.023 C 
ENDROOT
BRANCH   1   2
ATOM      2  C   UNL A   1      31.476  29.831  25.174  1.00  0.00     0.116 C 
BRANCH   2   3
ATOM      3  N   UNL A   1      32.548  29.630  24.222  1.00  0.00    -0.352 N 
ATOM      4  C   UNL A   1      32.952  28.513  23.533  1.00  0.00     0.255 C 
ATOM      5  O   UNL A   1      33.841  28.671  22.692  1.00  0.00    -0.269 OA
ATOM      6  H   UNL A   1      33.081  30.436  24.036  1.00  0.00     0.163 HD
BRANCH   4   7
ATOM      7  C   UNL A   1      32.361  27.151  23.676  1.00  0.00     0.083 A 
ATOM      8  C   UNL A   1      32.077  25.253  25.181  1.00  0.00     0.042 A 
ATOM      9  C   UNL A   1      31.134  24.701  24.322  1.00  0.00     0.030 A 
ATOM     10  C   UNL A   1      32.617  26.512  24.906  1.00  0.00     0.043 A 
ATOM     11  C   UNL A   1      30.871  25.312  23.107  1.00  0.00     0.049 A 
ATOM     12  C   UNL A   1      31.521  26.499  22.766  1.00  0.00     0.128 A 
BRANCH   8  13
ATOM     13  N   UNL A   1      32.496  24.559  26.322  1.00  0.00    -0.322 N 
ATOM     14  C   UNL A   1      32.304  23.212  26.552  1.00  0.00     0.259 C 
ATOM     15  O   UNL A   1      31.632  22.827  27.508  1.00  0.00    -0.269 OA
ATOM     16  H   UNL A   1      32.965  25.074  27.018  1.00  0.00     0.170 HD
BRANCH  14  17
ATOM     17  C   UNL A   1      33.238  22.248  25.868  1.00  0.00     0.083 A 
ATOM     18  C   UNL A   1      34.638  22.336  25.766  1.00  0.00     0.134 A 
ATOM     19  C   UNL A   1      35.409  21.224  25.369  1.00  0.00    -0.007 A 
ATOM     20  C   UNL A   1      36.912  21.232  25.446  1.00  0.00     0.048 C 
ATOM     21  C   UNL A   1      34.756  20.096  24.862  1.00  0.00     0.023 A 
ATOM     22  C   UNL A   1      32.611  21.103  25.346  1.00  0.00     0.033 A 
ATOM     23  C   UNL A   1      33.366  20.056  24.822  1.00  0.00     0.019 A 
ATOM     24  Br  UNL A   1      32.497  18.550  24.081  1.00  0.00    -0.051 Br
BRANCH  18  25
ATOM     25  O   UNL A   1      35.302  23.514  25.982  1.00  0.00    -0.496 OA
ATOM     26  C   UNL A   1      35.551  24.177  24.734  1.00  0.00     0.278 C 
ENDBRANCH  18  25
ENDBRANCH  14  17
ENDBRANCH   8  13
BRANCH  12  27
ATOM     27  O   UNL A   1      31.259  26.970  21.521  1.00  0.00    -0.507 OA
ATOM     28  H   UNL A   1      31.872  27.535  21.095  1.00  0.00     0.293 HD
ENDBRANCH  12  27
ENDBRANCH   4   7
ENDBRANCH   2   3
ENDBRANCH   1   2
BRANCH   1  29
ATOM     29  C   UNL A   1      31.625  31.857  26.792  1.00  0.00     0.023 C 
BRANCH  29  30
ATOM     30  C   UNL A   1      32.755  32.718  27.320  1.00  0.00     0.116 C 
BRANCH  30  31
ATOM     31  N   UNL A   1      32.365  34.083  27.641  1.00  0.00    -0.352 N 
ATOM     32  C   UNL A   1      32.970  34.956  28.521  1.00  0.00     0.251 C 
ATOM     33  H   UNL A   1      31.571  34.426  27.172  1.00  0.00     0.163 HD
ATOM     34  O   UNL A   1      32.500  36.058  28.739  1.00  0.00    -0.269 OA
BRANCH  32  35
ATOM     35  C   UNL A   1      34.178  34.497  29.241  1.00  0.00     0.039 A 
ATOM     36  C   UNL A   1      34.023  33.833  30.460  1.00  0.00     0.014 A 
ATOM     37  C   UNL A   1      35.441  34.634  28.661  1.00  0.00     0.014 A 
ATOM     38  C   UNL A   1      35.130  33.227  31.055  1.00  0.00     0.010 A 
ATOM     39  C   UNL A   1      36.522  33.958  29.209  1.00  0.00     0.010 A 
ATOM     40  C   UNL A   1      36.377  33.246  30.409  1.00  0.00    -0.014 A 
BRANCH  40  41
ATOM     41  C   UNL A   1      37.548  32.531  30.970  1.00  0.00     0.031 A 
ATOM     42  C   UNL A   1      38.182  33.018  32.241  1.00  0.00     0.074 A 
ATOM     43  C   UNL A   1      38.087  31.496  30.297  1.00  0.00     0.049 A 
ATOM     44  N   UNL A   1      39.250  32.575  32.855  1.00  0.00    -0.248 NA
ATOM     45  C   UNL A   1      37.553  34.180  32.892  1.00  0.00     0.031 C 
ATOM     46  C   UNL A   1      37.601  30.964  29.021  1.00  0.00     0.029 A 
ATOM     47  N   UNL A   1      39.173  30.712  30.592  1.00  0.00    -0.354 N 
ATOM     48  C   UNL A   1      39.433  33.417  33.943  1.00  0.00     0.074 A 
ATOM     49  C   UNL A   1      38.400  34.426  33.880  1.00  0.00     0.031 C 
ATOM     50  C   UNL A   1      38.367  29.920  28.660  1.00  0.00     0.029 A 
ATOM     51  C   UNL A   1      39.414  29.732  29.659  1.00  0.00     0.049 A 
ATOM     52  H   UNL A   1      39.727  30.838  31.396  1.00  0.00     0.167 HD
ATOM     53  C   UNL A   1      40.366  33.345  34.921  1.00  0.00     0.031 A 
ATOM     54  C   UNL A   1      40.370  28.785  29.618  1.00  0.00     0.031 A 
ATOM     55  C   UNL A   1      41.374  32.326  35.002  1.00  0.00     0.049 A 
ATOM     56  C   UNL A   1      41.376  28.708  30.731  1.00  0.00     0.074 A 
ATOM     57  C   UNL A   1      42.321  32.125  35.992  1.00  0.00     0.029 A 
ATOM     58  N   UNL A   1      41.563  31.331  34.056  1.00  0.00    -0.354 N 
ATOM     59  N   UNL A   1      41.492  29.467  31.793  1.00  0.00    -0.248 NA
ATOM     60  C   UNL A   1      42.375  27.633  30.645  1.00  0.00     0.031 C 
ATOM     61  C   UNL A   1      43.104  31.025  35.627  1.00  0.00     0.029 A 
ATOM     62  C   UNL A   1      42.620  30.520  34.430  1.00  0.00     0.049 A 
ATOM     63  H   UNL A   1      41.026  31.219  33.239  1.00  0.00     0.167 HD
ATOM     64  C   UNL A   1      42.559  28.949  32.513  1.00  0.00     0.074 A 
ATOM     65  C   UNL A   1      43.048  27.802  31.775  1.00  0.00     0.031 C 
ATOM     66  C   UNL A   1      43.087  29.383  33.683  1.00  0.00     0.031 A 
BRANCH  53  67
ATOM     67  C   UNL A   1      40.325  34.404  35.985  1.00  0.00    -0.014 A 
ATOM     68  C   UNL A   1      39.527  34.251  37.129  1.00  0.00     0.009 A 
ATOM     69  C   UNL A   1      41.103  35.563  35.847  1.00  0.00     0.009 A 
ATOM     70  C   UNL A   1      39.477  35.256  38.097  1.00  0.00     0.001 A 
ATOM     71  C   UNL A   1      41.071  36.556  36.829  1.00  0.00     0.001 A 
ATOM     72  C   UNL A   1      40.252  36.407  37.947  1.00  0.00     0.000 A 
ENDBRANCH  53  67
BRANCH  54  73
ATOM     73  C   UNL A   1      40.402  27.809  28.500  1.00  0.00    -0.014 A 
ATOM     74  C   UNL A   1      41.121  28.098  27.329  1.00  0.00     0.009 A 
ATOM     75  C   UNL A   1      39.715  26.590  28.591  1.00  0.00     0.009 A 
ATOM     76  C   UNL A   1      41.132  27.196  26.264  1.00  0.00     0.001 A 
ATOM     77  C   UNL A   1      39.746  25.679  27.532  1.00  0.00     0.001 A 
ATOM     78  C   UNL A   1      40.447  25.986  26.367  1.00  0.00     0.000 A 
ENDBRANCH  54  73
BRANCH  66  79
ATOM     79  C   UNL A   1      44.231  28.596  34.251  1.00  0.00    -0.014 A 
ATOM     80  C   UNL A   1      44.007  27.499  35.098  1.00  0.00     0.009 A 
ATOM     81  C   UNL A   1      45.547  28.930  33.899  1.00  0.00     0.009 A 
ATOM     82  C   UNL A   1      45.084  26.769  35.603  1.00  0.00     0.001 A 
ATOM     83  C   UNL A   1      46.621  28.183  34.386  1.00  0.00     0.001 A 
ATOM     84  C   UNL A   1      46.389  27.108  35.243  1.00  0.00     0.000 A 
ENDBRANCH  66  79
ENDBRANCH  40  41
ENDBRANCH  32  35
ENDBRANCH  30  31
ENDBRANCH  29  30
ENDBRANCH   1  29
TORSDOF 15
ENDMDL
MODEL 2
REMARK VINA RESULT:     -12.0      4.221      8.971
REMARK SMILES COc1c(C)cc(Br)cc1C(=O)Nc1ccc(O)c(C(=O)NCCCCNC(=O)c2ccc(-c3c4nc(c(-c5ccccc5)c5ccc([nH]5)c(-c5ccccc5)c5nc(c(-c6ccccc6)c6ccc3[nH]6)C=C5)C=C4)cc2)c1
REMARK SMILES IDX 24 1 23 2 22 3 20 4 21 5 19 7 14 8 15 9 78 10 16 11 17 12
REMARK SMILES IDX 13 13 11 14 12 15 10 17 3 18 4 19 5 20 6 21 9 22 7 23 8 24
REMARK SMILES IDX 2 25 1 26 18 27 25 29 26 30 27 31 28 32 29 34 30 35 31 36
REMARK SMILES IDX 77 37 32 38 76 39 33 40 34 41 35 42 70 43 36 44 75 45 69 46
REMARK SMILES IDX 71 47 37 48 74 49 68 50 67 51 38 53 60 54 45 55 59 56 46 57
REMARK SMILES IDX 49 58 58 59 72 60 47 61 48 62 57 64 73 65 50 66 39 67 40 68
REMARK SMILES IDX 44 69 41 70 43 71 42 72 61 73 62 74 66 75 63 76 65 77 64 78
REMARK SMILES IDX 51 79 52 80 56 81 53 82 55 83 54 84
REMARK H PARENT 22 6 13 16 18 28 27 33 71 52 49 63
REMARK Flexibility Score: inf
ROOT
ATOM      1  C   UNL A   1      36.995  22.328  24.424  1.00  0.00     0.023 C 
ENDROOT
BRANCH   1   2
ATOM      2  C   UNL A   1      36.364  23.334  25.389  1.00  0.00     0.116 C 
BRANCH   2   3
ATOM      3  N   UNL A   1      35.699  22.679  26.495  1.00  0.00    -0.352 N 
ATOM      4  C   UNL A   1      34.426  22.181  26.622  1.00  0.00     0.255 C 
ATOM      5  O   UNL A   1      34.171  21.566  27.662  1.00  0.00    -0.269 OA
ATOM      6  H   UNL A   1      36.258  22.572  27.299  1.00  0.00     0.163 HD
BRANCH   4   7
ATOM      7  C   UNL A   1      33.357  22.269  25.586  1.00  0.00     0.083 A 
ATOM      8  C   UNL A   1      31.421  23.543  24.828  1.00  0.00     0.042 A 
ATOM      9  C   UNL A   1      31.417  22.841  23.629  1.00  0.00     0.030 A 
ATOM     10  C   UNL A   1      32.439  23.325  25.759  1.00  0.00     0.043 A 
ATOM     11  C   UNL A   1      32.309  21.799  23.440  1.00  0.00     0.049 A 
ATOM     12  C   UNL A   1      33.236  21.483  24.434  1.00  0.00     0.128 A 
BRANCH   8  13
ATOM     13  N   UNL A   1      30.412  24.470  25.116  1.00  0.00    -0.322 N 
ATOM     14  C   UNL A   1      30.613  25.734  25.631  1.00  0.00     0.259 C 
ATOM     15  O   UNL A   1      30.147  26.049  26.725  1.00  0.00    -0.269 OA
ATOM     16  H   UNL A   1      29.483  24.197  24.937  1.00  0.00     0.170 HD
BRANCH  14  17
ATOM     17  C   UNL A   1      31.056  26.813  24.678  1.00  0.00     0.083 A 
ATOM     18  C   UNL A   1      32.365  27.095  24.249  1.00  0.00     0.134 A 
ATOM     19  C   UNL A   1      32.602  27.925  23.133  1.00  0.00    -0.007 A 
ATOM     20  C   UNL A   1      33.975  28.078  22.536  1.00  0.00     0.048 C 
ATOM     21  C   UNL A   1      31.534  28.644  22.587  1.00  0.00     0.023 A 
ATOM     22  C   UNL A   1      30.004  27.555  24.112  1.00  0.00     0.033 A 
ATOM     23  C   UNL A   1      30.251  28.482  23.101  1.00  0.00     0.019 A 
ATOM     24  Br  UNL A   1      28.828  29.503  22.394  1.00  0.00    -0.051 Br
BRANCH  18  25
ATOM     25  O   UNL A   1      33.460  26.636  24.931  1.00  0.00    -0.496 OA
ATOM     26  C   UNL A   1      33.710  27.462  26.079  1.00  0.00     0.278 C 
ENDBRANCH  18  25
ENDBRANCH  14  17
ENDBRANCH   8  13
BRANCH  12  27
ATOM     27  O   UNL A   1      34.006  20.393  24.189  1.00  0.00    -0.507 OA
ATOM     28  H   UNL A   1      33.738  19.551  24.499  1.00  0.00     0.293 HD
ENDBRANCH  12  27
ENDBRANCH   4   7
ENDBRANCH   2   3
ENDBRANCH   1   2
BRANCH   1  29
ATOM     29  C   UNL A   1      37.507  21.030  25.030  1.00  0.00     0.023 C 
BRANCH  29  30
ATOM     30  C   UNL A   1      38.791  21.143  25.826  1.00  0.00     0.116 C 
BRANCH  30  31
ATOM     31  N   UNL A   1      39.676  19.994  25.698  1.00  0.00    -0.352 N 
ATOM     32  C   UNL A   1      41.013  19.909  26.026  1.00  0.00     0.251 C 
ATOM     33  H   UNL A   1      39.269  19.176  25.330  1.00  0.00     0.163 HD
ATOM     34  O   UNL A   1      41.651  18.895  25.809  1.00  0.00    -0.269 OA
BRANCH  32  35
ATOM     35  C   UNL A   1      41.669  21.105  26.597  1.00  0.00     0.039 A 
ATOM     36  C   UNL A   1      42.169  22.078  25.728  1.00  0.00     0.014 A 
ATOM     37  C   UNL A   1      41.694  21.305  27.979  1.00  0.00     0.014 A 
ATOM     38  C   UNL A   1      42.616  23.294  26.246  1.00  0.00     0.010 A 
ATOM     39  C   UNL A   1      42.057  22.546  28.484  1.00  0.00     0.010 A 
ATOM     40  C   UNL A   1      42.518  23.553  27.624  1.00  0.00    -0.014 A 
BRANCH  40  41
ATOM     41  C   UNL A   1      42.896  24.869  28.190  1.00  0.00     0.031 A 
ATOM     42  C   UNL A   1      41.842  25.913  28.422  1.00  0.00     0.074 A 
ATOM     43  C   UNL A   1      44.193  25.152  28.420  1.00  0.00     0.049 A 
ATOM     44  N   UNL A   1      41.977  27.145  28.844  1.00  0.00    -0.248 NA
ATOM     45  C   UNL A   1      40.454  25.534  28.108  1.00  0.00     0.031 C 
ATOM     46  C   UNL A   1      45.319  24.247  28.179  1.00  0.00     0.029 A 
ATOM     47  N   UNL A   1      44.782  26.294  28.901  1.00  0.00    -0.354 N 
ATOM     48  C   UNL A   1      40.701  27.692  28.818  1.00  0.00     0.074 A 
ATOM     49  C   UNL A   1      39.813  26.678  28.295  1.00  0.00     0.031 C 
ATOM     50  C   UNL A   1      46.460  24.856  28.544  1.00  0.00     0.029 A 
ATOM     51  C   UNL A   1      46.149  26.204  29.011  1.00  0.00     0.049 A 
ATOM     52  H   UNL A   1      44.275  27.102  29.144  1.00  0.00     0.167 HD
ATOM     53  C   UNL A   1      40.299  28.921  29.216  1.00  0.00     0.031 A 
ATOM     54  C   UNL A   1      47.050  27.105  29.445  1.00  0.00     0.031 A 
ATOM     55  C   UNL A   1      41.175  29.919  29.764  1.00  0.00     0.049 A 
ATOM     56  C   UNL A   1      46.575  28.453  29.909  1.00  0.00     0.074 A 
ATOM     57  C   UNL A   1      40.853  31.170  30.262  1.00  0.00     0.029 A 
ATOM     58  N   UNL A   1      42.547  29.775  29.891  1.00  0.00    -0.354 N 
ATOM     59  N   UNL A   1      45.355  28.929  29.947  1.00  0.00    -0.248 NA
ATOM     60  C   UNL A   1      47.602  29.382  30.401  1.00  0.00     0.031 C 
ATOM     61  C   UNL A   1      42.039  31.796  30.662  1.00  0.00     0.029 A 
ATOM     62  C   UNL A   1      43.091  30.919  30.448  1.00  0.00     0.049 A 
ATOM     63  H   UNL A   1      43.059  28.978  29.625  1.00  0.00     0.167 HD
ATOM     64  C   UNL A   1      45.464  30.203  30.490  1.00  0.00     0.074 A 
ATOM     65  C   UNL A   1      46.867  30.419  30.778  1.00  0.00     0.031 C 
ATOM     66  C   UNL A   1      44.488  31.112  30.729  1.00  0.00     0.031 A 
BRANCH  53  67
ATOM     67  C   UNL A   1      38.840  29.244  29.071  1.00  0.00    -0.014 A 
ATOM     68  C   UNL A   1      37.957  29.106  30.154  1.00  0.00     0.009 A 
ATOM     69  C   UNL A   1      38.344  29.703  27.842  1.00  0.00     0.009 A 
ATOM     70  C   UNL A   1      36.598  29.383  29.998  1.00  0.00     0.001 A 
ATOM     71  C   UNL A   1      36.988  30.004  27.695  1.00  0.00     0.001 A 
ATOM     72  C   UNL A   1      36.115  29.835  28.769  1.00  0.00     0.000 A 
ENDBRANCH  53  67
BRANCH  54  73
ATOM     73  C   UNL A   1      48.491  26.751  29.497  1.00  0.00    -0.014 A 
ATOM     74  C   UNL A   1      49.333  27.056  28.415  1.00  0.00     0.009 A 
ATOM     75  C   UNL A   1      49.032  26.107  30.618  1.00  0.00     0.009 A 
ATOM     76  C   UNL A   1      50.682  26.700  28.446  1.00  0.00     0.001 A 
ATOM     77  C   UNL A   1      50.388  25.773  30.656  1.00  0.00     0.001 A 
ATOM     78  C   UNL A   1      51.209  26.062  29.568  1.00  0.00     0.000 A 
ENDBRANCH  54  73
BRANCH  66  79
ATOM     79  C   UNL A   1      44.902  32.408  31.361  1.00  0.00    -0.014 A 
ATOM     80  C   UNL A   1      45.305  33.501  30.579  1.00  0.00     0.009 A 
ATOM     81  C   UNL A   1      44.843  32.551  32.756  1.00  0.00     0.009 A 
ATOM     82  C   UNL A   1      45.669  34.704  31.185  1.00  0.00     0.001 A 
ATOM     83  C   UNL A   1      45.185  33.762  33.358  1.00  0.00     0.001 A 
ATOM     84  C   UNL A   1      45.604  34.836  32.572  1.00  0.00     0.000 A 
ENDBRANCH  66  79
ENDBRANCH  40  41
ENDBRANCH  32  35
ENDBRANCH  30  31
ENDBRANCH  29  30
ENDBRANCH   1  29
TORSDOF 15
ENDMDL
MODEL 3
REMARK VINA RESULT:     -11.9      3.961      9.149
REMARK SMILES COc1c(C)cc(Br)cc1C(=O)Nc1ccc(O)c(C(=O)NCCCCNC(=O)c2ccc(-c3c4nc(c(-c5ccccc5)c5ccc([nH]5)c(-c5ccccc5)c5nc(c(-c6ccccc6)c6ccc3[nH]6)C=C5)C=C4)cc2)c1
REMARK SMILES IDX 24 1 23 2 22 3 20 4 21 5 19 7 14 8 15 9 78 10 16 11 17 12
REMARK SMILES IDX 13 13 11 14 12 15 10 17 3 18 4 19 5 20 6 21 9 22 7 23 8 24
REMARK SMILES IDX 2 25 1 26 18 27 25 29 26 30 27 31 28 32 29 34 30 35 31 36
REMARK SMILES IDX 77 37 32 38 76 39 33 40 34 41 35 42 70 43 36 44 75 45 69 46
REMARK SMILES IDX 71 47 37 48 74 49 68 50 67 51 38 53 60 54 45 55 59 56 46 57
REMARK SMILES IDX 49 58 58 59 72 60 47 61 48 62 57 64 73 65 50 66 39 67 40 68
REMARK SMILES IDX 44 69 41 70 43 71 42 72 61 73 62 74 66 75 63 76 65 77 64 78
REMARK SMILES IDX 51 79 52 80 56 81 53 82 55 83 54 84
REMARK H PARENT 22 6 13 16 18 28 27 33 71 52 49 63
REMARK Flexibility Score: inf
ROOT
ATOM      1  C   UNL A   1      37.028  22.381  24.259  1.00  0.00     0.023 C 
ENDROOT
BRANCH   1   2
ATOM      2  C   UNL A   1      36.327  23.309  25.254  1.00  0.00     0.116 C 
BRANCH   2   3
ATOM      3  N   UNL A   1      35.732  22.575  26.350  1.00  0.00    -0.352 N 
ATOM      4  C   UNL A   1      34.437  22.180  26.581  1.00  0.00     0.255 C 
ATOM      5  O   UNL A   1      34.244  21.458  27.564  1.00  0.00    -0.269 OA
ATOM      6  H   UNL A   1      36.367  22.313  27.055  1.00  0.00     0.163 HD
BRANCH   4   7
ATOM      7  C   UNL A   1      33.269  22.500  25.711  1.00  0.00     0.083 A 
ATOM      8  C   UNL A   1      31.490  24.111  25.281  1.00  0.00     0.042 A 
ATOM      9  C   UNL A   1      31.206  23.489  24.071  1.00  0.00     0.030 A 
ATOM     10  C   UNL A   1      32.572  23.677  26.050  1.00  0.00     0.043 A 
ATOM     11  C   UNL A   1      31.878  22.329  23.721  1.00  0.00     0.049 A 
ATOM     12  C   UNL A   1      32.863  21.811  24.562  1.00  0.00     0.128 A 
BRANCH   8  13
ATOM     13  N   UNL A   1      30.699  25.170  25.742  1.00  0.00    -0.322 N 
ATOM     14  C   UNL A   1      31.165  26.422  26.089  1.00  0.00     0.259 C 
ATOM     15  O   UNL A   1      31.037  26.844  27.238  1.00  0.00    -0.269 OA
ATOM     16  H   UNL A   1      29.731  25.008  25.826  1.00  0.00     0.170 HD
BRANCH  14  17
ATOM     17  C   UNL A   1      31.459  27.390  24.973  1.00  0.00     0.083 A 
ATOM     18  C   UNL A   1      32.718  27.761  24.469  1.00  0.00     0.134 A 
ATOM     19  C   UNL A   1      32.837  28.435  23.236  1.00  0.00    -0.007 A 
ATOM     20  C   UNL A   1      34.174  28.663  22.582  1.00  0.00     0.048 C 
ATOM     21  C   UNL A   1      31.682  28.929  22.621  1.00  0.00     0.023 A 
ATOM     22  C   UNL A   1      30.317  27.905  24.335  1.00  0.00     0.033 A 
ATOM     23  C   UNL A   1      30.435  28.691  23.191  1.00  0.00     0.019 A 
ATOM     24  Br  UNL A   1      28.888  29.412  22.382  1.00  0.00    -0.051 Br
BRANCH  18  25
ATOM     25  O   UNL A   1      33.869  27.547  25.180  1.00  0.00    -0.496 OA
ATOM     26  C   UNL A   1      34.014  28.548  26.199  1.00  0.00     0.278 C 
ENDBRANCH  18  25
ENDBRANCH  14  17
ENDBRANCH   8  13
BRANCH  12  27
ATOM     27  O   UNL A   1      33.400  20.627  24.171  1.00  0.00    -0.507 OA
ATOM     28  H   UNL A   1      34.256  20.603  23.793  1.00  0.00     0.293 HD
ENDBRANCH  12  27
ENDBRANCH   4   7
ENDBRANCH   2   3
ENDBRANCH   1   2
BRANCH   1  29
ATOM     29  C   UNL A   1      37.467  21.023  24.785  1.00  0.00     0.023 C 
BRANCH  29  30
ATOM     30  C   UNL A   1      38.608  21.045  25.780  1.00  0.00     0.116 C 
BRANCH  30  31
ATOM     31  N   UNL A   1      39.549  19.944  25.635  1.00  0.00    -0.352 N 
ATOM     32  C   UNL A   1      40.889  19.921  25.962  1.00  0.00     0.251 C 
ATOM     33  H   UNL A   1      39.184  19.113  25.254  1.00  0.00     0.163 HD
ATOM     34  O   UNL A   1      41.577  18.944  25.730  1.00  0.00    -0.269 OA
BRANCH  32  35
ATOM     35  C   UNL A   1      41.485  21.139  26.553  1.00  0.00     0.039 A 
ATOM     36  C   UNL A   1      42.011  22.112  25.700  1.00  0.00     0.014 A 
ATOM     37  C   UNL A   1      41.428  21.356  27.931  1.00  0.00     0.014 A 
ATOM     38  C   UNL A   1      42.400  23.344  26.225  1.00  0.00     0.010 A 
ATOM     39  C   UNL A   1      41.734  22.612  28.439  1.00  0.00     0.010 A 
ATOM     40  C   UNL A   1      42.220  23.619  27.591  1.00  0.00    -0.014 A 
BRANCH  40  41
ATOM     41  C   UNL A   1      42.536  24.950  28.159  1.00  0.00     0.031 A 
ATOM     42  C   UNL A   1      43.937  25.261  28.602  1.00  0.00     0.074 A 
ATOM     43  C   UNL A   1      41.550  25.848  28.350  1.00  0.00     0.049 A 
ATOM     44  N   UNL A   1      44.400  26.337  29.185  1.00  0.00    -0.248 NA
ATOM     45  C   UNL A   1      44.946  24.208  28.394  1.00  0.00     0.031 C 
ATOM     46  C   UNL A   1      40.137  25.646  28.019  1.00  0.00     0.029 A 
ATOM     47  N   UNL A   1      41.588  27.112  28.882  1.00  0.00    -0.354 N 
ATOM     48  C   UNL A   1      45.741  26.080  29.435  1.00  0.00     0.074 A 
ATOM     49  C   UNL A   1      46.007  24.732  28.987  1.00  0.00     0.031 C 
ATOM     50  C   UNL A   1      39.450  26.760  28.325  1.00  0.00     0.029 A 
ATOM     51  C   UNL A   1      40.365  27.739  28.903  1.00  0.00     0.049 A 
ATOM     52  H   UNL A   1      42.414  27.532  29.216  1.00  0.00     0.167 HD
ATOM     53  C   UNL A   1      46.675  26.901  29.968  1.00  0.00     0.031 A 
ATOM     54  C   UNL A   1      40.022  28.966  29.336  1.00  0.00     0.031 A 
ATOM     55  C   UNL A   1      46.419  28.252  30.385  1.00  0.00     0.049 A 
ATOM     56  C   UNL A   1      41.083  29.870  29.898  1.00  0.00     0.074 A 
ATOM     57  C   UNL A   1      47.315  29.188  30.873  1.00  0.00     0.029 A 
ATOM     58  N   UNL A   1      45.175  28.860  30.358  1.00  0.00    -0.354 N 
ATOM     59  N   UNL A   1      42.363  29.638  30.060  1.00  0.00    -0.248 NA
ATOM     60  C   UNL A   1      40.652  31.209  30.324  1.00  0.00     0.031 C 
ATOM     61  C   UNL A   1      46.603  30.355  31.171  1.00  0.00     0.029 A 
ATOM     62  C   UNL A   1      45.274  30.156  30.833  1.00  0.00     0.049 A 
ATOM     63  H   UNL A   1      44.344  28.433  30.048  1.00  0.00     0.167 HD
ATOM     64  C   UNL A   1      42.895  30.809  30.583  1.00  0.00     0.074 A 
ATOM     65  C   UNL A   1      41.802  31.753  30.699  1.00  0.00     0.031 C 
ATOM     66  C   UNL A   1      44.175  31.079  30.936  1.00  0.00     0.031 A 
BRANCH  53  67
ATOM     67  C   UNL A   1      48.063  26.350  30.123  1.00  0.00    -0.014 A 
ATOM     68  C   UNL A   1      48.481  25.769  31.331  1.00  0.00     0.009 A 
ATOM     69  C   UNL A   1      48.960  26.403  29.046  1.00  0.00     0.009 A 
ATOM     70  C   UNL A   1      49.784  25.286  31.469  1.00  0.00     0.001 A 
ATOM     71  C   UNL A   1      50.255  25.895  29.179  1.00  0.00     0.001 A 
ATOM     72  C   UNL A   1      50.668  25.347  30.392  1.00  0.00     0.000 A 
ENDBRANCH  53  67
BRANCH  54  73
ATOM     73  C   UNL A   1      38.616  29.429  29.223  1.00  0.00    -0.014 A 
ATOM     74  C   UNL A   1      37.741  29.303  30.313  1.00  0.00     0.009 A 
ATOM     75  C   UNL A   1      38.139  29.992  28.030  1.00  0.00     0.009 A 
ATOM     76  C   UNL A   1      36.411  29.710  30.203  1.00  0.00     0.001 A 
ATOM     77  C   UNL A   1      36.813  30.420  27.931  1.00  0.00     0.001 A 
ATOM     78  C   UNL A   1      35.949  30.272  29.014  1.00  0.00     0.000 A 
ENDBRANCH  54  73
BRANCH  66  79
ATOM     79  C   UNL A   1      44.467  32.458  31.448  1.00  0.00    -0.014 A 
ATOM     80  C   UNL A   1      44.415  32.749  32.820  1.00  0.00     0.009 A 
ATOM     81  C   UNL A   1      44.842  33.468  30.549  1.00  0.00     0.009 A 
ATOM     82  C   UNL A   1      44.707  34.034  33.278  1.00  0.00     0.001 A 
ATOM     83  C   UNL A   1      45.156  34.746  31.013  1.00  0.00     0.001 A 
ATOM     84  C   UNL A   1      45.082  35.030  32.376  1.00  0.00     0.000 A 
ENDBRANCH  66  79
ENDBRANCH  40  41
ENDBRANCH  32  35
ENDBRANCH  30  31
ENDBRANCH  29  30
ENDBRANCH   1  29
TORSDOF 15
ENDMDL
