MODEL 1
REMARK VINA RESULT:     -11.3      0.000      0.000
REMARK SMILES O=C(NCCCCNC(=O)c1[nH]nc2c1CCC2)c1ccc(-c2c3nc(c(-c4ccccc4)c4ccc([nH]4)c(-c4ccccc4)c4nc(c(-c5ccccc5)c5ccc2[nH]5)C=C4)C=C3)cc1
REMARK SMILES IDX 4 1 3 2 1 3 2 4 19 6 20 7 66 8 21 9 65 10 22 11 23 12 24 13
REMARK SMILES IDX 59 14 25 15 64 16 58 17 60 18 26 19 63 20 57 21 56 22 27 24
REMARK SMILES IDX 49 25 34 26 48 27 35 28 38 29 47 30 61 31 36 32 37 33 46 35
REMARK SMILES IDX 62 36 39 37 28 38 29 39 33 40 30 41 32 42 31 43 50 44 51 45
REMARK SMILES IDX 55 46 52 47 54 48 53 49 40 50 41 51 45 52 42 53 44 54 43 55
REMARK SMILES IDX 5 56 6 57 7 58 8 59 9 60 10 62 11 63 12 64 15 65 13 66 14 68
REMARK SMILES IDX 16 69 18 70 17 71
REMARK H PARENT 3 5 60 23 38 34 8 61 12 67
REMARK Flexibility Score: inf
ROOT
ATOM      1  C   UNL A   1      34.395  34.143  28.986  1.00  0.00     0.116 C 
ENDROOT
BRANCH   1   2
ATOM      2  N   UNL A   1      33.955  32.984  28.237  1.00  0.00    -0.352 N 
ATOM      3  O   UNL A   1      33.695  30.918  27.487  1.00  0.00    -0.269 OA
ATOM      4  C   UNL A   1      34.423  31.707  28.095  1.00  0.00     0.251 C 
ATOM      5  H   UNL A   1      33.139  33.153  27.712  1.00  0.00     0.163 HD
BRANCH   4   6
ATOM      6  C   UNL A   1      35.760  31.242  28.548  1.00  0.00     0.039 A 
ATOM      7  C   UNL A   1      36.863  32.063  28.790  1.00  0.00     0.014 A 
ATOM      8  C   UNL A   1      35.916  29.851  28.681  1.00  0.00     0.014 A 
ATOM      9  C   UNL A   1      38.118  31.515  29.012  1.00  0.00     0.010 A 
ATOM     10  C   UNL A   1      37.161  29.296  28.945  1.00  0.00     0.010 A 
ATOM     11  C   UNL A   1      38.270  30.132  29.051  1.00  0.00    -0.014 A 
BRANCH  11  12
ATOM     12  C   UNL A   1      39.608  29.601  29.281  1.00  0.00     0.031 A 
ATOM     13  C   UNL A   1      40.021  29.451  30.706  1.00  0.00     0.074 A 
ATOM     14  C   UNL A   1      40.362  29.121  28.276  1.00  0.00     0.049 A 
ATOM     15  N   UNL A   1      41.101  29.868  31.286  1.00  0.00    -0.248 NA
ATOM     16  C   UNL A   1      39.073  28.782  31.614  1.00  0.00     0.031 C 
ATOM     17  C   UNL A   1      39.969  28.927  26.877  1.00  0.00     0.029 A 
ATOM     18  N   UNL A   1      41.603  28.561  28.332  1.00  0.00    -0.354 N 
ATOM     19  C   UNL A   1      41.045  29.389  32.595  1.00  0.00     0.074 A 
ATOM     20  C   UNL A   1      39.735  28.815  32.769  1.00  0.00     0.031 C 
ATOM     21  C   UNL A   1      40.837  28.073  26.292  1.00  0.00     0.029 A 
ATOM     22  C   UNL A   1      41.903  27.771  27.232  1.00  0.00     0.049 A 
ATOM     23  H   UNL A   1      42.226  28.704  29.081  1.00  0.00     0.167 HD
ATOM     24  C   UNL A   1      42.135  29.320  33.409  1.00  0.00     0.031 A 
ATOM     25  C   UNL A   1      42.897  26.858  27.139  1.00  0.00     0.031 A 
ATOM     26  C   UNL A   1      43.209  30.166  32.977  1.00  0.00     0.049 A 
ATOM     27  C   UNL A   1      43.884  27.139  28.204  1.00  0.00     0.074 A 
ATOM     28  C   UNL A   1      43.376  31.526  32.805  1.00  0.00     0.029 A 
ATOM     29  N   UNL A   1      44.273  29.579  32.338  1.00  0.00    -0.354 N 
ATOM     30  N   UNL A   1      44.643  28.195  28.227  1.00  0.00    -0.248 NA
ATOM     31  C   UNL A   1      43.750  26.442  29.474  1.00  0.00     0.031 C 
ATOM     32  C   UNL A   1      44.233  31.651  31.673  1.00  0.00     0.029 A 
ATOM     33  C   UNL A   1      44.552  30.360  31.247  1.00  0.00     0.049 A 
ATOM     34  H   UNL A   1      44.743  28.758  32.611  1.00  0.00     0.167 HD
ATOM     35  C   UNL A   1      44.739  28.538  29.567  1.00  0.00     0.074 A 
ATOM     36  C   UNL A   1      44.271  27.361  30.292  1.00  0.00     0.031 C 
ATOM     37  C   UNL A   1      44.922  29.836  29.953  1.00  0.00     0.031 A 
BRANCH  24  38
ATOM     38  C   UNL A   1      42.346  28.207  34.402  1.00  0.00    -0.014 A 
ATOM     39  C   UNL A   1      42.771  26.946  33.947  1.00  0.00     0.009 A 
ATOM     40  C   UNL A   1      41.869  28.277  35.726  1.00  0.00     0.009 A 
ATOM     41  C   UNL A   1      42.673  25.809  34.758  1.00  0.00     0.001 A 
ATOM     42  C   UNL A   1      41.810  27.151  36.552  1.00  0.00     0.001 A 
ATOM     43  C   UNL A   1      42.188  25.912  36.059  1.00  0.00     0.000 A 
ENDBRANCH  24  38
BRANCH  25  44
ATOM     44  C   UNL A   1      42.874  25.589  26.385  1.00  0.00    -0.014 A 
ATOM     45  C   UNL A   1      43.814  25.326  25.379  1.00  0.00     0.009 A 
ATOM     46  C   UNL A   1      42.063  24.523  26.822  1.00  0.00     0.009 A 
ATOM     47  C   UNL A   1      43.948  24.037  24.845  1.00  0.00     0.001 A 
ATOM     48  C   UNL A   1      42.192  23.240  26.284  1.00  0.00     0.001 A 
ATOM     49  C   UNL A   1      43.145  22.995  25.303  1.00  0.00     0.000 A 
ENDBRANCH  25  44
BRANCH  37  50
ATOM     50  C   UNL A   1      45.218  30.852  28.878  1.00  0.00    -0.014 A 
ATOM     51  C   UNL A   1      46.532  31.206  28.520  1.00  0.00     0.009 A 
ATOM     52  C   UNL A   1      44.162  31.344  28.099  1.00  0.00     0.009 A 
ATOM     53  C   UNL A   1      46.778  32.055  27.438  1.00  0.00     0.001 A 
ATOM     54  C   UNL A   1      44.409  32.177  27.004  1.00  0.00     0.001 A 
ATOM     55  C   UNL A   1      45.716  32.537  26.678  1.00  0.00     0.000 A 
ENDBRANCH  37  50
ENDBRANCH  11  12
ENDBRANCH   4   6
ENDBRANCH   1   2
BRANCH   1  56
ATOM     56  C   UNL A   1      34.375  35.462  28.208  1.00  0.00     0.023 C 
BRANCH  56  57
ATOM     57  C   UNL A   1      33.636  36.612  28.890  1.00  0.00     0.023 C 
BRANCH  57  58
ATOM     58  C   UNL A   1      32.977  36.260  30.216  1.00  0.00     0.116 C 
BRANCH  58  59
ATOM     59  N   UNL A   1      33.430  37.099  31.310  1.00  0.00    -0.351 N 
ATOM     60  C   UNL A   1      33.884  36.709  32.547  1.00  0.00     0.269 C 
ATOM     61  H   UNL A   1      33.409  38.070  31.145  1.00  0.00     0.163 HD
ATOM     62  O   UNL A   1      34.017  37.550  33.420  1.00  0.00    -0.268 OA
BRANCH  60  63
ATOM     63  C   UNL A   1      34.109  35.310  32.768  1.00  0.00     0.126 A 
ATOM     64  N   UNL A   1      33.082  34.434  33.055  1.00  0.00    -0.272 N 
ATOM     65  C   UNL A   1      35.231  34.521  32.773  1.00  0.00     0.006 A 
ATOM     66  N   UNL A   1      33.453  33.124  33.052  1.00  0.00    -0.180 NA
ATOM     67  H   UNL A   1      32.162  34.729  33.246  1.00  0.00     0.190 HD
ATOM     68  C   UNL A   1      34.764  33.213  32.890  1.00  0.00     0.066 A 
ATOM     69  C   UNL A   1      36.696  34.560  32.619  1.00  0.00     0.040 C 
ATOM     70  C   UNL A   1      35.830  32.205  32.746  1.00  0.00     0.059 C 
ATOM     71  C   UNL A   1      37.003  33.086  32.194  1.00  0.00     0.011 C 
ENDBRANCH  60  63
ENDBRANCH  58  59
ENDBRANCH  57  58
ENDBRANCH  56  57
ENDBRANCH   1  56
TORSDOF 11
ENDMDL
MODEL 2
REMARK VINA RESULT:     -11.2      4.848     10.833
REMARK SMILES O=C(NCCCCNC(=O)c1[nH]nc2c1CCC2)c1ccc(-c2c3nc(c(-c4ccccc4)c4ccc([nH]4)c(-c4ccccc4)c4nc(c(-c5ccccc5)c5ccc2[nH]5)C=C4)C=C3)cc1
REMARK SMILES IDX 4 1 3 2 1 3 2 4 19 6 20 7 66 8 21 9 65 10 22 11 23 12 24 13
REMARK SMILES IDX 59 14 25 15 64 16 58 17 60 18 26 19 63 20 57 21 56 22 27 24
REMARK SMILES IDX 49 25 34 26 48 27 35 28 38 29 47 30 61 31 36 32 37 33 46 35
REMARK SMILES IDX 62 36 39 37 28 38 29 39 33 40 30 41 32 42 31 43 50 44 51 45
REMARK SMILES IDX 55 46 52 47 54 48 53 49 40 50 41 51 45 52 42 53 44 54 43 55
REMARK SMILES IDX 5 56 6 57 7 58 8 59 9 60 10 62 11 63 12 64 15 65 13 66 14 68
REMARK SMILES IDX 16 69 18 70 17 71
REMARK H PARENT 3 5 60 23 38 34 8 61 12 67
REMARK Flexibility Score: inf
ROOT
ATOM      1  C   UNL A   1      44.869  19.018  25.340  1.00  0.00     0.116 C 
ENDROOT
BRANCH   1   2
ATOM      2  N   UNL A   1      43.488  18.593  25.437  1.00  0.00    -0.352 N 
ATOM      3  O   UNL A   1      41.280  18.580  25.581  1.00  0.00    -0.269 OA
ATOM      4  C   UNL A   1      42.317  19.224  25.755  1.00  0.00     0.251 C 
ATOM      5  H   UNL A   1      43.364  17.639  25.228  1.00  0.00     0.163 HD
BRANCH   4   6
ATOM      6  C   UNL A   1      42.225  20.578  26.362  1.00  0.00     0.039 A 
ATOM      7  C   UNL A   1      42.478  21.780  25.700  1.00  0.00     0.014 A 
ATOM      8  C   UNL A   1      41.910  20.618  27.732  1.00  0.00     0.014 A 
ATOM      9  C   UNL A   1      42.563  22.973  26.405  1.00  0.00     0.010 A 
ATOM     10  C   UNL A   1      41.952  21.814  28.437  1.00  0.00     0.010 A 
ATOM     11  C   UNL A   1      42.336  22.980  27.778  1.00  0.00    -0.014 A 
BRANCH  11  12
ATOM     12  C   UNL A   1      42.442  24.253  28.478  1.00  0.00     0.031 A 
ATOM     13  C   UNL A   1      41.391  25.265  28.169  1.00  0.00     0.074 A 
ATOM     14  C   UNL A   1      43.335  24.448  29.466  1.00  0.00     0.049 A 
ATOM     15  N   UNL A   1      41.533  26.506  27.827  1.00  0.00    -0.248 NA
ATOM     16  C   UNL A   1      39.990  24.809  28.202  1.00  0.00     0.031 C 
ATOM     17  C   UNL A   1      44.220  23.453  30.079  1.00  0.00     0.029 A 
ATOM     18  N   UNL A   1      43.529  25.556  30.235  1.00  0.00    -0.354 N 
ATOM     19  C   UNL A   1      40.245  27.033  27.746  1.00  0.00     0.074 A 
ATOM     20  C   UNL A   1      39.335  25.925  27.888  1.00  0.00     0.031 C 
ATOM     21  C   UNL A   1      44.654  23.925  31.267  1.00  0.00     0.029 A 
ATOM     22  C   UNL A   1      44.182  25.290  31.429  1.00  0.00     0.049 A 
ATOM     23  H   UNL A   1      43.235  26.456  29.968  1.00  0.00     0.167 HD
ATOM     24  C   UNL A   1      39.988  28.371  27.753  1.00  0.00     0.031 A 
ATOM     25  C   UNL A   1      44.244  26.097  32.514  1.00  0.00     0.031 A 
ATOM     26  C   UNL A   1      41.134  29.162  27.410  1.00  0.00     0.049 A 
ATOM     27  C   UNL A   1      43.899  27.471  32.089  1.00  0.00     0.074 A 
ATOM     28  C   UNL A   1      41.941  29.285  26.297  1.00  0.00     0.029 A 
ATOM     29  N   UNL A   1      41.806  29.794  28.426  1.00  0.00    -0.354 N 
ATOM     30  N   UNL A   1      44.648  28.197  31.312  1.00  0.00    -0.248 NA
ATOM     31  C   UNL A   1      42.514  27.904  32.200  1.00  0.00     0.031 C 
ATOM     32  C   UNL A   1      43.245  29.535  26.814  1.00  0.00     0.029 A 
ATOM     33  C   UNL A   1      43.141  29.575  28.206  1.00  0.00     0.049 A 
ATOM     34  H   UNL A   1      41.407  30.305  29.167  1.00  0.00     0.167 HD
ATOM     35  C   UNL A   1      43.758  28.906  30.519  1.00  0.00     0.074 A 
ATOM     36  C   UNL A   1      42.468  28.774  31.188  1.00  0.00     0.031 C 
ATOM     37  C   UNL A   1      44.096  29.294  29.252  1.00  0.00     0.031 A 
BRANCH  24  38
ATOM     38  C   UNL A   1      38.777  28.968  28.422  1.00  0.00    -0.014 A 
ATOM     39  C   UNL A   1      37.955  29.852  27.700  1.00  0.00     0.009 A 
ATOM     40  C   UNL A   1      38.580  28.912  29.816  1.00  0.00     0.009 A 
ATOM     41  C   UNL A   1      37.025  30.674  28.349  1.00  0.00     0.001 A 
ATOM     42  C   UNL A   1      37.623  29.700  30.461  1.00  0.00     0.001 A 
ATOM     43  C   UNL A   1      36.863  30.600  29.730  1.00  0.00     0.000 A 
ENDBRANCH  24  38
BRANCH  25  44
ATOM     44  C   UNL A   1      44.278  25.684  33.932  1.00  0.00    -0.014 A 
ATOM     45  C   UNL A   1      45.186  26.257  34.832  1.00  0.00     0.009 A 
ATOM     46  C   UNL A   1      43.246  24.884  34.459  1.00  0.00     0.009 A 
ATOM     47  C   UNL A   1      45.051  26.053  36.212  1.00  0.00     0.001 A 
ATOM     48  C   UNL A   1      43.116  24.674  35.834  1.00  0.00     0.001 A 
ATOM     49  C   UNL A   1      44.012  25.270  36.712  1.00  0.00     0.000 A 
ENDBRANCH  25  44
BRANCH  37  50
ATOM     50  C   UNL A   1      45.529  29.107  28.820  1.00  0.00    -0.014 A 
ATOM     51  C   UNL A   1      46.100  27.834  28.642  1.00  0.00     0.009 A 
ATOM     52  C   UNL A   1      46.272  30.229  28.429  1.00  0.00     0.009 A 
ATOM     53  C   UNL A   1      47.389  27.690  28.121  1.00  0.00     0.001 A 
ATOM     54  C   UNL A   1      47.554  30.085  27.889  1.00  0.00     0.001 A 
ATOM     55  C   UNL A   1      48.113  28.816  27.742  1.00  0.00     0.000 A 
ENDBRANCH  37  50
ENDBRANCH  11  12
ENDBRANCH   4   6
ENDBRANCH   1   2
BRANCH   1  56
ATOM     56  C   UNL A   1      45.147  20.074  24.266  1.00  0.00     0.023 C 
BRANCH  56  57
ATOM     57  C   UNL A   1      46.329  21.000  24.551  1.00  0.00     0.023 C 
BRANCH  57  58
ATOM     58  C   UNL A   1      45.958  22.442  24.865  1.00  0.00     0.116 C 
BRANCH  58  59
ATOM     59  N   UNL A   1      46.148  22.781  26.263  1.00  0.00    -0.351 N 
ATOM     60  C   UNL A   1      46.273  24.029  26.825  1.00  0.00     0.269 C 
ATOM     61  H   UNL A   1      46.192  22.021  26.888  1.00  0.00     0.163 HD
ATOM     62  O   UNL A   1      46.645  24.121  27.983  1.00  0.00    -0.268 OA
BRANCH  60  63
ATOM     63  C   UNL A   1      46.030  25.169  25.988  1.00  0.00     0.126 A 
ATOM     64  N   UNL A   1      44.788  25.765  25.897  1.00  0.00    -0.272 N 
ATOM     65  C   UNL A   1      46.817  25.907  25.143  1.00  0.00     0.006 A 
ATOM     66  N   UNL A   1      44.786  26.937  25.205  1.00  0.00    -0.180 NA
ATOM     67  H   UNL A   1      43.976  25.379  26.297  1.00  0.00     0.190 HD
ATOM     68  C   UNL A   1      46.029  26.987  24.750  1.00  0.00     0.066 A 
ATOM     69  C   UNL A   1      48.181  26.004  24.590  1.00  0.00     0.040 C 
ATOM     70  C   UNL A   1      46.772  27.987  23.961  1.00  0.00     0.059 C 
ATOM     71  C   UNL A   1      48.248  27.516  24.194  1.00  0.00     0.011 C 
ENDBRANCH  60  63
ENDBRANCH  58  59
ENDBRANCH  57  58
ENDBRANCH  56  57
ENDBRANCH   1  56
TORSDOF 11
ENDMDL
MODEL 3
REMARK VINA RESULT:     -11.1      3.834     11.382
REMARK SMILES O=C(NCCCCNC(=O)c1[nH]nc2c1CCC2)c1ccc(-c2c3nc(c(-c4ccccc4)c4ccc([nH]4)c(-c4ccccc4)c4nc(c(-c5ccccc5)c5ccc2[nH]5)C=C4)C=C3)cc1
REMARK SMILES IDX 4 1 3 2 1 3 2 4 19 6 20 7 66 8 21 9 65 10 22 11 23 12 24 13
REMARK SMILES IDX 59 14 25 15 64 16 58 17 60 18 26 19 63 20 57 21 56 22 27 24
REMARK SMILES IDX 49 25 34 26 48 27 35 28 38 29 47 30 61 31 36 32 37 33 46 35
REMARK SMILES IDX 62 36 39 37 28 38 29 39 33 40 30 41 32 42 31 43 50 44 51 45
REMARK SMILES IDX 55 46 52 47 54 48 53 49 40 50 41 51 45 52 42 53 44 54 43 55
REMARK SMILES IDX 5 56 6 57 7 58 8 59 9 60 10 62 11 63 12 64 15 65 13 66 14 68
REMARK SMILES IDX 16 69 18 70 17 71
REMARK H PARENT 3 5 60 23 38 34 8 61 12 67
REMARK Flexibility Score: inf
ROOT
ATOM      1  C   UNL A   1      41.663  20.518  26.239  1.00  0.00     0.116 C 
ENDROOT
BRANCH   1   2
ATOM      2  N   UNL A   1      40.245  20.810  26.195  1.00  0.00    -0.352 N 
ATOM      3  O   UNL A   1      38.299  21.858  26.085  1.00  0.00    -0.269 OA
ATOM      4  C   UNL A   1      39.500  21.946  26.351  1.00  0.00     0.251 C 
ATOM      5  H   UNL A   1      39.694  20.013  26.012  1.00  0.00     0.163 HD
BRANCH   4   6
ATOM      6  C   UNL A   1      40.022  23.230  26.887  1.00  0.00     0.039 A 
ATOM      7  C   UNL A   1      41.078  23.361  27.791  1.00  0.00     0.014 A 
ATOM      8  C   UNL A   1      39.341  24.391  26.476  1.00  0.00     0.014 A 
ATOM      9  C   UNL A   1      41.354  24.585  28.384  1.00  0.00     0.010 A 
ATOM     10  C   UNL A   1      39.640  25.626  27.035  1.00  0.00     0.010 A 
ATOM     11  C   UNL A   1      40.610  25.706  28.032  1.00  0.00    -0.014 A 
BRANCH  11  12
ATOM     12  C   UNL A   1      40.931  26.968  28.685  1.00  0.00     0.031 A 
ATOM     13  C   UNL A   1      42.110  27.707  28.148  1.00  0.00     0.074 A 
ATOM     14  C   UNL A   1      40.119  27.517  29.607  1.00  0.00     0.049 A 
ATOM     15  N   UNL A   1      43.126  28.191  28.788  1.00  0.00    -0.248 NA
ATOM     16  C   UNL A   1      42.182  27.886  26.687  1.00  0.00     0.031 C 
ATOM     17  C   UNL A   1      38.787  27.059  30.010  1.00  0.00     0.029 A 
ATOM     18  N   UNL A   1      40.259  28.698  30.273  1.00  0.00    -0.354 N 
ATOM     19  C   UNL A   1      43.894  28.865  27.840  1.00  0.00     0.074 A 
ATOM     20  C   UNL A   1      43.321  28.562  26.553  1.00  0.00     0.031 C 
ATOM     21  C   UNL A   1      38.147  28.068  30.639  1.00  0.00     0.029 A 
ATOM     22  C   UNL A   1      39.067  29.183  30.790  1.00  0.00     0.049 A 
ATOM     23  H   UNL A   1      41.121  29.160  30.377  1.00  0.00     0.167 HD
ATOM     24  C   UNL A   1      44.843  29.785  28.169  1.00  0.00     0.031 A 
ATOM     25  C   UNL A   1      38.825  30.444  31.219  1.00  0.00     0.031 A 
ATOM     26  C   UNL A   1      45.280  29.673  29.530  1.00  0.00     0.049 A 
ATOM     27  C   UNL A   1      40.124  31.104  31.471  1.00  0.00     0.074 A 
ATOM     28  C   UNL A   1      45.910  28.699  30.280  1.00  0.00     0.029 A 
ATOM     29  N   UNL A   1      44.799  30.584  30.438  1.00  0.00    -0.354 N 
ATOM     30  N   UNL A   1      40.934  30.765  32.431  1.00  0.00    -0.248 NA
ATOM     31  C   UNL A   1      40.723  31.887  30.400  1.00  0.00     0.031 C 
ATOM     32  C   UNL A   1      45.347  28.817  31.584  1.00  0.00     0.029 A 
ATOM     33  C   UNL A   1      44.432  29.871  31.549  1.00  0.00     0.049 A 
ATOM     34  H   UNL A   1      44.732  31.559  30.313  1.00  0.00     0.167 HD
ATOM     35  C   UNL A   1      42.205  30.918  31.898  1.00  0.00     0.074 A 
ATOM     36  C   UNL A   1      42.016  31.719  30.694  1.00  0.00     0.031 C 
ATOM     37  C   UNL A   1      43.248  30.147  32.329  1.00  0.00     0.031 A 
BRANCH  24  38
ATOM     38  C   UNL A   1      45.112  31.016  27.344  1.00  0.00    -0.014 A 
ATOM     39  C   UNL A   1      46.435  31.330  26.982  1.00  0.00     0.009 A 
ATOM     40  C   UNL A   1      44.146  32.023  27.152  1.00  0.00     0.009 A 
ATOM     41  C   UNL A   1      46.776  32.602  26.506  1.00  0.00     0.001 A 
ATOM     42  C   UNL A   1      44.477  33.280  26.637  1.00  0.00     0.001 A 
ATOM     43  C   UNL A   1      45.797  33.577  26.339  1.00  0.00     0.000 A 
ENDBRANCH  24  38
BRANCH  25  44
ATOM     44  C   UNL A   1      37.555  31.191  31.120  1.00  0.00    -0.014 A 
ATOM     45  C   UNL A   1      36.840  31.560  32.267  1.00  0.00     0.009 A 
ATOM     46  C   UNL A   1      37.161  31.754  29.890  1.00  0.00     0.009 A 
ATOM     47  C   UNL A   1      35.782  32.475  32.187  1.00  0.00     0.001 A 
ATOM     48  C   UNL A   1      36.102  32.661  29.809  1.00  0.00     0.001 A 
ATOM     49  C   UNL A   1      35.419  33.032  30.962  1.00  0.00     0.000 A 
ENDBRANCH  25  44
BRANCH  37  50
ATOM     50  C   UNL A   1      43.022  29.271  33.536  1.00  0.00    -0.014 A 
ATOM     51  C   UNL A   1      43.425  29.654  34.829  1.00  0.00     0.009 A 
ATOM     52  C   UNL A   1      42.247  28.112  33.398  1.00  0.00     0.009 A 
ATOM     53  C   UNL A   1      43.091  28.881  35.944  1.00  0.00     0.001 A 
ATOM     54  C   UNL A   1      41.896  27.350  34.516  1.00  0.00     0.001 A 
ATOM     55  C   UNL A   1      42.323  27.731  35.787  1.00  0.00     0.000 A 
ENDBRANCH  37  50
ENDBRANCH  11  12
ENDBRANCH   4   6
ENDBRANCH   1   2
BRANCH   1  56
ATOM     56  C   UNL A   1      42.086  19.529  27.329  1.00  0.00     0.023 C 
BRANCH  56  57
ATOM     57  C   UNL A   1      43.028  18.416  26.872  1.00  0.00     0.023 C 
BRANCH  57  58
ATOM     58  C   UNL A   1      43.660  18.627  25.504  1.00  0.00     0.116 C 
BRANCH  58  59
ATOM     59  N   UNL A   1      45.111  18.650  25.551  1.00  0.00    -0.351 N 
ATOM     60  C   UNL A   1      45.959  19.638  25.111  1.00  0.00     0.269 C 
ATOM     61  H   UNL A   1      45.541  17.858  25.948  1.00  0.00     0.163 HD
ATOM     62  O   UNL A   1      47.152  19.399  25.029  1.00  0.00    -0.268 OA
BRANCH  60  63
ATOM     63  C   UNL A   1      45.380  20.885  24.699  1.00  0.00     0.126 A 
ATOM     64  N   UNL A   1      44.827  21.063  23.447  1.00  0.00    -0.272 N 
ATOM     65  C   UNL A   1      45.222  22.102  25.310  1.00  0.00     0.006 A 
ATOM     66  N   UNL A   1      44.164  22.242  23.297  1.00  0.00    -0.180 NA
ATOM     67  H   UNL A   1      44.903  20.396  22.727  1.00  0.00     0.190 HD
ATOM     68  C   UNL A   1      44.434  22.854  24.440  1.00  0.00     0.066 A 
ATOM     69  C   UNL A   1      45.509  22.840  26.553  1.00  0.00     0.040 C 
ATOM     70  C   UNL A   1      44.019  24.148  25.011  1.00  0.00     0.059 C 
ATOM     71  C   UNL A   1      44.409  23.952  26.515  1.00  0.00     0.011 C 
ENDBRANCH  60  63
ENDBRANCH  58  59
ENDBRANCH  57  58
ENDBRANCH  56  57
ENDBRANCH   1  56
TORSDOF 11
ENDMDL
