MODEL 1
REMARK VINA RESULT:      -8.9      0.000      0.000
REMARK SMILES CCCCCC[C@H](C)[C@@](C)(O)C(=O)NCCCCNC(=O)c1ccc(-c2c3nc(c(-c4ccccc4)c4ccc([nH]4)c(-c4ccccc4)c4nc(c(-c5ccccc5)c5ccc2[nH]5)C=C4)C=C3)cc1
REMARK SMILES IDX 12 1 13 2 14 3 9 5 10 6 7 7 8 8 6 9 5 10 4 11 3 12 2 13 1 14
REMARK SMILES IDX 11 15 15 17 16 18 17 19 18 20 19 21 20 22 21 24 22 25 23 26
REMARK SMILES IDX 69 27 24 28 68 29 25 30 26 31 27 32 62 33 28 34 67 35 61 36
REMARK SMILES IDX 63 37 29 38 66 39 60 40 59 41 30 43 52 44 37 45 51 46 38 47
REMARK SMILES IDX 41 48 50 49 64 50 39 51 40 52 49 54 65 55 42 56 31 57 32 58
REMARK SMILES IDX 36 59 33 60 35 61 34 62 53 63 54 64 58 65 55 66 57 67 56 68
REMARK SMILES IDX 43 69 44 70 48 71 45 72 47 73 46 74
REMARK H PARENT 14 4 11 16 19 23 63 42 41 53
REMARK Flexibility Score: inf
ROOT
ATOM      1  C   UNL A   1      33.127  23.820  22.641  1.00  0.00     0.251 C 
ATOM      2  O   UNL A   1      33.673  23.676  21.545  1.00  0.00    -0.272 OA
ATOM      3  N   UNL A   1      33.698  23.138  23.680  1.00  0.00    -0.354 N 
ATOM      4  H   UNL A   1      34.228  22.351  23.422  1.00  0.00     0.163 HD
ENDROOT
BRANCH   1   5
ATOM      5  C   UNL A   1      31.951  24.817  22.865  1.00  0.00     0.142 C 
ATOM      6  C   UNL A   1      30.792  23.967  23.422  1.00  0.00     0.053 C 
BRANCH   5   7
ATOM      7  C   UNL A   1      32.276  26.015  23.833  1.00  0.00     0.027 C 
ATOM      8  C   UNL A   1      33.405  26.955  23.403  1.00  0.00     0.011 C 
BRANCH   7   9
ATOM      9  C   UNL A   1      31.035  26.760  24.415  1.00  0.00     0.007 C 
BRANCH   9  10
ATOM     10  C   UNL A   1      31.219  27.907  25.420  1.00  0.00     0.000 C 
BRANCH  10  11
ATOM     11  C   UNL A   1      31.773  27.558  26.799  1.00  0.00     0.000 C 
BRANCH  11  12
ATOM     12  C   UNL A   1      33.086  28.252  27.173  1.00  0.00    -0.000 C 
BRANCH  12  13
ATOM     13  C   UNL A   1      33.172  29.710  26.720  1.00  0.00    -0.003 C 
ATOM     14  C   UNL A   1      34.298  30.473  27.405  1.00  0.00     0.004 C 
ENDBRANCH  12  13
ENDBRANCH  11  12
ENDBRANCH  10  11
ENDBRANCH   9  10
ENDBRANCH   7   9
ENDBRANCH   5   7
BRANCH   5  15
ATOM     15  O   UNL A   1      31.492  25.398  21.636  1.00  0.00    -0.380 OA
ATOM     16  H   UNL A   1      32.242  25.505  21.029  1.00  0.00     0.212 HD
ENDBRANCH   5  15
ENDBRANCH   1   5
BRANCH   3  17
ATOM     17  C   UNL A   1      33.638  23.402  25.104  1.00  0.00     0.116 C 
BRANCH  17  18
ATOM     18  C   UNL A   1      34.765  24.292  25.614  1.00  0.00     0.023 C 
BRANCH  18  19
ATOM     19  C   UNL A   1      36.042  23.574  26.056  1.00  0.00     0.023 C 
BRANCH  19  20
ATOM     20  C   UNL A   1      37.184  23.539  25.046  1.00  0.00     0.116 C 
BRANCH  20  21
ATOM     21  N   UNL A   1      38.267  22.646  25.420  1.00  0.00    -0.352 N 
ATOM     22  C   UNL A   1      39.387  22.890  26.182  1.00  0.00     0.251 C 
ATOM     23  H   UNL A   1      38.189  21.726  25.077  1.00  0.00     0.163 HD
ATOM     24  O   UNL A   1      40.235  22.020  26.320  1.00  0.00    -0.269 OA
BRANCH  22  25
ATOM     25  C   UNL A   1      39.589  24.220  26.802  1.00  0.00     0.039 A 
ATOM     26  C   UNL A   1      39.112  24.430  28.098  1.00  0.00     0.014 A 
ATOM     27  C   UNL A   1      40.246  25.249  26.123  1.00  0.00     0.014 A 
ATOM     28  C   UNL A   1      39.361  25.644  28.742  1.00  0.00     0.010 A 
ATOM     29  C   UNL A   1      40.560  26.430  26.792  1.00  0.00     0.010 A 
ATOM     30  C   UNL A   1      40.124  26.639  28.111  1.00  0.00    -0.014 A 
BRANCH  30  31
ATOM     31  C   UNL A   1      40.487  27.894  28.817  1.00  0.00     0.031 A 
ATOM     32  C   UNL A   1      41.838  28.039  29.466  1.00  0.00     0.074 A 
ATOM     33  C   UNL A   1      39.580  28.884  28.930  1.00  0.00     0.049 A 
ATOM     34  N   UNL A   1      42.312  29.036  30.169  1.00  0.00    -0.248 NA
ATOM     35  C   UNL A   1      42.766  26.905  29.327  1.00  0.00     0.031 C 
ATOM     36  C   UNL A   1      38.223  28.859  28.378  1.00  0.00     0.029 A 
ATOM     37  N   UNL A   1      39.661  30.106  29.550  1.00  0.00    -0.354 N 
ATOM     38  C   UNL A   1      43.584  28.643  30.570  1.00  0.00     0.074 A 
ATOM     39  C   UNL A   1      43.788  27.301  30.073  1.00  0.00     0.031 C 
ATOM     40  C   UNL A   1      37.611  30.021  28.659  1.00  0.00     0.029 A 
ATOM     41  C   UNL A   1      38.514  30.855  29.447  1.00  0.00     0.049 A 
ATOM     42  H   UNL A   1      40.465  30.416  30.026  1.00  0.00     0.167 HD
ATOM     43  C   UNL A   1      44.505  29.342  31.274  1.00  0.00     0.031 A 
ATOM     44  C   UNL A   1      38.215  32.073  29.936  1.00  0.00     0.031 A 
ATOM     45  C   UNL A   1      44.309  30.682  31.762  1.00  0.00     0.049 A 
ATOM     46  C   UNL A   1      39.249  32.818  30.734  1.00  0.00     0.074 A 
ATOM     47  C   UNL A   1      45.207  31.495  32.432  1.00  0.00     0.029 A 
ATOM     48  N   UNL A   1      43.132  31.402  31.637  1.00  0.00    -0.354 N 
ATOM     49  N   UNL A   1      40.473  32.461  31.041  1.00  0.00    -0.248 NA
ATOM     50  C   UNL A   1      38.862  34.142  31.245  1.00  0.00     0.031 C 
ATOM     51  C   UNL A   1      44.554  32.687  32.762  1.00  0.00     0.029 A 
ATOM     52  C   UNL A   1      43.270  32.641  32.243  1.00  0.00     0.049 A 
ATOM     53  H   UNL A   1      42.318  31.083  31.184  1.00  0.00     0.167 HD
ATOM     54  C   UNL A   1      41.011  33.527  31.752  1.00  0.00     0.074 A 
ATOM     55  C   UNL A   1      39.986  34.548  31.818  1.00  0.00     0.031 C 
ATOM     56  C   UNL A   1      42.244  33.648  32.300  1.00  0.00     0.031 A 
BRANCH  43  57
ATOM     57  C   UNL A   1      45.814  28.663  31.573  1.00  0.00    -0.014 A 
ATOM     58  C   UNL A   1      45.988  27.894  32.735  1.00  0.00     0.009 A 
ATOM     59  C   UNL A   1      46.874  28.760  30.659  1.00  0.00     0.009 A 
ATOM     60  C   UNL A   1      47.210  27.268  32.993  1.00  0.00     0.001 A 
ATOM     61  C   UNL A   1      48.084  28.107  30.904  1.00  0.00     0.001 A 
ATOM     62  C   UNL A   1      48.254  27.370  32.075  1.00  0.00     0.000 A 
ENDBRANCH  43  57
BRANCH  44  63
ATOM     63  C   UNL A   1      36.883  32.679  29.676  1.00  0.00    -0.014 A 
ATOM     64  C   UNL A   1      35.840  32.527  30.604  1.00  0.00     0.009 A 
ATOM     65  C   UNL A   1      36.639  33.398  28.496  1.00  0.00     0.009 A 
ATOM     66  C   UNL A   1      34.574  33.055  30.340  1.00  0.00     0.001 A 
ATOM     67  C   UNL A   1      35.382  33.951  28.249  1.00  0.00     0.001 A 
ATOM     68  C   UNL A   1      34.347  33.771  29.166  1.00  0.00     0.000 A 
ENDBRANCH  44  63
BRANCH  56  69
ATOM     69  C   UNL A   1      42.569  34.947  32.984  1.00  0.00    -0.014 A 
ATOM     70  C   UNL A   1      43.277  35.964  32.326  1.00  0.00     0.009 A 
ATOM     71  C   UNL A   1      42.121  35.169  34.296  1.00  0.00     0.009 A 
ATOM     72  C   UNL A   1      43.560  37.164  32.982  1.00  0.00     0.001 A 
ATOM     73  C   UNL A   1      42.379  36.382  34.938  1.00  0.00     0.001 A 
ATOM     74  C   UNL A   1      43.107  37.374  34.283  1.00  0.00     0.000 A 
ENDBRANCH  56  69
ENDBRANCH  30  31
ENDBRANCH  22  25
ENDBRANCH  20  21
ENDBRANCH  19  20
ENDBRANCH  18  19
ENDBRANCH  17  18
ENDBRANCH   3  17
TORSDOF 18
ENDMDL
MODEL 2
REMARK VINA RESULT:      -8.7      3.079      7.587
REMARK SMILES CCCCCC[C@H](C)[C@@](C)(O)C(=O)NCCCCNC(=O)c1ccc(-c2c3nc(c(-c4ccccc4)c4ccc([nH]4)c(-c4ccccc4)c4nc(c(-c5ccccc5)c5ccc2[nH]5)C=C4)C=C3)cc1
REMARK SMILES IDX 12 1 13 2 14 3 9 5 10 6 7 7 8 8 6 9 5 10 4 11 3 12 2 13 1 14
REMARK SMILES IDX 11 15 15 17 16 18 17 19 18 20 19 21 20 22 21 24 22 25 23 26
REMARK SMILES IDX 69 27 24 28 68 29 25 30 26 31 27 32 62 33 28 34 67 35 61 36
REMARK SMILES IDX 63 37 29 38 66 39 60 40 59 41 30 43 52 44 37 45 51 46 38 47
REMARK SMILES IDX 41 48 50 49 64 50 39 51 40 52 49 54 65 55 42 56 31 57 32 58
REMARK SMILES IDX 36 59 33 60 35 61 34 62 53 63 54 64 58 65 55 66 57 67 56 68
REMARK SMILES IDX 43 69 44 70 48 71 45 72 47 73 46 74
REMARK H PARENT 14 4 11 16 19 23 63 42 41 53
REMARK Flexibility Score: inf
ROOT
ATOM      1  C   UNL A   1      31.386  28.623  23.487  1.00  0.00     0.251 C 
ATOM      2  O   UNL A   1      30.368  28.694  22.793  1.00  0.00    -0.272 OA
ATOM      3  N   UNL A   1      31.674  29.734  24.230  1.00  0.00    -0.354 N 
ATOM      4  H   UNL A   1      31.288  30.574  23.893  1.00  0.00     0.163 HD
ENDROOT
BRANCH   1   5
ATOM      5  C   UNL A   1      32.217  27.312  23.620  1.00  0.00     0.142 C 
ATOM      6  C   UNL A   1      33.649  27.688  23.191  1.00  0.00     0.053 C 
BRANCH   5   7
ATOM      7  C   UNL A   1      32.219  26.673  25.058  1.00  0.00     0.027 C 
ATOM      8  C   UNL A   1      31.171  25.590  25.327  1.00  0.00     0.011 C 
BRANCH   7   9
ATOM      9  C   UNL A   1      33.626  26.333  25.638  1.00  0.00     0.007 C 
BRANCH   9  10
ATOM     10  C   UNL A   1      34.091  24.873  25.740  1.00  0.00     0.000 C 
BRANCH  10  11
ATOM     11  C   UNL A   1      35.082  24.370  24.694  1.00  0.00     0.000 C 
BRANCH  11  12
ATOM     12  C   UNL A   1      34.457  23.848  23.397  1.00  0.00    -0.000 C 
BRANCH  12  13
ATOM     13  C   UNL A   1      33.686  22.538  23.558  1.00  0.00    -0.003 C 
ATOM     14  C   UNL A   1      32.241  22.644  23.088  1.00  0.00     0.004 C 
ENDBRANCH  12  13
ENDBRANCH  11  12
ENDBRANCH  10  11
ENDBRANCH   9  10
ENDBRANCH   7   9
ENDBRANCH   5   7
BRANCH   5  15
ATOM     15  O   UNL A   1      31.765  26.290  22.720  1.00  0.00    -0.380 OA
ATOM     16  H   UNL A   1      32.530  25.813  22.361  1.00  0.00     0.212 HD
ENDBRANCH   5  15
ENDBRANCH   1   5
BRANCH   3  17
ATOM     17  C   UNL A   1      32.463  29.859  25.440  1.00  0.00     0.116 C 
BRANCH  17  18
ATOM     18  C   UNL A   1      31.667  30.341  26.647  1.00  0.00     0.023 C 
BRANCH  18  19
ATOM     19  C   UNL A   1      31.469  31.854  26.762  1.00  0.00     0.023 C 
BRANCH  19  20
ATOM     20  C   UNL A   1      32.676  32.662  27.228  1.00  0.00     0.116 C 
BRANCH  20  21
ATOM     21  N   UNL A   1      32.357  34.032  27.591  1.00  0.00    -0.352 N 
ATOM     22  C   UNL A   1      32.975  34.872  28.489  1.00  0.00     0.251 C 
ATOM     23  H   UNL A   1      31.582  34.419  27.124  1.00  0.00     0.163 HD
ATOM     24  O   UNL A   1      32.505  35.977  28.718  1.00  0.00    -0.269 OA
BRANCH  22  25
ATOM     25  C   UNL A   1      34.188  34.424  29.213  1.00  0.00     0.039 A 
ATOM     26  C   UNL A   1      34.029  33.806  30.456  1.00  0.00     0.014 A 
ATOM     27  C   UNL A   1      35.465  34.600  28.676  1.00  0.00     0.014 A 
ATOM     28  C   UNL A   1      35.145  33.295  31.124  1.00  0.00     0.010 A 
ATOM     29  C   UNL A   1      36.566  34.025  29.307  1.00  0.00     0.010 A 
ATOM     30  C   UNL A   1      36.418  33.363  30.536  1.00  0.00    -0.014 A 
BRANCH  30  31
ATOM     31  C   UNL A   1      37.598  32.735  31.183  1.00  0.00     0.031 A 
ATOM     32  C   UNL A   1      38.272  31.548  30.548  1.00  0.00     0.074 A 
ATOM     33  C   UNL A   1      38.030  33.193  32.375  1.00  0.00     0.049 A 
ATOM     34  N   UNL A   1      39.279  30.838  30.990  1.00  0.00    -0.248 NA
ATOM     35  C   UNL A   1      37.728  31.085  29.262  1.00  0.00     0.031 C 
ATOM     36  C   UNL A   1      37.445  34.313  33.115  1.00  0.00     0.029 A 
ATOM     37  N   UNL A   1      39.060  32.769  33.176  1.00  0.00    -0.354 N 
ATOM     38  C   UNL A   1      39.476  29.836  30.048  1.00  0.00     0.074 A 
ATOM     39  C   UNL A   1      38.457  30.001  29.036  1.00  0.00     0.031 C 
ATOM     40  C   UNL A   1      38.143  34.506  34.246  1.00  0.00     0.029 A 
ATOM     41  C   UNL A   1      39.196  33.499  34.333  1.00  0.00     0.049 A 
ATOM     42  H   UNL A   1      39.647  32.013  32.945  1.00  0.00     0.167 HD
ATOM     43  C   UNL A   1      40.430  28.875  30.018  1.00  0.00     0.031 A 
ATOM     44  C   UNL A   1      40.064  33.369  35.354  1.00  0.00     0.031 A 
ATOM     45  C   UNL A   1      41.452  28.713  31.018  1.00  0.00     0.049 A 
ATOM     46  C   UNL A   1      41.098  32.278  35.306  1.00  0.00     0.074 A 
ATOM     47  C   UNL A   1      42.498  27.808  31.043  1.00  0.00     0.029 A 
ATOM     48  N   UNL A   1      41.551  29.472  32.174  1.00  0.00    -0.354 N 
ATOM     49  N   UNL A   1      41.316  31.386  34.371  1.00  0.00    -0.248 NA
ATOM     50  C   UNL A   1      42.013  32.186  36.453  1.00  0.00     0.031 C 
ATOM     51  C   UNL A   1      43.198  27.981  32.242  1.00  0.00     0.029 A 
ATOM     52  C   UNL A   1      42.625  29.036  32.934  1.00  0.00     0.049 A 
ATOM     53  H   UNL A   1      40.949  30.211  32.419  1.00  0.00     0.167 HD
ATOM     54  C   UNL A   1      42.411  30.647  34.802  1.00  0.00     0.074 A 
ATOM     55  C   UNL A   1      42.821  31.205  36.073  1.00  0.00     0.031 C 
ATOM     56  C   UNL A   1      43.023  29.600  34.196  1.00  0.00     0.031 A 
BRANCH  43  57
ATOM     57  C   UNL A   1      40.406  27.908  28.865  1.00  0.00    -0.014 A 
ATOM     58  C   UNL A   1      41.066  28.196  27.658  1.00  0.00     0.009 A 
ATOM     59  C   UNL A   1      39.749  26.676  29.001  1.00  0.00     0.009 A 
ATOM     60  C   UNL A   1      41.035  27.284  26.601  1.00  0.00     0.001 A 
ATOM     61  C   UNL A   1      39.747  25.753  27.953  1.00  0.00     0.001 A 
ATOM     62  C   UNL A   1      40.381  26.063  26.751  1.00  0.00     0.000 A 
ENDBRANCH  43  57
BRANCH  44  63
ATOM     63  C   UNL A   1      40.007  34.304  36.509  1.00  0.00    -0.014 A 
ATOM     64  C   UNL A   1      40.716  35.515  36.477  1.00  0.00     0.009 A 
ATOM     65  C   UNL A   1      39.260  33.986  37.654  1.00  0.00     0.009 A 
ATOM     66  C   UNL A   1      40.702  36.373  37.580  1.00  0.00     0.001 A 
ATOM     67  C   UNL A   1      39.223  34.860  38.742  1.00  0.00     0.001 A 
ATOM     68  C   UNL A   1      39.952  36.048  38.708  1.00  0.00     0.000 A 
ENDBRANCH  44  63
BRANCH  56  69
ATOM     69  C   UNL A   1      44.227  29.016  34.881  1.00  0.00    -0.014 A 
ATOM     70  C   UNL A   1      44.110  27.949  35.783  1.00  0.00     0.009 A 
ATOM     71  C   UNL A   1      45.504  29.520  34.585  1.00  0.00     0.009 A 
ATOM     72  C   UNL A   1      45.245  27.420  36.402  1.00  0.00     0.001 A 
ATOM     73  C   UNL A   1      46.639  28.969  35.181  1.00  0.00     0.001 A 
ATOM     74  C   UNL A   1      46.507  27.926  36.096  1.00  0.00     0.000 A 
ENDBRANCH  56  69
ENDBRANCH  30  31
ENDBRANCH  22  25
ENDBRANCH  20  21
ENDBRANCH  19  20
ENDBRANCH  18  19
ENDBRANCH  17  18
ENDBRANCH   3  17
TORSDOF 18
ENDMDL
MODEL 3
REMARK VINA RESULT:      -8.6      2.670      7.733
REMARK SMILES CCCCCC[C@H](C)[C@@](C)(O)C(=O)NCCCCNC(=O)c1ccc(-c2c3nc(c(-c4ccccc4)c4ccc([nH]4)c(-c4ccccc4)c4nc(c(-c5ccccc5)c5ccc2[nH]5)C=C4)C=C3)cc1
REMARK SMILES IDX 12 1 13 2 14 3 9 5 10 6 7 7 8 8 6 9 5 10 4 11 3 12 2 13 1 14
REMARK SMILES IDX 11 15 15 17 16 18 17 19 18 20 19 21 20 22 21 24 22 25 23 26
REMARK SMILES IDX 69 27 24 28 68 29 25 30 26 31 27 32 62 33 28 34 67 35 61 36
REMARK SMILES IDX 63 37 29 38 66 39 60 40 59 41 30 43 52 44 37 45 51 46 38 47
REMARK SMILES IDX 41 48 50 49 64 50 39 51 40 52 49 54 65 55 42 56 31 57 32 58
REMARK SMILES IDX 36 59 33 60 35 61 34 62 53 63 54 64 58 65 55 66 57 67 56 68
REMARK SMILES IDX 43 69 44 70 48 71 45 72 47 73 46 74
REMARK H PARENT 14 4 11 16 19 23 63 42 41 53
REMARK Flexibility Score: inf
ROOT
ATOM      1  C   UNL A   1      31.017  28.653  23.980  1.00  0.00     0.251 C 
ATOM      2  O   UNL A   1      30.068  28.969  23.260  1.00  0.00    -0.272 OA
ATOM      3  N   UNL A   1      31.778  29.689  24.445  1.00  0.00    -0.354 N 
ATOM      4  H   UNL A   1      31.739  30.511  23.906  1.00  0.00     0.163 HD
ENDROOT
BRANCH   1   5
ATOM      5  C   UNL A   1      31.260  27.187  24.449  1.00  0.00     0.142 C 
ATOM      6  C   UNL A   1      30.034  26.391  23.957  1.00  0.00     0.053 C 
BRANCH   5   7
ATOM      7  C   UNL A   1      32.592  26.536  23.921  1.00  0.00     0.027 C 
ATOM      8  C   UNL A   1      33.184  27.132  22.641  1.00  0.00     0.011 C 
BRANCH   7   9
ATOM      9  C   UNL A   1      33.661  26.221  25.012  1.00  0.00     0.007 C 
BRANCH   9  10
ATOM     10  C   UNL A   1      33.865  24.783  25.508  1.00  0.00     0.000 C 
BRANCH  10  11
ATOM     11  C   UNL A   1      35.253  24.168  25.348  1.00  0.00     0.000 C 
BRANCH  11  12
ATOM     12  C   UNL A   1      35.391  23.147  24.215  1.00  0.00    -0.000 C 
BRANCH  12  13
ATOM     13  C   UNL A   1      35.026  21.716  24.614  1.00  0.00    -0.003 C 
ATOM     14  C   UNL A   1      36.242  20.888  25.007  1.00  0.00     0.004 C 
ENDBRANCH  12  13
ENDBRANCH  11  12
ENDBRANCH  10  11
ENDBRANCH   9  10
ENDBRANCH   7   9
ENDBRANCH   5   7
BRANCH   5  15
ATOM     15  O   UNL A   1      31.287  27.072  25.879  1.00  0.00    -0.380 OA
ATOM     16  H   UNL A   1      30.640  26.407  26.163  1.00  0.00     0.212 HD
ENDBRANCH   5  15
ENDBRANCH   1   5
BRANCH   3  17
ATOM     17  C   UNL A   1      32.633  29.759  25.614  1.00  0.00     0.116 C 
BRANCH  17  18
ATOM     18  C   UNL A   1      31.941  30.315  26.853  1.00  0.00     0.023 C 
BRANCH  18  19
ATOM     19  C   UNL A   1      31.621  31.811  26.830  1.00  0.00     0.023 C 
BRANCH  19  20
ATOM     20  C   UNL A   1      32.803  32.760  27.002  1.00  0.00     0.116 C 
BRANCH  20  21
ATOM     21  N   UNL A   1      32.452  34.022  27.629  1.00  0.00    -0.352 N 
ATOM     22  C   UNL A   1      33.065  34.694  28.662  1.00  0.00     0.251 C 
ATOM     23  H   UNL A   1      31.654  34.465  27.259  1.00  0.00     0.163 HD
ATOM     24  O   UNL A   1      32.567  35.717  29.109  1.00  0.00    -0.269 OA
BRANCH  22  25
ATOM     25  C   UNL A   1      34.307  34.156  29.265  1.00  0.00     0.039 A 
ATOM     26  C   UNL A   1      34.197  33.305  30.367  1.00  0.00     0.014 A 
ATOM     27  C   UNL A   1      35.566  34.475  28.749  1.00  0.00     0.014 A 
ATOM     28  C   UNL A   1      35.343  32.713  30.905  1.00  0.00     0.010 A 
ATOM     29  C   UNL A   1      36.698  33.826  29.237  1.00  0.00     0.010 A 
ATOM     30  C   UNL A   1      36.599  32.935  30.318  1.00  0.00    -0.014 A 
BRANCH  30  31
ATOM     31  C   UNL A   1      37.813  32.234  30.810  1.00  0.00     0.031 A 
ATOM     32  C   UNL A   1      38.599  32.795  31.965  1.00  0.00     0.074 A 
ATOM     33  C   UNL A   1      38.246  31.125  30.180  1.00  0.00     0.049 A 
ATOM     34  N   UNL A   1      39.709  32.352  32.498  1.00  0.00    -0.248 NA
ATOM     35  C   UNL A   1      38.083  34.025  32.585  1.00  0.00     0.031 C 
ATOM     36  C   UNL A   1      37.597  30.496  29.027  1.00  0.00     0.029 A 
ATOM     37  N   UNL A   1      39.338  30.328  30.419  1.00  0.00    -0.354 N 
ATOM     38  C   UNL A   1      40.033  33.258  33.501  1.00  0.00     0.074 A 
ATOM     39  C   UNL A   1      39.029  34.298  33.471  1.00  0.00     0.031 C 
ATOM     40  C   UNL A   1      38.286  29.398  28.678  1.00  0.00     0.029 A 
ATOM     41  C   UNL A   1      39.447  29.268  29.553  1.00  0.00     0.049 A 
ATOM     42  H   UNL A   1      39.983  30.502  31.142  1.00  0.00     0.167 HD
ATOM     43  C   UNL A   1      41.064  33.219  34.379  1.00  0.00     0.031 A 
ATOM     44  C   UNL A   1      40.381  28.301  29.465  1.00  0.00     0.031 A 
ATOM     45  C   UNL A   1      42.059  32.181  34.418  1.00  0.00     0.049 A 
ATOM     46  C   UNL A   1      41.527  28.295  30.438  1.00  0.00     0.074 A 
ATOM     47  C   UNL A   1      43.105  32.022  35.310  1.00  0.00     0.029 A 
ATOM     48  N   UNL A   1      42.133  31.126  33.522  1.00  0.00    -0.354 N 
ATOM     49  N   UNL A   1      41.777  29.118  31.428  1.00  0.00    -0.248 NA
ATOM     50  C   UNL A   1      42.515  27.216  30.288  1.00  0.00     0.031 C 
ATOM     51  C   UNL A   1      43.847  30.903  34.920  1.00  0.00     0.029 A 
ATOM     52  C   UNL A   1      43.227  30.329  33.822  1.00  0.00     0.049 A 
ATOM     53  H   UNL A   1      41.504  30.967  32.782  1.00  0.00     0.167 HD
ATOM     54  C   UNL A   1      42.931  28.640  32.035  1.00  0.00     0.074 A 
ATOM     55  C   UNL A   1      43.323  27.448  31.313  1.00  0.00     0.031 C 
ATOM     56  C   UNL A   1      43.605  29.144  33.098  1.00  0.00     0.031 A 
BRANCH  43  57
ATOM     57  C   UNL A   1      41.175  34.347  35.370  1.00  0.00    -0.014 A 
ATOM     58  C   UNL A   1      40.546  34.281  36.624  1.00  0.00     0.009 A 
ATOM     59  C   UNL A   1      41.953  35.473  35.060  1.00  0.00     0.009 A 
ATOM     60  C   UNL A   1      40.664  35.337  37.531  1.00  0.00     0.001 A 
ATOM     61  C   UNL A   1      42.095  36.513  35.981  1.00  0.00     0.001 A 
ATOM     62  C   UNL A   1      41.442  36.447  37.211  1.00  0.00     0.000 A 
ENDBRANCH  43  57
BRANCH  44  63
ATOM     63  C   UNL A   1      40.269  27.244  28.425  1.00  0.00    -0.014 A 
ATOM     64  C   UNL A   1      39.570  26.056  28.691  1.00  0.00     0.009 A 
ATOM     65  C   UNL A   1      40.873  27.407  27.169  1.00  0.00     0.009 A 
ATOM     66  C   UNL A   1      39.504  25.043  27.733  1.00  0.00     0.001 A 
ATOM     67  C   UNL A   1      40.779  26.405  26.201  1.00  0.00     0.001 A 
ATOM     68  C   UNL A   1      40.103  25.220  26.487  1.00  0.00     0.000 A 
ENDBRANCH  44  63
BRANCH  56  69
ATOM     69  C   UNL A   1      44.812  28.385  33.570  1.00  0.00    -0.014 A 
ATOM     70  C   UNL A   1      46.099  28.688  33.099  1.00  0.00     0.009 A 
ATOM     71  C   UNL A   1      44.662  27.375  34.535  1.00  0.00     0.009 A 
ATOM     72  C   UNL A   1      47.206  27.971  33.559  1.00  0.00     0.001 A 
ATOM     73  C   UNL A   1      45.773  26.681  35.015  1.00  0.00     0.001 A 
ATOM     74  C   UNL A   1      47.043  26.973  34.519  1.00  0.00     0.000 A 
ENDBRANCH  56  69
ENDBRANCH  30  31
ENDBRANCH  22  25
ENDBRANCH  20  21
ENDBRANCH  19  20
ENDBRANCH  18  19
ENDBRANCH  17  18
ENDBRANCH   3  17
TORSDOF 18
ENDMDL
