MODEL 1
REMARK VINA RESULT:      -7.9      0.000      0.000
REMARK SMILES CCC[C@](C)(CC(F)(F)F)C(=O)NCCCCNC(=O)c1ccc(-c2c3nc(c(-c4ccccc4)c4ccc([nH]4)c(-c4ccccc4)c4nc(c(-c5ccccc5)c5ccc2[nH]5)C=C4)C=C3)cc1
REMARK SMILES IDX 15 1 14 2 13 3 11 4 12 5 4 7 5 8 3 9 2 10 1 11 6 12 7 13
REMARK SMILES IDX 8 14 9 15 10 16 16 17 17 18 18 19 19 20 20 22 21 23 22 24
REMARK SMILES IDX 68 25 23 26 67 27 24 28 25 29 26 30 61 31 27 32 66 33 60 34
REMARK SMILES IDX 62 35 28 36 65 37 59 38 58 39 29 41 51 42 36 43 50 44 37 45
REMARK SMILES IDX 40 46 49 47 63 48 38 49 39 50 48 52 64 53 41 54 30 55 31 56
REMARK SMILES IDX 35 57 32 58 34 59 33 60 52 61 53 62 57 63 54 64 56 65 55 66
REMARK SMILES IDX 42 67 43 68 47 69 44 70 46 71 45 72
REMARK H PARENT 13 6 18 21 62 40 40 51
REMARK Flexibility Score: inf
ROOT
ATOM      1  C   UNL A   1      45.923  21.162  24.921  1.00  0.00     0.023 C 
ENDROOT
BRANCH   1   2
ATOM      2  C   UNL A   1      45.520  22.619  24.716  1.00  0.00     0.116 C 
BRANCH   2   3
ATOM      3  N   UNL A   1      46.490  23.333  23.910  1.00  0.00    -0.356 N 
ATOM      4  C   UNL A   1      47.149  24.508  24.092  1.00  0.00     0.226 C 
ATOM      5  O   UNL A   1      47.946  24.827  23.206  1.00  0.00    -0.274 OA
ATOM      6  H   UNL A   1      46.715  22.880  23.065  1.00  0.00     0.163 HD
BRANCH   4   7
ATOM      7  C   UNL A   1      46.929  25.402  25.330  1.00  0.00     0.055 C 
ATOM      8  C   UNL A   1      47.778  24.852  26.507  1.00  0.00     0.022 C 
BRANCH   7   9
ATOM      9  C   UNL A   1      45.436  25.426  25.795  1.00  0.00     0.017 C 
BRANCH   9  10
ATOM     10  C   UNL A   1      44.471  26.427  25.136  1.00  0.00    -0.002 C 
ATOM     11  C   UNL A   1      43.803  27.417  26.073  1.00  0.00     0.004 C 
ENDBRANCH   9  10
ENDBRANCH   7   9
BRANCH   7  12
ATOM     12  C   UNL A   1      47.410  26.857  25.051  1.00  0.00     0.132 C 
BRANCH  12  13
ATOM     13  C   UNL A   1      47.673  27.729  26.269  1.00  0.00     0.390 C 
ATOM     14  F   UNL A   1      48.954  27.669  26.680  1.00  0.00    -0.171 F 
ATOM     15  F   UNL A   1      47.420  29.023  25.953  1.00  0.00    -0.171 F 
ATOM     16  F   UNL A   1      46.873  27.413  27.306  1.00  0.00    -0.171 F 
ENDBRANCH  12  13
ENDBRANCH   7  12
ENDBRANCH   4   7
ENDBRANCH   2   3
ENDBRANCH   1   2
BRANCH   1  17
ATOM     17  C   UNL A   1      44.857  20.145  24.509  1.00  0.00     0.023 C 
BRANCH  17  18
ATOM     18  C   UNL A   1      44.277  19.310  25.647  1.00  0.00     0.116 C 
BRANCH  18  19
ATOM     19  N   UNL A   1      42.870  18.994  25.464  1.00  0.00    -0.352 N 
ATOM     20  C   UNL A   1      41.761  19.693  25.863  1.00  0.00     0.251 C 
ATOM     21  H   UNL A   1      42.686  18.155  24.981  1.00  0.00     0.163 HD
ATOM     22  O   UNL A   1      40.643  19.197  25.721  1.00  0.00    -0.269 OA
BRANCH  20  23
ATOM     23  C   UNL A   1      41.900  21.022  26.494  1.00  0.00     0.039 A 
ATOM     24  C   UNL A   1      41.843  21.108  27.887  1.00  0.00     0.014 A 
ATOM     25  C   UNL A   1      42.074  22.178  25.727  1.00  0.00     0.014 A 
ATOM     26  C   UNL A   1      42.016  22.343  28.511  1.00  0.00     0.010 A 
ATOM     27  C   UNL A   1      42.322  23.398  26.354  1.00  0.00     0.010 A 
ATOM     28  C   UNL A   1      42.288  23.494  27.753  1.00  0.00    -0.014 A 
BRANCH  28  29
ATOM     29  C   UNL A   1      42.545  24.793  28.424  1.00  0.00     0.031 A 
ATOM     30  C   UNL A   1      43.906  25.117  28.975  1.00  0.00     0.074 A 
ATOM     31  C   UNL A   1      41.538  25.677  28.557  1.00  0.00     0.049 A 
ATOM     32  N   UNL A   1      44.324  26.223  29.539  1.00  0.00    -0.248 NA
ATOM     33  C   UNL A   1      44.925  24.058  28.904  1.00  0.00     0.031 C 
ATOM     34  C   UNL A   1      40.156  25.460  28.120  1.00  0.00     0.029 A 
ATOM     35  N   UNL A   1      41.523  26.942  29.088  1.00  0.00    -0.354 N 
ATOM     36  C   UNL A   1      45.647  25.989  29.894  1.00  0.00     0.074 A 
ATOM     37  C   UNL A   1      45.946  24.621  29.535  1.00  0.00     0.031 C 
ATOM     38  C   UNL A   1      39.441  26.570  28.358  1.00  0.00     0.029 A 
ATOM     39  C   UNL A   1      40.303  27.565  28.988  1.00  0.00     0.049 A 
ATOM     40  H   UNL A   1      42.311  27.364  29.501  1.00  0.00     0.167 HD
ATOM     41  C   UNL A   1      46.540  26.843  30.448  1.00  0.00     0.031 A 
ATOM     42  C   UNL A   1      39.922  28.805  29.350  1.00  0.00     0.031 A 
ATOM     43  C   UNL A   1      46.246  28.207  30.803  1.00  0.00     0.049 A 
ATOM     44  C   UNL A   1      40.937  29.738  29.947  1.00  0.00     0.074 A 
ATOM     45  C   UNL A   1      47.099  29.167  31.319  1.00  0.00     0.029 A 
ATOM     46  N   UNL A   1      45.000  28.803  30.679  1.00  0.00    -0.354 N 
ATOM     47  N   UNL A   1      42.206  29.530  30.198  1.00  0.00    -0.248 NA
ATOM     48  C   UNL A   1      40.467  31.088  30.289  1.00  0.00     0.031 C 
ATOM     49  C   UNL A   1      46.357  30.331  31.552  1.00  0.00     0.029 A 
ATOM     50  C   UNL A   1      45.056  30.111  31.128  1.00  0.00     0.049 A 
ATOM     51  H   UNL A   1      44.196  28.359  30.325  1.00  0.00     0.167 HD
ATOM     52  C   UNL A   1      42.695  30.729  30.702  1.00  0.00     0.074 A 
ATOM     53  C   UNL A   1      41.589  31.664  30.699  1.00  0.00     0.031 C 
ATOM     54  C   UNL A   1      43.946  31.028  31.125  1.00  0.00     0.031 A 
BRANCH  41  55
ATOM     55  C   UNL A   1      47.926  26.320  30.706  1.00  0.00    -0.014 A 
ATOM     56  C   UNL A   1      48.926  26.395  29.723  1.00  0.00     0.009 A 
ATOM     57  C   UNL A   1      48.247  25.773  31.957  1.00  0.00     0.009 A 
ATOM     58  C   UNL A   1      50.207  25.899  29.974  1.00  0.00     0.001 A 
ATOM     59  C   UNL A   1      49.537  25.304  32.217  1.00  0.00     0.001 A 
ATOM     60  C   UNL A   1      50.513  25.359  31.222  1.00  0.00     0.000 A 
ENDBRANCH  41  55
BRANCH  42  61
ATOM     61  C   UNL A   1      38.525  29.252  29.115  1.00  0.00    -0.014 A 
ATOM     62  C   UNL A   1      38.117  29.671  27.840  1.00  0.00     0.009 A 
ATOM     63  C   UNL A   1      37.594  29.267  30.165  1.00  0.00     0.009 A 
ATOM     64  C   UNL A   1      36.813  30.124  27.627  1.00  0.00     0.001 A 
ATOM     65  C   UNL A   1      36.283  29.693  29.943  1.00  0.00     0.001 A 
ATOM     66  C   UNL A   1      35.897  30.130  28.677  1.00  0.00     0.000 A 
ENDBRANCH  42  61
BRANCH  54  67
ATOM     67  C   UNL A   1      44.189  32.437  31.590  1.00  0.00    -0.014 A 
ATOM     68  C   UNL A   1      43.963  32.817  32.923  1.00  0.00     0.009 A 
ATOM     69  C   UNL A   1      44.664  33.395  30.681  1.00  0.00     0.009 A 
ATOM     70  C   UNL A   1      44.164  34.140  33.323  1.00  0.00     0.001 A 
ATOM     71  C   UNL A   1      44.894  34.709  31.091  1.00  0.00     0.001 A 
ATOM     72  C   UNL A   1      44.632  35.083  32.408  1.00  0.00     0.000 A 
ENDBRANCH  54  67
ENDBRANCH  28  29
ENDBRANCH  20  23
ENDBRANCH  18  19
ENDBRANCH  17  18
ENDBRANCH   1  17
TORSDOF 15
ENDMDL
MODEL 2
REMARK VINA RESULT:      -7.9      6.212     11.402
REMARK SMILES CCC[C@](C)(CC(F)(F)F)C(=O)NCCCCNC(=O)c1ccc(-c2c3nc(c(-c4ccccc4)c4ccc([nH]4)c(-c4ccccc4)c4nc(c(-c5ccccc5)c5ccc2[nH]5)C=C4)C=C3)cc1
REMARK SMILES IDX 15 1 14 2 13 3 11 4 12 5 4 7 5 8 3 9 2 10 1 11 6 12 7 13
REMARK SMILES IDX 8 14 9 15 10 16 16 17 17 18 18 19 19 20 20 22 21 23 22 24
REMARK SMILES IDX 68 25 23 26 67 27 24 28 25 29 26 30 61 31 27 32 66 33 60 34
REMARK SMILES IDX 62 35 28 36 65 37 59 38 58 39 29 41 51 42 36 43 50 44 37 45
REMARK SMILES IDX 40 46 49 47 63 48 38 49 39 50 48 52 64 53 41 54 30 55 31 56
REMARK SMILES IDX 35 57 32 58 34 59 33 60 52 61 53 62 57 63 54 64 56 65 55 66
REMARK SMILES IDX 42 67 43 68 47 69 44 70 46 71 45 72
REMARK H PARENT 13 6 18 21 62 40 40 51
REMARK Flexibility Score: inf
ROOT
ATOM      1  C   UNL A   1      31.440  30.591  25.769  1.00  0.00     0.023 C 
ENDROOT
BRANCH   1   2
ATOM      2  C   UNL A   1      32.706  29.740  25.789  1.00  0.00     0.116 C 
BRANCH   2   3
ATOM      3  N   UNL A   1      33.304  29.641  24.472  1.00  0.00    -0.356 N 
ATOM      4  C   UNL A   1      33.455  28.605  23.606  1.00  0.00     0.226 C 
ATOM      5  O   UNL A   1      33.999  28.869  22.531  1.00  0.00    -0.274 OA
ATOM      6  H   UNL A   1      33.676  30.491  24.140  1.00  0.00     0.163 HD
BRANCH   4   7
ATOM      7  C   UNL A   1      32.975  27.175  23.930  1.00  0.00     0.055 C 
ATOM      8  C   UNL A   1      33.666  26.693  25.234  1.00  0.00     0.022 C 
BRANCH   7   9
ATOM      9  C   UNL A   1      33.333  26.152  22.801  1.00  0.00     0.017 C 
BRANCH   9  10
ATOM     10  C   UNL A   1      32.918  24.681  22.978  1.00  0.00    -0.002 C 
ATOM     11  C   UNL A   1      34.044  23.664  22.918  1.00  0.00     0.004 C 
ENDBRANCH   9  10
ENDBRANCH   7   9
BRANCH   7  12
ATOM     12  C   UNL A   1      31.438  27.153  24.183  1.00  0.00     0.132 C 
BRANCH  12  13
ATOM     13  C   UNL A   1      30.558  27.650  23.045  1.00  0.00     0.390 C 
ATOM     14  F   UNL A   1      30.989  27.231  21.840  1.00  0.00    -0.171 F 
ATOM     15  F   UNL A   1      29.304  27.161  23.208  1.00  0.00    -0.171 F 
ATOM     16  F   UNL A   1      30.458  28.993  23.024  1.00  0.00    -0.171 F 
ENDBRANCH  12  13
ENDBRANCH   7  12
ENDBRANCH   4   7
ENDBRANCH   2   3
ENDBRANCH   1   2
BRANCH   1  17
ATOM     17  C   UNL A   1      31.390  31.678  26.844  1.00  0.00     0.023 C 
BRANCH  17  18
ATOM     18  C   UNL A   1      32.642  32.544  26.957  1.00  0.00     0.116 C 
BRANCH  18  19
ATOM     19  N   UNL A   1      32.375  33.867  27.498  1.00  0.00    -0.352 N 
ATOM     20  C   UNL A   1      33.064  34.575  28.448  1.00  0.00     0.251 C 
ATOM     21  H   UNL A   1      31.583  34.321  27.128  1.00  0.00     0.163 HD
ATOM     22  O   UNL A   1      32.608  35.639  28.866  1.00  0.00    -0.269 OA
BRANCH  20  23
ATOM     23  C   UNL A   1      34.333  34.053  28.997  1.00  0.00     0.039 A 
ATOM     24  C   UNL A   1      34.282  33.214  30.112  1.00  0.00     0.014 A 
ATOM     25  C   UNL A   1      35.566  34.391  28.431  1.00  0.00     0.014 A 
ATOM     26  C   UNL A   1      35.460  32.672  30.624  1.00  0.00     0.010 A 
ATOM     27  C   UNL A   1      36.733  33.790  28.896  1.00  0.00     0.010 A 
ATOM     28  C   UNL A   1      36.693  32.930  30.003  1.00  0.00    -0.014 A 
BRANCH  28  29
ATOM     29  C   UNL A   1      37.936  32.292  30.505  1.00  0.00     0.031 A 
ATOM     30  C   UNL A   1      38.663  32.856  31.694  1.00  0.00     0.074 A 
ATOM     31  C   UNL A   1      38.423  31.208  29.871  1.00  0.00     0.049 A 
ATOM     32  N   UNL A   1      39.728  32.396  32.303  1.00  0.00    -0.248 NA
ATOM     33  C   UNL A   1      38.144  34.111  32.261  1.00  0.00     0.031 C 
ATOM     34  C   UNL A   1      37.846  30.597  28.671  1.00  0.00     0.029 A 
ATOM     35  N   UNL A   1      39.510  30.420  30.156  1.00  0.00    -0.354 N 
ATOM     36  C   UNL A   1      40.007  33.305  33.316  1.00  0.00     0.074 A 
ATOM     37  C   UNL A   1      39.037  34.372  33.205  1.00  0.00     0.031 C 
ATOM     38  C   UNL A   1      38.556  29.505  28.350  1.00  0.00     0.029 A 
ATOM     39  C   UNL A   1      39.652  29.353  29.302  1.00  0.00     0.049 A 
ATOM     40  H   UNL A   1      40.129  30.601  30.900  1.00  0.00     0.167 HD
ATOM     41  C   UNL A   1      40.969  33.247  34.267  1.00  0.00     0.031 A 
ATOM     42  C   UNL A   1      40.555  28.354  29.293  1.00  0.00     0.031 A 
ATOM     43  C   UNL A   1      41.933  32.185  34.381  1.00  0.00     0.049 A 
ATOM     44  C   UNL A   1      41.602  28.304  30.370  1.00  0.00     0.074 A 
ATOM     45  C   UNL A   1      42.913  32.009  35.343  1.00  0.00     0.029 A 
ATOM     46  N   UNL A   1      42.040  31.119  33.501  1.00  0.00    -0.354 N 
ATOM     47  N   UNL A   1      41.800  29.126  31.371  1.00  0.00    -0.248 NA
ATOM     48  C   UNL A   1      42.538  27.171  30.324  1.00  0.00     0.031 C 
ATOM     49  C   UNL A   1      43.643  30.860  35.018  1.00  0.00     0.029 A 
ATOM     50  C   UNL A   1      43.081  30.291  33.886  1.00  0.00     0.049 A 
ATOM     51  H   UNL A   1      41.460  30.973  32.719  1.00  0.00     0.167 HD
ATOM     52  C   UNL A   1      42.863  28.597  32.091  1.00  0.00     0.074 A 
ATOM     53  C   UNL A   1      43.252  27.372  31.423  1.00  0.00     0.031 C 
ATOM     54  C   UNL A   1      43.461  29.080  33.207  1.00  0.00     0.031 A 
BRANCH  41  55
ATOM     55  C   UNL A   1      41.024  34.374  35.262  1.00  0.00    -0.014 A 
ATOM     56  C   UNL A   1      41.783  35.528  35.012  1.00  0.00     0.009 A 
ATOM     57  C   UNL A   1      40.282  34.295  36.451  1.00  0.00     0.009 A 
ATOM     58  C   UNL A   1      41.830  36.563  35.949  1.00  0.00     0.001 A 
ATOM     59  C   UNL A   1      40.307  35.344  37.373  1.00  0.00     0.001 A 
ATOM     60  C   UNL A   1      41.088  36.473  37.126  1.00  0.00     0.000 A 
ENDBRANCH  41  55
BRANCH  42  61
ATOM     61  C   UNL A   1      40.482  27.294  28.256  1.00  0.00    -0.014 A 
ATOM     62  C   UNL A   1      41.140  27.453  27.027  1.00  0.00     0.009 A 
ATOM     63  C   UNL A   1      39.750  26.119  28.486  1.00  0.00     0.009 A 
ATOM     64  C   UNL A   1      41.043  26.471  26.039  1.00  0.00     0.001 A 
ATOM     65  C   UNL A   1      39.678  25.126  27.507  1.00  0.00     0.001 A 
ATOM     66  C   UNL A   1      40.316  25.307  26.281  1.00  0.00     0.000 A 
ENDBRANCH  42  61
BRANCH  54  67
ATOM     67  C   UNL A   1      44.579  28.261  33.790  1.00  0.00    -0.014 A 
ATOM     68  C   UNL A   1      45.915  28.475  33.416  1.00  0.00     0.009 A 
ATOM     69  C   UNL A   1      44.289  27.268  34.738  1.00  0.00     0.009 A 
ATOM     70  C   UNL A   1      46.932  27.679  33.947  1.00  0.00     0.001 A 
ATOM     71  C   UNL A   1      45.311  26.494  35.290  1.00  0.00     0.001 A 
ATOM     72  C   UNL A   1      46.630  26.692  34.885  1.00  0.00     0.000 A 
ENDBRANCH  54  67
ENDBRANCH  28  29
ENDBRANCH  20  23
ENDBRANCH  18  19
ENDBRANCH  17  18
ENDBRANCH   1  17
TORSDOF 15
ENDMDL
MODEL 3
REMARK VINA RESULT:      -7.9      4.863      7.034
REMARK SMILES CCC[C@](C)(CC(F)(F)F)C(=O)NCCCCNC(=O)c1ccc(-c2c3nc(c(-c4ccccc4)c4ccc([nH]4)c(-c4ccccc4)c4nc(c(-c5ccccc5)c5ccc2[nH]5)C=C4)C=C3)cc1
REMARK SMILES IDX 15 1 14 2 13 3 11 4 12 5 4 7 5 8 3 9 2 10 1 11 6 12 7 13
REMARK SMILES IDX 8 14 9 15 10 16 16 17 17 18 18 19 19 20 20 22 21 23 22 24
REMARK SMILES IDX 68 25 23 26 67 27 24 28 25 29 26 30 61 31 27 32 66 33 60 34
REMARK SMILES IDX 62 35 28 36 65 37 59 38 58 39 29 41 51 42 36 43 50 44 37 45
REMARK SMILES IDX 40 46 49 47 63 48 38 49 39 50 48 52 64 53 41 54 30 55 31 56
REMARK SMILES IDX 35 57 32 58 34 59 33 60 52 61 53 62 57 63 54 64 56 65 55 66
REMARK SMILES IDX 42 67 43 68 47 69 44 70 46 71 45 72
REMARK H PARENT 13 6 18 21 62 40 40 51
REMARK Flexibility Score: inf
ROOT
ATOM      1  C   UNL A   1      36.382  20.409  25.002  1.00  0.00     0.023 C 
ENDROOT
BRANCH   1   2
ATOM      2  C   UNL A   1      36.424  21.781  25.667  1.00  0.00     0.116 C 
BRANCH   2   3
ATOM      3  N   UNL A   1      35.463  21.881  26.747  1.00  0.00    -0.356 N 
ATOM      4  C   UNL A   1      34.293  22.560  26.876  1.00  0.00     0.226 C 
ATOM      5  O   UNL A   1      33.690  22.407  27.941  1.00  0.00    -0.274 OA
ATOM      6  H   UNL A   1      35.705  21.355  27.544  1.00  0.00     0.163 HD
BRANCH   4   7
ATOM      7  C   UNL A   1      33.734  23.473  25.765  1.00  0.00     0.055 C 
ATOM      8  C   UNL A   1      34.777  24.576  25.444  1.00  0.00     0.022 C 
BRANCH   7   9
ATOM      9  C   UNL A   1      32.407  24.186  26.185  1.00  0.00     0.017 C 
BRANCH   9  10
ATOM     10  C   UNL A   1      31.887  25.350  25.323  1.00  0.00    -0.002 C 
ATOM     11  C   UNL A   1      30.416  25.291  24.951  1.00  0.00     0.004 C 
ENDBRANCH   9  10
ENDBRANCH   7   9
BRANCH   7  12
ATOM     12  C   UNL A   1      33.496  22.663  24.455  1.00  0.00     0.132 C 
BRANCH  12  13
ATOM     13  C   UNL A   1      32.559  21.469  24.558  1.00  0.00     0.390 C 
ATOM     14  F   UNL A   1      31.547  21.682  25.420  1.00  0.00    -0.171 F 
ATOM     15  F   UNL A   1      32.001  21.237  23.345  1.00  0.00    -0.171 F 
ATOM     16  F   UNL A   1      33.202  20.343  24.919  1.00  0.00    -0.171 F 
ENDBRANCH  12  13
ENDBRANCH   7  12
ENDBRANCH   4   7
ENDBRANCH   2   3
ENDBRANCH   1   2
BRANCH   1  17
ATOM     17  C   UNL A   1      37.756  19.805  24.705  1.00  0.00     0.023 C 
BRANCH  17  18
ATOM     18  C   UNL A   1      38.838  20.105  25.739  1.00  0.00     0.116 C 
BRANCH  18  19
ATOM     19  N   UNL A   1      39.907  19.120  25.750  1.00  0.00    -0.352 N 
ATOM     20  C   UNL A   1      41.242  19.286  26.010  1.00  0.00     0.251 C 
ATOM     21  H   UNL A   1      39.631  18.197  25.541  1.00  0.00     0.163 HD
ATOM     22  O   UNL A   1      42.017  18.343  25.849  1.00  0.00    -0.269 OA
BRANCH  20  23
ATOM     23  C   UNL A   1      41.763  20.598  26.448  1.00  0.00     0.039 A 
ATOM     24  C   UNL A   1      42.177  21.509  25.474  1.00  0.00     0.014 A 
ATOM     25  C   UNL A   1      41.854  20.930  27.803  1.00  0.00     0.014 A 
ATOM     26  C   UNL A   1      42.631  22.771  25.856  1.00  0.00     0.010 A 
ATOM     27  C   UNL A   1      42.236  22.216  28.179  1.00  0.00     0.010 A 
ATOM     28  C   UNL A   1      42.636  23.148  27.210  1.00  0.00    -0.014 A 
BRANCH  28  29
ATOM     29  C   UNL A   1      43.049  24.517  27.608  1.00  0.00     0.031 A 
ATOM     30  C   UNL A   1      44.490  24.937  27.530  1.00  0.00     0.074 A 
ATOM     31  C   UNL A   1      42.120  25.380  28.062  1.00  0.00     0.049 A 
ATOM     32  N   UNL A   1      45.021  26.109  27.782  1.00  0.00    -0.248 NA
ATOM     33  C   UNL A   1      45.467  23.908  27.143  1.00  0.00     0.031 C 
ATOM     34  C   UNL A   1      40.697  25.078  28.241  1.00  0.00     0.029 A 
ATOM     35  N   UNL A   1      42.231  26.693  28.444  1.00  0.00    -0.354 N 
ATOM     36  C   UNL A   1      46.388  25.953  27.589  1.00  0.00     0.074 A 
ATOM     37  C   UNL A   1      46.613  24.564  27.257  1.00  0.00     0.031 C 
ATOM     38  C   UNL A   1      40.062  26.185  28.654  1.00  0.00     0.029 A 
ATOM     39  C   UNL A   1      41.032  27.266  28.795  1.00  0.00     0.049 A 
ATOM     40  H   UNL A   1      43.087  27.179  28.466  1.00  0.00     0.167 HD
ATOM     41  C   UNL A   1      47.367  26.887  27.660  1.00  0.00     0.031 A 
ATOM     42  C   UNL A   1      40.743  28.525  29.174  1.00  0.00     0.031 A 
ATOM     43  C   UNL A   1      47.145  28.270  27.987  1.00  0.00     0.049 A 
ATOM     44  C   UNL A   1      41.844  29.546  29.228  1.00  0.00     0.074 A 
ATOM     45  C   UNL A   1      48.064  29.305  28.031  1.00  0.00     0.029 A 
ATOM     46  N   UNL A   1      45.916  28.813  28.329  1.00  0.00    -0.354 N 
ATOM     47  N   UNL A   1      43.119  29.402  28.960  1.00  0.00    -0.248 NA
ATOM     48  C   UNL A   1      41.458  30.910  29.616  1.00  0.00     0.031 C 
ATOM     49  C   UNL A   1      47.398  30.464  28.445  1.00  0.00     0.029 A 
ATOM     50  C   UNL A   1      46.055  30.163  28.604  1.00  0.00     0.049 A 
ATOM     51  H   UNL A   1      45.069  28.311  28.369  1.00  0.00     0.167 HD
ATOM     52  C   UNL A   1      43.684  30.661  29.120  1.00  0.00     0.074 A 
ATOM     53  C   UNL A   1      42.607  31.559  29.487  1.00  0.00     0.031 C 
ATOM     54  C   UNL A   1      44.976  31.041  28.974  1.00  0.00     0.031 A 
BRANCH  41  55
ATOM     55  C   UNL A   1      48.773  26.435  27.378  1.00  0.00    -0.014 A 
ATOM     56  C   UNL A   1      49.305  26.479  26.079  1.00  0.00     0.009 A 
ATOM     57  C   UNL A   1      49.590  25.988  28.428  1.00  0.00     0.009 A 
ATOM     58  C   UNL A   1      50.610  26.050  25.831  1.00  0.00     0.001 A 
ATOM     59  C   UNL A   1      50.905  25.586  28.183  1.00  0.00     0.001 A 
ATOM     60  C   UNL A   1      51.411  25.609  26.883  1.00  0.00     0.000 A 
ENDBRANCH  41  55
BRANCH  42  61
ATOM     61  C   UNL A   1      39.341  28.903  29.487  1.00  0.00    -0.014 A 
ATOM     62  C   UNL A   1      38.849  28.789  30.796  1.00  0.00     0.009 A 
ATOM     63  C   UNL A   1      38.487  29.377  28.480  1.00  0.00     0.009 A 
ATOM     64  C   UNL A   1      37.522  29.113  31.084  1.00  0.00     0.001 A 
ATOM     65  C   UNL A   1      37.168  29.727  28.776  1.00  0.00     0.001 A 
ATOM     66  C   UNL A   1      36.684  29.585  30.076  1.00  0.00     0.000 A 
ENDBRANCH  42  61
BRANCH  54  67
ATOM     67  C   UNL A   1      45.286  32.497  29.181  1.00  0.00    -0.014 A 
ATOM     68  C   UNL A   1      45.221  33.417  28.122  1.00  0.00     0.009 A 
ATOM     69  C   UNL A   1      45.637  32.957  30.459  1.00  0.00     0.009 A 
ATOM     70  C   UNL A   1      45.547  34.758  28.331  1.00  0.00     0.001 A 
ATOM     71  C   UNL A   1      45.932  34.304  30.672  1.00  0.00     0.001 A 
ATOM     72  C   UNL A   1      45.898  35.201  29.606  1.00  0.00     0.000 A 
ENDBRANCH  54  67
ENDBRANCH  28  29
ENDBRANCH  20  23
ENDBRANCH  18  19
ENDBRANCH  17  18
ENDBRANCH   1  17
TORSDOF 15
ENDMDL
