MODEL 1
REMARK VINA RESULT:     -10.9      0.000      0.000
REMARK SMILES O=C(NCCCCNC(=O)[C@H]1CCCCN1C(=O)CSCc1ccccc1)c1ccc(-c2c3nc(c(-c4ccccc4)c4ccc([nH]4)c(-c4ccccc4)c4nc(c(-c5ccccc5)c5ccc2[nH]5)C=C4)C=C3)cc1
REMARK SMILES IDX 7 1 6 2 5 3 4 4 3 5 1 6 2 7 28 9 29 10 75 11 30 12 74 13
REMARK SMILES IDX 31 14 32 15 33 16 68 17 34 18 73 19 67 20 69 21 35 22 72 23
REMARK SMILES IDX 66 24 65 25 36 27 58 28 43 29 57 30 44 31 47 32 56 33 70 34
REMARK SMILES IDX 45 35 46 36 55 38 71 39 48 40 37 41 38 42 42 43 39 44 41 45
REMARK SMILES IDX 40 46 59 47 60 48 64 49 61 50 63 51 62 52 49 53 50 54 54 55
REMARK SMILES IDX 51 56 53 57 52 58 8 59 9 60 10 62 11 63 12 64 16 65 13 66
REMARK SMILES IDX 15 67 14 68 17 69 18 70 19 71 20 72 21 73 22 74 23 75 27 76
REMARK SMILES IDX 24 77 26 78 25 79
REMARK H PARENT 3 8 69 26 47 37 8 61
REMARK Flexibility Score: inf
ROOT
ATOM      1  C   UNL A   1      30.803  26.272  26.062  1.00  0.00     0.116 C 
ENDROOT
BRANCH   1   2
ATOM      2  C   UNL A   1      31.462  27.481  26.716  1.00  0.00     0.023 C 
BRANCH   2   3
ATOM      3  C   UNL A   1      32.786  27.924  26.104  1.00  0.00     0.023 C 
BRANCH   3   4
ATOM      4  C   UNL A   1      33.830  28.417  27.097  1.00  0.00     0.116 C 
BRANCH   4   5
ATOM      5  N   UNL A   1      33.645  29.808  27.480  1.00  0.00    -0.352 N 
ATOM      6  O   UNL A   1      34.180  31.764  28.473  1.00  0.00    -0.269 OA
ATOM      7  C   UNL A   1      34.525  30.650  28.121  1.00  0.00     0.251 C 
ATOM      8  H   UNL A   1      32.772  30.201  27.249  1.00  0.00     0.163 HD
BRANCH   7   9
ATOM      9  C   UNL A   1      35.895  30.169  28.399  1.00  0.00     0.039 A 
ATOM     10  C   UNL A   1      36.875  30.221  27.404  1.00  0.00     0.014 A 
ATOM     11  C   UNL A   1      36.188  29.655  29.663  1.00  0.00     0.014 A 
ATOM     12  C   UNL A   1      38.122  29.659  27.640  1.00  0.00     0.010 A 
ATOM     13  C   UNL A   1      37.465  29.154  29.921  1.00  0.00     0.010 A 
ATOM     14  C   UNL A   1      38.436  29.141  28.907  1.00  0.00    -0.014 A 
BRANCH  14  15
ATOM     15  C   UNL A   1      39.822  28.705  29.190  1.00  0.00     0.031 A 
ATOM     16  C   UNL A   1      40.813  29.619  29.846  1.00  0.00     0.074 A 
ATOM     17  C   UNL A   1      40.175  27.457  28.824  1.00  0.00     0.049 A 
ATOM     18  N   UNL A   1      42.070  29.391  30.132  1.00  0.00    -0.248 NA
ATOM     19  C   UNL A   1      40.344  30.961  30.226  1.00  0.00     0.031 C 
ATOM     20  C   UNL A   1      39.290  26.491  28.166  1.00  0.00     0.029 A 
ATOM     21  N   UNL A   1      41.362  26.787  28.954  1.00  0.00    -0.354 N 
ATOM     22  C   UNL A   1      42.549  30.562  30.704  1.00  0.00     0.074 A 
ATOM     23  C   UNL A   1      41.451  31.505  30.718  1.00  0.00     0.031 C 
ATOM     24  C   UNL A   1      39.959  25.347  27.969  1.00  0.00     0.029 A 
ATOM     25  C   UNL A   1      41.331  25.519  28.429  1.00  0.00     0.049 A 
ATOM     26  H   UNL A   1      42.159  27.177  29.380  1.00  0.00     0.167 HD
ATOM     27  C   UNL A   1      43.795  30.820  31.169  1.00  0.00     0.031 A 
ATOM     28  C   UNL A   1      42.307  24.603  28.298  1.00  0.00     0.031 A 
ATOM     29  C   UNL A   1      44.876  29.871  31.158  1.00  0.00     0.049 A 
ATOM     30  C   UNL A   1      43.683  24.938  28.787  1.00  0.00     0.074 A 
ATOM     31  C   UNL A   1      46.152  30.014  31.678  1.00  0.00     0.029 A 
ATOM     32  N   UNL A   1      44.815  28.608  30.589  1.00  0.00    -0.354 N 
ATOM     33  N   UNL A   1      44.101  26.026  29.387  1.00  0.00    -0.248 NA
ATOM     34  C   UNL A   1      44.724  23.924  28.572  1.00  0.00     0.031 C 
ATOM     35  C   UNL A   1      46.880  28.860  31.371  1.00  0.00     0.029 A 
ATOM     36  C   UNL A   1      46.044  27.981  30.702  1.00  0.00     0.049 A 
ATOM     37  H   UNL A   1      44.016  28.217  30.168  1.00  0.00     0.167 HD
ATOM     38  C   UNL A   1      45.453  25.829  29.621  1.00  0.00     0.074 A 
ATOM     39  C   UNL A   1      45.778  24.506  29.127  1.00  0.00     0.031 C 
ATOM     40  C   UNL A   1      46.349  26.673  30.187  1.00  0.00     0.031 A 
BRANCH  27  41
ATOM     41  C   UNL A   1      44.079  32.193  31.706  1.00  0.00    -0.014 A 
ATOM     42  C   UNL A   1      44.494  33.235  30.865  1.00  0.00     0.009 A 
ATOM     43  C   UNL A   1      43.835  32.469  33.062  1.00  0.00     0.009 A 
ATOM     44  C   UNL A   1      44.671  34.526  31.374  1.00  0.00     0.001 A 
ATOM     45  C   UNL A   1      43.995  33.762  33.564  1.00  0.00     0.001 A 
ATOM     46  C   UNL A   1      44.414  34.788  32.720  1.00  0.00     0.000 A 
ENDBRANCH  27  41
BRANCH  28  47
ATOM     47  C   UNL A   1      42.022  23.312  27.624  1.00  0.00    -0.014 A 
ATOM     48  C   UNL A   1      42.247  23.155  26.249  1.00  0.00     0.009 A 
ATOM     49  C   UNL A   1      41.533  22.223  28.364  1.00  0.00     0.009 A 
ATOM     50  C   UNL A   1      41.966  21.937  25.625  1.00  0.00     0.001 A 
ATOM     51  C   UNL A   1      41.282  21.000  27.743  1.00  0.00     0.001 A 
ATOM     52  C   UNL A   1      41.489  20.861  26.373  1.00  0.00     0.000 A 
ENDBRANCH  28  47
BRANCH  40  53
ATOM     53  C   UNL A   1      47.762  26.185  30.291  1.00  0.00    -0.014 A 
ATOM     54  C   UNL A   1      48.590  26.139  29.159  1.00  0.00     0.009 A 
ATOM     55  C   UNL A   1      48.279  25.791  31.535  1.00  0.00     0.009 A 
ATOM     56  C   UNL A   1      49.905  25.681  29.266  1.00  0.00     0.001 A 
ATOM     57  C   UNL A   1      49.600  25.358  31.643  1.00  0.00     0.001 A 
ATOM     58  C   UNL A   1      50.409  25.296  30.508  1.00  0.00     0.000 A 
ENDBRANCH  40  53
ENDBRANCH  14  15
ENDBRANCH   7   9
ENDBRANCH   4   5
ENDBRANCH   3   4
ENDBRANCH   2   3
ENDBRANCH   1   2
BRANCH   1  59
ATOM     59  N   UNL A   1      31.097  25.031  26.741  1.00  0.00    -0.354 N 
ATOM     60  C   UNL A   1      32.154  24.180  26.688  1.00  0.00     0.242 C 
ATOM     61  H   UNL A   1      30.392  24.747  27.367  1.00  0.00     0.163 HD
ATOM     62  O   UNL A   1      32.078  23.221  27.472  1.00  0.00    -0.273 OA
BRANCH  60  63
ATOM     63  C   UNL A   1      33.345  24.295  25.683  1.00  0.00     0.174 C 
ATOM     64  C   UNL A   1      34.736  23.758  26.030  1.00  0.00     0.035 C 
ATOM     65  N   UNL A   1      32.972  23.588  24.431  1.00  0.00    -0.330 N 
ATOM     66  C   UNL A   1      34.706  22.252  26.281  1.00  0.00     0.004 C 
ATOM     67  C   UNL A   1      32.845  22.131  24.561  1.00  0.00     0.120 C 
ATOM     68  C   UNL A   1      34.155  21.517  25.059  1.00  0.00     0.022 C 
BRANCH  65  69
ATOM     69  C   UNL A   1      32.897  24.312  23.251  1.00  0.00     0.233 C 
ATOM     70  O   UNL A   1      33.886  24.479  22.531  1.00  0.00    -0.274 OA
BRANCH  69  71
ATOM     71  C   UNL A   1      31.549  24.847  22.793  1.00  0.00     0.170 C 
BRANCH  71  72
ATOM     72  S   UNL A   1      31.705  26.230  21.602  1.00  0.00    -0.147 SA
BRANCH  72  73
ATOM     73  C   UNL A   1      31.615  27.683  22.703  1.00  0.00     0.105 C 
BRANCH  73  74
ATOM     74  C   UNL A   1      30.301  28.416  22.628  1.00  0.00    -0.038 A 
ATOM     75  C   UNL A   1      30.196  29.652  21.977  1.00  0.00     0.004 A 
ATOM     76  C   UNL A   1      29.144  27.851  23.188  1.00  0.00     0.004 A 
ATOM     77  C   UNL A   1      28.973  30.322  21.912  1.00  0.00     0.000 A 
ATOM     78  C   UNL A   1      27.918  28.513  23.106  1.00  0.00     0.000 A 
ATOM     79  C   UNL A   1      27.834  29.752  22.475  1.00  0.00     0.000 A 
ENDBRANCH  73  74
ENDBRANCH  72  73
ENDBRANCH  71  72
ENDBRANCH  69  71
ENDBRANCH  65  69
ENDBRANCH  60  63
ENDBRANCH   1  59
TORSDOF 16
ENDMDL
MODEL 2
REMARK VINA RESULT:     -10.8      2.528      7.940
REMARK SMILES O=C(NCCCCNC(=O)[C@H]1CCCCN1C(=O)CSCc1ccccc1)c1ccc(-c2c3nc(c(-c4ccccc4)c4ccc([nH]4)c(-c4ccccc4)c4nc(c(-c5ccccc5)c5ccc2[nH]5)C=C4)C=C3)cc1
REMARK SMILES IDX 7 1 6 2 5 3 4 4 3 5 1 6 2 7 28 9 29 10 75 11 30 12 74 13
REMARK SMILES IDX 31 14 32 15 33 16 68 17 34 18 73 19 67 20 69 21 35 22 72 23
REMARK SMILES IDX 66 24 65 25 36 27 58 28 43 29 57 30 44 31 47 32 56 33 70 34
REMARK SMILES IDX 45 35 46 36 55 38 71 39 48 40 37 41 38 42 42 43 39 44 41 45
REMARK SMILES IDX 40 46 59 47 60 48 64 49 61 50 63 51 62 52 49 53 50 54 54 55
REMARK SMILES IDX 51 56 53 57 52 58 8 59 9 60 10 62 11 63 12 64 16 65 13 66
REMARK SMILES IDX 15 67 14 68 17 69 18 70 19 71 20 72 21 73 22 74 23 75 27 76
REMARK SMILES IDX 24 77 26 78 25 79
REMARK H PARENT 3 8 69 26 47 37 8 61
REMARK Flexibility Score: inf
ROOT
ATOM      1  C   UNL A   1      36.092  22.044  25.166  1.00  0.00     0.116 C 
ENDROOT
BRANCH   1   2
ATOM      2  C   UNL A   1      36.236  20.540  24.962  1.00  0.00     0.023 C 
BRANCH   2   3
ATOM      3  C   UNL A   1      37.645  20.046  24.653  1.00  0.00     0.023 C 
BRANCH   3   4
ATOM      4  C   UNL A   1      38.696  20.372  25.707  1.00  0.00     0.116 C 
BRANCH   4   5
ATOM      5  N   UNL A   1      39.780  19.404  25.753  1.00  0.00    -0.352 N 
ATOM      6  O   UNL A   1      41.916  18.706  25.979  1.00  0.00    -0.269 OA
ATOM      7  C   UNL A   1      41.098  19.602  26.096  1.00  0.00     0.251 C 
ATOM      8  H   UNL A   1      39.539  18.482  25.505  1.00  0.00     0.163 HD
BRANCH   7   9
ATOM      9  C   UNL A   1      41.512  20.932  26.589  1.00  0.00     0.039 A 
ATOM     10  C   UNL A   1      41.995  21.894  25.698  1.00  0.00     0.014 A 
ATOM     11  C   UNL A   1      41.422  21.206  27.955  1.00  0.00     0.014 A 
ATOM     12  C   UNL A   1      42.490  23.095  26.188  1.00  0.00     0.010 A 
ATOM     13  C   UNL A   1      41.855  22.442  28.437  1.00  0.00     0.010 A 
ATOM     14  C   UNL A   1      42.404  23.389  27.558  1.00  0.00    -0.014 A 
BRANCH  14  15
ATOM     15  C   UNL A   1      42.778  24.740  28.036  1.00  0.00     0.031 A 
ATOM     16  C   UNL A   1      41.744  25.796  28.288  1.00  0.00     0.074 A 
ATOM     17  C   UNL A   1      44.086  24.999  28.226  1.00  0.00     0.049 A 
ATOM     18  N   UNL A   1      41.919  27.033  28.679  1.00  0.00    -0.248 NA
ATOM     19  C   UNL A   1      40.337  25.428  28.070  1.00  0.00     0.031 C 
ATOM     20  C   UNL A   1      45.176  24.045  27.996  1.00  0.00     0.029 A 
ATOM     21  N   UNL A   1      44.723  26.134  28.654  1.00  0.00    -0.354 N 
ATOM     22  C   UNL A   1      40.652  27.597  28.733  1.00  0.00     0.074 A 
ATOM     23  C   UNL A   1      39.714  26.572  28.327  1.00  0.00     0.031 C 
ATOM     24  C   UNL A   1      46.342  24.627  28.307  1.00  0.00     0.029 A 
ATOM     25  C   UNL A   1      46.089  26.008  28.696  1.00  0.00     0.049 A 
ATOM     26  H   UNL A   1      44.247  26.958  28.906  1.00  0.00     0.167 HD
ATOM     27  C   UNL A   1      40.309  28.860  29.088  1.00  0.00     0.031 A 
ATOM     28  C   UNL A   1      47.041  26.915  28.981  1.00  0.00     0.031 A 
ATOM     29  C   UNL A   1      41.250  29.868  29.500  1.00  0.00     0.049 A 
ATOM     30  C   UNL A   1      46.629  28.312  29.330  1.00  0.00     0.074 A 
ATOM     31  C   UNL A   1      40.992  31.151  29.953  1.00  0.00     0.029 A 
ATOM     32  N   UNL A   1      42.628  29.714  29.498  1.00  0.00    -0.354 N 
ATOM     33  N   UNL A   1      45.421  28.810  29.441  1.00  0.00    -0.248 NA
ATOM     34  C   UNL A   1      47.709  29.276  29.581  1.00  0.00     0.031 C 
ATOM     35  C   UNL A   1      42.217  31.792  30.168  1.00  0.00     0.029 A 
ATOM     36  C   UNL A   1      43.234  30.893  29.895  1.00  0.00     0.049 A 
ATOM     37  H   UNL A   1      43.103  28.888  29.251  1.00  0.00     0.167 HD
ATOM     38  C   UNL A   1      45.595  30.144  29.776  1.00  0.00     0.074 A 
ATOM     39  C   UNL A   1      47.023  30.370  29.878  1.00  0.00     0.031 C 
ATOM     40  C   UNL A   1      44.655  31.100  29.971  1.00  0.00     0.031 A 
BRANCH  27  41
ATOM     41  C   UNL A   1      38.860  29.245  29.022  1.00  0.00    -0.014 A 
ATOM     42  C   UNL A   1      38.272  29.673  27.823  1.00  0.00     0.009 A 
ATOM     43  C   UNL A   1      38.050  29.085  30.159  1.00  0.00     0.009 A 
ATOM     44  C   UNL A   1      36.901  29.946  27.768  1.00  0.00     0.001 A 
ATOM     45  C   UNL A   1      36.679  29.339  30.096  1.00  0.00     0.001 A 
ATOM     46  C   UNL A   1      36.106  29.771  28.901  1.00  0.00     0.000 A 
ENDBRANCH  27  41
BRANCH  28  47
ATOM     47  C   UNL A   1      48.472  26.535  28.889  1.00  0.00    -0.014 A 
ATOM     48  C   UNL A   1      49.133  25.954  29.981  1.00  0.00     0.009 A 
ATOM     49  C   UNL A   1      49.182  26.744  27.695  1.00  0.00     0.009 A 
ATOM     50  C   UNL A   1      50.483  25.610  29.884  1.00  0.00     0.001 A 
ATOM     51  C   UNL A   1      50.522  26.371  27.593  1.00  0.00     0.001 A 
ATOM     52  C   UNL A   1      51.174  25.813  28.690  1.00  0.00     0.000 A 
ENDBRANCH  28  47
BRANCH  40  53
ATOM     53  C   UNL A   1      45.152  32.474  30.309  1.00  0.00    -0.014 A 
ATOM     54  C   UNL A   1      45.393  32.841  31.642  1.00  0.00     0.009 A 
ATOM     55  C   UNL A   1      45.403  33.400  29.286  1.00  0.00     0.009 A 
ATOM     56  C   UNL A   1      45.854  34.123  31.946  1.00  0.00     0.001 A 
ATOM     57  C   UNL A   1      45.887  34.672  29.592  1.00  0.00     0.001 A 
ATOM     58  C   UNL A   1      46.104  35.035  30.920  1.00  0.00     0.000 A 
ENDBRANCH  40  53
ENDBRANCH  14  15
ENDBRANCH   7   9
ENDBRANCH   4   5
ENDBRANCH   3   4
ENDBRANCH   2   3
ENDBRANCH   1   2
BRANCH   1  59
ATOM     59  N   UNL A   1      35.457  22.707  24.050  1.00  0.00    -0.354 N 
ATOM     60  C   UNL A   1      34.590  23.749  23.971  1.00  0.00     0.242 C 
ATOM     61  H   UNL A   1      35.700  22.329  23.174  1.00  0.00     0.163 HD
ATOM     62  O   UNL A   1      34.294  24.081  22.813  1.00  0.00    -0.273 OA
BRANCH  60  63
ATOM     63  C   UNL A   1      33.917  24.447  25.197  1.00  0.00     0.174 C 
ATOM     64  C   UNL A   1      34.132  25.936  25.484  1.00  0.00     0.035 C 
ATOM     65  N   UNL A   1      32.444  24.300  25.070  1.00  0.00    -0.330 N 
ATOM     66  C   UNL A   1      33.627  26.805  24.335  1.00  0.00     0.004 C 
ATOM     67  C   UNL A   1      31.844  25.041  23.952  1.00  0.00     0.120 C 
ATOM     68  C   UNL A   1      32.145  26.536  24.072  1.00  0.00     0.022 C 
BRANCH  65  69
ATOM     69  C   UNL A   1      31.755  23.604  26.051  1.00  0.00     0.233 C 
ATOM     70  O   UNL A   1      31.453  24.130  27.127  1.00  0.00    -0.274 OA
BRANCH  69  71
ATOM     71  C   UNL A   1      31.289  22.185  25.766  1.00  0.00     0.170 C 
BRANCH  71  72
ATOM     72  S   UNL A   1      32.634  20.952  25.934  1.00  0.00    -0.147 SA
BRANCH  72  73
ATOM     73  C   UNL A   1      32.505  20.041  24.357  1.00  0.00     0.105 C 
BRANCH  73  74
ATOM     74  C   UNL A   1      32.886  18.588  24.467  1.00  0.00    -0.038 A 
ATOM     75  C   UNL A   1      32.581  17.843  25.614  1.00  0.00     0.004 A 
ATOM     76  C   UNL A   1      33.530  17.944  23.399  1.00  0.00     0.004 A 
ATOM     77  C   UNL A   1      32.938  16.497  25.705  1.00  0.00     0.000 A 
ATOM     78  C   UNL A   1      33.868  16.593  23.483  1.00  0.00     0.000 A 
ATOM     79  C   UNL A   1      33.579  15.871  24.639  1.00  0.00     0.000 A 
ENDBRANCH  73  74
ENDBRANCH  72  73
ENDBRANCH  71  72
ENDBRANCH  69  71
ENDBRANCH  65  69
ENDBRANCH  60  63
ENDBRANCH   1  59
TORSDOF 16
ENDMDL
MODEL 3
REMARK VINA RESULT:     -10.8      2.431      8.041
REMARK SMILES O=C(NCCCCNC(=O)[C@H]1CCCCN1C(=O)CSCc1ccccc1)c1ccc(-c2c3nc(c(-c4ccccc4)c4ccc([nH]4)c(-c4ccccc4)c4nc(c(-c5ccccc5)c5ccc2[nH]5)C=C4)C=C3)cc1
REMARK SMILES IDX 7 1 6 2 5 3 4 4 3 5 1 6 2 7 28 9 29 10 75 11 30 12 74 13
REMARK SMILES IDX 31 14 32 15 33 16 68 17 34 18 73 19 67 20 69 21 35 22 72 23
REMARK SMILES IDX 66 24 65 25 36 27 58 28 43 29 57 30 44 31 47 32 56 33 70 34
REMARK SMILES IDX 45 35 46 36 55 38 71 39 48 40 37 41 38 42 42 43 39 44 41 45
REMARK SMILES IDX 40 46 59 47 60 48 64 49 61 50 63 51 62 52 49 53 50 54 54 55
REMARK SMILES IDX 51 56 53 57 52 58 8 59 9 60 10 62 11 63 12 64 16 65 13 66
REMARK SMILES IDX 15 67 14 68 17 69 18 70 19 71 20 72 21 73 22 74 23 75 27 76
REMARK SMILES IDX 24 77 26 78 25 79
REMARK H PARENT 3 8 69 26 47 37 8 61
REMARK Flexibility Score: inf
ROOT
ATOM      1  C   UNL A   1      36.198  22.108  25.131  1.00  0.00     0.116 C 
ENDROOT
BRANCH   1   2
ATOM      2  C   UNL A   1      36.206  20.591  24.982  1.00  0.00     0.023 C 
BRANCH   2   3
ATOM      3  C   UNL A   1      37.569  19.960  24.718  1.00  0.00     0.023 C 
BRANCH   3   4
ATOM      4  C   UNL A   1      38.668  20.347  25.698  1.00  0.00     0.116 C 
BRANCH   4   5
ATOM      5  N   UNL A   1      39.765  19.393  25.736  1.00  0.00    -0.352 N 
ATOM      6  O   UNL A   1      41.908  18.719  25.955  1.00  0.00    -0.269 OA
ATOM      7  C   UNL A   1      41.080  19.604  26.079  1.00  0.00     0.251 C 
ATOM      8  H   UNL A   1      39.534  18.469  25.482  1.00  0.00     0.163 HD
BRANCH   7   9
ATOM      9  C   UNL A   1      41.478  20.936  26.581  1.00  0.00     0.039 A 
ATOM     10  C   UNL A   1      42.111  21.848  25.732  1.00  0.00     0.014 A 
ATOM     11  C   UNL A   1      41.222  21.262  27.914  1.00  0.00     0.014 A 
ATOM     12  C   UNL A   1      42.585  23.048  26.245  1.00  0.00     0.010 A 
ATOM     13  C   UNL A   1      41.637  22.498  28.411  1.00  0.00     0.010 A 
ATOM     14  C   UNL A   1      42.333  23.393  27.583  1.00  0.00    -0.014 A 
BRANCH  14  15
ATOM     15  C   UNL A   1      42.694  24.746  28.063  1.00  0.00     0.031 A 
ATOM     16  C   UNL A   1      44.104  25.098  28.432  1.00  0.00     0.074 A 
ATOM     17  C   UNL A   1      41.707  25.658  28.174  1.00  0.00     0.049 A 
ATOM     18  N   UNL A   1      44.570  26.229  28.895  1.00  0.00    -0.248 NA
ATOM     19  C   UNL A   1      45.124  24.050  28.269  1.00  0.00     0.031 C 
ATOM     20  C   UNL A   1      40.297  25.415  27.855  1.00  0.00     0.029 A 
ATOM     21  N   UNL A   1      41.736  26.965  28.581  1.00  0.00    -0.354 N 
ATOM     22  C   UNL A   1      45.928  26.027  29.100  1.00  0.00     0.074 A 
ATOM     23  C   UNL A   1      46.214  24.660  28.719  1.00  0.00     0.031 C 
ATOM     24  C   UNL A   1      39.601  26.542  28.057  1.00  0.00     0.029 A 
ATOM     25  C   UNL A   1      40.500  27.563  28.577  1.00  0.00     0.049 A 
ATOM     26  H   UNL A   1      42.561  27.429  28.851  1.00  0.00     0.167 HD
ATOM     27  C   UNL A   1      46.846  26.907  29.568  1.00  0.00     0.031 A 
ATOM     28  C   UNL A   1      40.122  28.788  28.982  1.00  0.00     0.031 A 
ATOM     29  C   UNL A   1      46.552  28.267  29.933  1.00  0.00     0.049 A 
ATOM     30  C   UNL A   1      41.157  29.721  29.531  1.00  0.00     0.074 A 
ATOM     31  C   UNL A   1      47.430  29.257  30.343  1.00  0.00     0.029 A 
ATOM     32  N   UNL A   1      45.284  28.826  29.947  1.00  0.00    -0.354 N 
ATOM     33  N   UNL A   1      42.449  29.535  29.655  1.00  0.00    -0.248 NA
ATOM     34  C   UNL A   1      40.683  31.027  30.007  1.00  0.00     0.031 C 
ATOM     35  C   UNL A   1      46.684  30.397  30.661  1.00  0.00     0.029 A 
ATOM     36  C   UNL A   1      45.349  30.131  30.404  1.00  0.00     0.049 A 
ATOM     37  H   UNL A   1      44.459  28.363  29.672  1.00  0.00     0.167 HD
ATOM     38  C   UNL A   1      42.942  30.700  30.222  1.00  0.00     0.074 A 
ATOM     39  C   UNL A   1      41.817  31.597  30.391  1.00  0.00     0.031 C 
ATOM     40  C   UNL A   1      44.214  30.997  30.581  1.00  0.00     0.031 A 
BRANCH  27  41
ATOM     41  C   UNL A   1      48.259  26.429  29.743  1.00  0.00    -0.014 A 
ATOM     42  C   UNL A   1      49.212  26.581  28.726  1.00  0.00     0.009 A 
ATOM     43  C   UNL A   1      48.662  25.904  30.982  1.00  0.00     0.009 A 
ATOM     44  C   UNL A   1      50.542  26.205  28.943  1.00  0.00     0.001 A 
ATOM     45  C   UNL A   1      49.994  25.547  31.202  1.00  0.00     0.001 A 
ATOM     46  C   UNL A   1      50.932  25.696  30.182  1.00  0.00     0.000 A 
ENDBRANCH  27  41
BRANCH  28  47
ATOM     47  C   UNL A   1      38.689  29.172  28.932  1.00  0.00    -0.014 A 
ATOM     48  C   UNL A   1      37.865  29.017  30.056  1.00  0.00     0.009 A 
ATOM     49  C   UNL A   1      38.142  29.708  27.755  1.00  0.00     0.009 A 
ATOM     50  C   UNL A   1      36.516  29.373  29.994  1.00  0.00     0.001 A 
ATOM     51  C   UNL A   1      36.802  30.090  27.706  1.00  0.00     0.001 A 
ATOM     52  C   UNL A   1      35.987  29.914  28.822  1.00  0.00     0.000 A 
ENDBRANCH  28  47
BRANCH  40  53
ATOM     53  C   UNL A   1      44.444  32.345  31.195  1.00  0.00    -0.014 A 
ATOM     54  C   UNL A   1      44.383  32.519  32.587  1.00  0.00     0.009 A 
ATOM     55  C   UNL A   1      44.748  33.446  30.380  1.00  0.00     0.009 A 
ATOM     56  C   UNL A   1      44.597  33.778  33.149  1.00  0.00     0.001 A 
ATOM     57  C   UNL A   1      44.986  34.697  30.947  1.00  0.00     0.001 A 
ATOM     58  C   UNL A   1      44.903  34.864  32.329  1.00  0.00     0.000 A 
ENDBRANCH  40  53
ENDBRANCH  14  15
ENDBRANCH   7   9
ENDBRANCH   4   5
ENDBRANCH   3   4
ENDBRANCH   2   3
ENDBRANCH   1   2
BRANCH   1  59
ATOM     59  N   UNL A   1      35.543  22.780  24.031  1.00  0.00    -0.354 N 
ATOM     60  C   UNL A   1      34.658  23.809  23.977  1.00  0.00     0.242 C 
ATOM     61  H   UNL A   1      35.786  22.421  23.147  1.00  0.00     0.163 HD
ATOM     62  O   UNL A   1      34.348  24.156  22.827  1.00  0.00    -0.273 OA
BRANCH  60  63
ATOM     63  C   UNL A   1      33.982  24.474  25.219  1.00  0.00     0.174 C 
ATOM     64  C   UNL A   1      34.180  25.959  25.535  1.00  0.00     0.035 C 
ATOM     65  N   UNL A   1      32.511  24.310  25.096  1.00  0.00    -0.330 N 
ATOM     66  C   UNL A   1      33.658  26.844  24.405  1.00  0.00     0.004 C 
ATOM     67  C   UNL A   1      31.896  25.064  23.996  1.00  0.00     0.120 C 
ATOM     68  C   UNL A   1      32.178  26.561  24.144  1.00  0.00     0.022 C 
BRANCH  65  69
ATOM     69  C   UNL A   1      31.836  23.586  26.066  1.00  0.00     0.233 C 
ATOM     70  O   UNL A   1      31.549  24.081  27.161  1.00  0.00    -0.274 OA
BRANCH  69  71
ATOM     71  C   UNL A   1      31.366  22.175  25.748  1.00  0.00     0.170 C 
BRANCH  71  72
ATOM     72  S   UNL A   1      32.712  20.938  25.871  1.00  0.00    -0.147 SA
BRANCH  72  73
ATOM     73  C   UNL A   1      32.479  19.979  24.335  1.00  0.00     0.105 C 
BRANCH  73  74
ATOM     74  C   UNL A   1      32.874  18.531  24.461  1.00  0.00    -0.038 A 
ATOM     75  C   UNL A   1      32.529  17.782  25.595  1.00  0.00     0.004 A 
ATOM     76  C   UNL A   1      33.571  17.895  23.422  1.00  0.00     0.004 A 
ATOM     77  C   UNL A   1      32.898  16.441  25.701  1.00  0.00     0.000 A 
ATOM     78  C   UNL A   1      33.923  16.548  23.522  1.00  0.00     0.000 A 
ATOM     79  C   UNL A   1      33.594  15.823  24.664  1.00  0.00     0.000 A 
ENDBRANCH  73  74
ENDBRANCH  72  73
ENDBRANCH  71  72
ENDBRANCH  69  71
ENDBRANCH  65  69
ENDBRANCH  60  63
ENDBRANCH   1  59
TORSDOF 16
ENDMDL
