MODEL 1
REMARK VINA RESULT:     -12.9      0.000      0.000
REMARK SMILES Cc1cc(C)n(C)c(=O)c1C(=O)N1CCC2(CC1)C[NH2+][C@@H](C(=O)NCCCCNC(=O)c1ccc(-c3c4nc(c(-c5ccccc5)c5ccc([nH]5)c(-c5ccccc5)c5nc(c(-c6ccccc6)c6ccc3[nH]6)C=C5)C=C4)cc1)C2
REMARK SMILES IDX 27 1 26 2 25 3 24 4 22 5 23 6 21 8 11 9 12 10 13 11 14 12
REMARK SMILES IDX 18 13 15 14 17 15 16 16 19 17 80 18 20 19 10 22 1 23 2 24
REMARK SMILES IDX 3 25 4 26 8 27 5 28 6 29 9 30 7 31 28 32 29 33 30 34 31 36
REMARK SMILES IDX 32 37 33 38 79 39 34 40 78 41 35 42 36 43 37 44 72 45 38 46
REMARK SMILES IDX 77 47 71 48 73 49 39 50 76 51 70 52 69 53 40 55 62 56 47 57
REMARK SMILES IDX 61 58 48 59 51 60 60 61 74 62 49 63 50 64 59 66 75 67 52 68
REMARK SMILES IDX 41 69 42 70 46 71 43 72 45 73 44 74 63 75 64 76 68 77 65 78
REMARK SMILES IDX 67 79 66 80 53 81 54 82 58 83 55 84 57 85 56 86
REMARK H PARENT 24 7 20 20 20 21 29 35 73 54 51 65
REMARK Flexibility Score: inf
ROOT
ATOM      1  C   UNL A   1      38.144  19.733  24.628  1.00  0.00     0.023 C 
ENDROOT
BRANCH   1   2
ATOM      2  C   UNL A   1      36.711  19.355  24.993  1.00  0.00     0.023 C 
BRANCH   2   3
ATOM      3  C   UNL A   1      35.741  20.533  25.026  1.00  0.00     0.116 C 
BRANCH   3   4
ATOM      4  N   UNL A   1      34.358  20.097  25.074  1.00  0.00    -0.351 N 
ATOM      5  C   UNL A   1      33.240  20.783  25.454  1.00  0.00     0.278 C 
ATOM      6  O   UNL A   1      32.156  20.199  25.388  1.00  0.00    -0.268 OA
ATOM      7  H   UNL A   1      34.202  19.167  24.791  1.00  0.00     0.163 HD
BRANCH   5   8
ATOM      8  C   UNL A   1      33.320  22.224  25.974  1.00  0.00     0.273 C 
ATOM      9  C   UNL A   1      32.473  28.303  23.595  1.00  0.00     0.259 C 
ATOM     10  O   UNL A   1      33.525  28.896  23.334  1.00  0.00    -0.269 OA
ATOM     11  N   UNL A   1      32.523  26.949  23.897  1.00  0.00    -0.338 N 
ATOM     12  C   UNL A   1      33.786  26.434  24.398  1.00  0.00     0.120 C 
ATOM     13  C   UNL A   1      31.575  25.918  23.492  1.00  0.00     0.120 C 
ATOM     14  C   UNL A   1      33.516  25.679  25.687  1.00  0.00     0.034 C 
ATOM     15  C   UNL A   1      31.327  24.870  24.596  1.00  0.00     0.034 C 
ATOM     16  C   UNL A   1      32.556  24.492  25.480  1.00  0.00     0.029 C 
ATOM     17  C   UNL A   1      32.112  23.997  26.881  1.00  0.00     0.268 C 
ATOM     18  C   UNL A   1      33.312  23.284  24.878  1.00  0.00     0.088 C 
ATOM     19  N   UNL A   1      32.170  22.546  26.836  1.00  0.00    -0.336 N 
ATOM     20  H   UNL A   1      31.311  22.167  26.439  1.00  0.00     0.346 HD
ATOM     21  H   UNL A   1      32.270  22.143  27.768  1.00  0.00     0.346 HD
BRANCH   9  22
ATOM     22  C   UNL A   1      31.208  29.118  23.752  1.00  0.00     0.108 A 
ATOM     23  C   UNL A   1      31.789  30.307  25.952  1.00  0.00     0.045 C 
ATOM     24  C   UNL A   1      30.953  29.998  24.750  1.00  0.00    -0.031 A 
ATOM     25  C   UNL A   1      29.810  30.889  24.681  1.00  0.00     0.026 A 
ATOM     26  C   UNL A   1      29.118  31.070  23.551  1.00  0.00     0.018 A 
ATOM     27  C   UNL A   1      30.278  29.169  22.547  1.00  0.00     0.263 A 
ATOM     28  C   UNL A   1      28.058  32.136  23.515  1.00  0.00     0.064 C 
ATOM     29  N   UNL A   1      29.388  30.256  22.460  1.00  0.00    -0.315 N 
ATOM     30  O   UNL A   1      30.314  28.293  21.682  1.00  0.00    -0.268 OA
ATOM     31  C   UNL A   1      28.701  30.466  21.192  1.00  0.00     0.153 C 
ENDBRANCH   9  22
ENDBRANCH   5   8
ENDBRANCH   3   4
ENDBRANCH   2   3
ENDBRANCH   1   2
BRANCH   1  32
ATOM     32  C   UNL A   1      39.067  19.945  25.820  1.00  0.00     0.116 C 
BRANCH  32  33
ATOM     33  N   UNL A   1      40.111  18.935  25.914  1.00  0.00    -0.352 N 
ATOM     34  C   UNL A   1      41.453  19.114  26.142  1.00  0.00     0.251 C 
ATOM     35  H   UNL A   1      39.817  18.003  25.799  1.00  0.00     0.163 HD
ATOM     36  O   UNL A   1      42.233  18.171  26.054  1.00  0.00    -0.269 OA
BRANCH  34  37
ATOM     37  C   UNL A   1      41.953  20.465  26.467  1.00  0.00     0.039 A 
ATOM     38  C   UNL A   1      42.315  21.322  25.426  1.00  0.00     0.014 A 
ATOM     39  C   UNL A   1      42.028  20.890  27.796  1.00  0.00     0.014 A 
ATOM     40  C   UNL A   1      42.693  22.635  25.716  1.00  0.00     0.010 A 
ATOM     41  C   UNL A   1      42.337  22.216  28.077  1.00  0.00     0.010 A 
ATOM     42  C   UNL A   1      42.672  23.100  27.040  1.00  0.00    -0.014 A 
BRANCH  42  43
ATOM     43  C   UNL A   1      43.011  24.503  27.379  1.00  0.00     0.031 A 
ATOM     44  C   UNL A   1      44.448  24.945  27.357  1.00  0.00     0.074 A 
ATOM     45  C   UNL A   1      42.042  25.356  27.762  1.00  0.00     0.049 A 
ATOM     46  N   UNL A   1      44.966  26.084  27.738  1.00  0.00    -0.248 NA
ATOM     47  C   UNL A   1      45.433  23.973  26.852  1.00  0.00     0.031 C 
ATOM     48  C   UNL A   1      40.611  25.052  27.814  1.00  0.00     0.029 A 
ATOM     49  N   UNL A   1      42.119  26.660  28.184  1.00  0.00    -0.354 N 
ATOM     50  C   UNL A   1      46.333  25.965  27.520  1.00  0.00     0.074 A 
ATOM     51  C   UNL A   1      46.572  24.628  27.024  1.00  0.00     0.031 C 
ATOM     52  C   UNL A   1      39.944  26.147  28.216  1.00  0.00     0.029 A 
ATOM     53  C   UNL A   1      40.901  27.211  28.499  1.00  0.00     0.049 A 
ATOM     54  H   UNL A   1      42.969  27.154  28.254  1.00  0.00     0.167 HD
ATOM     55  C   UNL A   1      47.299  26.897  27.693  1.00  0.00     0.031 A 
ATOM     56  C   UNL A   1      40.593  28.433  28.973  1.00  0.00     0.031 A 
ATOM     57  C   UNL A   1      47.064  28.226  28.188  1.00  0.00     0.049 A 
ATOM     58  C   UNL A   1      41.700  29.418  29.234  1.00  0.00     0.074 A 
ATOM     59  C   UNL A   1      47.982  29.237  28.412  1.00  0.00     0.029 A 
ATOM     60  N   UNL A   1      45.819  28.733  28.526  1.00  0.00    -0.354 N 
ATOM     61  N   UNL A   1      42.989  29.290  29.028  1.00  0.00    -0.248 NA
ATOM     62  C   UNL A   1      41.306  30.722  29.785  1.00  0.00     0.031 C 
ATOM     63  C   UNL A   1      47.297  30.345  28.919  1.00  0.00     0.029 A 
ATOM     64  C   UNL A   1      45.946  30.042  28.955  1.00  0.00     0.049 A 
ATOM     65  H   UNL A   1      44.971  28.236  28.467  1.00  0.00     0.167 HD
ATOM     66  C   UNL A   1      43.551  30.510  29.380  1.00  0.00     0.074 A 
ATOM     67  C   UNL A   1      42.463  31.367  29.802  1.00  0.00     0.031 C 
ATOM     68  C   UNL A   1      44.852  30.888  29.353  1.00  0.00     0.031 A 
BRANCH  55  69
ATOM     69  C   UNL A   1      48.706  26.520  27.325  1.00  0.00    -0.014 A 
ATOM     70  C   UNL A   1      49.524  25.831  28.235  1.00  0.00     0.009 A 
ATOM     71  C   UNL A   1      49.194  26.780  26.035  1.00  0.00     0.009 A 
ATOM     72  C   UNL A   1      50.806  25.420  27.863  1.00  0.00     0.001 A 
ATOM     73  C   UNL A   1      50.464  26.342  25.657  1.00  0.00     0.001 A 
ATOM     74  C   UNL A   1      51.270  25.666  26.572  1.00  0.00     0.000 A 
ENDBRANCH  55  69
BRANCH  56  75
ATOM     75  C   UNL A   1      39.176  28.816  29.215  1.00  0.00    -0.014 A 
ATOM     76  C   UNL A   1      38.424  29.416  28.193  1.00  0.00     0.009 A 
ATOM     77  C   UNL A   1      38.577  28.616  30.468  1.00  0.00     0.009 A 
ATOM     78  C   UNL A   1      37.115  29.841  28.431  1.00  0.00     0.001 A 
ATOM     79  C   UNL A   1      37.256  29.011  30.693  1.00  0.00     0.001 A 
ATOM     80  C   UNL A   1      36.531  29.634  29.678  1.00  0.00     0.000 A 
ENDBRANCH  56  75
BRANCH  68  81
ATOM     81  C   UNL A   1      45.166  32.310  29.725  1.00  0.00    -0.014 A 
ATOM     82  C   UNL A   1      45.154  33.340  28.773  1.00  0.00     0.009 A 
ATOM     83  C   UNL A   1      45.437  32.627  31.067  1.00  0.00     0.009 A 
ATOM     84  C   UNL A   1      45.447  34.653  29.150  1.00  0.00     0.001 A 
ATOM     85  C   UNL A   1      45.695  33.945  31.446  1.00  0.00     0.001 A 
ATOM     86  C   UNL A   1      45.712  34.954  30.486  1.00  0.00     0.000 A 
ENDBRANCH  68  81
ENDBRANCH  42  43
ENDBRANCH  34  37
ENDBRANCH  32  33
ENDBRANCH   1  32
TORSDOF 12
ENDMDL
MODEL 2
REMARK VINA RESULT:     -12.7      1.070      5.784
REMARK SMILES Cc1cc(C)n(C)c(=O)c1C(=O)N1CCC2(CC1)C[NH2+][C@@H](C(=O)NCCCCNC(=O)c1ccc(-c3c4nc(c(-c5ccccc5)c5ccc([nH]5)c(-c5ccccc5)c5nc(c(-c6ccccc6)c6ccc3[nH]6)C=C5)C=C4)cc1)C2
REMARK SMILES IDX 27 1 26 2 25 3 24 4 22 5 23 6 21 8 11 9 12 10 13 11 14 12
REMARK SMILES IDX 18 13 15 14 17 15 16 16 19 17 80 18 20 19 10 22 1 23 2 24
REMARK SMILES IDX 3 25 4 26 8 27 5 28 6 29 9 30 7 31 28 32 29 33 30 34 31 36
REMARK SMILES IDX 32 37 33 38 79 39 34 40 78 41 35 42 36 43 37 44 72 45 38 46
REMARK SMILES IDX 77 47 71 48 73 49 39 50 76 51 70 52 69 53 40 55 62 56 47 57
REMARK SMILES IDX 61 58 48 59 51 60 60 61 74 62 49 63 50 64 59 66 75 67 52 68
REMARK SMILES IDX 41 69 42 70 46 71 43 72 45 73 44 74 63 75 64 76 68 77 65 78
REMARK SMILES IDX 67 79 66 80 53 81 54 82 58 83 55 84 57 85 56 86
REMARK H PARENT 24 7 20 20 20 21 29 35 73 54 51 65
REMARK Flexibility Score: inf
ROOT
ATOM      1  C   UNL A   1      37.822  19.720  24.528  1.00  0.00     0.023 C 
ENDROOT
BRANCH   1   2
ATOM      2  C   UNL A   1      36.412  19.331  24.962  1.00  0.00     0.023 C 
BRANCH   2   3
ATOM      3  C   UNL A   1      35.467  20.513  25.156  1.00  0.00     0.116 C 
BRANCH   3   4
ATOM      4  N   UNL A   1      34.074  20.106  25.133  1.00  0.00    -0.351 N 
ATOM      5  C   UNL A   1      32.954  20.813  25.464  1.00  0.00     0.278 C 
ATOM      6  O   UNL A   1      31.862  20.253  25.340  1.00  0.00    -0.268 OA
ATOM      7  H   UNL A   1      33.914  19.182  24.835  1.00  0.00     0.163 HD
BRANCH   5   8
ATOM      8  C   UNL A   1      33.038  22.249  26.000  1.00  0.00     0.273 C 
ATOM      9  C   UNL A   1      32.381  28.361  23.646  1.00  0.00     0.259 C 
ATOM     10  O   UNL A   1      33.453  28.937  23.429  1.00  0.00    -0.269 OA
ATOM     11  N   UNL A   1      32.397  27.003  23.937  1.00  0.00    -0.338 N 
ATOM     12  C   UNL A   1      33.633  26.463  24.480  1.00  0.00     0.120 C 
ATOM     13  C   UNL A   1      31.449  25.992  23.488  1.00  0.00     0.120 C 
ATOM     14  C   UNL A   1      33.302  25.701  25.751  1.00  0.00     0.034 C 
ATOM     15  C   UNL A   1      31.143  24.939  24.572  1.00  0.00     0.034 C 
ATOM     16  C   UNL A   1      32.331  24.532  25.498  1.00  0.00     0.029 C 
ATOM     17  C   UNL A   1      31.826  24.034  26.876  1.00  0.00     0.268 C 
ATOM     18  C   UNL A   1      33.088  23.317  24.913  1.00  0.00     0.088 C 
ATOM     19  N   UNL A   1      31.862  22.583  26.821  1.00  0.00    -0.336 N 
ATOM     20  H   UNL A   1      31.012  22.221  26.388  1.00  0.00     0.346 HD
ATOM     21  H   UNL A   1      31.921  22.170  27.752  1.00  0.00     0.346 HD
BRANCH   9  22
ATOM     22  C   UNL A   1      31.125  29.195  23.762  1.00  0.00     0.108 A 
ATOM     23  C   UNL A   1      31.714  30.474  25.910  1.00  0.00     0.045 C 
ATOM     24  C   UNL A   1      30.877  30.121  24.720  1.00  0.00    -0.031 A 
ATOM     25  C   UNL A   1      29.745  31.020  24.609  1.00  0.00     0.026 A 
ATOM     26  C   UNL A   1      29.058  31.159  23.469  1.00  0.00     0.018 A 
ATOM     27  C   UNL A   1      30.199  29.203  22.553  1.00  0.00     0.263 A 
ATOM     28  C   UNL A   1      28.010  32.234  23.383  1.00  0.00     0.064 C 
ATOM     29  N   UNL A   1      29.321  30.295  22.416  1.00  0.00    -0.315 N 
ATOM     30  O   UNL A   1      30.227  28.289  21.729  1.00  0.00    -0.268 OA
ATOM     31  C   UNL A   1      28.640  30.457  21.138  1.00  0.00     0.153 C 
ENDBRANCH   9  22
ENDBRANCH   5   8
ENDBRANCH   3   4
ENDBRANCH   2   3
ENDBRANCH   1   2
BRANCH   1  32
ATOM     32  C   UNL A   1      38.755  20.097  25.671  1.00  0.00     0.116 C 
BRANCH  32  33
ATOM     33  N   UNL A   1      39.937  19.250  25.741  1.00  0.00    -0.352 N 
ATOM     34  C   UNL A   1      41.210  19.592  26.123  1.00  0.00     0.251 C 
ATOM     35  H   UNL A   1      39.806  18.310  25.480  1.00  0.00     0.163 HD
ATOM     36  O   UNL A   1      42.136  18.797  25.995  1.00  0.00    -0.269 OA
BRANCH  34  37
ATOM     37  C   UNL A   1      41.460  20.943  26.665  1.00  0.00     0.039 A 
ATOM     38  C   UNL A   1      41.271  21.172  28.029  1.00  0.00     0.014 A 
ATOM     39  C   UNL A   1      41.912  21.967  25.829  1.00  0.00     0.014 A 
ATOM     40  C   UNL A   1      41.600  22.417  28.570  1.00  0.00     0.010 A 
ATOM     41  C   UNL A   1      42.303  23.182  26.379  1.00  0.00     0.010 A 
ATOM     42  C   UNL A   1      42.151  23.417  27.754  1.00  0.00    -0.014 A 
BRANCH  42  43
ATOM     43  C   UNL A   1      42.565  24.731  28.304  1.00  0.00     0.031 A 
ATOM     44  C   UNL A   1      41.551  25.831  28.441  1.00  0.00     0.074 A 
ATOM     45  C   UNL A   1      43.856  24.951  28.622  1.00  0.00     0.049 A 
ATOM     46  N   UNL A   1      41.731  27.082  28.778  1.00  0.00    -0.248 NA
ATOM     47  C   UNL A   1      40.150  25.483  28.146  1.00  0.00     0.031 C 
ATOM     48  C   UNL A   1      44.933  23.962  28.544  1.00  0.00     0.029 A 
ATOM     49  N   UNL A   1      44.480  26.087  29.074  1.00  0.00    -0.354 N 
ATOM     50  C   UNL A   1      40.471  27.667  28.736  1.00  0.00     0.074 A 
ATOM     51  C   UNL A   1      39.544  26.652  28.289  1.00  0.00     0.031 C 
ATOM     52  C   UNL A   1      46.078  24.527  28.963  1.00  0.00     0.029 A 
ATOM     53  C   UNL A   1      45.828  25.928  29.286  1.00  0.00     0.049 A 
ATOM     54  H   UNL A   1      44.006  26.936  29.230  1.00  0.00     0.167 HD
ATOM     55  C   UNL A   1      40.116  28.931  29.065  1.00  0.00     0.031 A 
ATOM     56  C   UNL A   1      46.758  26.815  29.687  1.00  0.00     0.031 A 
ATOM     57  C   UNL A   1      41.038  29.943  29.507  1.00  0.00     0.049 A 
ATOM     58  C   UNL A   1      46.344  28.235  29.965  1.00  0.00     0.074 A 
ATOM     59  C   UNL A   1      40.775  31.258  29.849  1.00  0.00     0.029 A 
ATOM     60  N   UNL A   1      42.399  29.748  29.678  1.00  0.00    -0.354 N 
ATOM     61  N   UNL A   1      45.150  28.775  29.915  1.00  0.00    -0.248 NA
ATOM     62  C   UNL A   1      47.409  29.166  30.364  1.00  0.00     0.031 C 
ATOM     63  C   UNL A   1      41.983  31.870  30.193  1.00  0.00     0.029 A 
ATOM     64  C   UNL A   1      42.989  30.919  30.122  1.00  0.00     0.049 A 
ATOM     65  H   UNL A   1      42.876  28.903  29.511  1.00  0.00     0.167 HD
ATOM     66  C   UNL A   1      45.315  30.094  30.320  1.00  0.00     0.074 A 
ATOM     67  C   UNL A   1      46.720  30.267  30.621  1.00  0.00     0.031 C 
ATOM     68  C   UNL A   1      44.385  31.071  30.436  1.00  0.00     0.031 A 
BRANCH  55  69
ATOM     69  C   UNL A   1      38.661  29.292  28.979  1.00  0.00    -0.014 A 
ATOM     70  C   UNL A   1      38.097  29.709  27.763  1.00  0.00     0.009 A 
ATOM     71  C   UNL A   1      37.827  29.138  30.097  1.00  0.00     0.009 A 
ATOM     72  C   UNL A   1      36.728  29.974  27.671  1.00  0.00     0.001 A 
ATOM     73  C   UNL A   1      36.455  29.376  29.996  1.00  0.00     0.001 A 
ATOM     74  C   UNL A   1      35.908  29.796  28.784  1.00  0.00     0.000 A 
ENDBRANCH  55  69
BRANCH  56  75
ATOM     75  C   UNL A   1      48.172  26.395  29.877  1.00  0.00    -0.014 A 
ATOM     76  C   UNL A   1      49.080  26.472  28.809  1.00  0.00     0.009 A 
ATOM     77  C   UNL A   1      48.616  25.885  31.107  1.00  0.00     0.009 A 
ATOM     78  C   UNL A   1      50.391  26.016  28.957  1.00  0.00     0.001 A 
ATOM     79  C   UNL A   1      49.939  25.461  31.263  1.00  0.00     0.001 A 
ATOM     80  C   UNL A   1      50.821  25.516  30.184  1.00  0.00     0.000 A 
ENDBRANCH  56  75
BRANCH  68  81
ATOM     81  C   UNL A   1      44.841  32.399  30.973  1.00  0.00    -0.014 A 
ATOM     82  C   UNL A   1      44.862  32.667  32.351  1.00  0.00     0.009 A 
ATOM     83  C   UNL A   1      45.298  33.383  30.081  1.00  0.00     0.009 A 
ATOM     84  C   UNL A   1      45.294  33.910  32.820  1.00  0.00     0.001 A 
ATOM     85  C   UNL A   1      45.761  34.611  30.556  1.00  0.00     0.001 A 
ATOM     86  C   UNL A   1      45.748  34.877  31.923  1.00  0.00     0.000 A 
ENDBRANCH  68  81
ENDBRANCH  42  43
ENDBRANCH  34  37
ENDBRANCH  32  33
ENDBRANCH   1  32
TORSDOF 12
ENDMDL
MODEL 3
REMARK VINA RESULT:     -12.3      4.977     12.250
REMARK SMILES Cc1cc(C)n(C)c(=O)c1C(=O)N1CCC2(CC1)C[NH2+][C@@H](C(=O)NCCCCNC(=O)c1ccc(-c3c4nc(c(-c5ccccc5)c5ccc([nH]5)c(-c5ccccc5)c5nc(c(-c6ccccc6)c6ccc3[nH]6)C=C5)C=C4)cc1)C2
REMARK SMILES IDX 27 1 26 2 25 3 24 4 22 5 23 6 21 8 11 9 12 10 13 11 14 12
REMARK SMILES IDX 18 13 15 14 17 15 16 16 19 17 80 18 20 19 10 22 1 23 2 24
REMARK SMILES IDX 3 25 4 26 8 27 5 28 6 29 9 30 7 31 28 32 29 33 30 34 31 36
REMARK SMILES IDX 32 37 33 38 79 39 34 40 78 41 35 42 36 43 37 44 72 45 38 46
REMARK SMILES IDX 77 47 71 48 73 49 39 50 76 51 70 52 69 53 40 55 62 56 47 57
REMARK SMILES IDX 61 58 48 59 51 60 60 61 74 62 49 63 50 64 59 66 75 67 52 68
REMARK SMILES IDX 41 69 42 70 46 71 43 72 45 73 44 74 63 75 64 76 68 77 65 78
REMARK SMILES IDX 67 79 66 80 53 81 54 82 58 83 55 84 57 85 56 86
REMARK H PARENT 24 7 20 20 20 21 29 35 73 54 51 65
REMARK Flexibility Score: inf
ROOT
ATOM      1  C   UNL A   1      35.351  32.295  31.582  1.00  0.00     0.023 C 
ENDROOT
BRANCH   1   2
ATOM      2  C   UNL A   1      36.552  32.766  32.399  1.00  0.00     0.023 C 
BRANCH   2   3
ATOM      3  C   UNL A   1      37.598  31.685  32.655  1.00  0.00     0.116 C 
BRANCH   3   4
ATOM      4  N   UNL A   1      37.725  31.375  34.067  1.00  0.00    -0.351 N 
ATOM      5  C   UNL A   1      38.655  30.609  34.711  1.00  0.00     0.278 C 
ATOM      6  O   UNL A   1      38.568  30.510  35.937  1.00  0.00    -0.268 OA
ATOM      7  H   UNL A   1      37.039  31.777  34.647  1.00  0.00     0.163 HD
BRANCH   5   8
ATOM      8  C   UNL A   1      39.758  29.870  33.943  1.00  0.00     0.273 C 
ATOM      9  C   UNL A   1      44.840  25.925  35.337  1.00  0.00     0.259 C 
ATOM     10  O   UNL A   1      45.938  26.491  35.325  1.00  0.00    -0.269 OA
ATOM     11  N   UNL A   1      43.687  26.696  35.270  1.00  0.00    -0.338 N 
ATOM     12  C   UNL A   1      43.814  28.016  34.675  1.00  0.00     0.120 C 
ATOM     13  C   UNL A   1      42.438  26.481  35.989  1.00  0.00     0.120 C 
ATOM     14  C   UNL A   1      42.757  28.156  33.595  1.00  0.00     0.034 C 
ATOM     15  C   UNL A   1      41.195  26.807  35.135  1.00  0.00     0.034 C 
ATOM     16  C   UNL A   1      41.328  28.009  34.150  1.00  0.00     0.029 C 
ATOM     17  C   UNL A   1      40.367  27.857  32.943  1.00  0.00     0.268 C 
ATOM     18  C   UNL A   1      40.873  29.323  34.828  1.00  0.00     0.088 C 
ATOM     19  N   UNL A   1      39.220  28.700  33.228  1.00  0.00    -0.336 N 
ATOM     20  H   UNL A   1      38.548  28.203  33.814  1.00  0.00     0.346 HD
ATOM     21  H   UNL A   1      38.728  28.971  32.376  1.00  0.00     0.346 HD
BRANCH   9  22
ATOM     22  C   UNL A   1      44.807  24.415  35.240  1.00  0.00     0.108 A 
ATOM     23  C   UNL A   1      44.668  24.200  32.684  1.00  0.00     0.045 C 
ATOM     24  C   UNL A   1      44.771  23.698  34.091  1.00  0.00    -0.031 A 
ATOM     25  C   UNL A   1      44.970  22.261  34.106  1.00  0.00     0.026 A 
ATOM     26  C   UNL A   1      45.444  21.621  35.181  1.00  0.00     0.018 A 
ATOM     27  C   UNL A   1      45.131  23.645  36.513  1.00  0.00     0.263 A 
ATOM     28  C   UNL A   1      45.784  20.161  35.061  1.00  0.00     0.064 C 
ATOM     29  N   UNL A   1      45.586  22.320  36.371  1.00  0.00    -0.315 N 
ATOM     30  O   UNL A   1      45.003  24.169  37.619  1.00  0.00    -0.268 OA
ATOM     31  C   UNL A   1      46.160  21.674  37.545  1.00  0.00     0.153 C 
ENDBRANCH   9  22
ENDBRANCH   5   8
ENDBRANCH   3   4
ENDBRANCH   2   3
ENDBRANCH   1   2
BRANCH   1  32
ATOM     32  C   UNL A   1      35.293  32.849  30.165  1.00  0.00     0.116 C 
BRANCH  32  33
ATOM     33  N   UNL A   1      34.410  32.086  29.295  1.00  0.00    -0.352 N 
ATOM     34  C   UNL A   1      34.702  30.970  28.550  1.00  0.00     0.251 C 
ATOM     35  H   UNL A   1      33.484  32.412  29.232  1.00  0.00     0.163 HD
ATOM     36  O   UNL A   1      33.887  30.519  27.753  1.00  0.00    -0.269 OA
BRANCH  34  37
ATOM     37  C   UNL A   1      36.027  30.334  28.698  1.00  0.00     0.039 A 
ATOM     38  C   UNL A   1      37.021  30.611  27.758  1.00  0.00     0.014 A 
ATOM     39  C   UNL A   1      36.291  29.494  29.784  1.00  0.00     0.014 A 
ATOM     40  C   UNL A   1      38.306  30.096  27.943  1.00  0.00     0.010 A 
ATOM     41  C   UNL A   1      37.586  29.040  30.004  1.00  0.00     0.010 A 
ATOM     42  C   UNL A   1      38.605  29.337  29.085  1.00  0.00    -0.014 A 
BRANCH  42  43
ATOM     43  C   UNL A   1      39.971  28.822  29.344  1.00  0.00     0.031 A 
ATOM     44  C   UNL A   1      40.974  29.697  30.041  1.00  0.00     0.074 A 
ATOM     45  C   UNL A   1      40.325  27.600  28.901  1.00  0.00     0.049 A 
ATOM     46  N   UNL A   1      42.248  29.487  30.250  1.00  0.00    -0.248 NA
ATOM     47  C   UNL A   1      40.483  30.985  30.561  1.00  0.00     0.031 C 
ATOM     48  C   UNL A   1      39.441  26.652  28.221  1.00  0.00     0.029 A 
ATOM     49  N   UNL A   1      41.531  26.947  28.958  1.00  0.00    -0.354 N 
ATOM     50  C   UNL A   1      42.709  30.612  30.923  1.00  0.00     0.074 A 
ATOM     51  C   UNL A   1      41.594  31.525  31.040  1.00  0.00     0.031 C 
ATOM     52  C   UNL A   1      40.127  25.528  27.950  1.00  0.00     0.029 A 
ATOM     53  C   UNL A   1      41.509  25.698  28.388  1.00  0.00     0.049 A 
ATOM     54  H   UNL A   1      42.337  27.338  29.368  1.00  0.00     0.167 HD
ATOM     55  C   UNL A   1      43.945  30.851  31.420  1.00  0.00     0.031 A 
ATOM     56  C   UNL A   1      42.495  24.795  28.228  1.00  0.00     0.031 A 
ATOM     57  C   UNL A   1      45.055  29.945  31.302  1.00  0.00     0.049 A 
ATOM     58  C   UNL A   1      43.878  25.126  28.719  1.00  0.00     0.074 A 
ATOM     59  C   UNL A   1      46.351  30.106  31.761  1.00  0.00     0.029 A 
ATOM     60  N   UNL A   1      44.997  28.704  30.689  1.00  0.00    -0.354 N 
ATOM     61  N   UNL A   1      44.300  26.197  29.347  1.00  0.00    -0.248 NA
ATOM     62  C   UNL A   1      44.921  24.117  28.484  1.00  0.00     0.031 C 
ATOM     63  C   UNL A   1      47.087  28.977  31.394  1.00  0.00     0.029 A 
ATOM     64  C   UNL A   1      46.235  28.088  30.759  1.00  0.00     0.049 A 
ATOM     65  H   UNL A   1      44.196  28.317  30.268  1.00  0.00     0.167 HD
ATOM     66  C   UNL A   1      45.642  25.969  29.623  1.00  0.00     0.074 A 
ATOM     67  C   UNL A   1      45.960  24.656  29.102  1.00  0.00     0.031 C 
ATOM     68  C   UNL A   1      46.531  26.773  30.254  1.00  0.00     0.031 A 
BRANCH  55  69
ATOM     69  C   UNL A   1      44.162  32.140  32.160  1.00  0.00    -0.014 A 
ATOM     70  C   UNL A   1      43.954  32.214  33.546  1.00  0.00     0.009 A 
ATOM     71  C   UNL A   1      44.657  33.268  31.486  1.00  0.00     0.009 A 
ATOM     72  C   UNL A   1      44.227  33.394  34.242  1.00  0.00     0.001 A 
ATOM     73  C   UNL A   1      44.956  34.437  32.188  1.00  0.00     0.001 A 
ATOM     74  C   UNL A   1      44.738  34.500  33.563  1.00  0.00     0.000 A 
ENDBRANCH  55  69
BRANCH  56  75
ATOM     75  C   UNL A   1      42.219  23.477  27.597  1.00  0.00    -0.014 A 
ATOM     76  C   UNL A   1      42.512  23.270  26.239  1.00  0.00     0.009 A 
ATOM     77  C   UNL A   1      41.634  22.432  28.329  1.00  0.00     0.009 A 
ATOM     78  C   UNL A   1      42.193  22.059  25.620  1.00  0.00     0.001 A 
ATOM     79  C   UNL A   1      41.347  21.210  27.716  1.00  0.00     0.001 A 
ATOM     80  C   UNL A   1      41.616  21.029  26.360  1.00  0.00     0.000 A 
ENDBRANCH  56  75
BRANCH  68  81
ATOM     81  C   UNL A   1      47.915  26.232  30.479  1.00  0.00    -0.014 A 
ATOM     82  C   UNL A   1      48.309  25.715  31.723  1.00  0.00     0.009 A 
ATOM     83  C   UNL A   1      48.825  26.202  29.410  1.00  0.00     0.009 A 
ATOM     84  C   UNL A   1      49.602  25.216  31.900  1.00  0.00     0.001 A 
ATOM     85  C   UNL A   1      50.104  25.670  29.582  1.00  0.00     0.001 A 
ATOM     86  C   UNL A   1      50.495  25.189  30.830  1.00  0.00     0.000 A 
ENDBRANCH  68  81
ENDBRANCH  42  43
ENDBRANCH  34  37
ENDBRANCH  32  33
ENDBRANCH   1  32
TORSDOF 12
ENDMDL
