MODEL 1
REMARK VINA RESULT:     -11.0      0.000      0.000
REMARK SMILES O=C(NCCCCNC(=O)c1cn(C2CN(C(=O)c3c[nH]nn3)C2)nn1)c1ccc(-c2c3nc(c(-c4ccccc4)c4ccc([nH]4)c(-c4ccccc4)c4nc(c(-c5ccccc5)c5ccc2[nH]5)C=C4)C=C3)cc1
REMARK SMILES IDX 5 1 4 2 3 3 1 4 2 5 27 7 28 8 74 9 29 10 73 11 30 12 31 13
REMARK SMILES IDX 32 14 67 15 33 16 72 17 66 18 68 19 34 20 71 21 65 22 64 23
REMARK SMILES IDX 35 25 57 26 42 27 56 28 43 29 46 30 55 31 69 32 44 33 45 34
REMARK SMILES IDX 54 36 70 37 47 38 36 39 37 40 41 41 38 42 40 43 39 44 58 45
REMARK SMILES IDX 59 46 63 47 60 48 62 49 61 50 48 51 49 52 53 53 50 54 52 55
REMARK SMILES IDX 51 56 6 57 7 58 8 59 9 60 10 62 11 63 12 64 26 65 13 66
REMARK SMILES IDX 25 67 14 68 15 69 24 70 16 71 17 72 18 73 19 74 20 75 23 76
REMARK SMILES IDX 21 77 22 78
REMARK H PARENT 3 6 68 24 46 35 8 61 21 79
REMARK Flexibility Score: inf
ROOT
ATOM      1  C   UNL A   1      34.243  33.936  28.195  1.00  0.00     0.023 C 
ENDROOT
BRANCH   1   2
ATOM      2  C   UNL A   1      34.518  32.641  28.946  1.00  0.00     0.116 C 
BRANCH   2   3
ATOM      3  N   UNL A   1      33.860  31.487  28.352  1.00  0.00    -0.352 N 
ATOM      4  O   UNL A   1      33.722  29.465  27.357  1.00  0.00    -0.269 OA
ATOM      5  C   UNL A   1      34.400  30.281  27.971  1.00  0.00     0.251 C 
ATOM      6  H   UNL A   1      32.892  31.582  28.203  1.00  0.00     0.163 HD
BRANCH   5   7
ATOM      7  C   UNL A   1      35.815  29.986  28.279  1.00  0.00     0.039 A 
ATOM      8  C   UNL A   1      36.806  30.179  27.314  1.00  0.00     0.014 A 
ATOM      9  C   UNL A   1      36.151  29.493  29.543  1.00  0.00     0.014 A 
ATOM     10  C   UNL A   1      38.097  29.729  27.553  1.00  0.00     0.010 A 
ATOM     11  C   UNL A   1      37.474  29.135  29.816  1.00  0.00     0.010 A 
ATOM     12  C   UNL A   1      38.451  29.220  28.813  1.00  0.00    -0.014 A 
BRANCH  12  13
ATOM     13  C   UNL A   1      39.868  28.858  29.074  1.00  0.00     0.031 A 
ATOM     14  C   UNL A   1      40.804  29.804  29.773  1.00  0.00     0.074 A 
ATOM     15  C   UNL A   1      40.298  27.641  28.689  1.00  0.00     0.049 A 
ATOM     16  N   UNL A   1      42.063  29.629  30.087  1.00  0.00    -0.248 NA
ATOM     17  C   UNL A   1      40.265  31.116  30.167  1.00  0.00     0.031 C 
ATOM     18  C   UNL A   1      39.482  26.635  28.001  1.00  0.00     0.029 A 
ATOM     19  N   UNL A   1      41.517  27.031  28.836  1.00  0.00    -0.354 N 
ATOM     20  C   UNL A   1      42.473  30.809  30.696  1.00  0.00     0.074 A 
ATOM     21  C   UNL A   1      41.335  31.703  30.686  1.00  0.00     0.031 C 
ATOM     22  C   UNL A   1      40.206  25.522  27.831  1.00  0.00     0.029 A 
ATOM     23  C   UNL A   1      41.555  25.756  28.328  1.00  0.00     0.049 A 
ATOM     24  H   UNL A   1      42.289  27.466  29.265  1.00  0.00     0.167 HD
ATOM     25  C   UNL A   1      43.686  31.115  31.217  1.00  0.00     0.031 A 
ATOM     26  C   UNL A   1      42.570  24.877  28.245  1.00  0.00     0.031 A 
ATOM     27  C   UNL A   1      44.817  30.222  31.218  1.00  0.00     0.049 A 
ATOM     28  C   UNL A   1      43.914  25.265  28.785  1.00  0.00     0.074 A 
ATOM     29  C   UNL A   1      46.079  30.432  31.749  1.00  0.00     0.029 A 
ATOM     30  N   UNL A   1      44.827  28.955  30.654  1.00  0.00    -0.354 N 
ATOM     31  N   UNL A   1      44.272  26.370  29.392  1.00  0.00    -0.248 NA
ATOM     32  C   UNL A   1      44.994  24.281  28.630  1.00  0.00     0.031 C 
ATOM     33  C   UNL A   1      46.870  29.316  31.452  1.00  0.00     0.029 A 
ATOM     34  C   UNL A   1      46.082  28.384  30.797  1.00  0.00     0.049 A 
ATOM     35  H   UNL A   1      44.057  28.526  30.216  1.00  0.00     0.167 HD
ATOM     36  C   UNL A   1      45.611  26.206  29.713  1.00  0.00     0.074 A 
ATOM     37  C   UNL A   1      45.995  24.886  29.254  1.00  0.00     0.031 C 
ATOM     38  C   UNL A   1      46.450  27.071  30.333  1.00  0.00     0.031 A 
BRANCH  25  39
ATOM     39  C   UNL A   1      43.870  32.487  31.807  1.00  0.00    -0.014 A 
ATOM     40  C   UNL A   1      44.269  33.577  31.017  1.00  0.00     0.009 A 
ATOM     41  C   UNL A   1      43.581  32.705  33.164  1.00  0.00     0.009 A 
ATOM     42  C   UNL A   1      44.401  34.849  31.581  1.00  0.00     0.001 A 
ATOM     43  C   UNL A   1      43.684  33.982  33.718  1.00  0.00     0.001 A 
ATOM     44  C   UNL A   1      44.102  35.052  32.928  1.00  0.00     0.000 A 
ENDBRANCH  25  39
BRANCH  26  45
ATOM     45  C   UNL A   1      42.354  23.555  27.600  1.00  0.00    -0.014 A 
ATOM     46  C   UNL A   1      42.563  23.386  26.224  1.00  0.00     0.009 A 
ATOM     47  C   UNL A   1      41.933  22.454  28.364  1.00  0.00     0.009 A 
ATOM     48  C   UNL A   1      42.329  22.147  25.622  1.00  0.00     0.001 A 
ATOM     49  C   UNL A   1      41.735  21.209  27.766  1.00  0.00     0.001 A 
ATOM     50  C   UNL A   1      41.921  21.060  26.393  1.00  0.00     0.000 A 
ENDBRANCH  26  45
BRANCH  38  51
ATOM     51  C   UNL A   1      47.855  26.599  30.586  1.00  0.00    -0.014 A 
ATOM     52  C   UNL A   1      48.188  25.877  31.743  1.00  0.00     0.009 A 
ATOM     53  C   UNL A   1      48.854  26.861  29.636  1.00  0.00     0.009 A 
ATOM     54  C   UNL A   1      49.502  25.461  31.960  1.00  0.00     0.001 A 
ATOM     55  C   UNL A   1      50.160  26.415  29.840  1.00  0.00     0.001 A 
ATOM     56  C   UNL A   1      50.485  25.725  31.006  1.00  0.00     0.000 A 
ENDBRANCH  38  51
ENDBRANCH  12  13
ENDBRANCH   5   7
ENDBRANCH   2   3
ENDBRANCH   1   2
BRANCH   1  57
ATOM     57  C   UNL A   1      33.153  34.814  28.803  1.00  0.00     0.023 C 
BRANCH  57  58
ATOM     58  C   UNL A   1      33.647  36.115  29.427  1.00  0.00     0.116 C 
BRANCH  58  59
ATOM     59  N   UNL A   1      32.738  36.625  30.441  1.00  0.00    -0.351 N 
ATOM     60  C   UNL A   1      32.511  36.152  31.714  1.00  0.00     0.273 C 
ATOM     61  H   UNL A   1      32.213  37.415  30.181  1.00  0.00     0.163 HD
ATOM     62  O   UNL A   1      31.570  36.612  32.358  1.00  0.00    -0.267 OA
BRANCH  60  63
ATOM     63  C   UNL A   1      33.400  35.131  32.238  1.00  0.00     0.170 A 
ATOM     64  C   UNL A   1      34.781  35.153  32.303  1.00  0.00     0.145 A 
ATOM     65  N   UNL A   1      32.952  33.941  32.752  1.00  0.00    -0.125 NA
ATOM     66  N   UNL A   1      35.108  33.904  32.740  1.00  0.00    -0.245 N 
ATOM     67  N   UNL A   1      34.009  33.193  33.041  1.00  0.00    -0.066 NA
BRANCH  66  68
ATOM     68  C   UNL A   1      36.411  33.322  32.836  1.00  0.00     0.148 C 
ATOM     69  C   UNL A   1      36.932  33.147  34.283  1.00  0.00     0.149 C 
ATOM     70  C   UNL A   1      36.398  31.779  32.760  1.00  0.00     0.149 C 
ATOM     71  N   UNL A   1      37.350  31.830  33.848  1.00  0.00    -0.333 N 
ATOM     72  C   UNL A   1      38.201  30.934  34.440  1.00  0.00     0.276 C 
ATOM     73  O   UNL A   1      38.749  31.180  35.513  1.00  0.00    -0.267 OA
BRANCH  72  74
ATOM     74  C   UNL A   1      38.411  29.690  33.720  1.00  0.00     0.170 A 
ATOM     75  C   UNL A   1      39.588  29.194  33.192  1.00  0.00     0.141 A 
ATOM     76  N   UNL A   1      37.411  28.778  33.490  1.00  0.00    -0.125 NA
ATOM     77  N   UNL A   1      39.230  27.998  32.647  1.00  0.00    -0.265 N 
ATOM     78  N   UNL A   1      37.921  27.761  32.807  1.00  0.00    -0.069 NA
ATOM     79  H   UNL A   1      39.853  27.386  32.194  1.00  0.00     0.191 HD
ENDBRANCH  72  74
ENDBRANCH  66  68
ENDBRANCH  60  63
ENDBRANCH  58  59
ENDBRANCH  57  58
ENDBRANCH   1  57
TORSDOF 13
ENDMDL
MODEL 2
REMARK VINA RESULT:     -10.9      3.925     11.259
REMARK SMILES O=C(NCCCCNC(=O)c1cn(C2CN(C(=O)c3c[nH]nn3)C2)nn1)c1ccc(-c2c3nc(c(-c4ccccc4)c4ccc([nH]4)c(-c4ccccc4)c4nc(c(-c5ccccc5)c5ccc2[nH]5)C=C4)C=C3)cc1
REMARK SMILES IDX 5 1 4 2 3 3 1 4 2 5 27 7 28 8 74 9 29 10 73 11 30 12 31 13
REMARK SMILES IDX 32 14 67 15 33 16 72 17 66 18 68 19 34 20 71 21 65 22 64 23
REMARK SMILES IDX 35 25 57 26 42 27 56 28 43 29 46 30 55 31 69 32 44 33 45 34
REMARK SMILES IDX 54 36 70 37 47 38 36 39 37 40 41 41 38 42 40 43 39 44 58 45
REMARK SMILES IDX 59 46 63 47 60 48 62 49 61 50 48 51 49 52 53 53 50 54 52 55
REMARK SMILES IDX 51 56 6 57 7 58 8 59 9 60 10 62 11 63 12 64 26 65 13 66
REMARK SMILES IDX 25 67 14 68 15 69 24 70 16 71 17 72 18 73 19 74 20 75 23 76
REMARK SMILES IDX 21 77 22 78
REMARK H PARENT 3 6 68 24 46 35 8 61 21 79
REMARK Flexibility Score: inf
ROOT
ATOM      1  C   UNL A   1      40.901  19.996  27.345  1.00  0.00     0.023 C 
ENDROOT
BRANCH   1   2
ATOM      2  C   UNL A   1      40.650  21.492  27.216  1.00  0.00     0.116 C 
BRANCH   2   3
ATOM      3  N   UNL A   1      39.552  21.811  26.316  1.00  0.00    -0.352 N 
ATOM      4  O   UNL A   1      37.873  23.050  25.453  1.00  0.00    -0.269 OA
ATOM      5  C   UNL A   1      38.869  22.995  26.166  1.00  0.00     0.251 C 
ATOM      6  H   UNL A   1      39.255  21.076  25.733  1.00  0.00     0.163 HD
BRANCH   5   7
ATOM      7  C   UNL A   1      39.326  24.197  26.894  1.00  0.00     0.039 A 
ATOM      8  C   UNL A   1      39.048  24.351  28.253  1.00  0.00     0.014 A 
ATOM      9  C   UNL A   1      40.026  25.190  26.203  1.00  0.00     0.014 A 
ATOM     10  C   UNL A   1      39.320  25.559  28.880  1.00  0.00     0.010 A 
ATOM     11  C   UNL A   1      40.391  26.366  26.863  1.00  0.00     0.010 A 
ATOM     12  C   UNL A   1      40.013  26.574  28.199  1.00  0.00    -0.014 A 
BRANCH  12  13
ATOM     13  C   UNL A   1      40.394  27.807  28.933  1.00  0.00     0.031 A 
ATOM     14  C   UNL A   1      41.750  27.957  29.563  1.00  0.00     0.074 A 
ATOM     15  C   UNL A   1      39.499  28.811  29.005  1.00  0.00     0.049 A 
ATOM     16  N   UNL A   1      42.239  28.977  30.224  1.00  0.00    -0.248 NA
ATOM     17  C   UNL A   1      42.678  26.822  29.444  1.00  0.00     0.031 C 
ATOM     18  C   UNL A   1      38.149  28.781  28.432  1.00  0.00     0.029 A 
ATOM     19  N   UNL A   1      39.590  30.057  29.568  1.00  0.00    -0.354 N 
ATOM     20  C   UNL A   1      43.518  28.602  30.615  1.00  0.00     0.074 A 
ATOM     21  C   UNL A   1      43.723  27.251  30.138  1.00  0.00     0.031 C 
ATOM     22  C   UNL A   1      37.561  29.968  28.631  1.00  0.00     0.029 A 
ATOM     23  C   UNL A   1      38.457  30.815  29.407  1.00  0.00     0.049 A 
ATOM     24  H   UNL A   1      40.392  30.378  30.042  1.00  0.00     0.167 HD
ATOM     25  C   UNL A   1      44.437  29.320  31.305  1.00  0.00     0.031 A 
ATOM     26  C   UNL A   1      38.156  32.048  29.853  1.00  0.00     0.031 A 
ATOM     27  C   UNL A   1      44.225  30.664  31.782  1.00  0.00     0.049 A 
ATOM     28  C   UNL A   1      39.176  32.797  30.658  1.00  0.00     0.074 A 
ATOM     29  C   UNL A   1      45.107  31.485  32.466  1.00  0.00     0.029 A 
ATOM     30  N   UNL A   1      43.046  31.380  31.636  1.00  0.00    -0.354 N 
ATOM     31  N   UNL A   1      40.394  32.442  30.984  1.00  0.00    -0.248 NA
ATOM     32  C   UNL A   1      38.777  34.121  31.154  1.00  0.00     0.031 C 
ATOM     33  C   UNL A   1      44.441  32.673  32.785  1.00  0.00     0.029 A 
ATOM     34  C   UNL A   1      43.168  32.620  32.241  1.00  0.00     0.049 A 
ATOM     35  H   UNL A   1      42.242  31.055  31.170  1.00  0.00     0.167 HD
ATOM     36  C   UNL A   1      40.918  33.507  31.703  1.00  0.00     0.074 A 
ATOM     37  C   UNL A   1      39.892  34.529  31.745  1.00  0.00     0.031 C 
ATOM     38  C   UNL A   1      42.139  33.627  32.278  1.00  0.00     0.031 A 
BRANCH  25  39
ATOM     39  C   UNL A   1      45.754  28.662  31.617  1.00  0.00    -0.014 A 
ATOM     40  C   UNL A   1      46.839  28.738  30.729  1.00  0.00     0.009 A 
ATOM     41  C   UNL A   1      45.930  28.007  32.846  1.00  0.00     0.009 A 
ATOM     42  C   UNL A   1      48.063  28.148  31.056  1.00  0.00     0.001 A 
ATOM     43  C   UNL A   1      47.162  27.444  33.183  1.00  0.00     0.001 A 
ATOM     44  C   UNL A   1      48.225  27.508  32.284  1.00  0.00     0.000 A 
ENDBRANCH  25  39
BRANCH  26  45
ATOM     45  C   UNL A   1      36.821  32.633  29.569  1.00  0.00    -0.014 A 
ATOM     46  C   UNL A   1      36.580  33.324  28.372  1.00  0.00     0.009 A 
ATOM     47  C   UNL A   1      35.776  32.504  30.499  1.00  0.00     0.009 A 
ATOM     48  C   UNL A   1      35.330  33.896  28.127  1.00  0.00     0.001 A 
ATOM     49  C   UNL A   1      34.518  33.046  30.235  1.00  0.00     0.001 A 
ATOM     50  C   UNL A   1      34.299  33.753  29.055  1.00  0.00     0.000 A 
ENDBRANCH  26  45
BRANCH  38  51
ATOM     51  C   UNL A   1      42.445  34.928  32.966  1.00  0.00    -0.014 A 
ATOM     52  C   UNL A   1      42.004  35.187  34.273  1.00  0.00     0.009 A 
ATOM     53  C   UNL A   1      43.210  35.899  32.300  1.00  0.00     0.009 A 
ATOM     54  C   UNL A   1      42.291  36.408  34.885  1.00  0.00     0.001 A 
ATOM     55  C   UNL A   1      43.523  37.106  32.927  1.00  0.00     0.001 A 
ATOM     56  C   UNL A   1      43.055  37.363  34.214  1.00  0.00     0.000 A 
ENDBRANCH  38  51
ENDBRANCH  12  13
ENDBRANCH   5   7
ENDBRANCH   2   3
ENDBRANCH   1   2
BRANCH   1  57
ATOM     57  C   UNL A   1      42.333  19.556  27.053  1.00  0.00     0.023 C 
BRANCH  57  58
ATOM     58  C   UNL A   1      42.605  19.173  25.601  1.00  0.00     0.116 C 
BRANCH  58  59
ATOM     59  N   UNL A   1      43.926  18.594  25.418  1.00  0.00    -0.351 N 
ATOM     60  C   UNL A   1      45.083  19.201  24.983  1.00  0.00     0.273 C 
ATOM     61  H   UNL A   1      44.003  17.638  25.633  1.00  0.00     0.163 HD
ATOM     62  O   UNL A   1      46.058  18.500  24.721  1.00  0.00    -0.267 OA
BRANCH  60  63
ATOM     63  C   UNL A   1      45.096  20.647  24.856  1.00  0.00     0.170 A 
ATOM     64  C   UNL A   1      45.547  21.579  25.772  1.00  0.00     0.145 A 
ATOM     65  N   UNL A   1      44.622  21.306  23.751  1.00  0.00    -0.125 NA
ATOM     66  N   UNL A   1      45.198  22.776  25.219  1.00  0.00    -0.245 N 
ATOM     67  N   UNL A   1      44.676  22.609  23.993  1.00  0.00    -0.066 NA
BRANCH  66  68
ATOM     68  C   UNL A   1      45.281  24.074  25.815  1.00  0.00     0.148 C 
ATOM     69  C   UNL A   1      46.223  25.059  25.081  1.00  0.00     0.149 C 
ATOM     70  C   UNL A   1      44.131  25.015  25.390  1.00  0.00     0.149 C 
ATOM     71  N   UNL A   1      45.158  26.025  25.255  1.00  0.00    -0.333 N 
ATOM     72  C   UNL A   1      45.171  27.387  25.115  1.00  0.00     0.276 C 
ATOM     73  O   UNL A   1      46.192  27.991  24.790  1.00  0.00    -0.267 OA
BRANCH  72  74
ATOM     74  C   UNL A   1      43.911  28.062  25.378  1.00  0.00     0.170 A 
ATOM     75  C   UNL A   1      43.580  28.871  26.448  1.00  0.00     0.141 A 
ATOM     76  N   UNL A   1      42.837  28.006  24.525  1.00  0.00    -0.125 NA
ATOM     77  N   UNL A   1      42.298  29.254  26.191  1.00  0.00    -0.265 N 
ATOM     78  N   UNL A   1      41.847  28.716  25.050  1.00  0.00    -0.069 NA
ATOM     79  H   UNL A   1      41.771  29.850  26.770  1.00  0.00     0.191 HD
ENDBRANCH  72  74
ENDBRANCH  66  68
ENDBRANCH  60  63
ENDBRANCH  58  59
ENDBRANCH  57  58
ENDBRANCH   1  57
TORSDOF 13
ENDMDL
MODEL 3
REMARK VINA RESULT:     -10.6      4.727      7.200
REMARK SMILES O=C(NCCCCNC(=O)c1cn(C2CN(C(=O)c3c[nH]nn3)C2)nn1)c1ccc(-c2c3nc(c(-c4ccccc4)c4ccc([nH]4)c(-c4ccccc4)c4nc(c(-c5ccccc5)c5ccc2[nH]5)C=C4)C=C3)cc1
REMARK SMILES IDX 5 1 4 2 3 3 1 4 2 5 27 7 28 8 74 9 29 10 73 11 30 12 31 13
REMARK SMILES IDX 32 14 67 15 33 16 72 17 66 18 68 19 34 20 71 21 65 22 64 23
REMARK SMILES IDX 35 25 57 26 42 27 56 28 43 29 46 30 55 31 69 32 44 33 45 34
REMARK SMILES IDX 54 36 70 37 47 38 36 39 37 40 41 41 38 42 40 43 39 44 58 45
REMARK SMILES IDX 59 46 63 47 60 48 62 49 61 50 48 51 49 52 53 53 50 54 52 55
REMARK SMILES IDX 51 56 6 57 7 58 8 59 9 60 10 62 11 63 12 64 26 65 13 66
REMARK SMILES IDX 25 67 14 68 15 69 24 70 16 71 17 72 18 73 19 74 20 75 23 76
REMARK SMILES IDX 21 77 22 78
REMARK H PARENT 3 6 68 24 46 35 8 61 21 79
REMARK Flexibility Score: inf
ROOT
ATOM      1  C   UNL A   1      33.672  28.016  25.747  1.00  0.00     0.023 C 
ENDROOT
BRANCH   1   2
ATOM      2  C   UNL A   1      33.567  28.334  27.232  1.00  0.00     0.116 C 
BRANCH   2   3
ATOM      3  N   UNL A   1      33.470  29.760  27.504  1.00  0.00    -0.352 N 
ATOM      4  O   UNL A   1      34.109  31.759  28.337  1.00  0.00    -0.269 OA
ATOM      5  C   UNL A   1      34.408  30.605  28.049  1.00  0.00     0.251 C 
ATOM      6  H   UNL A   1      32.613  30.179  27.265  1.00  0.00     0.163 HD
BRANCH   5   7
ATOM      7  C   UNL A   1      35.773  30.105  28.314  1.00  0.00     0.039 A 
ATOM      8  C   UNL A   1      36.113  29.608  29.574  1.00  0.00     0.014 A 
ATOM      9  C   UNL A   1      36.729  30.152  27.295  1.00  0.00     0.014 A 
ATOM     10  C   UNL A   1      37.438  29.313  29.863  1.00  0.00     0.010 A 
ATOM     11  C   UNL A   1      38.043  29.758  27.561  1.00  0.00     0.010 A 
ATOM     12  C   UNL A   1      38.416  29.365  28.855  1.00  0.00    -0.014 A 
BRANCH  12  13
ATOM     13  C   UNL A   1      39.800  28.929  29.168  1.00  0.00     0.031 A 
ATOM     14  C   UNL A   1      40.747  29.813  29.932  1.00  0.00     0.074 A 
ATOM     15  C   UNL A   1      40.189  27.702  28.772  1.00  0.00     0.049 A 
ATOM     16  N   UNL A   1      41.982  29.569  30.296  1.00  0.00    -0.248 NA
ATOM     17  C   UNL A   1      40.254  31.139  30.336  1.00  0.00     0.031 C 
ATOM     18  C   UNL A   1      39.358  26.754  28.023  1.00  0.00     0.029 A 
ATOM     19  N   UNL A   1      41.370  27.031  28.957  1.00  0.00    -0.354 N 
ATOM     20  C   UNL A   1      42.419  30.713  30.953  1.00  0.00     0.074 A 
ATOM     21  C   UNL A   1      41.326  31.661  30.916  1.00  0.00     0.031 C 
ATOM     22  C   UNL A   1      40.036  25.611  27.857  1.00  0.00     0.029 A 
ATOM     23  C   UNL A   1      41.371  25.768  28.418  1.00  0.00     0.049 A 
ATOM     24  H   UNL A   1      42.142  27.418  29.431  1.00  0.00     0.167 HD
ATOM     25  C   UNL A   1      43.620  30.948  31.534  1.00  0.00     0.031 A 
ATOM     26  C   UNL A   1      42.346  24.843  28.357  1.00  0.00     0.031 A 
ATOM     27  C   UNL A   1      44.707  30.002  31.562  1.00  0.00     0.049 A 
ATOM     28  C   UNL A   1      43.681  25.153  28.966  1.00  0.00     0.074 A 
ATOM     29  C   UNL A   1      45.952  30.138  32.153  1.00  0.00     0.029 A 
ATOM     30  N   UNL A   1      44.683  28.750  30.966  1.00  0.00    -0.354 N 
ATOM     31  N   UNL A   1      44.063  26.224  29.616  1.00  0.00    -0.248 NA
ATOM     32  C   UNL A   1      44.719  24.122  28.832  1.00  0.00     0.031 C 
ATOM     33  C   UNL A   1      46.702  28.993  31.863  1.00  0.00     0.029 A 
ATOM     34  C   UNL A   1      45.901  28.115  31.150  1.00  0.00     0.049 A 
ATOM     35  H   UNL A   1      43.914  28.368  30.485  1.00  0.00     0.167 HD
ATOM     36  C   UNL A   1      45.378  25.989  29.991  1.00  0.00     0.074 A 
ATOM     37  C   UNL A   1      45.719  24.663  29.515  1.00  0.00     0.031 C 
ATOM     38  C   UNL A   1      46.227  26.797  30.669  1.00  0.00     0.031 A 
BRANCH  25  39
ATOM     39  C   UNL A   1      43.842  32.295  32.167  1.00  0.00    -0.014 A 
ATOM     40  C   UNL A   1      43.561  32.523  33.524  1.00  0.00     0.009 A 
ATOM     41  C   UNL A   1      44.401  33.337  31.409  1.00  0.00     0.009 A 
ATOM     42  C   UNL A   1      43.808  33.773  34.098  1.00  0.00     0.001 A 
ATOM     43  C   UNL A   1      44.674  34.575  31.992  1.00  0.00     0.001 A 
ATOM     44  C   UNL A   1      44.369  34.795  33.334  1.00  0.00     0.000 A 
ENDBRANCH  25  39
BRANCH  26  45
ATOM     45  C   UNL A   1      42.097  23.549  27.670  1.00  0.00    -0.014 A 
ATOM     46  C   UNL A   1      42.463  23.367  26.329  1.00  0.00     0.009 A 
ATOM     47  C   UNL A   1      41.487  22.487  28.358  1.00  0.00     0.009 A 
ATOM     48  C   UNL A   1      42.199  22.157  25.683  1.00  0.00     0.001 A 
ATOM     49  C   UNL A   1      41.257  21.267  27.720  1.00  0.00     0.001 A 
ATOM     50  C   UNL A   1      41.601  21.107  26.380  1.00  0.00     0.000 A 
ENDBRANCH  26  45
BRANCH  38  51
ATOM     51  C   UNL A   1      47.595  26.252  30.972  1.00  0.00    -0.014 A 
ATOM     52  C   UNL A   1      47.900  25.689  32.220  1.00  0.00     0.009 A 
ATOM     53  C   UNL A   1      48.586  26.282  29.978  1.00  0.00     0.009 A 
ATOM     54  C   UNL A   1      49.181  25.201  32.480  1.00  0.00     0.001 A 
ATOM     55  C   UNL A   1      49.857  25.763  30.229  1.00  0.00     0.001 A 
ATOM     56  C   UNL A   1      50.156  25.233  31.483  1.00  0.00     0.000 A 
ENDBRANCH  38  51
ENDBRANCH  12  13
ENDBRANCH   5   7
ENDBRANCH   2   3
ENDBRANCH   1   2
BRANCH   1  57
ATOM     57  C   UNL A   1      33.609  29.228  24.823  1.00  0.00     0.023 C 
BRANCH  57  58
ATOM     58  C   UNL A   1      33.352  28.905  23.354  1.00  0.00     0.116 C 
BRANCH  58  59
ATOM     59  N   UNL A   1      31.937  28.740  23.061  1.00  0.00    -0.351 N 
ATOM     60  C   UNL A   1      31.289  27.657  22.512  1.00  0.00     0.273 C 
ATOM     61  H   UNL A   1      31.365  29.509  23.285  1.00  0.00     0.163 HD
ATOM     62  O   UNL A   1      30.113  27.778  22.175  1.00  0.00    -0.267 OA
BRANCH  60  63
ATOM     63  C   UNL A   1      32.028  26.417  22.359  1.00  0.00     0.170 A 
ATOM     64  C   UNL A   1      32.321  25.474  23.326  1.00  0.00     0.145 A 
ATOM     65  N   UNL A   1      32.570  26.010  21.167  1.00  0.00    -0.125 NA
ATOM     66  N   UNL A   1      33.148  24.597  22.689  1.00  0.00    -0.245 N 
ATOM     67  N   UNL A   1      33.266  24.903  21.386  1.00  0.00    -0.066 NA
BRANCH  66  68
ATOM     68  C   UNL A   1      33.882  23.511  23.261  1.00  0.00     0.148 C 
ATOM     69  C   UNL A   1      33.901  23.492  24.808  1.00  0.00     0.149 C 
ATOM     70  C   UNL A   1      33.065  22.204  23.354  1.00  0.00     0.149 C 
ATOM     71  N   UNL A   1      33.634  22.075  24.677  1.00  0.00    -0.333 N 
ATOM     72  C   UNL A   1      33.723  21.071  25.605  1.00  0.00     0.276 C 
ATOM     73  O   UNL A   1      34.069  21.295  26.764  1.00  0.00    -0.267 OA
BRANCH  72  74
ATOM     74  C   UNL A   1      33.387  19.739  25.131  1.00  0.00     0.170 A 
ATOM     75  C   UNL A   1      34.222  18.798  24.559  1.00  0.00     0.141 A 
ATOM     76  N   UNL A   1      32.128  19.203  25.230  1.00  0.00    -0.125 NA
ATOM     77  N   UNL A   1      33.408  17.732  24.323  1.00  0.00    -0.265 N 
ATOM     78  N   UNL A   1      32.149  17.984  24.705  1.00  0.00    -0.069 NA
ATOM     79  H   UNL A   1      33.706  16.884  23.923  1.00  0.00     0.191 HD
ENDBRANCH  72  74
ENDBRANCH  66  68
ENDBRANCH  60  63
ENDBRANCH  58  59
ENDBRANCH  57  58
ENDBRANCH   1  57
TORSDOF 13
ENDMDL
