MODEL 1
REMARK VINA RESULT:      -9.7      0.000      0.000
REMARK SMILES CC(C)([NH2+]C[C@@H]1CCCO1)C(=O)NCCCCNC(=O)c1ccc(-c2c3nc(c(-c4ccccc4)c4ccc([nH]4)c(-c4ccccc4)c4nc(c(-c5ccccc5)c5ccc2[nH]5)C=C4)C=C3)cc1
REMARK SMILES IDX 15 1 14 2 13 3 11 4 12 5 2 7 1 8 3 9 4 10 5 13 6 14 7 15
REMARK SMILES IDX 10 16 8 17 9 18 16 19 17 20 18 21 19 22 20 24 21 25 22 26
REMARK SMILES IDX 68 27 23 28 67 29 24 30 25 31 26 32 61 33 27 34 66 35 60 36
REMARK SMILES IDX 62 37 28 38 65 39 59 40 58 41 29 43 51 44 36 45 50 46 37 47
REMARK SMILES IDX 40 48 49 49 63 50 38 51 39 52 48 54 64 55 41 56 30 57 31 58
REMARK SMILES IDX 35 59 32 60 34 61 33 62 52 63 53 64 57 65 54 66 56 67 55 68
REMARK SMILES IDX 42 69 43 70 47 71 44 72 46 73 45 74
REMARK H PARENT 13 6 4 11 4 12 18 23 62 42 40 53
REMARK Flexibility Score: inf
ROOT
ATOM      1  C   UNL A   1      32.171  27.614  27.158  1.00  0.00     0.023 C 
ENDROOT
BRANCH   1   2
ATOM      2  C   UNL A   1      31.209  26.923  26.181  1.00  0.00     0.116 C 
BRANCH   2   3
ATOM      3  N   UNL A   1      30.738  25.671  26.722  1.00  0.00    -0.351 N 
ATOM      4  C   UNL A   1      31.031  24.363  26.515  1.00  0.00     0.280 C 
ATOM      5  O   UNL A   1      30.238  23.613  27.110  1.00  0.00    -0.268 OA
ATOM      6  H   UNL A   1      30.038  25.796  27.404  1.00  0.00     0.163 HD
BRANCH   4   7
ATOM      7  C   UNL A   1      32.295  23.762  25.792  1.00  0.00     0.169 C 
ATOM      8  C   UNL A   1      32.112  24.166  24.291  1.00  0.00     0.090 C 
ATOM      9  C   UNL A   1      32.270  22.233  25.821  1.00  0.00     0.090 C 
BRANCH   7  10
ATOM     10  N   UNL A   1      33.636  24.326  26.063  1.00  0.00    -0.332 N 
ATOM     11  H   UNL A   1      33.825  24.102  27.040  1.00  0.00     0.347 HD
ATOM     12  H   UNL A   1      33.488  25.277  25.727  1.00  0.00     0.347 HD
BRANCH  10  13
ATOM     13  C   UNL A   1      34.857  24.011  25.364  1.00  0.00     0.293 C 
BRANCH  13  14
ATOM     14  C   UNL A   1      36.018  23.212  26.009  1.00  0.00     0.173 C 
ATOM     15  C   UNL A   1      37.450  23.717  25.910  1.00  0.00     0.040 C 
ATOM     16  O   UNL A   1      36.026  21.893  25.402  1.00  0.00    -0.372 OA
ATOM     17  C   UNL A   1      38.261  22.441  25.896  1.00  0.00     0.031 C 
ATOM     18  C   UNL A   1      37.375  21.526  25.089  1.00  0.00     0.161 C 
ENDBRANCH  13  14
ENDBRANCH  10  13
ENDBRANCH   7  10
ENDBRANCH   4   7
ENDBRANCH   2   3
ENDBRANCH   1   2
BRANCH   1  19
ATOM     19  C   UNL A   1      32.153  29.137  27.108  1.00  0.00     0.023 C 
BRANCH  19  20
ATOM     20  C   UNL A   1      33.530  29.785  27.101  1.00  0.00     0.116 C 
BRANCH  20  21
ATOM     21  N   UNL A   1      33.661  30.940  27.981  1.00  0.00    -0.352 N 
ATOM     22  C   UNL A   1      34.749  31.294  28.749  1.00  0.00     0.251 C 
ATOM     23  H   UNL A   1      32.881  31.538  28.031  1.00  0.00     0.163 HD
ATOM     24  O   UNL A   1      34.733  32.295  29.456  1.00  0.00    -0.269 OA
BRANCH  22  25
ATOM     25  C   UNL A   1      35.915  30.389  28.756  1.00  0.00     0.039 A 
ATOM     26  C   UNL A   1      36.760  30.385  27.644  1.00  0.00     0.014 A 
ATOM     27  C   UNL A   1      36.255  29.695  29.918  1.00  0.00     0.014 A 
ATOM     28  C   UNL A   1      38.011  29.778  27.741  1.00  0.00     0.010 A 
ATOM     29  C   UNL A   1      37.530  29.156  30.037  1.00  0.00     0.010 A 
ATOM     30  C   UNL A   1      38.430  29.220  28.960  1.00  0.00    -0.014 A 
BRANCH  30  31
ATOM     31  C   UNL A   1      39.824  28.755  29.157  1.00  0.00     0.031 A 
ATOM     32  C   UNL A   1      40.860  29.691  29.707  1.00  0.00     0.074 A 
ATOM     33  C   UNL A   1      40.177  27.519  28.750  1.00  0.00     0.049 A 
ATOM     34  N   UNL A   1      42.146  29.501  29.854  1.00  0.00    -0.248 NA
ATOM     35  C   UNL A   1      40.392  31.022  30.121  1.00  0.00     0.031 C 
ATOM     36  C   UNL A   1      39.275  26.527  28.160  1.00  0.00     0.029 A 
ATOM     37  N   UNL A   1      41.397  26.890  28.761  1.00  0.00    -0.354 N 
ATOM     38  C   UNL A   1      42.644  30.695  30.358  1.00  0.00     0.074 A 
ATOM     39  C   UNL A   1      41.530  31.615  30.450  1.00  0.00     0.031 C 
ATOM     40  C   UNL A   1      39.966  25.405  27.896  1.00  0.00     0.029 A 
ATOM     41  C   UNL A   1      41.364  25.613  28.256  1.00  0.00     0.049 A 
ATOM     42  H   UNL A   1      42.218  27.314  29.100  1.00  0.00     0.167 HD
ATOM     43  C   UNL A   1      43.911  30.995  30.728  1.00  0.00     0.031 A 
ATOM     44  C   UNL A   1      42.351  24.713  28.092  1.00  0.00     0.031 A 
ATOM     45  C   UNL A   1      45.016  30.079  30.649  1.00  0.00     0.049 A 
ATOM     46  C   UNL A   1      43.753  25.077  28.490  1.00  0.00     0.074 A 
ATOM     47  C   UNL A   1      46.326  30.272  31.054  1.00  0.00     0.029 A 
ATOM     48  N   UNL A   1      44.941  28.797  30.130  1.00  0.00    -0.354 N 
ATOM     49  N   UNL A   1      44.197  26.191  29.017  1.00  0.00    -0.248 NA
ATOM     50  C   UNL A   1      44.789  24.057  28.270  1.00  0.00     0.031 C 
ATOM     51  C   UNL A   1      47.052  29.117  30.743  1.00  0.00     0.029 A 
ATOM     52  C   UNL A   1      46.185  28.193  30.182  1.00  0.00     0.049 A 
ATOM     53  H   UNL A   1      44.124  28.377  29.776  1.00  0.00     0.167 HD
ATOM     54  C   UNL A   1      45.559  26.000  29.211  1.00  0.00     0.074 A 
ATOM     55  C   UNL A   1      45.866  24.660  28.757  1.00  0.00     0.031 C 
ATOM     56  C   UNL A   1      46.472  26.860  29.724  1.00  0.00     0.031 A 
BRANCH  43  57
ATOM     57  C   UNL A   1      44.159  32.381  31.248  1.00  0.00    -0.014 A 
ATOM     58  C   UNL A   1      44.505  33.428  30.379  1.00  0.00     0.009 A 
ATOM     59  C   UNL A   1      44.039  32.645  32.620  1.00  0.00     0.009 A 
ATOM     60  C   UNL A   1      44.766  34.704  30.881  1.00  0.00     0.001 A 
ATOM     61  C   UNL A   1      44.276  33.929  33.115  1.00  0.00     0.001 A 
ATOM     62  C   UNL A   1      44.649  34.954  32.247  1.00  0.00     0.000 A 
ENDBRANCH  43  57
BRANCH  44  63
ATOM     63  C   UNL A   1      42.049  23.368  27.540  1.00  0.00    -0.014 A 
ATOM     64  C   UNL A   1      41.531  22.364  28.372  1.00  0.00     0.009 A 
ATOM     65  C   UNL A   1      42.277  23.078  26.186  1.00  0.00     0.009 A 
ATOM     66  C   UNL A   1      41.266  21.090  27.864  1.00  0.00     0.001 A 
ATOM     67  C   UNL A   1      41.990  21.810  25.676  1.00  0.00     0.001 A 
ATOM     68  C   UNL A   1      41.491  20.816  26.517  1.00  0.00     0.000 A 
ENDBRANCH  44  63
BRANCH  56  69
ATOM     69  C   UNL A   1      47.884  26.366  29.841  1.00  0.00    -0.014 A 
ATOM     70  C   UNL A   1      48.792  26.509  28.782  1.00  0.00     0.009 A 
ATOM     71  C   UNL A   1      48.322  25.795  31.046  1.00  0.00     0.009 A 
ATOM     72  C   UNL A   1      50.109  26.066  28.920  1.00  0.00     0.001 A 
ATOM     73  C   UNL A   1      49.645  25.373  31.187  1.00  0.00     0.001 A 
ATOM     74  C   UNL A   1      50.535  25.504  30.122  1.00  0.00     0.000 A 
ENDBRANCH  56  69
ENDBRANCH  30  31
ENDBRANCH  22  25
ENDBRANCH  20  21
ENDBRANCH  19  20
ENDBRANCH   1  19
TORSDOF 14
ENDMDL
MODEL 2
REMARK VINA RESULT:      -9.7      3.120      7.982
REMARK SMILES CC(C)([NH2+]C[C@@H]1CCCO1)C(=O)NCCCCNC(=O)c1ccc(-c2c3nc(c(-c4ccccc4)c4ccc([nH]4)c(-c4ccccc4)c4nc(c(-c5ccccc5)c5ccc2[nH]5)C=C4)C=C3)cc1
REMARK SMILES IDX 15 1 14 2 13 3 11 4 12 5 2 7 1 8 3 9 4 10 5 13 6 14 7 15
REMARK SMILES IDX 10 16 8 17 9 18 16 19 17 20 18 21 19 22 20 24 21 25 22 26
REMARK SMILES IDX 68 27 23 28 67 29 24 30 25 31 26 32 61 33 27 34 66 35 60 36
REMARK SMILES IDX 62 37 28 38 65 39 59 40 58 41 29 43 51 44 36 45 50 46 37 47
REMARK SMILES IDX 40 48 49 49 63 50 38 51 39 52 48 54 64 55 41 56 30 57 31 58
REMARK SMILES IDX 35 59 32 60 34 61 33 62 52 63 53 64 57 65 54 66 56 67 55 68
REMARK SMILES IDX 42 69 43 70 47 71 44 72 46 73 45 74
REMARK H PARENT 13 6 4 11 4 12 18 23 62 42 40 53
REMARK Flexibility Score: inf
ROOT
ATOM      1  C   UNL A   1      31.897  29.437  25.664  1.00  0.00     0.023 C 
ENDROOT
BRANCH   1   2
ATOM      2  C   UNL A   1      32.943  29.368  24.542  1.00  0.00     0.116 C 
BRANCH   2   3
ATOM      3  N   UNL A   1      33.501  28.040  24.439  1.00  0.00    -0.351 N 
ATOM      4  C   UNL A   1      33.053  26.841  23.990  1.00  0.00     0.280 C 
ATOM      5  O   UNL A   1      33.850  25.924  24.252  1.00  0.00    -0.268 OA
ATOM      6  H   UNL A   1      34.426  27.995  24.774  1.00  0.00     0.163 HD
BRANCH   4   7
ATOM      7  C   UNL A   1      31.800  26.561  23.078  1.00  0.00     0.169 C 
ATOM      8  C   UNL A   1      30.638  26.286  24.091  1.00  0.00     0.090 C 
ATOM      9  C   UNL A   1      31.977  25.267  22.283  1.00  0.00     0.090 C 
BRANCH   7  10
ATOM     10  N   UNL A   1      31.210  27.658  22.281  1.00  0.00    -0.332 N 
ATOM     11  H   UNL A   1      31.104  27.275  21.341  1.00  0.00     0.347 HD
ATOM     12  H   UNL A   1      31.867  28.404  22.509  1.00  0.00     0.347 HD
BRANCH  10  13
ATOM     13  C   UNL A   1      29.968  28.342  22.548  1.00  0.00     0.293 C 
BRANCH  13  14
ATOM     14  C   UNL A   1      29.790  29.872  22.370  1.00  0.00     0.173 C 
ATOM     15  C   UNL A   1      29.050  30.690  23.417  1.00  0.00     0.040 C 
ATOM     16  O   UNL A   1      29.068  30.081  21.127  1.00  0.00    -0.372 OA
ATOM     17  C   UNL A   1      28.422  31.797  22.602  1.00  0.00     0.031 C 
ATOM     18  C   UNL A   1      28.053  31.071  21.332  1.00  0.00     0.161 C 
ENDBRANCH  13  14
ENDBRANCH  10  13
ENDBRANCH   7  10
ENDBRANCH   4   7
ENDBRANCH   2   3
ENDBRANCH   1   2
BRANCH   1  19
ATOM     19  C   UNL A   1      32.468  29.651  27.061  1.00  0.00     0.023 C 
BRANCH  19  20
ATOM     20  C   UNL A   1      33.359  30.878  27.196  1.00  0.00     0.116 C 
BRANCH  20  21
ATOM     21  N   UNL A   1      32.638  32.135  27.361  1.00  0.00    -0.352 N 
ATOM     22  C   UNL A   1      33.075  33.278  27.994  1.00  0.00     0.251 C 
ATOM     23  H   UNL A   1      31.734  32.170  26.975  1.00  0.00     0.163 HD
ATOM     24  O   UNL A   1      32.367  34.276  28.070  1.00  0.00    -0.269 OA
BRANCH  22  25
ATOM     25  C   UNL A   1      34.398  33.246  28.646  1.00  0.00     0.039 A 
ATOM     26  C   UNL A   1      34.504  32.657  29.908  1.00  0.00     0.014 A 
ATOM     27  C   UNL A   1      35.537  33.635  27.938  1.00  0.00     0.014 A 
ATOM     28  C   UNL A   1      35.766  32.346  30.411  1.00  0.00     0.010 A 
ATOM     29  C   UNL A   1      36.789  33.258  28.409  1.00  0.00     0.010 A 
ATOM     30  C   UNL A   1      36.912  32.582  29.634  1.00  0.00    -0.014 A 
BRANCH  30  31
ATOM     31  C   UNL A   1      38.243  32.077  30.048  1.00  0.00     0.031 A 
ATOM     32  C   UNL A   1      38.741  30.757  29.536  1.00  0.00     0.074 A 
ATOM     33  C   UNL A   1      38.960  32.762  30.961  1.00  0.00     0.049 A 
ATOM     34  N   UNL A   1      39.826  30.103  29.862  1.00  0.00    -0.248 NA
ATOM     35  C   UNL A   1      37.894  30.073  28.548  1.00  0.00     0.031 C 
ATOM     36  C   UNL A   1      38.569  34.037  31.570  1.00  0.00     0.029 A 
ATOM     37  N   UNL A   1      40.168  32.474  31.546  1.00  0.00    -0.354 N 
ATOM     38  C   UNL A   1      39.782  28.922  29.135  1.00  0.00     0.074 A 
ATOM     39  C   UNL A   1      38.544  28.930  28.386  1.00  0.00     0.031 C 
ATOM     40  C   UNL A   1      39.534  34.434  32.416  1.00  0.00     0.029 A 
ATOM     41  C   UNL A   1      40.587  33.426  32.444  1.00  0.00     0.049 A 
ATOM     42  H   UNL A   1      40.686  31.663  31.340  1.00  0.00     0.167 HD
ATOM     43  C   UNL A   1      40.698  27.927  29.081  1.00  0.00     0.031 A 
ATOM     44  C   UNL A   1      41.691  33.476  33.212  1.00  0.00     0.031 A 
ATOM     45  C   UNL A   1      41.935  27.923  29.815  1.00  0.00     0.049 A 
ATOM     46  C   UNL A   1      42.682  32.349  33.151  1.00  0.00     0.074 A 
ATOM     47  C   UNL A   1      42.953  26.986  29.782  1.00  0.00     0.029 A 
ATOM     48  N   UNL A   1      42.319  28.904  30.715  1.00  0.00    -0.354 N 
ATOM     49  N   UNL A   1      42.653  31.265  32.416  1.00  0.00    -0.248 NA
ATOM     50  C   UNL A   1      43.859  32.455  34.026  1.00  0.00     0.031 C 
ATOM     51  C   UNL A   1      43.938  27.382  30.693  1.00  0.00     0.029 A 
ATOM     52  C   UNL A   1      43.550  28.585  31.261  1.00  0.00     0.049 A 
ATOM     53  H   UNL A   1      41.795  29.708  30.933  1.00  0.00     0.167 HD
ATOM     54  C   UNL A   1      43.815  30.569  32.724  1.00  0.00     0.074 A 
ATOM     55  C   UNL A   1      44.533  31.359  33.702  1.00  0.00     0.031 C 
ATOM     56  C   UNL A   1      44.248  29.382  32.235  1.00  0.00     0.031 A 
BRANCH  43  57
ATOM     57  C   UNL A   1      40.383  26.758  28.195  1.00  0.00    -0.014 A 
ATOM     58  C   UNL A   1      40.873  26.693  26.880  1.00  0.00     0.009 A 
ATOM     59  C   UNL A   1      39.593  25.705  28.680  1.00  0.00     0.009 A 
ATOM     60  C   UNL A   1      40.543  25.616  26.056  1.00  0.00     0.001 A 
ATOM     61  C   UNL A   1      39.287  24.617  27.861  1.00  0.00     0.001 A 
ATOM     62  C   UNL A   1      39.753  24.578  26.548  1.00  0.00     0.000 A 
ENDBRANCH  43  57
BRANCH  44  63
ATOM     63  C   UNL A   1      41.932  34.645  34.095  1.00  0.00    -0.014 A 
ATOM     64  C   UNL A   1      42.608  35.773  33.604  1.00  0.00     0.009 A 
ATOM     65  C   UNL A   1      41.493  34.642  35.428  1.00  0.00     0.009 A 
ATOM     66  C   UNL A   1      42.858  36.866  34.437  1.00  0.00     0.001 A 
ATOM     67  C   UNL A   1      41.725  35.747  36.251  1.00  0.00     0.001 A 
ATOM     68  C   UNL A   1      42.412  36.854  35.757  1.00  0.00     0.000 A 
ENDBRANCH  44  63
BRANCH  56  69
ATOM     69  C   UNL A   1      45.571  28.879  32.735  1.00  0.00    -0.014 A 
ATOM     70  C   UNL A   1      45.649  28.032  33.849  1.00  0.00     0.009 A 
ATOM     71  C   UNL A   1      46.747  29.222  32.052  1.00  0.00     0.009 A 
ATOM     72  C   UNL A   1      46.887  27.554  34.284  1.00  0.00     0.001 A 
ATOM     73  C   UNL A   1      47.980  28.725  32.475  1.00  0.00     0.001 A 
ATOM     74  C   UNL A   1      48.049  27.897  33.595  1.00  0.00     0.000 A 
ENDBRANCH  56  69
ENDBRANCH  30  31
ENDBRANCH  22  25
ENDBRANCH  20  21
ENDBRANCH  19  20
ENDBRANCH   1  19
TORSDOF 14
ENDMDL
MODEL 3
REMARK VINA RESULT:      -9.6      2.281      7.411
REMARK SMILES CC(C)([NH2+]C[C@@H]1CCCO1)C(=O)NCCCCNC(=O)c1ccc(-c2c3nc(c(-c4ccccc4)c4ccc([nH]4)c(-c4ccccc4)c4nc(c(-c5ccccc5)c5ccc2[nH]5)C=C4)C=C3)cc1
REMARK SMILES IDX 15 1 14 2 13 3 11 4 12 5 2 7 1 8 3 9 4 10 5 13 6 14 7 15
REMARK SMILES IDX 10 16 8 17 9 18 16 19 17 20 18 21 19 22 20 24 21 25 22 26
REMARK SMILES IDX 68 27 23 28 67 29 24 30 25 31 26 32 61 33 27 34 66 35 60 36
REMARK SMILES IDX 62 37 28 38 65 39 59 40 58 41 29 43 51 44 36 45 50 46 37 47
REMARK SMILES IDX 40 48 49 49 63 50 38 51 39 52 48 54 64 55 41 56 30 57 31 58
REMARK SMILES IDX 35 59 32 60 34 61 33 62 52 63 53 64 57 65 54 66 56 67 55 68
REMARK SMILES IDX 42 69 43 70 47 71 44 72 46 73 45 74
REMARK H PARENT 13 6 4 11 4 12 18 23 62 42 40 53
REMARK Flexibility Score: inf
ROOT
ATOM      1  C   UNL A   1      36.967  23.374  24.739  1.00  0.00     0.023 C 
ENDROOT
BRANCH   1   2
ATOM      2  C   UNL A   1      35.581  23.713  25.306  1.00  0.00     0.116 C 
BRANCH   2   3
ATOM      3  N   UNL A   1      35.157  22.717  26.260  1.00  0.00    -0.351 N 
ATOM      4  C   UNL A   1      34.028  21.991  26.454  1.00  0.00     0.280 C 
ATOM      5  O   UNL A   1      34.065  21.358  27.524  1.00  0.00    -0.268 OA
ATOM      6  H   UNL A   1      35.853  22.515  26.928  1.00  0.00     0.163 HD
BRANCH   4   7
ATOM      7  C   UNL A   1      32.847  21.755  25.438  1.00  0.00     0.169 C 
ATOM      8  C   UNL A   1      33.544  21.723  24.036  1.00  0.00     0.090 C 
ATOM      9  C   UNL A   1      31.900  22.955  25.408  1.00  0.00     0.090 C 
BRANCH   7  10
ATOM     10  N   UNL A   1      32.141  20.455  25.419  1.00  0.00    -0.332 N 
ATOM     11  H   UNL A   1      31.179  20.681  25.166  1.00  0.00     0.347 HD
ATOM     12  H   UNL A   1      32.409  20.105  26.339  1.00  0.00     0.347 HD
BRANCH  10  13
ATOM     13  C   UNL A   1      32.479  19.306  24.616  1.00  0.00     0.293 C 
BRANCH  13  14
ATOM     14  C   UNL A   1      33.380  18.153  25.127  1.00  0.00     0.173 C 
ATOM     15  C   UNL A   1      34.383  17.487  24.198  1.00  0.00     0.040 C 
ATOM     16  O   UNL A   1      32.504  17.089  25.585  1.00  0.00    -0.372 OA
ATOM     17  C   UNL A   1      34.439  16.069  24.717  1.00  0.00     0.031 C 
ATOM     18  C   UNL A   1      33.003  15.832  25.113  1.00  0.00     0.161 C 
ENDBRANCH  13  14
ENDBRANCH  10  13
ENDBRANCH   7  10
ENDBRANCH   4   7
ENDBRANCH   2   3
ENDBRANCH   1   2
BRANCH   1  19
ATOM     19  C   UNL A   1      37.375  21.912  24.874  1.00  0.00     0.023 C 
BRANCH  19  20
ATOM     20  C   UNL A   1      38.549  21.669  25.812  1.00  0.00     0.116 C 
BRANCH  20  21
ATOM     21  N   UNL A   1      39.245  20.405  25.596  1.00  0.00    -0.352 N 
ATOM     22  C   UNL A   1      40.535  20.084  25.956  1.00  0.00     0.251 C 
ATOM     23  H   UNL A   1      38.732  19.700  25.141  1.00  0.00     0.163 HD
ATOM     24  O   UNL A   1      41.010  18.979  25.713  1.00  0.00    -0.269 OA
BRANCH  22  25
ATOM     25  C   UNL A   1      41.363  21.134  26.580  1.00  0.00     0.039 A 
ATOM     26  C   UNL A   1      42.006  22.055  25.749  1.00  0.00     0.014 A 
ATOM     27  C   UNL A   1      41.351  21.303  27.965  1.00  0.00     0.014 A 
ATOM     28  C   UNL A   1      42.539  23.216  26.305  1.00  0.00     0.010 A 
ATOM     29  C   UNL A   1      41.817  22.496  28.506  1.00  0.00     0.010 A 
ATOM     30  C   UNL A   1      42.386  23.476  27.677  1.00  0.00    -0.014 A 
BRANCH  30  31
ATOM     31  C   UNL A   1      42.755  24.789  28.260  1.00  0.00     0.031 A 
ATOM     32  C   UNL A   1      41.711  25.849  28.447  1.00  0.00     0.074 A 
ATOM     33  C   UNL A   1      44.048  25.057  28.531  1.00  0.00     0.049 A 
ATOM     34  N   UNL A   1      41.856  27.088  28.842  1.00  0.00    -0.248 NA
ATOM     35  C   UNL A   1      40.326  25.476  28.121  1.00  0.00     0.031 C 
ATOM     36  C   UNL A   1      45.166  24.126  28.354  1.00  0.00     0.029 A 
ATOM     37  N   UNL A   1      44.642  26.200  29.004  1.00  0.00    -0.354 N 
ATOM     38  C   UNL A   1      40.587  27.647  28.794  1.00  0.00     0.074 A 
ATOM     39  C   UNL A   1      39.692  26.627  28.289  1.00  0.00     0.031 C 
ATOM     40  C   UNL A   1      46.303  24.726  28.744  1.00  0.00     0.029 A 
ATOM     41  C   UNL A   1      46.003  26.093  29.156  1.00  0.00     0.049 A 
ATOM     42  H   UNL A   1      44.139  27.019  29.216  1.00  0.00     0.167 HD
ATOM     43  C   UNL A   1      40.196  28.892  29.153  1.00  0.00     0.031 A 
ATOM     44  C   UNL A   1      46.909  26.997  29.570  1.00  0.00     0.031 A 
ATOM     45  C   UNL A   1      41.080  29.903  29.666  1.00  0.00     0.049 A 
ATOM     46  C   UNL A   1      46.454  28.378  29.942  1.00  0.00     0.074 A 
ATOM     47  C   UNL A   1      40.768  31.176  30.111  1.00  0.00     0.029 A 
ATOM     48  N   UNL A   1      42.451  29.754  29.801  1.00  0.00    -0.354 N 
ATOM     49  N   UNL A   1      45.242  28.875  29.944  1.00  0.00    -0.248 NA
ATOM     50  C   UNL A   1      47.495  29.325  30.371  1.00  0.00     0.031 C 
ATOM     51  C   UNL A   1      41.959  31.812  30.480  1.00  0.00     0.029 A 
ATOM     52  C   UNL A   1      43.004  30.920  30.302  1.00  0.00     0.049 A 
ATOM     53  H   UNL A   1      42.957  28.941  29.575  1.00  0.00     0.167 HD
ATOM     54  C   UNL A   1      45.369  30.183  30.392  1.00  0.00     0.074 A 
ATOM     55  C   UNL A   1      46.775  30.400  30.664  1.00  0.00     0.031 C 
ATOM     56  C   UNL A   1      44.405  31.119  30.565  1.00  0.00     0.031 A 
BRANCH  43  57
ATOM     57  C   UNL A   1      38.740  29.221  28.995  1.00  0.00    -0.014 A 
ATOM     58  C   UNL A   1      38.235  29.695  27.773  1.00  0.00     0.009 A 
ATOM     59  C   UNL A   1      37.862  29.051  30.075  1.00  0.00     0.009 A 
ATOM     60  C   UNL A   1      36.885  30.029  27.649  1.00  0.00     0.001 A 
ATOM     61  C   UNL A   1      36.508  29.362  29.940  1.00  0.00     0.001 A 
ATOM     62  C   UNL A   1      36.023  29.861  28.731  1.00  0.00     0.000 A 
ENDBRANCH  43  57
BRANCH  44  63
ATOM     63  C   UNL A   1      48.343  26.621  29.674  1.00  0.00    -0.014 A 
ATOM     64  C   UNL A   1      49.218  26.876  28.607  1.00  0.00     0.009 A 
ATOM     65  C   UNL A   1      48.842  26.005  30.831  1.00  0.00     0.009 A 
ATOM     66  C   UNL A   1      50.562  26.504  28.690  1.00  0.00     0.001 A 
ATOM     67  C   UNL A   1      50.192  25.654  30.919  1.00  0.00     0.001 A 
ATOM     68  C   UNL A   1      51.048  25.898  29.846  1.00  0.00     0.000 A 
ENDBRANCH  44  63
BRANCH  56  69
ATOM     69  C   UNL A   1      44.836  32.455  31.094  1.00  0.00    -0.014 A 
ATOM     70  C   UNL A   1      45.184  33.500  30.226  1.00  0.00     0.009 A 
ATOM     71  C   UNL A   1      44.850  32.682  32.479  1.00  0.00     0.009 A 
ATOM     72  C   UNL A   1      45.558  34.744  30.738  1.00  0.00     0.001 A 
ATOM     73  C   UNL A   1      45.203  33.932  32.986  1.00  0.00     0.001 A 
ATOM     74  C   UNL A   1      45.564  34.960  32.116  1.00  0.00     0.000 A 
ENDBRANCH  56  69
ENDBRANCH  30  31
ENDBRANCH  22  25
ENDBRANCH  20  21
ENDBRANCH  19  20
ENDBRANCH   1  19
TORSDOF 14
ENDMDL
