MODEL 1
REMARK VINA RESULT:     -10.9      0.000      0.000
REMARK SMILES CCO[C@H](CCn1nnc2c(cnn2C)c1=O)C(=O)NCCCCNC(=O)c1ccc(-c2c3nc(c(-c4ccccc4)c4ccc([nH]4)c(-c4ccccc4)c4nc(c(-c5ccccc5)c5ccc2[nH]5)C=C4)C=C3)cc1
REMARK SMILES IDX 22 1 21 2 20 3 18 4 19 5 4 7 3 8 2 9 1 10 5 11 6 12 7 13
REMARK SMILES IDX 8 14 16 15 9 16 11 17 17 18 10 19 12 20 14 21 13 22 15 23
REMARK SMILES IDX 23 24 24 25 25 26 26 27 27 29 28 30 29 31 75 32 30 33 74 34
REMARK SMILES IDX 31 35 32 36 33 37 68 38 34 39 73 40 67 41 69 42 35 43 72 44
REMARK SMILES IDX 66 45 65 46 36 48 58 49 43 50 57 51 44 52 47 53 56 54 70 55
REMARK SMILES IDX 45 56 46 57 55 59 71 60 48 61 37 62 38 63 42 64 39 65 41 66
REMARK SMILES IDX 40 67 59 68 60 69 64 70 61 71 63 72 62 73 49 74 50 75 54 76
REMARK SMILES IDX 51 77 53 78 52 79
REMARK H PARENT 20 6 25 28 69 47 47 58
REMARK Flexibility Score: inf
ROOT
ATOM      1  C   UNL A   1      43.969  30.989  27.547  1.00  0.00     0.023 C 
ENDROOT
BRANCH   1   2
ATOM      2  C   UNL A   1      44.051  29.463  27.389  1.00  0.00     0.116 C 
BRANCH   2   3
ATOM      3  N   UNL A   1      43.687  29.007  26.071  1.00  0.00    -0.354 N 
ATOM      4  C   UNL A   1      42.966  27.940  25.650  1.00  0.00     0.249 C 
ATOM      5  O   UNL A   1      42.431  28.106  24.542  1.00  0.00    -0.272 OA
ATOM      6  H   UNL A   1      44.025  29.575  25.342  1.00  0.00     0.163 HD
BRANCH   4   7
ATOM      7  C   UNL A   1      42.750  26.584  26.409  1.00  0.00     0.208 C 
BRANCH   7   8
ATOM      8  O   UNL A   1      41.926  26.608  27.582  1.00  0.00    -0.369 OA
BRANCH   8   9
ATOM      9  C   UNL A   1      42.387  26.028  28.781  1.00  0.00     0.158 C 
ATOM     10  C   UNL A   1      42.702  27.080  29.826  1.00  0.00     0.035 C 
ENDBRANCH   8   9
ENDBRANCH   7   8
BRANCH   7  11
ATOM     11  C   UNL A   1      43.604  25.302  26.195  1.00  0.00     0.066 C 
BRANCH  11  12
ATOM     12  C   UNL A   1      43.592  24.411  24.947  1.00  0.00     0.153 C 
BRANCH  12  13
ATOM     13  N   UNL A   1      43.663  22.960  25.121  1.00  0.00    -0.210 N 
ATOM     14  N   UNL A   1      42.712  22.402  25.953  1.00  0.00    -0.062 NA
ATOM     15  C   UNL A   1      44.736  22.216  24.580  1.00  0.00     0.280 A 
ATOM     16  N   UNL A   1      42.643  21.170  26.172  1.00  0.00    -0.111 NA
ATOM     17  C   UNL A   1      44.621  20.811  24.840  1.00  0.00     0.108 A 
ATOM     18  O   UNL A   1      45.666  22.693  23.939  1.00  0.00    -0.267 OA
ATOM     19  C   UNL A   1      43.568  20.393  25.595  1.00  0.00     0.187 A 
ATOM     20  C   UNL A   1      45.316  19.645  24.506  1.00  0.00     0.151 A 
ATOM     21  N   UNL A   1      43.614  19.032  25.615  1.00  0.00    -0.249 N 
ATOM     22  N   UNL A   1      44.699  18.545  24.967  1.00  0.00    -0.179 NA
ATOM     23  C   UNL A   1      42.621  18.133  26.150  1.00  0.00     0.176 C 
ENDBRANCH  12  13
ENDBRANCH  11  12
ENDBRANCH   7  11
ENDBRANCH   4   7
ENDBRANCH   2   3
ENDBRANCH   1   2
BRANCH   1  24
ATOM     24  C   UNL A   1      44.769  31.781  26.508  1.00  0.00     0.023 C 
BRANCH  24  25
ATOM     25  C   UNL A   1      44.172  33.150  26.216  1.00  0.00     0.116 C 
BRANCH  25  26
ATOM     26  N   UNL A   1      45.092  34.272  26.399  1.00  0.00    -0.352 N 
ATOM     27  C   UNL A   1      44.899  35.366  27.243  1.00  0.00     0.251 C 
ATOM     28  H   UNL A   1      45.928  34.253  25.877  1.00  0.00     0.163 HD
ATOM     29  O   UNL A   1      45.522  36.391  27.134  1.00  0.00    -0.269 OA
BRANCH  27  30
ATOM     30  C   UNL A   1      43.872  35.205  28.296  1.00  0.00     0.039 A 
ATOM     31  C   UNL A   1      42.619  35.813  28.206  1.00  0.00     0.014 A 
ATOM     32  C   UNL A   1      44.148  34.272  29.286  1.00  0.00     0.014 A 
ATOM     33  C   UNL A   1      41.604  35.386  29.066  1.00  0.00     0.010 A 
ATOM     34  C   UNL A   1      43.105  33.730  29.994  1.00  0.00     0.010 A 
ATOM     35  C   UNL A   1      41.839  34.316  29.944  1.00  0.00    -0.014 A 
BRANCH  35  36
ATOM     36  C   UNL A   1      40.775  33.769  30.788  1.00  0.00     0.031 A 
ATOM     37  C   UNL A   1      41.057  33.584  32.245  1.00  0.00     0.074 A 
ATOM     38  C   UNL A   1      39.507  33.606  30.350  1.00  0.00     0.049 A 
ATOM     39  N   UNL A   1      41.066  32.473  32.911  1.00  0.00    -0.248 NA
ATOM     40  C   UNL A   1      41.385  34.764  33.059  1.00  0.00     0.031 C 
ATOM     41  C   UNL A   1      38.909  33.989  29.061  1.00  0.00     0.029 A 
ATOM     42  N   UNL A   1      38.432  33.148  31.045  1.00  0.00    -0.354 N 
ATOM     43  C   UNL A   1      41.264  32.809  34.250  1.00  0.00     0.074 A 
ATOM     44  C   UNL A   1      41.544  34.225  34.270  1.00  0.00     0.031 C 
ATOM     45  C   UNL A   1      37.564  33.999  29.168  1.00  0.00     0.029 A 
ATOM     46  C   UNL A   1      37.213  33.411  30.443  1.00  0.00     0.049 A 
ATOM     47  H   UNL A   1      38.513  32.672  31.903  1.00  0.00     0.167 HD
ATOM     48  C   UNL A   1      41.028  31.933  35.268  1.00  0.00     0.031 A 
ATOM     49  C   UNL A   1      35.988  33.158  30.953  1.00  0.00     0.031 A 
ATOM     50  C   UNL A   1      40.868  30.583  34.803  1.00  0.00     0.049 A 
ATOM     51  C   UNL A   1      36.149  32.103  31.976  1.00  0.00     0.074 A 
ATOM     52  C   UNL A   1      41.668  29.675  34.138  1.00  0.00     0.029 A 
ATOM     53  N   UNL A   1      39.588  30.097  34.691  1.00  0.00    -0.354 N 
ATOM     54  N   UNL A   1      36.522  30.887  31.696  1.00  0.00    -0.248 NA
ATOM     55  C   UNL A   1      36.295  32.499  33.364  1.00  0.00     0.031 C 
ATOM     56  C   UNL A   1      40.784  29.002  33.242  1.00  0.00     0.029 A 
ATOM     57  C   UNL A   1      39.500  29.510  33.454  1.00  0.00     0.049 A 
ATOM     58  H   UNL A   1      38.873  30.159  35.365  1.00  0.00     0.167 HD
ATOM     59  C   UNL A   1      37.333  30.512  32.755  1.00  0.00     0.074 A 
ATOM     60  C   UNL A   1      37.059  31.494  33.803  1.00  0.00     0.031 C 
ATOM     61  C   UNL A   1      38.346  29.610  32.589  1.00  0.00     0.031 A 
BRANCH  48  62
ATOM     62  C   UNL A   1      40.627  32.329  36.666  1.00  0.00    -0.014 A 
ATOM     63  C   UNL A   1      39.333  32.834  36.897  1.00  0.00     0.009 A 
ATOM     64  C   UNL A   1      41.559  32.470  37.711  1.00  0.00     0.009 A 
ATOM     65  C   UNL A   1      39.003  33.486  38.093  1.00  0.00     0.001 A 
ATOM     66  C   UNL A   1      41.222  33.086  38.922  1.00  0.00     0.001 A 
ATOM     67  C   UNL A   1      39.951  33.614  39.104  1.00  0.00     0.000 A 
ENDBRANCH  48  62
BRANCH  49  68
ATOM     68  C   UNL A   1      34.763  33.966  30.813  1.00  0.00    -0.014 A 
ATOM     69  C   UNL A   1      34.387  34.866  31.818  1.00  0.00     0.009 A 
ATOM     70  C   UNL A   1      34.121  34.061  29.562  1.00  0.00     0.009 A 
ATOM     71  C   UNL A   1      33.445  35.868  31.564  1.00  0.00     0.001 A 
ATOM     72  C   UNL A   1      33.178  35.060  29.311  1.00  0.00     0.001 A 
ATOM     73  C   UNL A   1      32.855  35.977  30.305  1.00  0.00     0.000 A 
ENDBRANCH  49  68
BRANCH  61  74
ATOM     74  C   UNL A   1      38.434  28.880  31.269  1.00  0.00    -0.014 A 
ATOM     75  C   UNL A   1      38.548  29.552  30.038  1.00  0.00     0.009 A 
ATOM     76  C   UNL A   1      38.577  27.486  31.276  1.00  0.00     0.009 A 
ATOM     77  C   UNL A   1      38.771  28.848  28.849  1.00  0.00     0.001 A 
ATOM     78  C   UNL A   1      38.818  26.784  30.092  1.00  0.00     0.001 A 
ATOM     79  C   UNL A   1      38.911  27.464  28.879  1.00  0.00     0.000 A 
ENDBRANCH  61  74
ENDBRANCH  35  36
ENDBRANCH  27  30
ENDBRANCH  25  26
ENDBRANCH  24  25
ENDBRANCH   1  24
TORSDOF 16
ENDMDL
MODEL 2
REMARK VINA RESULT:     -10.8      5.968     11.000
REMARK SMILES CCO[C@H](CCn1nnc2c(cnn2C)c1=O)C(=O)NCCCCNC(=O)c1ccc(-c2c3nc(c(-c4ccccc4)c4ccc([nH]4)c(-c4ccccc4)c4nc(c(-c5ccccc5)c5ccc2[nH]5)C=C4)C=C3)cc1
REMARK SMILES IDX 22 1 21 2 20 3 18 4 19 5 4 7 3 8 2 9 1 10 5 11 6 12 7 13
REMARK SMILES IDX 8 14 16 15 9 16 11 17 17 18 10 19 12 20 14 21 13 22 15 23
REMARK SMILES IDX 23 24 24 25 25 26 26 27 27 29 28 30 29 31 75 32 30 33 74 34
REMARK SMILES IDX 31 35 32 36 33 37 68 38 34 39 73 40 67 41 69 42 35 43 72 44
REMARK SMILES IDX 66 45 65 46 36 48 58 49 43 50 57 51 44 52 47 53 56 54 70 55
REMARK SMILES IDX 45 56 46 57 55 59 71 60 48 61 37 62 38 63 42 64 39 65 41 66
REMARK SMILES IDX 40 67 59 68 60 69 64 70 61 71 63 72 62 73 49 74 50 75 54 76
REMARK SMILES IDX 51 77 53 78 52 79
REMARK H PARENT 20 6 25 28 69 47 47 58
REMARK Flexibility Score: inf
ROOT
ATOM      1  C   UNL A   1      34.202  29.332  26.637  1.00  0.00     0.023 C 
ENDROOT
BRANCH   1   2
ATOM      2  C   UNL A   1      33.343  28.714  25.524  1.00  0.00     0.116 C 
BRANCH   2   3
ATOM      3  N   UNL A   1      34.031  28.614  24.262  1.00  0.00    -0.354 N 
ATOM      4  C   UNL A   1      33.953  27.707  23.258  1.00  0.00     0.249 C 
ATOM      5  O   UNL A   1      34.283  28.161  22.150  1.00  0.00    -0.272 OA
ATOM      6  H   UNL A   1      34.678  29.338  24.099  1.00  0.00     0.163 HD
BRANCH   4   7
ATOM      7  C   UNL A   1      33.496  26.210  23.367  1.00  0.00     0.208 C 
BRANCH   7   8
ATOM      8  O   UNL A   1      34.285  25.228  22.683  1.00  0.00    -0.369 OA
BRANCH   8   9
ATOM      9  C   UNL A   1      34.061  23.856  22.917  1.00  0.00     0.158 C 
ATOM     10  C   UNL A   1      35.284  23.185  23.511  1.00  0.00     0.035 C 
ENDBRANCH   8   9
ENDBRANCH   7   8
BRANCH   7  11
ATOM     11  C   UNL A   1      32.099  25.744  23.868  1.00  0.00     0.066 C 
BRANCH  11  12
ATOM     12  C   UNL A   1      30.809  25.718  23.040  1.00  0.00     0.153 C 
BRANCH  12  13
ATOM     13  N   UNL A   1      30.078  26.970  22.841  1.00  0.00    -0.210 N 
ATOM     14  N   UNL A   1      30.720  27.933  22.088  1.00  0.00    -0.062 NA
ATOM     15  C   UNL A   1      28.857  27.211  23.511  1.00  0.00     0.280 A 
ATOM     16  N   UNL A   1      30.200  29.042  21.822  1.00  0.00    -0.111 NA
ATOM     17  C   UNL A   1      28.284  28.481  23.175  1.00  0.00     0.108 A 
ATOM     18  O   UNL A   1      28.316  26.428  24.284  1.00  0.00    -0.267 OA
ATOM     19  C   UNL A   1      28.989  29.289  22.335  1.00  0.00     0.187 A 
ATOM     20  C   UNL A   1      27.113  29.189  23.464  1.00  0.00     0.151 A 
ATOM     21  N   UNL A   1      28.206  30.375  22.086  1.00  0.00    -0.249 N 
ATOM     22  N   UNL A   1      27.050  30.348  22.791  1.00  0.00    -0.179 NA
ATOM     23  C   UNL A   1      28.451  31.428  21.131  1.00  0.00     0.176 C 
ENDBRANCH  12  13
ENDBRANCH  11  12
ENDBRANCH   7  11
ENDBRANCH   4   7
ENDBRANCH   2   3
ENDBRANCH   1   2
BRANCH   1  24
ATOM     24  C   UNL A   1      33.568  30.539  27.336  1.00  0.00     0.023 C 
BRANCH  24  25
ATOM     25  C   UNL A   1      34.561  31.661  27.599  1.00  0.00     0.116 C 
BRANCH  25  26
ATOM     26  N   UNL A   1      34.491  32.240  28.940  1.00  0.00    -0.352 N 
ATOM     27  C   UNL A   1      35.255  31.858  30.044  1.00  0.00     0.251 C 
ATOM     28  H   UNL A   1      33.844  32.970  29.077  1.00  0.00     0.163 HD
ATOM     29  O   UNL A   1      34.955  32.144  31.175  1.00  0.00    -0.269 OA
BRANCH  27  30
ATOM     30  C   UNL A   1      36.472  31.068  29.752  1.00  0.00     0.039 A 
ATOM     31  C   UNL A   1      37.713  31.672  29.548  1.00  0.00     0.014 A 
ATOM     32  C   UNL A   1      36.355  29.690  29.874  1.00  0.00     0.014 A 
ATOM     33  C   UNL A   1      38.860  30.873  29.576  1.00  0.00     0.010 A 
ATOM     34  C   UNL A   1      37.488  28.947  30.087  1.00  0.00     0.010 A 
ATOM     35  C   UNL A   1      38.749  29.507  29.880  1.00  0.00    -0.014 A 
BRANCH  35  36
ATOM     36  C   UNL A   1      39.932  28.655  30.022  1.00  0.00     0.031 A 
ATOM     37  C   UNL A   1      40.506  28.468  31.389  1.00  0.00     0.074 A 
ATOM     38  C   UNL A   1      40.407  27.892  29.012  1.00  0.00     0.049 A 
ATOM     39  N   UNL A   1      41.683  28.811  31.804  1.00  0.00    -0.248 NA
ATOM     40  C   UNL A   1      39.672  27.843  32.427  1.00  0.00     0.031 C 
ATOM     41  C   UNL A   1      39.849  27.671  27.669  1.00  0.00     0.029 A 
ATOM     42  N   UNL A   1      41.465  27.039  29.033  1.00  0.00    -0.354 N 
ATOM     43  C   UNL A   1      41.805  28.333  33.109  1.00  0.00     0.074 A 
ATOM     44  C   UNL A   1      40.504  27.824  33.472  1.00  0.00     0.031 C 
ATOM     45  C   UNL A   1      40.404  26.570  27.121  1.00  0.00     0.029 A 
ATOM     46  C   UNL A   1      41.500  26.153  27.968  1.00  0.00     0.049 A 
ATOM     47  H   UNL A   1      42.146  27.049  29.743  1.00  0.00     0.167 HD
ATOM     48  C   UNL A   1      43.007  28.242  33.747  1.00  0.00     0.031 A 
ATOM     49  C   UNL A   1      42.376  25.140  27.788  1.00  0.00     0.031 A 
ATOM     50  C   UNL A   1      44.045  28.966  33.065  1.00  0.00     0.049 A 
ATOM     51  C   UNL A   1      43.576  25.453  28.592  1.00  0.00     0.074 A 
ATOM     52  C   UNL A   1      44.261  30.289  32.736  1.00  0.00     0.029 A 
ATOM     53  N   UNL A   1      44.915  28.244  32.285  1.00  0.00    -0.354 N 
ATOM     54  N   UNL A   1      44.360  26.463  28.346  1.00  0.00    -0.248 NA
ATOM     55  C   UNL A   1      43.686  24.885  29.924  1.00  0.00     0.031 C 
ATOM     56  C   UNL A   1      44.852  30.246  31.437  1.00  0.00     0.029 A 
ATOM     57  C   UNL A   1      45.000  28.902  31.084  1.00  0.00     0.049 A 
ATOM     58  H   UNL A   1      45.386  27.417  32.536  1.00  0.00     0.167 HD
ATOM     59  C   UNL A   1      44.744  26.926  29.594  1.00  0.00     0.074 A 
ATOM     60  C   UNL A   1      44.398  25.847  30.518  1.00  0.00     0.031 C 
ATOM     61  C   UNL A   1      45.052  28.242  29.798  1.00  0.00     0.031 A 
BRANCH  48  62
ATOM     62  C   UNL A   1      43.334  27.241  34.825  1.00  0.00    -0.014 A 
ATOM     63  C   UNL A   1      43.443  25.878  34.491  1.00  0.00     0.009 A 
ATOM     64  C   UNL A   1      43.277  27.556  36.195  1.00  0.00     0.009 A 
ATOM     65  C   UNL A   1      43.449  24.880  35.477  1.00  0.00     0.001 A 
ATOM     66  C   UNL A   1      43.322  26.566  37.183  1.00  0.00     0.001 A 
ATOM     67  C   UNL A   1      43.385  25.226  36.823  1.00  0.00     0.000 A 
ENDBRANCH  48  62
BRANCH  49  68
ATOM     68  C   UNL A   1      42.119  23.813  27.203  1.00  0.00    -0.014 A 
ATOM     69  C   UNL A   1      42.987  23.281  26.241  1.00  0.00     0.009 A 
ATOM     70  C   UNL A   1      41.181  22.948  27.801  1.00  0.00     0.009 A 
ATOM     71  C   UNL A   1      42.960  21.917  25.930  1.00  0.00     0.001 A 
ATOM     72  C   UNL A   1      41.153  21.587  27.488  1.00  0.00     0.001 A 
ATOM     73  C   UNL A   1      42.057  21.068  26.567  1.00  0.00     0.000 A 
ENDBRANCH  49  68
BRANCH  61  74
ATOM     74  C   UNL A   1      45.159  29.140  28.588  1.00  0.00    -0.014 A 
ATOM     75  C   UNL A   1      44.053  29.828  28.056  1.00  0.00     0.009 A 
ATOM     76  C   UNL A   1      46.430  29.435  28.077  1.00  0.00     0.009 A 
ATOM     77  C   UNL A   1      44.212  30.761  27.025  1.00  0.00     0.001 A 
ATOM     78  C   UNL A   1      46.591  30.381  27.059  1.00  0.00     0.001 A 
ATOM     79  C   UNL A   1      45.483  31.040  26.532  1.00  0.00     0.000 A 
ENDBRANCH  61  74
ENDBRANCH  35  36
ENDBRANCH  27  30
ENDBRANCH  25  26
ENDBRANCH  24  25
ENDBRANCH   1  24
TORSDOF 16
ENDMDL
MODEL 3
REMARK VINA RESULT:     -10.4      6.085     11.567
REMARK SMILES CCO[C@H](CCn1nnc2c(cnn2C)c1=O)C(=O)NCCCCNC(=O)c1ccc(-c2c3nc(c(-c4ccccc4)c4ccc([nH]4)c(-c4ccccc4)c4nc(c(-c5ccccc5)c5ccc2[nH]5)C=C4)C=C3)cc1
REMARK SMILES IDX 22 1 21 2 20 3 18 4 19 5 4 7 3 8 2 9 1 10 5 11 6 12 7 13
REMARK SMILES IDX 8 14 16 15 9 16 11 17 17 18 10 19 12 20 14 21 13 22 15 23
REMARK SMILES IDX 23 24 24 25 25 26 26 27 27 29 28 30 29 31 75 32 30 33 74 34
REMARK SMILES IDX 31 35 32 36 33 37 68 38 34 39 73 40 67 41 69 42 35 43 72 44
REMARK SMILES IDX 66 45 65 46 36 48 58 49 43 50 57 51 44 52 47 53 56 54 70 55
REMARK SMILES IDX 45 56 46 57 55 59 71 60 48 61 37 62 38 63 42 64 39 65 41 66
REMARK SMILES IDX 40 67 59 68 60 69 64 70 61 71 63 72 62 73 49 74 50 75 54 76
REMARK SMILES IDX 51 77 53 78 52 79
REMARK H PARENT 20 6 25 28 69 47 47 58
REMARK Flexibility Score: inf
ROOT
ATOM      1  C   UNL A   1      45.023  40.295  26.330  1.00  0.00     0.023 C 
ENDROOT
BRANCH   1   2
ATOM      2  C   UNL A   1      44.372  41.683  26.414  1.00  0.00     0.116 C 
BRANCH   2   3
ATOM      3  N   UNL A   1      42.962  41.670  26.117  1.00  0.00    -0.354 N 
ATOM      4  C   UNL A   1      42.283  41.734  24.946  1.00  0.00     0.249 C 
ATOM      5  O   UNL A   1      41.158  41.211  24.993  1.00  0.00    -0.272 OA
ATOM      6  H   UNL A   1      42.385  41.602  26.912  1.00  0.00     0.163 HD
BRANCH   4   7
ATOM      7  C   UNL A   1      42.775  42.372  23.600  1.00  0.00     0.208 C 
BRANCH   7   8
ATOM      8  O   UNL A   1      43.995  43.124  23.633  1.00  0.00    -0.369 OA
BRANCH   8   9
ATOM      9  C   UNL A   1      43.969  44.495  23.958  1.00  0.00     0.158 C 
ATOM     10  C   UNL A   1      44.889  45.299  23.060  1.00  0.00     0.035 C 
ENDBRANCH   8   9
ENDBRANCH   7   8
BRANCH   7  11
ATOM     11  C   UNL A   1      41.900  42.536  22.325  1.00  0.00     0.066 C 
BRANCH  11  12
ATOM     12  C   UNL A   1      42.339  42.234  20.887  1.00  0.00     0.153 C 
BRANCH  12  13
ATOM     13  N   UNL A   1      42.617  43.355  19.988  1.00  0.00    -0.210 N 
ATOM     14  N   UNL A   1      43.902  43.860  20.029  1.00  0.00    -0.062 NA
ATOM     15  C   UNL A   1      41.580  43.963  19.245  1.00  0.00     0.280 A 
ATOM     16  N   UNL A   1      44.282  44.804  19.297  1.00  0.00    -0.111 NA
ATOM     17  C   UNL A   1      42.050  45.030  18.411  1.00  0.00     0.108 A 
ATOM     18  O   UNL A   1      40.403  43.621  19.275  1.00  0.00    -0.267 OA
ATOM     19  C   UNL A   1      43.372  45.352  18.482  1.00  0.00     0.187 A 
ATOM     20  C   UNL A   1      41.515  45.899  17.455  1.00  0.00     0.151 A 
ATOM     21  N   UNL A   1      43.596  46.307  17.538  1.00  0.00    -0.249 N 
ATOM     22  N   UNL A   1      42.459  46.680  16.904  1.00  0.00    -0.179 NA
ATOM     23  C   UNL A   1      44.869  46.846  17.126  1.00  0.00     0.176 C 
ENDBRANCH  12  13
ENDBRANCH  11  12
ENDBRANCH   7  11
ENDBRANCH   4   7
ENDBRANCH   2   3
ENDBRANCH   1   2
BRANCH   1  24
ATOM     24  C   UNL A   1      44.175  39.158  26.909  1.00  0.00     0.023 C 
BRANCH  24  25
ATOM     25  C   UNL A   1      45.010  37.980  27.392  1.00  0.00     0.116 C 
BRANCH  25  26
ATOM     26  N   UNL A   1      45.037  36.834  26.483  1.00  0.00    -0.352 N 
ATOM     27  C   UNL A   1      44.555  35.554  26.758  1.00  0.00     0.251 C 
ATOM     28  H   UNL A   1      45.433  36.981  25.593  1.00  0.00     0.163 HD
ATOM     29  O   UNL A   1      44.868  34.587  26.111  1.00  0.00    -0.269 OA
BRANCH  27  30
ATOM     30  C   UNL A   1      43.624  35.439  27.902  1.00  0.00     0.039 A 
ATOM     31  C   UNL A   1      42.361  36.032  27.890  1.00  0.00     0.014 A 
ATOM     32  C   UNL A   1      43.996  34.561  28.912  1.00  0.00     0.014 A 
ATOM     33  C   UNL A   1      41.429  35.643  28.856  1.00  0.00     0.010 A 
ATOM     34  C   UNL A   1      43.024  34.049  29.733  1.00  0.00     0.010 A 
ATOM     35  C   UNL A   1      41.752  34.621  29.763  1.00  0.00    -0.014 A 
BRANCH  35  36
ATOM     36  C   UNL A   1      40.771  34.111  30.724  1.00  0.00     0.031 A 
ATOM     37  C   UNL A   1      41.172  34.022  32.161  1.00  0.00     0.074 A 
ATOM     38  C   UNL A   1      39.475  33.899  30.400  1.00  0.00     0.049 A 
ATOM     39  N   UNL A   1      41.259  32.957  32.891  1.00  0.00    -0.248 NA
ATOM     40  C   UNL A   1      41.538  35.257  32.871  1.00  0.00     0.031 C 
ATOM     41  C   UNL A   1      38.768  34.191  29.144  1.00  0.00     0.029 A 
ATOM     42  N   UNL A   1      38.470  33.468  31.208  1.00  0.00    -0.354 N 
ATOM     43  C   UNL A   1      41.557  33.380  34.186  1.00  0.00     0.074 A 
ATOM     44  C   UNL A   1      41.806  34.798  34.097  1.00  0.00     0.031 C 
ATOM     45  C   UNL A   1      37.436  34.184  29.359  1.00  0.00     0.029 A 
ATOM     46  C   UNL A   1      37.201  33.671  30.692  1.00  0.00     0.049 A 
ATOM     47  H   UNL A   1      38.630  33.048  32.084  1.00  0.00     0.167 HD
ATOM     48  C   UNL A   1      41.422  32.566  35.272  1.00  0.00     0.031 A 
ATOM     49  C   UNL A   1      36.027  33.431  31.315  1.00  0.00     0.031 A 
ATOM     50  C   UNL A   1      41.255  31.187  34.905  1.00  0.00     0.049 A 
ATOM     51  C   UNL A   1      36.293  32.445  32.383  1.00  0.00     0.074 A 
ATOM     52  C   UNL A   1      42.019  30.252  34.235  1.00  0.00     0.029 A 
ATOM     53  N   UNL A   1      39.981  30.673  34.928  1.00  0.00    -0.354 N 
ATOM     54  N   UNL A   1      36.668  31.221  32.149  1.00  0.00    -0.248 NA
ATOM     55  C   UNL A   1      36.540  32.930  33.728  1.00  0.00     0.031 C 
ATOM     56  C   UNL A   1      41.081  29.509  33.456  1.00  0.00     0.029 A 
ATOM     57  C   UNL A   1      39.807  30.008  33.741  1.00  0.00     0.049 A 
ATOM     58  H   UNL A   1      39.321  30.764  35.653  1.00  0.00     0.167 HD
ATOM     59  C   UNL A   1      37.569  30.926  33.160  1.00  0.00     0.074 A 
ATOM     60  C   UNL A   1      37.359  31.968  34.164  1.00  0.00     0.031 C 
ATOM     61  C   UNL A   1      38.585  30.034  32.967  1.00  0.00     0.031 A 
BRANCH  48  62
ATOM     62  C   UNL A   1      41.126  33.042  36.671  1.00  0.00    -0.014 A 
ATOM     63  C   UNL A   1      42.007  32.705  37.717  1.00  0.00     0.009 A 
ATOM     64  C   UNL A   1      39.880  33.581  37.041  1.00  0.00     0.009 A 
ATOM     65  C   UNL A   1      41.641  32.858  39.061  1.00  0.00     0.001 A 
ATOM     66  C   UNL A   1      39.526  33.772  38.381  1.00  0.00     0.001 A 
ATOM     67  C   UNL A   1      40.398  33.389  39.392  1.00  0.00     0.000 A 
ENDBRANCH  48  62
BRANCH  49  68
ATOM     68  C   UNL A   1      34.777  34.207  31.225  1.00  0.00    -0.014 A 
ATOM     69  C   UNL A   1      34.459  35.155  32.205  1.00  0.00     0.009 A 
ATOM     70  C   UNL A   1      34.041  34.221  30.024  1.00  0.00     0.009 A 
ATOM     71  C   UNL A   1      33.478  36.125  31.970  1.00  0.00     0.001 A 
ATOM     72  C   UNL A   1      33.059  35.187  29.791  1.00  0.00     0.001 A 
ATOM     73  C   UNL A   1      32.792  36.152  30.756  1.00  0.00     0.000 A 
ENDBRANCH  49  68
BRANCH  61  74
ATOM     74  C   UNL A   1      38.583  29.223  31.692  1.00  0.00    -0.014 A 
ATOM     75  C   UNL A   1      38.856  29.791  30.434  1.00  0.00     0.009 A 
ATOM     76  C   UNL A   1      38.474  27.829  31.778  1.00  0.00     0.009 A 
ATOM     77  C   UNL A   1      38.987  28.991  29.294  1.00  0.00     0.001 A 
ATOM     78  C   UNL A   1      38.623  27.027  30.643  1.00  0.00     0.001 A 
ATOM     79  C   UNL A   1      38.875  27.607  29.401  1.00  0.00     0.000 A 
ENDBRANCH  61  74
ENDBRANCH  35  36
ENDBRANCH  27  30
ENDBRANCH  25  26
ENDBRANCH  24  25
ENDBRANCH   1  24
TORSDOF 16
ENDMDL
