MODEL 1
REMARK VINA RESULT:     -12.2      0.000      0.000
REMARK SMILES O=C(NCCCCNC(=O)c1ccc2nc(-n3cccc3)sc2c1)c1ccc(-c2c3nc(c(-c4ccccc4)c4ccc([nH]4)c(-c4ccccc4)c4nc(c(-c5ccccc5)c5ccc2[nH]5)C=C4)C=C3)cc1
REMARK SMILES IDX 5 1 4 2 3 3 1 4 2 5 25 7 26 8 72 9 27 10 71 11 28 12 29 13
REMARK SMILES IDX 30 14 65 15 31 16 70 17 64 18 66 19 32 20 69 21 63 22 62 23
REMARK SMILES IDX 33 25 55 26 40 27 54 28 41 29 44 30 53 31 67 32 42 33 43 34
REMARK SMILES IDX 52 36 68 37 45 38 34 39 35 40 39 41 36 42 38 43 37 44 56 45
REMARK SMILES IDX 57 46 61 47 58 48 60 49 59 50 46 51 47 52 51 53 48 54 50 55
REMARK SMILES IDX 49 56 6 57 7 58 8 59 9 60 10 62 11 63 12 64 24 65 13 66
REMARK SMILES IDX 23 67 14 68 22 69 15 70 16 71 17 72 18 73 21 74 19 75 20 76
REMARK H PARENT 3 6 66 24 44 35 8 61
REMARK Flexibility Score: inf
ROOT
ATOM      1  C   UNL A   1      33.308  30.096  26.603  1.00  0.00     0.023 C 
ENDROOT
BRANCH   1   2
ATOM      2  C   UNL A   1      34.298  29.604  27.659  1.00  0.00     0.116 C 
BRANCH   2   3
ATOM      3  N   UNL A   1      34.768  30.608  28.595  1.00  0.00    -0.352 N 
ATOM      4  O   UNL A   1      36.090  31.946  29.789  1.00  0.00    -0.269 OA
ATOM      5  C   UNL A   1      36.005  30.935  29.090  1.00  0.00     0.251 C 
ATOM      6  H   UNL A   1      34.045  31.175  28.951  1.00  0.00     0.163 HD
BRANCH   5   7
ATOM      7  C   UNL A   1      37.221  30.105  28.886  1.00  0.00     0.039 A 
ATOM      8  C   UNL A   1      37.820  29.340  29.885  1.00  0.00     0.014 A 
ATOM      9  C   UNL A   1      37.779  30.088  27.594  1.00  0.00     0.014 A 
ATOM     10  C   UNL A   1      39.006  28.663  29.640  1.00  0.00     0.010 A 
ATOM     11  C   UNL A   1      38.945  29.369  27.324  1.00  0.00     0.010 A 
ATOM     12  C   UNL A   1      39.563  28.663  28.358  1.00  0.00    -0.014 A 
BRANCH  12  13
ATOM     13  C   UNL A   1      40.681  27.722  28.130  1.00  0.00     0.031 A 
ATOM     14  C   UNL A   1      42.022  28.445  28.011  1.00  0.00     0.074 A 
ATOM     15  C   UNL A   1      40.378  26.409  27.925  1.00  0.00     0.049 A 
ATOM     16  N   UNL A   1      43.069  28.133  27.313  1.00  0.00    -0.248 NA
ATOM     17  C   UNL A   1      42.194  29.751  28.703  1.00  0.00     0.031 C 
ATOM     18  C   UNL A   1      39.028  25.835  28.084  1.00  0.00     0.029 A 
ATOM     19  N   UNL A   1      41.111  25.308  27.528  1.00  0.00    -0.354 N 
ATOM     20  C   UNL A   1      44.061  29.096  27.588  1.00  0.00     0.074 A 
ATOM     21  C   UNL A   1      43.432  30.117  28.370  1.00  0.00     0.031 C 
ATOM     22  C   UNL A   1      39.022  24.531  27.732  1.00  0.00     0.029 A 
ATOM     23  C   UNL A   1      40.352  24.133  27.311  1.00  0.00     0.049 A 
ATOM     24  H   UNL A   1      42.087  25.338  27.405  1.00  0.00     0.167 HD
ATOM     25  C   UNL A   1      45.375  28.936  27.261  1.00  0.00     0.031 A 
ATOM     26  C   UNL A   1      40.743  22.931  26.790  1.00  0.00     0.031 A 
ATOM     27  C   UNL A   1      45.570  27.754  26.492  1.00  0.00     0.049 A 
ATOM     28  C   UNL A   1      42.195  23.004  26.563  1.00  0.00     0.074 A 
ATOM     29  C   UNL A   1      45.267  27.393  25.207  1.00  0.00     0.029 A 
ATOM     30  N   UNL A   1      45.928  26.629  27.192  1.00  0.00    -0.354 N 
ATOM     31  N   UNL A   1      43.097  22.953  27.492  1.00  0.00    -0.248 NA
ATOM     32  C   UNL A   1      42.696  23.160  25.190  1.00  0.00     0.031 C 
ATOM     33  C   UNL A   1      45.033  25.999  25.285  1.00  0.00     0.029 A 
ATOM     34  C   UNL A   1      45.296  25.571  26.589  1.00  0.00     0.049 A 
ATOM     35  H   UNL A   1      46.525  26.589  27.974  1.00  0.00     0.167 HD
ATOM     36  C   UNL A   1      44.205  23.460  26.857  1.00  0.00     0.074 A 
ATOM     37  C   UNL A   1      44.000  23.251  25.443  1.00  0.00     0.031 C 
ATOM     38  C   UNL A   1      44.896  24.472  27.438  1.00  0.00     0.031 A 
BRANCH  25  39
ATOM     39  C   UNL A   1      46.599  29.632  27.794  1.00  0.00    -0.014 A 
ATOM     40  C   UNL A   1      46.683  29.825  29.194  1.00  0.00     0.009 A 
ATOM     41  C   UNL A   1      47.490  30.360  26.998  1.00  0.00     0.009 A 
ATOM     42  C   UNL A   1      47.528  30.782  29.761  1.00  0.00     0.001 A 
ATOM     43  C   UNL A   1      48.370  31.292  27.569  1.00  0.00     0.001 A 
ATOM     44  C   UNL A   1      48.363  31.528  28.942  1.00  0.00     0.000 A 
ENDBRANCH  25  39
BRANCH  26  45
ATOM     45  C   UNL A   1      40.080  21.648  26.353  1.00  0.00    -0.014 A 
ATOM     46  C   UNL A   1      38.824  21.540  25.754  1.00  0.00     0.009 A 
ATOM     47  C   UNL A   1      40.788  20.424  26.509  1.00  0.00     0.009 A 
ATOM     48  C   UNL A   1      38.347  20.303  25.271  1.00  0.00     0.001 A 
ATOM     49  C   UNL A   1      40.340  19.203  26.001  1.00  0.00     0.001 A 
ATOM     50  C   UNL A   1      39.114  19.145  25.367  1.00  0.00     0.000 A 
ENDBRANCH  26  45
BRANCH  38  51
ATOM     51  C   UNL A   1      44.716  24.573  28.945  1.00  0.00    -0.014 A 
ATOM     52  C   UNL A   1      44.592  23.415  29.726  1.00  0.00     0.009 A 
ATOM     53  C   UNL A   1      44.538  25.807  29.593  1.00  0.00     0.009 A 
ATOM     54  C   UNL A   1      44.284  23.493  31.092  1.00  0.00     0.001 A 
ATOM     55  C   UNL A   1      44.237  25.892  30.958  1.00  0.00     0.001 A 
ATOM     56  C   UNL A   1      44.105  24.730  31.708  1.00  0.00     0.000 A 
ENDBRANCH  38  51
ENDBRANCH  12  13
ENDBRANCH   5   7
ENDBRANCH   2   3
ENDBRANCH   1   2
BRANCH   1  57
ATOM     57  C   UNL A   1      31.956  29.383  26.596  1.00  0.00     0.023 C 
BRANCH  57  58
ATOM     58  C   UNL A   1      31.485  28.910  25.226  1.00  0.00     0.116 C 
BRANCH  58  59
ATOM     59  N   UNL A   1      32.446  29.220  24.181  1.00  0.00    -0.352 N 
ATOM     60  C   UNL A   1      33.440  28.426  23.661  1.00  0.00     0.251 C 
ATOM     61  H   UNL A   1      32.376  30.122  23.793  1.00  0.00     0.163 HD
ATOM     62  O   UNL A   1      34.255  28.867  22.875  1.00  0.00    -0.269 OA
BRANCH  60  63
ATOM     63  C   UNL A   1      33.512  27.018  24.091  1.00  0.00     0.041 A 
ATOM     64  C   UNL A   1      34.034  26.696  25.344  1.00  0.00     0.016 A 
ATOM     65  C   UNL A   1      33.053  26.039  23.204  1.00  0.00     0.035 A 
ATOM     66  C   UNL A   1      34.107  25.360  25.742  1.00  0.00     0.031 A 
ATOM     67  C   UNL A   1      33.174  24.702  23.608  1.00  0.00     0.057 A 
ATOM     68  C   UNL A   1      33.660  24.345  24.871  1.00  0.00     0.084 A 
ATOM     69  S   UNL A   1      32.818  23.268  22.721  1.00  0.00    -0.096 S 
ATOM     70  N   UNL A   1      33.646  22.990  25.148  1.00  0.00    -0.219 NA
ATOM     71  C   UNL A   1      33.250  22.340  24.078  1.00  0.00     0.194 A 
BRANCH  71  72
ATOM     72  N   UNL A   1      33.133  20.945  24.034  1.00  0.00    -0.300 N 
ATOM     73  C   UNL A   1      32.340  20.168  23.203  1.00  0.00     0.093 A 
ATOM     74  C   UNL A   1      33.834  20.070  24.850  1.00  0.00     0.093 A 
ATOM     75  C   UNL A   1      32.531  18.837  23.504  1.00  0.00     0.020 A 
ATOM     76  C   UNL A   1      33.455  18.777  24.568  1.00  0.00     0.020 A 
ENDBRANCH  71  72
ENDBRANCH  60  63
ENDBRANCH  58  59
ENDBRANCH  57  58
ENDBRANCH   1  57
TORSDOF 12
ENDMDL
MODEL 2
REMARK VINA RESULT:     -12.1      4.563      7.727
REMARK SMILES O=C(NCCCCNC(=O)c1ccc2nc(-n3cccc3)sc2c1)c1ccc(-c2c3nc(c(-c4ccccc4)c4ccc([nH]4)c(-c4ccccc4)c4nc(c(-c5ccccc5)c5ccc2[nH]5)C=C4)C=C3)cc1
REMARK SMILES IDX 5 1 4 2 3 3 1 4 2 5 25 7 26 8 72 9 27 10 71 11 28 12 29 13
REMARK SMILES IDX 30 14 65 15 31 16 70 17 64 18 66 19 32 20 69 21 63 22 62 23
REMARK SMILES IDX 33 25 55 26 40 27 54 28 41 29 44 30 53 31 67 32 42 33 43 34
REMARK SMILES IDX 52 36 68 37 45 38 34 39 35 40 39 41 36 42 38 43 37 44 56 45
REMARK SMILES IDX 57 46 61 47 58 48 60 49 59 50 46 51 47 52 51 53 48 54 50 55
REMARK SMILES IDX 49 56 6 57 7 58 8 59 9 60 10 62 11 63 12 64 24 65 13 66
REMARK SMILES IDX 23 67 14 68 22 69 15 70 16 71 17 72 18 73 21 74 19 75 20 76
REMARK H PARENT 3 6 66 24 44 35 8 61
REMARK Flexibility Score: inf
ROOT
ATOM      1  C   UNL A   1      35.094  34.550  28.480  1.00  0.00     0.023 C 
ENDROOT
BRANCH   1   2
ATOM      2  C   UNL A   1      34.614  33.305  29.226  1.00  0.00     0.116 C 
BRANCH   2   3
ATOM      3  N   UNL A   1      34.001  32.278  28.405  1.00  0.00    -0.352 N 
ATOM      4  O   UNL A   1      33.552  30.329  27.425  1.00  0.00    -0.269 OA
ATOM      5  C   UNL A   1      34.372  31.008  28.045  1.00  0.00     0.251 C 
ATOM      6  H   UNL A   1      33.134  32.552  28.025  1.00  0.00     0.163 HD
BRANCH   5   7
ATOM      7  C   UNL A   1      35.721  30.439  28.301  1.00  0.00     0.039 A 
ATOM      8  C   UNL A   1      36.742  30.396  27.353  1.00  0.00     0.014 A 
ATOM      9  C   UNL A   1      35.972  29.932  29.590  1.00  0.00     0.014 A 
ATOM     10  C   UNL A   1      37.946  29.766  27.640  1.00  0.00     0.010 A 
ATOM     11  C   UNL A   1      37.198  29.342  29.904  1.00  0.00     0.010 A 
ATOM     12  C   UNL A   1      38.182  29.252  28.918  1.00  0.00    -0.014 A 
BRANCH  12  13
ATOM     13  C   UNL A   1      39.568  28.825  29.206  1.00  0.00     0.031 A 
ATOM     14  C   UNL A   1      40.441  29.989  29.670  1.00  0.00     0.074 A 
ATOM     15  C   UNL A   1      39.915  27.541  28.903  1.00  0.00     0.049 A 
ATOM     16  N   UNL A   1      41.711  30.190  29.496  1.00  0.00    -0.248 NA
ATOM     17  C   UNL A   1      39.793  31.140  30.354  1.00  0.00     0.031 C 
ATOM     18  C   UNL A   1      38.960  26.504  28.471  1.00  0.00     0.029 A 
ATOM     19  N   UNL A   1      41.114  26.855  28.874  1.00  0.00    -0.354 N 
ATOM     20  C   UNL A   1      42.042  31.387  30.161  1.00  0.00     0.074 A 
ATOM     21  C   UNL A   1      40.807  31.974  30.584  1.00  0.00     0.031 C 
ATOM     22  C   UNL A   1      39.609  25.359  28.164  1.00  0.00     0.029 A 
ATOM     23  C   UNL A   1      41.035  25.538  28.363  1.00  0.00     0.049 A 
ATOM     24  H   UNL A   1      41.959  27.253  29.185  1.00  0.00     0.167 HD
ATOM     25  C   UNL A   1      43.324  31.764  30.436  1.00  0.00     0.031 A 
ATOM     26  C   UNL A   1      42.039  24.656  28.074  1.00  0.00     0.031 A 
ATOM     27  C   UNL A   1      44.258  30.871  29.839  1.00  0.00     0.049 A 
ATOM     28  C   UNL A   1      43.303  25.281  28.496  1.00  0.00     0.074 A 
ATOM     29  C   UNL A   1      44.665  30.637  28.553  1.00  0.00     0.029 A 
ATOM     30  N   UNL A   1      44.716  29.852  30.637  1.00  0.00    -0.354 N 
ATOM     31  N   UNL A   1      43.698  25.409  29.724  1.00  0.00    -0.248 NA
ATOM     32  C   UNL A   1      44.207  25.826  27.473  1.00  0.00     0.031 C 
ATOM     33  C   UNL A   1      44.988  29.259  28.537  1.00  0.00     0.029 A 
ATOM     34  C   UNL A   1      44.850  28.750  29.831  1.00  0.00     0.049 A 
ATOM     35  H   UNL A   1      44.912  29.903  31.600  1.00  0.00     0.167 HD
ATOM     36  C   UNL A   1      44.670  26.375  29.624  1.00  0.00     0.074 A 
ATOM     37  C   UNL A   1      45.149  26.336  28.262  1.00  0.00     0.031 C 
ATOM     38  C   UNL A   1      44.611  27.460  30.436  1.00  0.00     0.031 A 
BRANCH  25  39
ATOM     39  C   UNL A   1      43.850  32.757  31.438  1.00  0.00    -0.014 A 
ATOM     40  C   UNL A   1      43.703  32.441  32.810  1.00  0.00     0.009 A 
ATOM     41  C   UNL A   1      44.183  34.079  31.123  1.00  0.00     0.009 A 
ATOM     42  C   UNL A   1      43.768  33.417  33.807  1.00  0.00     0.001 A 
ATOM     43  C   UNL A   1      44.291  35.053  32.127  1.00  0.00     0.001 A 
ATOM     44  C   UNL A   1      44.048  34.730  33.461  1.00  0.00     0.000 A 
ENDBRANCH  25  39
BRANCH  26  45
ATOM     45  C   UNL A   1      42.170  23.310  27.408  1.00  0.00    -0.014 A 
ATOM     46  C   UNL A   1      42.916  23.035  26.260  1.00  0.00     0.009 A 
ATOM     47  C   UNL A   1      41.526  22.188  27.999  1.00  0.00     0.009 A 
ATOM     48  C   UNL A   1      43.072  21.715  25.787  1.00  0.00     0.001 A 
ATOM     49  C   UNL A   1      41.705  20.874  27.559  1.00  0.00     0.001 A 
ATOM     50  C   UNL A   1      42.493  20.635  26.451  1.00  0.00     0.000 A 
ENDBRANCH  26  45
BRANCH  38  51
ATOM     51  C   UNL A   1      43.818  27.245  31.716  1.00  0.00    -0.014 A 
ATOM     52  C   UNL A   1      42.597  27.904  31.917  1.00  0.00     0.009 A 
ATOM     53  C   UNL A   1      44.326  26.491  32.789  1.00  0.00     0.009 A 
ATOM     54  C   UNL A   1      41.926  27.827  33.145  1.00  0.00     0.001 A 
ATOM     55  C   UNL A   1      43.657  26.406  34.017  1.00  0.00     0.001 A 
ATOM     56  C   UNL A   1      42.456  27.080  34.196  1.00  0.00     0.000 A 
ENDBRANCH  38  51
ENDBRANCH  12  13
ENDBRANCH   5   7
ENDBRANCH   2   3
ENDBRANCH   1   2
BRANCH   1  57
ATOM     57  C   UNL A   1      34.124  35.732  28.496  1.00  0.00     0.023 C 
BRANCH  57  58
ATOM     58  C   UNL A   1      32.924  35.567  29.422  1.00  0.00     0.116 C 
BRANCH  58  59
ATOM     59  N   UNL A   1      32.806  36.667  30.365  1.00  0.00    -0.352 N 
ATOM     60  C   UNL A   1      33.193  36.717  31.683  1.00  0.00     0.251 C 
ATOM     61  H   UNL A   1      32.393  37.487  30.012  1.00  0.00     0.163 HD
ATOM     62  O   UNL A   1      32.913  37.665  32.388  1.00  0.00    -0.269 OA
BRANCH  60  63
ATOM     63  C   UNL A   1      33.947  35.578  32.238  1.00  0.00     0.041 A 
ATOM     64  C   UNL A   1      33.269  34.525  32.853  1.00  0.00     0.016 A 
ATOM     65  C   UNL A   1      35.341  35.603  32.132  1.00  0.00     0.035 A 
ATOM     66  C   UNL A   1      33.990  33.453  33.385  1.00  0.00     0.031 A 
ATOM     67  C   UNL A   1      36.046  34.537  32.709  1.00  0.00     0.057 A 
ATOM     68  C   UNL A   1      35.398  33.448  33.303  1.00  0.00     0.084 A 
ATOM     69  S   UNL A   1      37.749  34.321  32.856  1.00  0.00    -0.096 S 
ATOM     70  N   UNL A   1      36.230  32.441  33.757  1.00  0.00    -0.219 NA
ATOM     71  C   UNL A   1      37.478  32.815  33.596  1.00  0.00     0.194 A 
BRANCH  71  72
ATOM     72  N   UNL A   1      38.567  32.013  33.964  1.00  0.00    -0.300 N 
ATOM     73  C   UNL A   1      38.599  30.644  34.181  1.00  0.00     0.093 A 
ATOM     74  C   UNL A   1      39.855  32.481  34.172  1.00  0.00     0.093 A 
ATOM     75  C   UNL A   1      39.877  30.268  34.532  1.00  0.00     0.020 A 
ATOM     76  C   UNL A   1      40.666  31.437  34.556  1.00  0.00     0.020 A 
ENDBRANCH  71  72
ENDBRANCH  60  63
ENDBRANCH  58  59
ENDBRANCH  57  58
ENDBRANCH   1  57
TORSDOF 12
ENDMDL
MODEL 3
REMARK VINA RESULT:     -11.9      4.359      9.382
REMARK SMILES O=C(NCCCCNC(=O)c1ccc2nc(-n3cccc3)sc2c1)c1ccc(-c2c3nc(c(-c4ccccc4)c4ccc([nH]4)c(-c4ccccc4)c4nc(c(-c5ccccc5)c5ccc2[nH]5)C=C4)C=C3)cc1
REMARK SMILES IDX 5 1 4 2 3 3 1 4 2 5 25 7 26 8 72 9 27 10 71 11 28 12 29 13
REMARK SMILES IDX 30 14 65 15 31 16 70 17 64 18 66 19 32 20 69 21 63 22 62 23
REMARK SMILES IDX 33 25 55 26 40 27 54 28 41 29 44 30 53 31 67 32 42 33 43 34
REMARK SMILES IDX 52 36 68 37 45 38 34 39 35 40 39 41 36 42 38 43 37 44 56 45
REMARK SMILES IDX 57 46 61 47 58 48 60 49 59 50 46 51 47 52 51 53 48 54 50 55
REMARK SMILES IDX 49 56 6 57 7 58 8 59 9 60 10 62 11 63 12 64 24 65 13 66
REMARK SMILES IDX 23 67 14 68 22 69 15 70 16 71 17 72 18 73 21 74 19 75 20 76
REMARK H PARENT 3 6 66 24 44 35 8 61
REMARK Flexibility Score: inf
ROOT
ATOM      1  C   UNL A   1      36.873  23.730  25.123  1.00  0.00     0.023 C 
ENDROOT
BRANCH   1   2
ATOM      2  C   UNL A   1      37.724  24.089  26.342  1.00  0.00     0.116 C 
BRANCH   2   3
ATOM      3  N   UNL A   1      39.155  24.156  26.111  1.00  0.00    -0.352 N 
ATOM      4  O   UNL A   1      41.322  24.620  26.332  1.00  0.00    -0.269 OA
ATOM      5  C   UNL A   1      40.169  24.893  26.667  1.00  0.00     0.251 C 
ATOM      6  H   UNL A   1      39.463  23.543  25.405  1.00  0.00     0.163 HD
BRANCH   5   7
ATOM      7  C   UNL A   1      39.947  26.036  27.592  1.00  0.00     0.039 A 
ATOM      8  C   UNL A   1      39.308  25.928  28.826  1.00  0.00     0.014 A 
ATOM      9  C   UNL A   1      40.434  27.294  27.189  1.00  0.00     0.014 A 
ATOM     10  C   UNL A   1      39.058  27.058  29.593  1.00  0.00     0.010 A 
ATOM     11  C   UNL A   1      40.232  28.429  27.978  1.00  0.00     0.010 A 
ATOM     12  C   UNL A   1      39.531  28.307  29.179  1.00  0.00    -0.014 A 
BRANCH  12  13
ATOM     13  C   UNL A   1      39.437  29.403  30.167  1.00  0.00     0.031 A 
ATOM     14  C   UNL A   1      40.299  29.138  31.400  1.00  0.00     0.074 A 
ATOM     15  C   UNL A   1      38.532  30.395  29.933  1.00  0.00     0.049 A 
ATOM     16  N   UNL A   1      40.108  29.491  32.633  1.00  0.00    -0.248 NA
ATOM     17  C   UNL A   1      41.508  28.283  31.255  1.00  0.00     0.031 C 
ATOM     18  C   UNL A   1      37.765  30.541  28.682  1.00  0.00     0.029 A 
ATOM     19  N   UNL A   1      38.057  31.454  30.682  1.00  0.00    -0.354 N 
ATOM     20  C   UNL A   1      41.219  29.044  33.375  1.00  0.00     0.074 A 
ATOM     21  C   UNL A   1      41.996  28.225  32.495  1.00  0.00     0.031 C 
ATOM     22  C   UNL A   1      36.890  31.565  28.777  1.00  0.00     0.029 A 
ATOM     23  C   UNL A   1      36.999  32.180  30.087  1.00  0.00     0.049 A 
ATOM     24  H   UNL A   1      38.428  31.687  31.565  1.00  0.00     0.167 HD
ATOM     25  C   UNL A   1      41.502  29.477  34.637  1.00  0.00     0.031 A 
ATOM     26  C   UNL A   1      36.226  33.178  30.612  1.00  0.00     0.031 A 
ATOM     27  C   UNL A   1      40.462  30.309  35.138  1.00  0.00     0.049 A 
ATOM     28  C   UNL A   1      36.757  33.482  31.951  1.00  0.00     0.074 A 
ATOM     29  C   UNL A   1      39.182  30.080  35.567  1.00  0.00     0.029 A 
ATOM     30  N   UNL A   1      40.634  31.660  34.970  1.00  0.00    -0.354 N 
ATOM     31  N   UNL A   1      37.851  34.135  32.187  1.00  0.00    -0.248 NA
ATOM     32  C   UNL A   1      36.021  33.014  33.134  1.00  0.00     0.031 C 
ATOM     33  C   UNL A   1      38.486  31.266  35.230  1.00  0.00     0.029 A 
ATOM     34  C   UNL A   1      39.396  32.186  34.701  1.00  0.00     0.049 A 
ATOM     35  H   UNL A   1      41.481  32.157  35.034  1.00  0.00     0.167 HD
ATOM     36  C   UNL A   1      38.116  33.806  33.494  1.00  0.00     0.074 A 
ATOM     37  C   UNL A   1      36.854  33.427  34.087  1.00  0.00     0.031 C 
ATOM     38  C   UNL A   1      39.344  33.332  33.822  1.00  0.00     0.031 A 
BRANCH  25  39
ATOM     39  C   UNL A   1      42.792  29.430  35.413  1.00  0.00    -0.014 A 
ATOM     40  C   UNL A   1      43.759  30.426  35.133  1.00  0.00     0.009 A 
ATOM     41  C   UNL A   1      43.220  28.318  36.146  1.00  0.00     0.009 A 
ATOM     42  C   UNL A   1      45.106  30.266  35.465  1.00  0.00     0.001 A 
ATOM     43  C   UNL A   1      44.565  28.175  36.518  1.00  0.00     0.001 A 
ATOM     44  C   UNL A   1      45.512  29.128  36.147  1.00  0.00     0.000 A 
ENDBRANCH  25  39
BRANCH  26  45
ATOM     45  C   UNL A   1      34.995  33.950  30.209  1.00  0.00    -0.014 A 
ATOM     46  C   UNL A   1      34.306  34.865  31.008  1.00  0.00     0.009 A 
ATOM     47  C   UNL A   1      34.489  33.792  28.889  1.00  0.00     0.009 A 
ATOM     48  C   UNL A   1      33.237  35.627  30.493  1.00  0.00     0.001 A 
ATOM     49  C   UNL A   1      33.454  34.569  28.361  1.00  0.00     0.001 A 
ATOM     50  C   UNL A   1      32.831  35.501  29.166  1.00  0.00     0.000 A 
ENDBRANCH  26  45
BRANCH  38  51
ATOM     51  C   UNL A   1      40.447  33.720  32.850  1.00  0.00    -0.014 A 
ATOM     52  C   UNL A   1      40.761  32.893  31.762  1.00  0.00     0.009 A 
ATOM     53  C   UNL A   1      41.273  34.836  33.068  1.00  0.00     0.009 A 
ATOM     54  C   UNL A   1      41.865  33.164  30.942  1.00  0.00     0.001 A 
ATOM     55  C   UNL A   1      42.374  35.116  32.249  1.00  0.00     0.001 A 
ATOM     56  C   UNL A   1      42.673  34.274  31.185  1.00  0.00     0.000 A 
ENDBRANCH  38  51
ENDBRANCH  12  13
ENDBRANCH   5   7
ENDBRANCH   2   3
ENDBRANCH   1   2
BRANCH   1  57
ATOM     57  C   UNL A   1      36.234  22.342  25.161  1.00  0.00     0.023 C 
BRANCH  57  58
ATOM     58  C   UNL A   1      34.731  22.319  24.904  1.00  0.00     0.116 C 
BRANCH  58  59
ATOM     59  N   UNL A   1      33.970  22.155  26.132  1.00  0.00    -0.352 N 
ATOM     60  C   UNL A   1      33.127  23.047  26.749  1.00  0.00     0.251 C 
ATOM     61  H   UNL A   1      34.073  21.286  26.583  1.00  0.00     0.163 HD
ATOM     62  O   UNL A   1      32.656  22.818  27.845  1.00  0.00    -0.269 OA
BRANCH  60  63
ATOM     63  C   UNL A   1      32.814  24.311  26.058  1.00  0.00     0.041 A 
ATOM     64  C   UNL A   1      33.747  25.348  26.042  1.00  0.00     0.016 A 
ATOM     65  C   UNL A   1      31.564  24.427  25.441  1.00  0.00     0.035 A 
ATOM     66  C   UNL A   1      33.440  26.546  25.392  1.00  0.00     0.031 A 
ATOM     67  C   UNL A   1      31.262  25.652  24.831  1.00  0.00     0.057 A 
ATOM     68  C   UNL A   1      32.187  26.702  24.766  1.00  0.00     0.084 A 
ATOM     69  S   UNL A   1      29.789  26.160  24.094  1.00  0.00    -0.096 S 
ATOM     70  N   UNL A   1      31.766  27.816  24.064  1.00  0.00    -0.219 NA
ATOM     71  C   UNL A   1      30.517  27.643  23.698  1.00  0.00     0.194 A 
BRANCH  71  72
ATOM     72  N   UNL A   1      29.798  28.600  22.970  1.00  0.00    -0.300 N 
ATOM     73  C   UNL A   1      30.282  29.615  22.159  1.00  0.00     0.093 A 
ATOM     74  C   UNL A   1      28.415  28.686  22.935  1.00  0.00     0.093 A 
ATOM     75  C   UNL A   1      29.224  30.328  21.640  1.00  0.00     0.020 A 
ATOM     76  C   UNL A   1      28.041  29.759  22.156  1.00  0.00     0.020 A 
ENDBRANCH  71  72
ENDBRANCH  60  63
ENDBRANCH  58  59
ENDBRANCH  57  58
ENDBRANCH   1  57
TORSDOF 12
ENDMDL
