MODEL 1
REMARK VINA RESULT:     -10.4      0.000      0.000
REMARK SMILES CC(C)c1ncc(SC[C@H](O)CO)c(C(=O)NCCCCNC(=O)c2ccc(-c3c4nc(c(-c5ccccc5)c5ccc([nH]5)c(-c5ccccc5)c5nc(c(-c6ccccc6)c6ccc3[nH]6)C=C5)C=C4)cc2)n1
REMARK SMILES IDX 18 1 17 2 15 3 16 4 14 6 4 7 5 8 73 9 6 10 7 11 2 12 1 13
REMARK SMILES IDX 3 14 8 15 9 16 10 17 12 18 13 19 11 21 19 23 20 24 21 25
REMARK SMILES IDX 22 26 23 27 24 29 25 30 26 31 72 32 27 33 71 34 28 35 29 36
REMARK SMILES IDX 30 37 65 38 31 39 70 40 64 41 66 42 32 43 69 44 63 45 62 46
REMARK SMILES IDX 33 48 55 49 40 50 54 51 41 52 44 53 53 54 67 55 42 56 43 57
REMARK SMILES IDX 52 59 68 60 45 61 34 62 35 63 39 64 36 65 38 66 37 67 56 68
REMARK SMILES IDX 57 69 61 70 58 71 60 72 59 73 46 74 47 75 51 76 48 77 50 78
REMARK SMILES IDX 49 79
REMARK H PARENT 17 5 13 20 11 22 22 28 66 47 44 58
REMARK Flexibility Score: inf
ROOT
ATOM      1  C   UNL A   1      33.269  29.823  26.648  1.00  0.00     0.116 C 
ENDROOT
BRANCH   1   2
ATOM      2  N   UNL A   1      33.561  29.753  25.241  1.00  0.00    -0.351 N 
ATOM      3  C   UNL A   1      33.082  28.977  24.216  1.00  0.00     0.271 C 
ATOM      4  O   UNL A   1      33.725  29.071  23.163  1.00  0.00    -0.267 OA
ATOM      5  H   UNL A   1      34.249  30.396  24.952  1.00  0.00     0.163 HD
BRANCH   3   6
ATOM      6  C   UNL A   1      31.818  28.143  24.212  1.00  0.00     0.145 A 
ATOM      7  C   UNL A   1      29.616  28.350  23.459  1.00  0.00     0.131 A 
ATOM      8  N   UNL A   1      29.349  27.064  23.698  1.00  0.00    -0.240 NA
ATOM      9  N   UNL A   1      30.789  28.921  23.754  1.00  0.00    -0.226 NA
ATOM     10  C   UNL A   1      30.370  26.319  24.159  1.00  0.00     0.130 A 
ATOM     11  C   UNL A   1      31.649  26.782  24.453  1.00  0.00     0.057 A 
BRANCH   7  12
ATOM     12  C   UNL A   1      28.592  29.195  22.736  1.00  0.00     0.051 C 
ATOM     13  C   UNL A   1      27.156  28.776  23.061  1.00  0.00     0.016 C 
ATOM     14  C   UNL A   1      28.809  30.676  23.032  1.00  0.00     0.016 C 
ENDBRANCH   7  12
BRANCH  11  15
ATOM     15  S   UNL A   1      32.821  25.502  24.775  1.00  0.00    -0.119 SA
BRANCH  15  16
ATOM     16  C   UNL A   1      33.522  24.982  23.141  1.00  0.00     0.109 C 
BRANCH  16  17
ATOM     17  C   UNL A   1      32.768  24.666  21.840  1.00  0.00     0.150 C 
BRANCH  17  18
ATOM     18  C   UNL A   1      32.621  25.764  20.790  1.00  0.00     0.188 C 
BRANCH  18  19
ATOM     19  O   UNL A   1      33.401  26.890  21.209  1.00  0.00    -0.394 OA
ATOM     20  H   UNL A   1      34.342  26.651  21.208  1.00  0.00     0.210 HD
ENDBRANCH  18  19
ENDBRANCH  17  18
BRANCH  17  21
ATOM     21  O   UNL A   1      33.324  23.501  21.221  1.00  0.00    -0.390 OA
ATOM     22  H   UNL A   1      34.120  23.748  20.725  1.00  0.00     0.211 HD
ENDBRANCH  17  21
ENDBRANCH  16  17
ENDBRANCH  15  16
ENDBRANCH  11  15
ENDBRANCH   3   6
ENDBRANCH   1   2
BRANCH   1  23
ATOM     23  C   UNL A   1      31.833  30.321  26.839  1.00  0.00     0.023 C 
BRANCH  23  24
ATOM     24  C   UNL A   1      31.653  31.829  26.718  1.00  0.00     0.023 C 
BRANCH  24  25
ATOM     25  C   UNL A   1      32.794  32.651  27.302  1.00  0.00     0.116 C 
BRANCH  25  26
ATOM     26  N   UNL A   1      32.414  34.005  27.685  1.00  0.00    -0.352 N 
ATOM     27  C   UNL A   1      33.020  34.846  28.591  1.00  0.00     0.251 C 
ATOM     28  H   UNL A   1      31.616  34.367  27.237  1.00  0.00     0.163 HD
ATOM     29  O   UNL A   1      32.539  35.936  28.852  1.00  0.00    -0.269 OA
BRANCH  27  30
ATOM     30  C   UNL A   1      34.240  34.377  29.277  1.00  0.00     0.039 A 
ATOM     31  C   UNL A   1      34.110  33.685  30.482  1.00  0.00     0.014 A 
ATOM     32  C   UNL A   1      35.491  34.544  28.679  1.00  0.00     0.014 A 
ATOM     33  C   UNL A   1      35.233  33.081  31.047  1.00  0.00     0.010 A 
ATOM     34  C   UNL A   1      36.589  33.871  29.196  1.00  0.00     0.010 A 
ATOM     35  C   UNL A   1      36.469  33.130  30.383  1.00  0.00    -0.014 A 
BRANCH  35  36
ATOM     36  C   UNL A   1      37.655  32.413  30.905  1.00  0.00     0.031 A 
ATOM     37  C   UNL A   1      38.371  32.939  32.118  1.00  0.00     0.074 A 
ATOM     38  C   UNL A   1      38.137  31.345  30.241  1.00  0.00     0.049 A 
ATOM     39  N   UNL A   1      39.475  32.511  32.674  1.00  0.00    -0.248 NA
ATOM     40  C   UNL A   1      37.787  34.123  32.769  1.00  0.00     0.031 C 
ATOM     41  C   UNL A   1      37.564  30.771  29.020  1.00  0.00     0.029 A 
ATOM     42  N   UNL A   1      39.230  30.556  30.497  1.00  0.00    -0.354 N 
ATOM     43  C   UNL A   1      39.730  33.387  33.721  1.00  0.00     0.074 A 
ATOM     44  C   UNL A   1      38.696  34.398  33.692  1.00  0.00     0.031 C 
ATOM     45  C   UNL A   1      38.294  29.704  28.651  1.00  0.00     0.029 A 
ATOM     46  C   UNL A   1      39.403  29.543  29.585  1.00  0.00     0.049 A 
ATOM     47  H   UNL A   1      39.833  30.701  31.261  1.00  0.00     0.167 HD
ATOM     48  C   UNL A   1      40.723  33.343  34.638  1.00  0.00     0.031 A 
ATOM     49  C   UNL A   1      40.353  28.591  29.510  1.00  0.00     0.031 A 
ATOM     50  C   UNL A   1      41.732  32.321  34.685  1.00  0.00     0.049 A 
ATOM     51  C   UNL A   1      41.433  28.552  30.554  1.00  0.00     0.074 A 
ATOM     52  C   UNL A   1      42.742  32.148  35.614  1.00  0.00     0.029 A 
ATOM     53  N   UNL A   1      41.852  31.293  33.763  1.00  0.00    -0.354 N 
ATOM     54  N   UNL A   1      41.621  29.347  31.579  1.00  0.00    -0.248 NA
ATOM     55  C   UNL A   1      42.425  27.473  30.437  1.00  0.00     0.031 C 
ATOM     56  C   UNL A   1      43.497  31.035  35.235  1.00  0.00     0.029 A 
ATOM     57  C   UNL A   1      42.929  30.489  34.094  1.00  0.00     0.049 A 
ATOM     58  H   UNL A   1      41.261  31.154  32.989  1.00  0.00     0.167 HD
ATOM     59  C   UNL A   1      42.735  28.850  32.243  1.00  0.00     0.074 A 
ATOM     60  C   UNL A   1      43.170  27.677  31.514  1.00  0.00     0.031 C 
ATOM     61  C   UNL A   1      43.341  29.322  33.359  1.00  0.00     0.031 A 
BRANCH  48  62
ATOM     62  C   UNL A   1      40.758  34.435  35.668  1.00  0.00    -0.014 A 
ATOM     63  C   UNL A   1      40.083  34.300  36.893  1.00  0.00     0.009 A 
ATOM     64  C   UNL A   1      41.494  35.604  35.423  1.00  0.00     0.009 A 
ATOM     65  C   UNL A   1      40.114  35.329  37.834  1.00  0.00     0.001 A 
ATOM     66  C   UNL A   1      41.546  36.621  36.379  1.00  0.00     0.001 A 
ATOM     67  C   UNL A   1      40.849  36.486  37.579  1.00  0.00     0.000 A 
ENDBRANCH  48  62
BRANCH  49  68
ATOM     68  C   UNL A   1      40.312  27.579  28.424  1.00  0.00    -0.014 A 
ATOM     69  C   UNL A   1      39.618  26.373  28.605  1.00  0.00     0.009 A 
ATOM     70  C   UNL A   1      40.974  27.805  27.208  1.00  0.00     0.009 A 
ATOM     71  C   UNL A   1      39.610  25.402  27.602  1.00  0.00     0.001 A 
ATOM     72  C   UNL A   1      40.943  26.843  26.196  1.00  0.00     0.001 A 
ATOM     73  C   UNL A   1      40.270  25.639  26.397  1.00  0.00     0.000 A 
ENDBRANCH  49  68
BRANCH  61  74
ATOM     74  C   UNL A   1      44.516  28.548  33.880  1.00  0.00    -0.014 A 
ATOM     75  C   UNL A   1      45.827  28.870  33.500  1.00  0.00     0.009 A 
ATOM     76  C   UNL A   1      44.307  27.510  34.801  1.00  0.00     0.009 A 
ATOM     77  C   UNL A   1      46.907  28.148  34.011  1.00  0.00     0.001 A 
ATOM     78  C   UNL A   1      45.390  26.806  35.330  1.00  0.00     0.001 A 
ATOM     79  C   UNL A   1      46.687  27.120  34.928  1.00  0.00     0.000 A 
ENDBRANCH  61  74
ENDBRANCH  35  36
ENDBRANCH  27  30
ENDBRANCH  25  26
ENDBRANCH  24  25
ENDBRANCH  23  24
ENDBRANCH   1  23
TORSDOF 18
ENDMDL
MODEL 2
REMARK VINA RESULT:     -10.2      4.333      8.914
REMARK SMILES CC(C)c1ncc(SC[C@H](O)CO)c(C(=O)NCCCCNC(=O)c2ccc(-c3c4nc(c(-c5ccccc5)c5ccc([nH]5)c(-c5ccccc5)c5nc(c(-c6ccccc6)c6ccc3[nH]6)C=C5)C=C4)cc2)n1
REMARK SMILES IDX 18 1 17 2 15 3 16 4 14 6 4 7 5 8 73 9 6 10 7 11 2 12 1 13
REMARK SMILES IDX 3 14 8 15 9 16 10 17 12 18 13 19 11 21 19 23 20 24 21 25
REMARK SMILES IDX 22 26 23 27 24 29 25 30 26 31 72 32 27 33 71 34 28 35 29 36
REMARK SMILES IDX 30 37 65 38 31 39 70 40 64 41 66 42 32 43 69 44 63 45 62 46
REMARK SMILES IDX 33 48 55 49 40 50 54 51 41 52 44 53 53 54 67 55 42 56 43 57
REMARK SMILES IDX 52 59 68 60 45 61 34 62 35 63 39 64 36 65 38 66 37 67 56 68
REMARK SMILES IDX 57 69 61 70 58 71 60 72 59 73 46 74 47 75 51 76 48 77 50 78
REMARK SMILES IDX 49 79
REMARK H PARENT 17 5 13 20 11 22 22 28 66 47 44 58
REMARK Flexibility Score: inf
ROOT
ATOM      1  C   UNL A   1      36.756  23.287  25.790  1.00  0.00     0.116 C 
ENDROOT
BRANCH   1   2
ATOM      2  N   UNL A   1      35.546  22.871  26.447  1.00  0.00    -0.351 N 
ATOM      3  C   UNL A   1      34.268  23.370  26.473  1.00  0.00     0.271 C 
ATOM      4  O   UNL A   1      33.534  22.847  27.321  1.00  0.00    -0.267 OA
ATOM      5  H   UNL A   1      35.657  22.059  26.993  1.00  0.00     0.163 HD
BRANCH   3   6
ATOM      6  C   UNL A   1      33.657  24.375  25.519  1.00  0.00     0.145 A 
ATOM      7  C   UNL A   1      33.314  26.684  25.432  1.00  0.00     0.131 A 
ATOM      8  N   UNL A   1      32.931  26.641  24.153  1.00  0.00    -0.240 NA
ATOM      9  N   UNL A   1      33.616  25.593  26.143  1.00  0.00    -0.226 NA
ATOM     10  C   UNL A   1      32.968  25.432  23.562  1.00  0.00     0.130 A 
ATOM     11  C   UNL A   1      33.315  24.234  24.177  1.00  0.00     0.057 A 
BRANCH   7  12
ATOM     12  C   UNL A   1      33.513  28.027  26.098  1.00  0.00     0.051 C 
ATOM     13  C   UNL A   1      33.345  29.193  25.119  1.00  0.00     0.016 C 
ATOM     14  C   UNL A   1      32.579  28.179  27.294  1.00  0.00     0.016 C 
ENDBRANCH   7  12
BRANCH  11  15
ATOM     15  S   UNL A   1      33.524  22.885  23.058  1.00  0.00    -0.119 SA
BRANCH  15  16
ATOM     16  C   UNL A   1      32.297  21.583  23.540  1.00  0.00     0.109 C 
BRANCH  16  17
ATOM     17  C   UNL A   1      32.428  20.511  24.632  1.00  0.00     0.150 C 
BRANCH  17  18
ATOM     18  C   UNL A   1      33.822  20.030  25.028  1.00  0.00     0.188 C 
BRANCH  18  19
ATOM     19  O   UNL A   1      33.777  18.606  25.180  1.00  0.00    -0.394 OA
ATOM     20  H   UNL A   1      34.665  18.275  25.391  1.00  0.00     0.210 HD
ENDBRANCH  18  19
ENDBRANCH  17  18
BRANCH  17  21
ATOM     21  O   UNL A   1      31.725  20.919  25.809  1.00  0.00    -0.390 OA
ATOM     22  H   UNL A   1      30.781  21.012  25.606  1.00  0.00     0.211 HD
ENDBRANCH  17  21
ENDBRANCH  16  17
ENDBRANCH  15  16
ENDBRANCH  11  15
ENDBRANCH   3   6
ENDBRANCH   1   2
BRANCH   1  23
ATOM     23  C   UNL A   1      36.920  22.495  24.490  1.00  0.00     0.023 C 
BRANCH  23  24
ATOM     24  C   UNL A   1      37.602  21.140  24.643  1.00  0.00     0.023 C 
BRANCH  24  25
ATOM     25  C   UNL A   1      38.638  21.077  25.757  1.00  0.00     0.116 C 
BRANCH  25  26
ATOM     26  N   UNL A   1      39.539  19.935  25.663  1.00  0.00    -0.352 N 
ATOM     27  C   UNL A   1      40.867  19.854  26.015  1.00  0.00     0.251 C 
ATOM     28  H   UNL A   1      39.145  19.109  25.298  1.00  0.00     0.163 HD
ATOM     29  O   UNL A   1      41.508  18.836  25.813  1.00  0.00    -0.269 OA
BRANCH  27  30
ATOM     30  C   UNL A   1      41.513  21.047  26.596  1.00  0.00     0.039 A 
ATOM     31  C   UNL A   1      42.039  22.013  25.737  1.00  0.00     0.014 A 
ATOM     32  C   UNL A   1      41.510  21.245  27.979  1.00  0.00     0.014 A 
ATOM     33  C   UNL A   1      42.487  23.224  26.264  1.00  0.00     0.010 A 
ATOM     34  C   UNL A   1      41.876  22.482  28.491  1.00  0.00     0.010 A 
ATOM     35  C   UNL A   1      42.364  23.484  27.638  1.00  0.00    -0.014 A 
BRANCH  35  36
ATOM     36  C   UNL A   1      42.736  24.798  28.212  1.00  0.00     0.031 A 
ATOM     37  C   UNL A   1      41.681  25.849  28.414  1.00  0.00     0.074 A 
ATOM     38  C   UNL A   1      44.029  25.074  28.469  1.00  0.00     0.049 A 
ATOM     39  N   UNL A   1      41.816  27.087  28.815  1.00  0.00    -0.248 NA
ATOM     40  C   UNL A   1      40.297  25.469  28.087  1.00  0.00     0.031 C 
ATOM     41  C   UNL A   1      45.154  24.157  28.264  1.00  0.00     0.029 A 
ATOM     42  N   UNL A   1      44.617  26.216  28.951  1.00  0.00    -0.354 N 
ATOM     43  C   UNL A   1      40.543  27.638  28.763  1.00  0.00     0.074 A 
ATOM     44  C   UNL A   1      39.657  26.618  28.245  1.00  0.00     0.031 C 
ATOM     45  C   UNL A   1      46.291  24.762  28.646  1.00  0.00     0.029 A 
ATOM     46  C   UNL A   1      45.981  26.118  29.087  1.00  0.00     0.049 A 
ATOM     47  H   UNL A   1      44.110  27.028  29.180  1.00  0.00     0.167 HD
ATOM     48  C   UNL A   1      40.140  28.874  29.135  1.00  0.00     0.031 A 
ATOM     49  C   UNL A   1      46.881  27.023  29.517  1.00  0.00     0.031 A 
ATOM     50  C   UNL A   1      41.014  29.877  29.678  1.00  0.00     0.049 A 
ATOM     51  C   UNL A   1      46.404  28.383  29.943  1.00  0.00     0.074 A 
ATOM     52  C   UNL A   1      40.693  31.138  30.147  1.00  0.00     0.029 A 
ATOM     53  N   UNL A   1      42.383  29.727  29.830  1.00  0.00    -0.354 N 
ATOM     54  N   UNL A   1      45.186  28.866  29.953  1.00  0.00    -0.248 NA
ATOM     55  C   UNL A   1      47.429  29.318  30.429  1.00  0.00     0.031 C 
ATOM     56  C   UNL A   1      41.875  31.766  30.552  1.00  0.00     0.029 A 
ATOM     57  C   UNL A   1      42.925  30.878  30.375  1.00  0.00     0.049 A 
ATOM     58  H   UNL A   1      42.895  28.922  29.589  1.00  0.00     0.167 HD
ATOM     59  C   UNL A   1      45.293  30.150  30.471  1.00  0.00     0.074 A 
ATOM     60  C   UNL A   1      46.692  30.365  30.776  1.00  0.00     0.031 C 
ATOM     61  C   UNL A   1      44.319  31.069  30.678  1.00  0.00     0.031 A 
BRANCH  48  62
ATOM     62  C   UNL A   1      38.685  29.205  28.966  1.00  0.00    -0.014 A 
ATOM     63  C   UNL A   1      37.780  29.063  30.030  1.00  0.00     0.009 A 
ATOM     64  C   UNL A   1      38.216  29.687  27.735  1.00  0.00     0.009 A 
ATOM     65  C   UNL A   1      36.428  29.361  29.854  1.00  0.00     0.001 A 
ATOM     66  C   UNL A   1      36.867  30.012  27.569  1.00  0.00     0.001 A 
ATOM     67  C   UNL A   1      35.974  29.839  28.625  1.00  0.00     0.000 A 
ENDBRANCH  48  62
BRANCH  49  68
ATOM     68  C   UNL A   1      48.321  26.667  29.592  1.00  0.00    -0.014 A 
ATOM     69  C   UNL A   1      48.837  26.047  30.740  1.00  0.00     0.009 A 
ATOM     70  C   UNL A   1      49.187  26.953  28.527  1.00  0.00     0.009 A 
ATOM     71  C   UNL A   1      50.197  25.746  30.831  1.00  0.00     0.001 A 
ATOM     72  C   UNL A   1      50.543  26.627  28.611  1.00  0.00     0.001 A 
ATOM     73  C   UNL A   1      51.049  26.034  29.766  1.00  0.00     0.000 A 
ENDBRANCH  49  68
BRANCH  61  74
ATOM     74  C   UNL A   1      44.727  32.373  31.297  1.00  0.00    -0.014 A 
ATOM     75  C   UNL A   1      44.762  32.538  32.689  1.00  0.00     0.009 A 
ATOM     76  C   UNL A   1      45.125  33.436  30.471  1.00  0.00     0.009 A 
ATOM     77  C   UNL A   1      45.163  33.755  33.244  1.00  0.00     0.001 A 
ATOM     78  C   UNL A   1      45.548  34.643  31.029  1.00  0.00     0.001 A 
ATOM     79  C   UNL A   1      45.560  34.804  32.414  1.00  0.00     0.000 A 
ENDBRANCH  61  74
ENDBRANCH  35  36
ENDBRANCH  27  30
ENDBRANCH  25  26
ENDBRANCH  24  25
ENDBRANCH  23  24
ENDBRANCH   1  23
TORSDOF 18
ENDMDL
MODEL 3
REMARK VINA RESULT:     -10.2      1.750      3.025
REMARK SMILES CC(C)c1ncc(SC[C@H](O)CO)c(C(=O)NCCCCNC(=O)c2ccc(-c3c4nc(c(-c5ccccc5)c5ccc([nH]5)c(-c5ccccc5)c5nc(c(-c6ccccc6)c6ccc3[nH]6)C=C5)C=C4)cc2)n1
REMARK SMILES IDX 18 1 17 2 15 3 16 4 14 6 4 7 5 8 73 9 6 10 7 11 2 12 1 13
REMARK SMILES IDX 3 14 8 15 9 16 10 17 12 18 13 19 11 21 19 23 20 24 21 25
REMARK SMILES IDX 22 26 23 27 24 29 25 30 26 31 72 32 27 33 71 34 28 35 29 36
REMARK SMILES IDX 30 37 65 38 31 39 70 40 64 41 66 42 32 43 69 44 63 45 62 46
REMARK SMILES IDX 33 48 55 49 40 50 54 51 41 52 44 53 53 54 67 55 42 56 43 57
REMARK SMILES IDX 52 59 68 60 45 61 34 62 35 63 39 64 36 65 38 66 37 67 56 68
REMARK SMILES IDX 57 69 61 70 58 71 60 72 59 73 46 74 47 75 51 76 48 77 50 78
REMARK SMILES IDX 49 79
REMARK H PARENT 17 5 13 20 11 22 22 28 66 47 44 58
REMARK Flexibility Score: inf
ROOT
ATOM      1  C   UNL A   1      33.230  29.265  26.284  1.00  0.00     0.116 C 
ENDROOT
BRANCH   1   2
ATOM      2  N   UNL A   1      33.330  29.359  24.852  1.00  0.00    -0.351 N 
ATOM      3  C   UNL A   1      33.355  28.426  23.846  1.00  0.00     0.271 C 
ATOM      4  O   UNL A   1      33.654  28.884  22.736  1.00  0.00    -0.267 OA
ATOM      5  H   UNL A   1      33.395  30.285  24.525  1.00  0.00     0.163 HD
BRANCH   3   6
ATOM      6  C   UNL A   1      32.949  26.970  23.935  1.00  0.00     0.145 A 
ATOM      7  C   UNL A   1      33.990  24.905  24.263  1.00  0.00     0.131 A 
ATOM      8  N   UNL A   1      32.824  24.271  24.409  1.00  0.00    -0.240 NA
ATOM      9  N   UNL A   1      34.085  26.207  23.972  1.00  0.00    -0.226 NA
ATOM     10  C   UNL A   1      31.720  25.038  24.357  1.00  0.00     0.130 A 
ATOM     11  C   UNL A   1      31.688  26.408  24.116  1.00  0.00     0.057 A 
BRANCH   7  12
ATOM     12  C   UNL A   1      35.276  24.156  24.530  1.00  0.00     0.051 C 
ATOM     13  C   UNL A   1      35.392  23.696  25.986  1.00  0.00     0.016 C 
ATOM     14  C   UNL A   1      35.422  22.978  23.572  1.00  0.00     0.016 C 
ENDBRANCH   7  12
BRANCH  11  15
ATOM     15  S   UNL A   1      30.110  27.150  24.385  1.00  0.00    -0.119 SA
BRANCH  15  16
ATOM     16  C   UNL A   1      29.654  28.039  22.825  1.00  0.00     0.109 C 
BRANCH  16  17
ATOM     17  C   UNL A   1      28.815  29.317  22.669  1.00  0.00     0.150 C 
BRANCH  17  18
ATOM     18  C   UNL A   1      29.144  30.277  21.529  1.00  0.00     0.188 C 
BRANCH  18  19
ATOM     19  O   UNL A   1      30.556  30.222  21.292  1.00  0.00    -0.394 OA
ATOM     20  H   UNL A   1      30.738  30.450  20.366  1.00  0.00     0.210 HD
ENDBRANCH  18  19
ENDBRANCH  17  18
BRANCH  17  21
ATOM     21  O   UNL A   1      27.423  28.988  22.614  1.00  0.00    -0.390 OA
ATOM     22  H   UNL A   1      27.079  28.885  23.515  1.00  0.00     0.211 HD
ENDBRANCH  17  21
ENDBRANCH  16  17
ENDBRANCH  15  16
ENDBRANCH  11  15
ENDBRANCH   3   6
ENDBRANCH   1   2
BRANCH   1  23
ATOM     23  C   UNL A   1      31.884  29.843  26.733  1.00  0.00     0.023 C 
BRANCH  23  24
ATOM     24  C   UNL A   1      31.753  31.354  26.593  1.00  0.00     0.023 C 
BRANCH  24  25
ATOM     25  C   UNL A   1      32.880  32.149  27.240  1.00  0.00     0.116 C 
BRANCH  25  26
ATOM     26  N   UNL A   1      32.493  33.490  27.661  1.00  0.00    -0.352 N 
ATOM     27  C   UNL A   1      33.161  34.357  28.495  1.00  0.00     0.251 C 
ATOM     28  H   UNL A   1      31.639  33.820  27.299  1.00  0.00     0.163 HD
ATOM     29  O   UNL A   1      32.671  35.430  28.805  1.00  0.00    -0.269 OA
BRANCH  27  30
ATOM     30  C   UNL A   1      34.463  33.936  29.048  1.00  0.00     0.039 A 
ATOM     31  C   UNL A   1      34.484  33.195  30.231  1.00  0.00     0.014 A 
ATOM     32  C   UNL A   1      35.642  34.198  28.347  1.00  0.00     0.014 A 
ATOM     33  C   UNL A   1      35.686  32.638  30.666  1.00  0.00     0.010 A 
ATOM     34  C   UNL A   1      36.819  33.572  28.734  1.00  0.00     0.010 A 
ATOM     35  C   UNL A   1      36.850  32.783  29.896  1.00  0.00    -0.014 A 
BRANCH  35  36
ATOM     36  C   UNL A   1      38.118  32.118  30.278  1.00  0.00     0.031 A 
ATOM     37  C   UNL A   1      39.071  32.811  31.211  1.00  0.00     0.074 A 
ATOM     38  C   UNL A   1      38.449  30.938  29.720  1.00  0.00     0.049 A 
ATOM     39  N   UNL A   1      40.266  32.440  31.595  1.00  0.00    -0.248 NA
ATOM     40  C   UNL A   1      38.638  34.108  31.757  1.00  0.00     0.031 C 
ATOM     41  C   UNL A   1      37.633  30.191  28.758  1.00  0.00     0.029 A 
ATOM     42  N   UNL A   1      39.569  30.162  29.878  1.00  0.00    -0.354 N 
ATOM     43  C   UNL A   1      40.735  33.467  32.402  1.00  0.00     0.074 A 
ATOM     44  C   UNL A   1      39.720  34.498  32.414  1.00  0.00     0.031 C 
ATOM     45  C   UNL A   1      38.268  29.052  28.435  1.00  0.00     0.029 A 
ATOM     46  C   UNL A   1      39.547  29.006  29.136  1.00  0.00     0.049 A 
ATOM     47  H   UNL A   1      40.318  30.409  30.467  1.00  0.00     0.167 HD
ATOM     48  C   UNL A   1      41.897  33.539  33.091  1.00  0.00     0.031 A 
ATOM     49  C   UNL A   1      40.458  28.020  29.031  1.00  0.00     0.031 A 
ATOM     50  C   UNL A   1      42.891  32.502  33.104  1.00  0.00     0.049 A 
ATOM     51  C   UNL A   1      41.732  28.113  29.823  1.00  0.00     0.074 A 
ATOM     52  C   UNL A   1      44.072  32.448  33.822  1.00  0.00     0.029 A 
ATOM     53  N   UNL A   1      42.815  31.331  32.365  1.00  0.00    -0.354 N 
ATOM     54  N   UNL A   1      42.131  29.060  30.637  1.00  0.00    -0.248 NA
ATOM     55  C   UNL A   1      42.675  26.994  29.691  1.00  0.00     0.031 C 
ATOM     56  C   UNL A   1      44.730  31.259  33.491  1.00  0.00     0.029 A 
ATOM     57  C   UNL A   1      43.935  30.554  32.600  1.00  0.00     0.049 A 
ATOM     58  H   UNL A   1      42.075  31.089  31.763  1.00  0.00     0.167 HD
ATOM     59  C   UNL A   1      43.357  28.639  31.134  1.00  0.00     0.074 A 
ATOM     60  C   UNL A   1      43.629  27.346  30.542  1.00  0.00     0.031 C 
ATOM     61  C   UNL A   1      44.183  29.267  32.006  1.00  0.00     0.031 A 
BRANCH  48  62
ATOM     62  C   UNL A   1      42.148  34.784  33.891  1.00  0.00    -0.014 A 
ATOM     63  C   UNL A   1      41.751  34.875  35.236  1.00  0.00     0.009 A 
ATOM     64  C   UNL A   1      42.810  35.872  33.303  1.00  0.00     0.009 A 
ATOM     65  C   UNL A   1      41.979  36.044  35.962  1.00  0.00     0.001 A 
ATOM     66  C   UNL A   1      43.062  37.030  34.041  1.00  0.00     0.001 A 
ATOM     67  C   UNL A   1      42.638  37.119  35.366  1.00  0.00     0.000 A 
ENDBRANCH  48  62
BRANCH  49  68
ATOM     68  C   UNL A   1      40.190  26.844  28.164  1.00  0.00    -0.014 A 
ATOM     69  C   UNL A   1      39.410  25.778  28.638  1.00  0.00     0.009 A 
ATOM     70  C   UNL A   1      40.720  26.774  26.867  1.00  0.00     0.009 A 
ATOM     71  C   UNL A   1      39.189  24.653  27.841  1.00  0.00     0.001 A 
ATOM     72  C   UNL A   1      40.475  25.658  26.062  1.00  0.00     0.001 A 
ATOM     73  C   UNL A   1      39.719  24.595  26.552  1.00  0.00     0.000 A 
ENDBRANCH  49  68
BRANCH  61  74
ATOM     74  C   UNL A   1      45.439  28.545  32.400  1.00  0.00    -0.014 A 
ATOM     75  C   UNL A   1      46.638  28.736  31.697  1.00  0.00     0.009 A 
ATOM     76  C   UNL A   1      45.429  27.698  33.518  1.00  0.00     0.009 A 
ATOM     77  C   UNL A   1      47.799  28.069  32.093  1.00  0.00     0.001 A 
ATOM     78  C   UNL A   1      46.597  27.053  33.925  1.00  0.00     0.001 A 
ATOM     79  C   UNL A   1      47.778  27.232  33.208  1.00  0.00     0.000 A 
ENDBRANCH  61  74
ENDBRANCH  35  36
ENDBRANCH  27  30
ENDBRANCH  25  26
ENDBRANCH  24  25
ENDBRANCH  23  24
ENDBRANCH   1  23
TORSDOF 18
ENDMDL
