MODEL 1
REMARK VINA RESULT:     -11.1      0.000      0.000
REMARK SMILES COc1ccc2c(c1)C=C(C(=O)NCCCCNC(=O)c1ccc(-c3c4nc(c(-c5ccccc5)c5ccc([nH]5)c(-c5ccccc5)c5nc(c(-c6ccccc6)c6ccc3[nH]6)C=C5)C=C4)cc1)[C@H](C(F)(F)F)O2
REMARK SMILES IDX 16 1 15 2 14 3 13 4 11 5 12 6 10 8 3 9 4 10 8 11 5 12 7 13
REMARK SMILES IDX 6 14 9 15 74 16 69 17 2 18 1 19 70 20 71 21 72 22 73 23
REMARK SMILES IDX 17 24 18 25 19 26 20 28 21 29 22 30 68 31 23 32 67 33 24 34
REMARK SMILES IDX 25 35 26 36 61 37 27 38 66 39 60 40 62 41 28 42 65 43 59 44
REMARK SMILES IDX 58 45 29 47 51 48 36 49 50 50 37 51 40 52 49 53 63 54 38 55
REMARK SMILES IDX 39 56 48 58 64 59 41 60 30 61 31 62 35 63 32 64 34 65 33 66
REMARK SMILES IDX 52 67 53 68 57 69 54 70 56 71 55 72 42 73 43 74 47 75 44 76
REMARK SMILES IDX 46 77 45 78
REMARK H PARENT 13 7 18 27 62 46 40 57
REMARK Flexibility Score: inf
ROOT
ATOM      1  C   UNL A   1      34.019  28.498  25.784  1.00  0.00     0.023 C 
ENDROOT
BRANCH   1   2
ATOM      2  C   UNL A   1      33.168  29.222  24.738  1.00  0.00     0.023 C 
BRANCH   2   3
ATOM      3  C   UNL A   1      33.577  28.942  23.286  1.00  0.00     0.116 C 
BRANCH   3   4
ATOM      4  N   UNL A   1      32.484  28.309  22.568  1.00  0.00    -0.352 N 
ATOM      5  C   UNL A   1      32.008  27.034  22.562  1.00  0.00     0.251 C 
ATOM      6  O   UNL A   1      31.147  26.744  21.736  1.00  0.00    -0.270 OA
ATOM      7  H   UNL A   1      31.994  28.919  21.971  1.00  0.00     0.163 HD
BRANCH   5   8
ATOM      8  C   UNL A   1      32.433  26.007  23.552  1.00  0.00     0.067 C 
ATOM      9  C   UNL A   1      35.711  23.235  25.758  1.00  0.00     0.119 A 
ATOM     10  C   UNL A   1      34.755  22.820  26.682  1.00  0.00     0.050 A 
ATOM     11  C   UNL A   1      35.359  24.119  24.741  1.00  0.00     0.058 A 
ATOM     12  C   UNL A   1      33.438  23.279  26.572  1.00  0.00     0.051 A 
ATOM     13  C   UNL A   1      34.041  24.573  24.628  1.00  0.00     0.021 A 
ATOM     14  C   UNL A   1      33.084  24.155  25.546  1.00  0.00     0.128 A 
ATOM     15  C   UNL A   1      33.687  25.542  23.610  1.00  0.00     0.025 C 
ATOM     16  O   UNL A   1      31.800  24.611  25.543  1.00  0.00    -0.475 OA
ATOM     17  C   UNL A   1      31.327  25.386  24.401  1.00  0.00     0.314 C 
BRANCH   9  18
ATOM     18  O   UNL A   1      37.035  22.902  25.836  1.00  0.00    -0.497 OA
ATOM     19  C   UNL A   1      37.395  21.832  24.968  1.00  0.00     0.278 C 
ENDBRANCH   9  18
BRANCH  17  20
ATOM     20  C   UNL A   1      30.253  26.367  24.927  1.00  0.00     0.429 C 
ATOM     21  F   UNL A   1      29.326  26.678  23.995  1.00  0.00    -0.167 F 
ATOM     22  F   UNL A   1      29.558  25.821  25.961  1.00  0.00    -0.167 F 
ATOM     23  F   UNL A   1      30.791  27.521  25.385  1.00  0.00    -0.167 F 
ENDBRANCH  17  20
ENDBRANCH   5   8
ENDBRANCH   3   4
ENDBRANCH   2   3
ENDBRANCH   1   2
BRANCH   1  24
ATOM     24  C   UNL A   1      33.557  28.693  27.222  1.00  0.00     0.116 C 
BRANCH  24  25
ATOM     25  N   UNL A   1      33.550  30.086  27.639  1.00  0.00    -0.352 N 
ATOM     26  C   UNL A   1      34.569  30.805  28.218  1.00  0.00     0.251 C 
ATOM     27  H   UNL A   1      32.710  30.577  27.486  1.00  0.00     0.163 HD
ATOM     28  O   UNL A   1      34.385  31.951  28.607  1.00  0.00    -0.269 OA
BRANCH  26  29
ATOM     29  C   UNL A   1      35.881  30.155  28.410  1.00  0.00     0.039 A 
ATOM     30  C   UNL A   1      36.820  30.222  27.378  1.00  0.00     0.014 A 
ATOM     31  C   UNL A   1      36.195  29.532  29.619  1.00  0.00     0.014 A 
ATOM     32  C   UNL A   1      38.106  29.721  27.587  1.00  0.00     0.010 A 
ATOM     33  C   UNL A   1      37.494  29.091  29.848  1.00  0.00     0.010 A 
ATOM     34  C   UNL A   1      38.461  29.187  28.836  1.00  0.00    -0.014 A 
BRANCH  34  35
ATOM     35  C   UNL A   1      39.841  28.722  29.113  1.00  0.00     0.031 A 
ATOM     36  C   UNL A   1      40.829  29.654  29.753  1.00  0.00     0.074 A 
ATOM     37  C   UNL A   1      40.226  27.496  28.713  1.00  0.00     0.049 A 
ATOM     38  N   UNL A   1      42.104  29.471  29.987  1.00  0.00    -0.248 NA
ATOM     39  C   UNL A   1      40.324  30.975  30.159  1.00  0.00     0.031 C 
ATOM     40  C   UNL A   1      39.369  26.509  28.052  1.00  0.00     0.029 A 
ATOM     41  N   UNL A   1      41.446  26.874  28.796  1.00  0.00    -0.354 N 
ATOM     42  C   UNL A   1      42.557  30.660  30.542  1.00  0.00     0.074 A 
ATOM     43  C   UNL A   1      41.433  31.571  30.574  1.00  0.00     0.031 C 
ATOM     44  C   UNL A   1      40.084  25.398  27.810  1.00  0.00     0.029 A 
ATOM     45  C   UNL A   1      41.456  25.608  28.262  1.00  0.00     0.049 A 
ATOM     46  H   UNL A   1      42.239  27.295  29.200  1.00  0.00     0.167 HD
ATOM     47  C   UNL A   1      43.794  30.963  31.000  1.00  0.00     0.031 A 
ATOM     48  C   UNL A   1      42.460  24.721  28.143  1.00  0.00     0.031 A 
ATOM     49  C   UNL A   1      44.907  30.054  30.986  1.00  0.00     0.049 A 
ATOM     50  C   UNL A   1      43.828  25.086  28.647  1.00  0.00     0.074 A 
ATOM     51  C   UNL A   1      46.185  30.245  31.483  1.00  0.00     0.029 A 
ATOM     52  N   UNL A   1      44.873  28.779  30.445  1.00  0.00    -0.354 N 
ATOM     53  N   UNL A   1      44.227  26.192  29.226  1.00  0.00    -0.248 NA
ATOM     54  C   UNL A   1      44.882  24.074  28.487  1.00  0.00     0.031 C 
ATOM     55  C   UNL A   1      46.936  29.098  31.206  1.00  0.00     0.029 A 
ATOM     56  C   UNL A   1      46.113  28.177  30.577  1.00  0.00     0.049 A 
ATOM     57  H   UNL A   1      44.085  28.361  30.028  1.00  0.00     0.167 HD
ATOM     58  C   UNL A   1      45.569  26.000  29.525  1.00  0.00     0.074 A 
ATOM     59  C   UNL A   1      45.914  24.669  29.071  1.00  0.00     0.031 C 
ATOM     60  C   UNL A   1      46.436  26.850  30.126  1.00  0.00     0.031 A 
BRANCH  47  61
ATOM     61  C   UNL A   1      44.003  32.346  31.548  1.00  0.00    -0.014 A 
ATOM     62  C   UNL A   1      44.413  33.403  30.720  1.00  0.00     0.009 A 
ATOM     63  C   UNL A   1      43.771  32.600  32.909  1.00  0.00     0.009 A 
ATOM     64  C   UNL A   1      44.627  34.676  31.251  1.00  0.00     0.001 A 
ATOM     65  C   UNL A   1      43.959  33.881  33.432  1.00  0.00     0.001 A 
ATOM     66  C   UNL A   1      44.397  34.914  32.605  1.00  0.00     0.000 A 
ENDBRANCH  47  61
BRANCH  48  67
ATOM     67  C   UNL A   1      42.208  23.388  27.540  1.00  0.00    -0.014 A 
ATOM     68  C   UNL A   1      41.638  22.362  28.309  1.00  0.00     0.009 A 
ATOM     69  C   UNL A   1      42.533  23.132  26.199  1.00  0.00     0.009 A 
ATOM     70  C   UNL A   1      41.420  21.099  27.753  1.00  0.00     0.001 A 
ATOM     71  C   UNL A   1      42.292  21.875  25.640  1.00  0.00     0.001 A 
ATOM     72  C   UNL A   1      41.743  20.858  26.420  1.00  0.00     0.000 A 
ENDBRANCH  48  67
BRANCH  60  73
ATOM     73  C   UNL A   1      47.832  26.350  30.363  1.00  0.00    -0.014 A 
ATOM     74  C   UNL A   1      48.213  25.821  31.605  1.00  0.00     0.009 A 
ATOM     75  C   UNL A   1      48.760  26.362  29.311  1.00  0.00     0.009 A 
ATOM     76  C   UNL A   1      49.509  25.339  31.795  1.00  0.00     0.001 A 
ATOM     77  C   UNL A   1      50.046  25.857  29.497  1.00  0.00     0.001 A 
ATOM     78  C   UNL A   1      50.422  25.352  30.741  1.00  0.00     0.000 A 
ENDBRANCH  60  73
ENDBRANCH  34  35
ENDBRANCH  26  29
ENDBRANCH  24  25
ENDBRANCH   1  24
TORSDOF 13
ENDMDL
MODEL 2
REMARK VINA RESULT:     -11.0      2.660      7.213
REMARK SMILES COc1ccc2c(c1)C=C(C(=O)NCCCCNC(=O)c1ccc(-c3c4nc(c(-c5ccccc5)c5ccc([nH]5)c(-c5ccccc5)c5nc(c(-c6ccccc6)c6ccc3[nH]6)C=C5)C=C4)cc1)[C@H](C(F)(F)F)O2
REMARK SMILES IDX 16 1 15 2 14 3 13 4 11 5 12 6 10 8 3 9 4 10 8 11 5 12 7 13
REMARK SMILES IDX 6 14 9 15 74 16 69 17 2 18 1 19 70 20 71 21 72 22 73 23
REMARK SMILES IDX 17 24 18 25 19 26 20 28 21 29 22 30 68 31 23 32 67 33 24 34
REMARK SMILES IDX 25 35 26 36 61 37 27 38 66 39 60 40 62 41 28 42 65 43 59 44
REMARK SMILES IDX 58 45 29 47 51 48 36 49 50 50 37 51 40 52 49 53 63 54 38 55
REMARK SMILES IDX 39 56 48 58 64 59 41 60 30 61 31 62 35 63 32 64 34 65 33 66
REMARK SMILES IDX 52 67 53 68 57 69 54 70 56 71 55 72 42 73 43 74 47 75 44 76
REMARK SMILES IDX 46 77 45 78
REMARK H PARENT 13 7 18 27 62 46 40 57
REMARK Flexibility Score: inf
ROOT
ATOM      1  C   UNL A   1      37.885  21.700  24.829  1.00  0.00     0.023 C 
ENDROOT
BRANCH   1   2
ATOM      2  C   UNL A   1      37.774  23.201  25.108  1.00  0.00     0.023 C 
BRANCH   2   3
ATOM      3  C   UNL A   1      36.349  23.759  25.006  1.00  0.00     0.116 C 
BRANCH   3   4
ATOM      4  N   UNL A   1      35.619  23.505  26.237  1.00  0.00    -0.352 N 
ATOM      5  C   UNL A   1      34.559  22.702  26.524  1.00  0.00     0.251 C 
ATOM      6  O   UNL A   1      34.051  22.795  27.638  1.00  0.00    -0.270 OA
ATOM      7  H   UNL A   1      35.957  24.010  27.011  1.00  0.00     0.163 HD
BRANCH   5   8
ATOM      8  C   UNL A   1      34.040  21.678  25.578  1.00  0.00     0.067 C 
ATOM      9  C   UNL A   1      33.808  17.219  23.744  1.00  0.00     0.119 A 
ATOM     10  C   UNL A   1      32.726  17.590  22.949  1.00  0.00     0.050 A 
ATOM     11  C   UNL A   1      34.410  18.155  24.582  1.00  0.00     0.058 A 
ATOM     12  C   UNL A   1      32.261  18.909  22.981  1.00  0.00     0.051 A 
ATOM     13  C   UNL A   1      33.948  19.475  24.609  1.00  0.00     0.021 A 
ATOM     14  C   UNL A   1      32.873  19.849  23.811  1.00  0.00     0.128 A 
ATOM     15  C   UNL A   1      34.532  20.433  25.526  1.00  0.00     0.025 C 
ATOM     16  O   UNL A   1      32.322  21.094  23.838  1.00  0.00    -0.475 OA
ATOM     17  C   UNL A   1      33.020  22.161  24.549  1.00  0.00     0.314 C 
BRANCH   9  18
ATOM     18  O   UNL A   1      34.275  15.937  23.837  1.00  0.00    -0.497 OA
ATOM     19  C   UNL A   1      34.954  15.677  25.061  1.00  0.00     0.278 C 
ENDBRANCH   9  18
BRANCH  17  20
ATOM     20  C   UNL A   1      31.945  23.138  25.078  1.00  0.00     0.429 C 
ATOM     21  F   UNL A   1      30.883  23.247  24.250  1.00  0.00    -0.167 F 
ATOM     22  F   UNL A   1      31.436  22.708  26.265  1.00  0.00    -0.167 F 
ATOM     23  F   UNL A   1      32.439  24.379  25.293  1.00  0.00    -0.167 F 
ENDBRANCH  17  20
ENDBRANCH   5   8
ENDBRANCH   3   4
ENDBRANCH   2   3
ENDBRANCH   1   2
BRANCH   1  24
ATOM     24  C   UNL A   1      38.230  20.853  26.046  1.00  0.00     0.116 C 
BRANCH  24  25
ATOM     25  N   UNL A   1      39.210  19.815  25.765  1.00  0.00    -0.352 N 
ATOM     26  C   UNL A   1      40.572  19.860  25.944  1.00  0.00     0.251 C 
ATOM     27  H   UNL A   1      38.851  18.973  25.401  1.00  0.00     0.163 HD
ATOM     28  O   UNL A   1      41.284  18.939  25.569  1.00  0.00    -0.269 OA
BRANCH  26  29
ATOM     29  C   UNL A   1      41.171  21.064  26.554  1.00  0.00     0.039 A 
ATOM     30  C   UNL A   1      41.708  22.045  25.717  1.00  0.00     0.014 A 
ATOM     31  C   UNL A   1      41.154  21.242  27.939  1.00  0.00     0.014 A 
ATOM     32  C   UNL A   1      42.167  23.242  26.269  1.00  0.00     0.010 A 
ATOM     33  C   UNL A   1      41.552  22.459  28.480  1.00  0.00     0.010 A 
ATOM     34  C   UNL A   1      42.057  23.471  27.650  1.00  0.00    -0.014 A 
BRANCH  34  35
ATOM     35  C   UNL A   1      42.461  24.763  28.253  1.00  0.00     0.031 A 
ATOM     36  C   UNL A   1      41.442  25.850  28.444  1.00  0.00     0.074 A 
ATOM     37  C   UNL A   1      43.755  24.987  28.549  1.00  0.00     0.049 A 
ATOM     38  N   UNL A   1      41.613  27.078  28.860  1.00  0.00    -0.248 NA
ATOM     39  C   UNL A   1      40.051  25.520  28.095  1.00  0.00     0.031 C 
ATOM     40  C   UNL A   1      44.845  24.023  28.379  1.00  0.00     0.029 A 
ATOM     41  N   UNL A   1      44.374  26.106  29.046  1.00  0.00    -0.354 N 
ATOM     42  C   UNL A   1      40.361  27.673  28.799  1.00  0.00     0.074 A 
ATOM     43  C   UNL A   1      39.446  26.686  28.268  1.00  0.00     0.031 C 
ATOM     44  C   UNL A   1      45.994  24.586  28.787  1.00  0.00     0.029 A 
ATOM     45  C   UNL A   1      45.730  25.958  29.208  1.00  0.00     0.049 A 
ATOM     46  H   UNL A   1      43.892  26.936  29.265  1.00  0.00     0.167 HD
ATOM     47  C   UNL A   1      39.999  28.925  29.167  1.00  0.00     0.031 A 
ATOM     48  C   UNL A   1      46.655  26.833  29.641  1.00  0.00     0.031 A 
ATOM     49  C   UNL A   1      40.903  29.901  29.711  1.00  0.00     0.049 A 
ATOM     50  C   UNL A   1      46.232  28.220  30.031  1.00  0.00     0.074 A 
ATOM     51  C   UNL A   1      40.622  31.175  30.172  1.00  0.00     0.029 A 
ATOM     52  N   UNL A   1      42.266  29.708  29.868  1.00  0.00    -0.354 N 
ATOM     53  N   UNL A   1      45.033  28.750  30.025  1.00  0.00    -0.248 NA
ATOM     54  C   UNL A   1      47.291  29.129  30.494  1.00  0.00     0.031 C 
ATOM     55  C   UNL A   1      41.824  31.769  30.571  1.00  0.00     0.029 A 
ATOM     56  C   UNL A   1      42.845  30.848  30.400  1.00  0.00     0.049 A 
ATOM     57  H   UNL A   1      42.752  28.884  29.636  1.00  0.00     0.167 HD
ATOM     58  C   UNL A   1      45.187  30.042  30.509  1.00  0.00     0.074 A 
ATOM     59  C   UNL A   1      46.594  30.214  30.807  1.00  0.00     0.031 C 
ATOM     60  C   UNL A   1      44.246  30.998  30.695  1.00  0.00     0.031 A 
BRANCH  47  61
ATOM     61  C   UNL A   1      38.558  29.306  28.980  1.00  0.00    -0.014 A 
ATOM     62  C   UNL A   1      38.083  29.770  27.743  1.00  0.00     0.009 A 
ATOM     63  C   UNL A   1      37.659  29.182  30.051  1.00  0.00     0.009 A 
ATOM     64  C   UNL A   1      36.746  30.143  27.595  1.00  0.00     0.001 A 
ATOM     65  C   UNL A   1      36.317  29.530  29.891  1.00  0.00     0.001 A 
ATOM     66  C   UNL A   1      35.864  30.021  28.667  1.00  0.00     0.000 A 
ENDBRANCH  47  61
BRANCH  48  67
ATOM     67  C   UNL A   1      48.077  26.418  29.751  1.00  0.00    -0.014 A 
ATOM     68  C   UNL A   1      48.957  26.623  28.677  1.00  0.00     0.009 A 
ATOM     69  C   UNL A   1      48.563  25.816  30.922  1.00  0.00     0.009 A 
ATOM     70  C   UNL A   1      50.289  26.213  28.765  1.00  0.00     0.001 A 
ATOM     71  C   UNL A   1      49.901  25.428  31.015  1.00  0.00     0.001 A 
ATOM     72  C   UNL A   1      50.761  25.620  29.935  1.00  0.00     0.000 A 
ENDBRANCH  48  67
BRANCH  60  73
ATOM     73  C   UNL A   1      44.701  32.302  31.283  1.00  0.00    -0.014 A 
ATOM     74  C   UNL A   1      45.091  33.372  30.463  1.00  0.00     0.009 A 
ATOM     75  C   UNL A   1      44.689  32.476  32.675  1.00  0.00     0.009 A 
ATOM     76  C   UNL A   1      45.487  34.584  31.032  1.00  0.00     0.001 A 
ATOM     77  C   UNL A   1      45.061  33.696  33.239  1.00  0.00     0.001 A 
ATOM     78  C   UNL A   1      45.467  34.747  32.417  1.00  0.00     0.000 A 
ENDBRANCH  60  73
ENDBRANCH  34  35
ENDBRANCH  26  29
ENDBRANCH  24  25
ENDBRANCH   1  24
TORSDOF 13
ENDMDL
MODEL 3
REMARK VINA RESULT:     -11.0      2.479      6.937
REMARK SMILES COc1ccc2c(c1)C=C(C(=O)NCCCCNC(=O)c1ccc(-c3c4nc(c(-c5ccccc5)c5ccc([nH]5)c(-c5ccccc5)c5nc(c(-c6ccccc6)c6ccc3[nH]6)C=C5)C=C4)cc1)[C@H](C(F)(F)F)O2
REMARK SMILES IDX 16 1 15 2 14 3 13 4 11 5 12 6 10 8 3 9 4 10 8 11 5 12 7 13
REMARK SMILES IDX 6 14 9 15 74 16 69 17 2 18 1 19 70 20 71 21 72 22 73 23
REMARK SMILES IDX 17 24 18 25 19 26 20 28 21 29 22 30 68 31 23 32 67 33 24 34
REMARK SMILES IDX 25 35 26 36 61 37 27 38 66 39 60 40 62 41 28 42 65 43 59 44
REMARK SMILES IDX 58 45 29 47 51 48 36 49 50 50 37 51 40 52 49 53 63 54 38 55
REMARK SMILES IDX 39 56 48 58 64 59 41 60 30 61 31 62 35 63 32 64 34 65 33 66
REMARK SMILES IDX 52 67 53 68 57 69 54 70 56 71 55 72 42 73 43 74 47 75 44 76
REMARK SMILES IDX 46 77 45 78
REMARK H PARENT 13 7 18 27 62 46 40 57
REMARK Flexibility Score: inf
ROOT
ATOM      1  C   UNL A   1      31.738  30.524  26.629  1.00  0.00     0.023 C 
ENDROOT
BRANCH   1   2
ATOM      2  C   UNL A   1      31.841  29.117  27.223  1.00  0.00     0.023 C 
BRANCH   2   3
ATOM      3  C   UNL A   1      31.934  27.995  26.181  1.00  0.00     0.116 C 
BRANCH   3   4
ATOM      4  N   UNL A   1      31.239  26.810  26.653  1.00  0.00    -0.352 N 
ATOM      5  C   UNL A   1      31.378  25.489  26.359  1.00  0.00     0.251 C 
ATOM      6  O   UNL A   1      30.544  24.708  26.810  1.00  0.00    -0.270 OA
ATOM      7  H   UNL A   1      30.534  26.999  27.312  1.00  0.00     0.163 HD
BRANCH   5   8
ATOM      8  C   UNL A   1      32.525  24.949  25.580  1.00  0.00     0.067 C 
ATOM      9  C   UNL A   1      36.716  22.597  25.134  1.00  0.00     0.119 A 
ATOM     10  C   UNL A   1      36.614  22.655  23.747  1.00  0.00     0.050 A 
ATOM     11  C   UNL A   1      35.727  23.171  25.930  1.00  0.00     0.058 A 
ATOM     12  C   UNL A   1      35.527  23.308  23.157  1.00  0.00     0.051 A 
ATOM     13  C   UNL A   1      34.643  23.829  25.339  1.00  0.00     0.021 A 
ATOM     14  C   UNL A   1      34.543  23.893  23.954  1.00  0.00     0.128 A 
ATOM     15  C   UNL A   1      33.581  24.371  26.164  1.00  0.00     0.025 C 
ATOM     16  O   UNL A   1      33.482  24.452  23.309  1.00  0.00    -0.475 OA
ATOM     17  C   UNL A   1      32.515  25.229  24.079  1.00  0.00     0.314 C 
BRANCH   9  18
ATOM     18  O   UNL A   1      37.698  21.911  25.794  1.00  0.00    -0.497 OA
ATOM     19  C   UNL A   1      38.032  20.675  25.171  1.00  0.00     0.278 C 
ENDBRANCH   9  18
BRANCH  17  20
ATOM     20  C   UNL A   1      31.145  25.080  23.377  1.00  0.00     0.429 C 
ATOM     21  F   UNL A   1      30.283  26.071  23.694  1.00  0.00    -0.167 F 
ATOM     22  F   UNL A   1      31.282  25.139  22.024  1.00  0.00    -0.167 F 
ATOM     23  F   UNL A   1      30.549  23.899  23.657  1.00  0.00    -0.167 F 
ENDBRANCH  17  20
ENDBRANCH   5   8
ENDBRANCH   3   4
ENDBRANCH   2   3
ENDBRANCH   1   2
BRANCH   1  24
ATOM     24  C   UNL A   1      32.874  31.460  27.017  1.00  0.00     0.116 C 
BRANCH  24  25
ATOM     25  N   UNL A   1      32.421  32.795  27.376  1.00  0.00    -0.352 N 
ATOM     26  C   UNL A   1      33.051  33.721  28.172  1.00  0.00     0.251 C 
ATOM     27  H   UNL A   1      31.554  33.070  26.998  1.00  0.00     0.163 HD
ATOM     28  O   UNL A   1      32.500  34.774  28.465  1.00  0.00    -0.269 OA
BRANCH  26  29
ATOM     29  C   UNL A   1      34.389  33.406  28.711  1.00  0.00     0.039 A 
ATOM     30  C   UNL A   1      34.480  32.729  29.930  1.00  0.00     0.014 A 
ATOM     31  C   UNL A   1      35.540  33.731  27.991  1.00  0.00     0.014 A 
ATOM     32  C   UNL A   1      35.729  32.315  30.394  1.00  0.00     0.010 A 
ATOM     33  C   UNL A   1      36.776  33.263  28.422  1.00  0.00     0.010 A 
ATOM     34  C   UNL A   1      36.880  32.547  29.625  1.00  0.00    -0.014 A 
BRANCH  34  35
ATOM     35  C   UNL A   1      38.209  32.048  30.053  1.00  0.00     0.031 A 
ATOM     36  C   UNL A   1      38.721  30.738  29.525  1.00  0.00     0.074 A 
ATOM     37  C   UNL A   1      38.912  32.729  30.976  1.00  0.00     0.049 A 
ATOM     38  N   UNL A   1      39.807  30.086  29.851  1.00  0.00    -0.248 NA
ATOM     39  C   UNL A   1      37.888  30.061  28.519  1.00  0.00     0.031 C 
ATOM     40  C   UNL A   1      38.508  33.997  31.589  1.00  0.00     0.029 A 
ATOM     41  N   UNL A   1      40.115  32.441  31.570  1.00  0.00    -0.354 N 
ATOM     42  C   UNL A   1      39.776  28.912  29.110  1.00  0.00     0.074 A 
ATOM     43  C   UNL A   1      38.545  28.922  28.349  1.00  0.00     0.031 C 
ATOM     44  C   UNL A   1      39.457  34.388  32.454  1.00  0.00     0.029 A 
ATOM     45  C   UNL A   1      40.515  33.382  32.487  1.00  0.00     0.049 A 
ATOM     46  H   UNL A   1      40.642  31.637  31.358  1.00  0.00     0.167 HD
ATOM     47  C   UNL A   1      40.696  27.921  29.055  1.00  0.00     0.031 A 
ATOM     48  C   UNL A   1      41.607  33.425  33.271  1.00  0.00     0.031 A 
ATOM     49  C   UNL A   1      41.926  27.917  29.796  1.00  0.00     0.049 A 
ATOM     50  C   UNL A   1      42.608  32.307  33.201  1.00  0.00     0.074 A 
ATOM     51  C   UNL A   1      42.952  26.989  29.763  1.00  0.00     0.029 A 
ATOM     52  N   UNL A   1      42.298  28.894  30.707  1.00  0.00    -0.354 N 
ATOM     53  N   UNL A   1      42.594  31.232  32.451  1.00  0.00    -0.248 NA
ATOM     54  C   UNL A   1      43.779  32.412  34.084  1.00  0.00     0.031 C 
ATOM     55  C   UNL A   1      43.928  27.384  30.685  1.00  0.00     0.029 A 
ATOM     56  C   UNL A   1      43.528  28.580  31.259  1.00  0.00     0.049 A 
ATOM     57  H   UNL A   1      41.766  29.691  30.931  1.00  0.00     0.167 HD
ATOM     58  C   UNL A   1      43.764  30.547  32.748  1.00  0.00     0.074 A 
ATOM     59  C   UNL A   1      44.469  31.332  33.742  1.00  0.00     0.031 C 
ATOM     60  C   UNL A   1      44.217  29.376  32.241  1.00  0.00     0.031 A 
BRANCH  47  61
ATOM     61  C   UNL A   1      40.391  26.751  28.163  1.00  0.00    -0.014 A 
ATOM     62  C   UNL A   1      40.911  26.675  26.861  1.00  0.00     0.009 A 
ATOM     63  C   UNL A   1      39.587  25.702  28.636  1.00  0.00     0.009 A 
ATOM     64  C   UNL A   1      40.596  25.594  26.036  1.00  0.00     0.001 A 
ATOM     65  C   UNL A   1      39.297  24.609  27.818  1.00  0.00     0.001 A 
ATOM     66  C   UNL A   1      39.792  24.561  26.516  1.00  0.00     0.000 A 
ENDBRANCH  47  61
BRANCH  48  67
ATOM     67  C   UNL A   1      41.828  34.581  34.177  1.00  0.00    -0.014 A 
ATOM     68  C   UNL A   1      42.483  35.730  33.709  1.00  0.00     0.009 A 
ATOM     69  C   UNL A   1      41.389  34.544  35.509  1.00  0.00     0.009 A 
ATOM     70  C   UNL A   1      42.714  36.811  34.563  1.00  0.00     0.001 A 
ATOM     71  C   UNL A   1      41.600  35.636  36.354  1.00  0.00     0.001 A 
ATOM     72  C   UNL A   1      42.270  36.764  35.883  1.00  0.00     0.000 A 
ENDBRANCH  48  67
BRANCH  60  73
ATOM     73  C   UNL A   1      45.554  28.892  32.721  1.00  0.00    -0.014 A 
ATOM     74  C   UNL A   1      45.661  28.001  33.799  1.00  0.00     0.009 A 
ATOM     75  C   UNL A   1      46.719  29.296  32.050  1.00  0.00     0.009 A 
ATOM     76  C   UNL A   1      46.913  27.545  34.213  1.00  0.00     0.001 A 
ATOM     77  C   UNL A   1      47.967  28.818  32.449  1.00  0.00     0.001 A 
ATOM     78  C   UNL A   1      48.064  27.948  33.535  1.00  0.00     0.000 A 
ENDBRANCH  60  73
ENDBRANCH  34  35
ENDBRANCH  26  29
ENDBRANCH  24  25
ENDBRANCH   1  24
TORSDOF 13
ENDMDL
