MODEL 1
REMARK VINA RESULT:     -13.6      0.000      0.000
REMARK SMILES C[C@]1(C(=O)NCCCCNC(=O)c2ccc(-c3c4nc(c(-c5ccccc5)c5ccc([nH]5)c(-c5ccccc5)c5nc(c(-c6ccccc6)c6ccc3[nH]6)C=C5)C=C4)cc2)[NH2+]C2(C(=O)c3ccccc3C2=O)[C@@H]2C(=O)N(c3ccccc3)C(=O)[C@H]21
REMARK SMILES IDX 8 1 7 2 6 3 5 4 3 5 4 6 2 8 1 9 61 10 85 11 62 12 73 15
REMARK SMILES IDX 83 16 63 17 71 18 74 19 76 20 84 21 64 22 65 23 70 24 72 25
REMARK SMILES IDX 75 26 66 27 69 28 67 29 68 30 77 31 78 32 82 33 79 34 81 35
REMARK SMILES IDX 80 36 9 37 10 38 11 39 12 41 13 42 14 43 60 44 15 45 59 46
REMARK SMILES IDX 16 47 17 48 18 49 53 50 19 51 58 52 52 53 54 54 20 55 57 56
REMARK SMILES IDX 51 57 50 58 21 60 43 61 28 62 42 63 29 64 32 65 41 66 55 67
REMARK SMILES IDX 30 68 31 69 40 71 56 72 33 73 22 74 23 75 27 76 24 77 26 78
REMARK SMILES IDX 25 79 44 80 45 81 49 82 46 83 48 84 47 85 34 86 35 87 39 88
REMARK SMILES IDX 36 89 38 90 37 91
REMARK H PARENT 5 7 61 13 61 14 10 40 54 59 32 70
REMARK Flexibility Score: inf
ROOT
ATOM      1  C   UNL A   1      33.272  33.239  28.199  1.00  0.00     0.023 C 
ENDROOT
BRANCH   1   2
ATOM      2  C   UNL A   1      34.047  31.943  28.107  1.00  0.00     0.023 C 
BRANCH   2   3
ATOM      3  C   UNL A   1      33.423  30.854  27.250  1.00  0.00     0.116 C 
BRANCH   3   4
ATOM      4  N   UNL A   1      32.645  29.825  27.858  1.00  0.00    -0.351 N 
ATOM      5  C   UNL A   1      32.489  28.524  27.465  1.00  0.00     0.281 C 
ATOM      6  O   UNL A   1      31.760  27.863  28.221  1.00  0.00    -0.268 OA
ATOM      7  H   UNL A   1      32.154  30.087  28.670  1.00  0.00     0.163 HD
BRANCH   5   8
ATOM      8  C   UNL A   1      33.151  27.830  26.180  1.00  0.00     0.186 C 
ATOM      9  C   UNL A   1      34.535  28.515  26.021  1.00  0.00     0.091 C 
ATOM     10  N   UNL A   1      33.385  26.334  26.323  1.00  0.00    -0.314 N 
ATOM     11  C   UNL A   1      32.453  27.886  24.849  1.00  0.00     0.170 C 
ATOM     12  C   UNL A   1      32.519  25.580  25.313  1.00  0.00     0.236 C 
ATOM     13  H   UNL A   1      33.138  26.041  27.268  1.00  0.00     0.348 HD
ATOM     14  H   UNL A   1      34.369  26.126  26.146  1.00  0.00     0.348 HD
ATOM     15  C   UNL A   1      31.596  26.639  24.775  1.00  0.00     0.177 C 
ATOM     16  C   UNL A   1      31.495  28.925  24.401  1.00  0.00     0.244 C 
ATOM     17  C   UNL A   1      33.317  24.813  24.253  1.00  0.00     0.232 C 
ATOM     18  C   UNL A   1      31.844  24.418  26.080  1.00  0.00     0.232 C 
ATOM     19  C   UNL A   1      30.926  26.885  23.458  1.00  0.00     0.245 C 
ATOM     20  N   UNL A   1      30.725  28.272  23.438  1.00  0.00    -0.250 N 
ATOM     21  O   UNL A   1      31.447  30.072  24.800  1.00  0.00    -0.273 OA
ATOM     22  O   UNL A   1      34.111  25.290  23.463  1.00  0.00    -0.286 OA
ATOM     23  C   UNL A   1      32.996  23.374  24.362  1.00  0.00     0.036 A 
ATOM     24  C   UNL A   1      32.141  23.167  25.428  1.00  0.00     0.036 A 
ATOM     25  O   UNL A   1      31.199  24.409  27.110  1.00  0.00    -0.286 OA
ATOM     26  O   UNL A   1      30.503  26.012  22.722  1.00  0.00    -0.273 OA
ATOM     27  C   UNL A   1      33.428  22.294  23.619  1.00  0.00     0.013 A 
ATOM     28  C   UNL A   1      31.686  21.920  25.825  1.00  0.00     0.013 A 
ATOM     29  C   UNL A   1      32.975  21.013  23.988  1.00  0.00     0.001 A 
ATOM     30  C   UNL A   1      32.113  20.826  25.086  1.00  0.00     0.001 A 
BRANCH  20  31
ATOM     31  C   UNL A   1      29.697  28.949  22.756  1.00  0.00     0.052 A 
ATOM     32  C   UNL A   1      30.016  29.937  21.814  1.00  0.00     0.027 A 
ATOM     33  C   UNL A   1      28.364  28.772  23.142  1.00  0.00     0.027 A 
ATOM     34  C   UNL A   1      29.013  30.730  21.255  1.00  0.00     0.002 A 
ATOM     35  C   UNL A   1      27.370  29.607  22.621  1.00  0.00     0.002 A 
ATOM     36  C   UNL A   1      27.694  30.579  21.674  1.00  0.00     0.000 A 
ENDBRANCH  20  31
ENDBRANCH   5   8
ENDBRANCH   3   4
ENDBRANCH   2   3
ENDBRANCH   1   2
BRANCH   1  37
ATOM     37  C   UNL A   1      33.924  34.319  29.053  1.00  0.00     0.116 C 
BRANCH  37  38
ATOM     38  N   UNL A   1      33.000  35.202  29.773  1.00  0.00    -0.352 N 
ATOM     39  C   UNL A   1      32.972  35.559  31.108  1.00  0.00     0.251 C 
ATOM     40  H   UNL A   1      32.289  35.601  29.220  1.00  0.00     0.163 HD
ATOM     41  O   UNL A   1      32.105  36.309  31.544  1.00  0.00    -0.269 OA
BRANCH  39  42
ATOM     42  C   UNL A   1      33.963  34.960  32.025  1.00  0.00     0.039 A 
ATOM     43  C   UNL A   1      35.203  35.567  32.176  1.00  0.00     0.014 A 
ATOM     44  C   UNL A   1      33.723  33.699  32.577  1.00  0.00     0.014 A 
ATOM     45  C   UNL A   1      36.280  34.779  32.543  1.00  0.00     0.010 A 
ATOM     46  C   UNL A   1      34.788  32.975  33.125  1.00  0.00     0.010 A 
ATOM     47  C   UNL A   1      36.097  33.467  33.020  1.00  0.00    -0.014 A 
BRANCH  47  48
ATOM     48  C   UNL A   1      37.298  32.656  33.367  1.00  0.00     0.031 A 
ATOM     49  C   UNL A   1      37.931  31.706  32.377  1.00  0.00     0.074 A 
ATOM     50  C   UNL A   1      37.894  32.866  34.560  1.00  0.00     0.049 A 
ATOM     51  N   UNL A   1      39.019  30.986  32.513  1.00  0.00    -0.248 NA
ATOM     52  C   UNL A   1      37.265  31.526  31.076  1.00  0.00     0.031 C 
ATOM     53  C   UNL A   1      37.396  33.773  35.598  1.00  0.00     0.029 A 
ATOM     54  N   UNL A   1      39.072  32.391  35.077  1.00  0.00    -0.354 N 
ATOM     55  C   UNL A   1      39.145  30.249  31.339  1.00  0.00     0.074 A 
ATOM     56  C   UNL A   1      38.012  30.587  30.508  1.00  0.00     0.031 C 
ATOM     57  C   UNL A   1      38.312  33.878  36.567  1.00  0.00     0.029 A 
ATOM     58  C   UNL A   1      39.407  32.960  36.283  1.00  0.00     0.049 A 
ATOM     59  H   UNL A   1      39.623  31.709  34.630  1.00  0.00     0.167 HD
ATOM     60  C   UNL A   1      40.121  29.379  30.983  1.00  0.00     0.031 A 
ATOM     61  C   UNL A   1      40.466  32.764  37.090  1.00  0.00     0.031 A 
ATOM     62  C   UNL A   1      41.265  29.064  31.801  1.00  0.00     0.049 A 
ATOM     63  C   UNL A   1      41.514  31.773  36.685  1.00  0.00     0.074 A 
ATOM     64  C   UNL A   1      42.314  28.207  31.514  1.00  0.00     0.029 A 
ATOM     65  N   UNL A   1      41.518  29.598  33.054  1.00  0.00    -0.354 N 
ATOM     66  N   UNL A   1      41.603  31.077  35.579  1.00  0.00    -0.248 NA
ATOM     67  C   UNL A   1      42.599  31.531  37.643  1.00  0.00     0.031 C 
ATOM     68  C   UNL A   1      43.166  28.171  32.621  1.00  0.00     0.029 A 
ATOM     69  C   UNL A   1      42.691  29.066  33.565  1.00  0.00     0.049 A 
ATOM     70  H   UNL A   1      40.950  30.258  33.514  1.00  0.00     0.167 HD
ATOM     71  C   UNL A   1      42.757  30.316  35.703  1.00  0.00     0.074 A 
ATOM     72  C   UNL A   1      43.352  30.664  36.979  1.00  0.00     0.031 C 
ATOM     73  C   UNL A   1      43.268  29.404  34.841  1.00  0.00     0.031 A 
BRANCH  60  74
ATOM     74  C   UNL A   1      40.004  28.675  29.655  1.00  0.00    -0.014 A 
ATOM     75  C   UNL A   1      39.438  27.391  29.596  1.00  0.00     0.009 A 
ATOM     76  C   UNL A   1      40.551  29.226  28.484  1.00  0.00     0.009 A 
ATOM     77  C   UNL A   1      39.436  26.666  28.402  1.00  0.00     0.001 A 
ATOM     78  C   UNL A   1      40.519  28.510  27.283  1.00  0.00     0.001 A 
ATOM     79  C   UNL A   1      39.973  27.228  27.246  1.00  0.00     0.000 A 
ENDBRANCH  60  74
BRANCH  61  80
ATOM     80  C   UNL A   1      40.560  33.528  38.363  1.00  0.00    -0.014 A 
ATOM     81  C   UNL A   1      39.950  33.043  39.532  1.00  0.00     0.009 A 
ATOM     82  C   UNL A   1      41.194  34.778  38.400  1.00  0.00     0.009 A 
ATOM     83  C   UNL A   1      39.934  33.809  40.698  1.00  0.00     0.001 A 
ATOM     84  C   UNL A   1      41.212  35.526  39.580  1.00  0.00     0.001 A 
ATOM     85  C   UNL A   1      40.570  35.049  40.722  1.00  0.00     0.000 A 
ENDBRANCH  61  80
BRANCH  73  86
ATOM     86  C   UNL A   1      44.540  28.709  35.241  1.00  0.00    -0.014 A 
ATOM     87  C   UNL A   1      45.781  29.242  34.853  1.00  0.00     0.009 A 
ATOM     88  C   UNL A   1      44.512  27.492  35.937  1.00  0.00     0.009 A 
ATOM     89  C   UNL A   1      46.964  28.564  35.143  1.00  0.00     0.001 A 
ATOM     90  C   UNL A   1      45.701  26.834  36.258  1.00  0.00     0.001 A 
ATOM     91  C   UNL A   1      46.925  27.365  35.852  1.00  0.00     0.000 A 
ENDBRANCH  73  86
ENDBRANCH  47  48
ENDBRANCH  39  42
ENDBRANCH  37  38
ENDBRANCH   1  37
TORSDOF 12
ENDMDL
MODEL 2
REMARK VINA RESULT:     -13.5      0.315      5.551
REMARK SMILES C[C@]1(C(=O)NCCCCNC(=O)c2ccc(-c3c4nc(c(-c5ccccc5)c5ccc([nH]5)c(-c5ccccc5)c5nc(c(-c6ccccc6)c6ccc3[nH]6)C=C5)C=C4)cc2)[NH2+]C2(C(=O)c3ccccc3C2=O)[C@@H]2C(=O)N(c3ccccc3)C(=O)[C@H]21
REMARK SMILES IDX 8 1 7 2 6 3 5 4 3 5 4 6 2 8 1 9 61 10 85 11 62 12 73 15
REMARK SMILES IDX 83 16 63 17 71 18 74 19 76 20 84 21 64 22 65 23 70 24 72 25
REMARK SMILES IDX 75 26 66 27 69 28 67 29 68 30 77 31 78 32 82 33 79 34 81 35
REMARK SMILES IDX 80 36 9 37 10 38 11 39 12 41 13 42 14 43 60 44 15 45 59 46
REMARK SMILES IDX 16 47 17 48 18 49 53 50 19 51 58 52 52 53 54 54 20 55 57 56
REMARK SMILES IDX 51 57 50 58 21 60 43 61 28 62 42 63 29 64 32 65 41 66 55 67
REMARK SMILES IDX 30 68 31 69 40 71 56 72 33 73 22 74 23 75 27 76 24 77 26 78
REMARK SMILES IDX 25 79 44 80 45 81 49 82 46 83 48 84 47 85 34 86 35 87 39 88
REMARK SMILES IDX 36 89 38 90 37 91
REMARK H PARENT 5 7 61 13 61 14 10 40 54 59 32 70
REMARK Flexibility Score: inf
ROOT
ATOM      1  C   UNL A   1      33.478  33.206  28.173  1.00  0.00     0.023 C 
ENDROOT
BRANCH   1   2
ATOM      2  C   UNL A   1      34.160  31.856  28.179  1.00  0.00     0.023 C 
BRANCH   2   3
ATOM      3  C   UNL A   1      33.532  30.789  27.299  1.00  0.00     0.116 C 
BRANCH   3   4
ATOM      4  N   UNL A   1      32.721  29.771  27.880  1.00  0.00    -0.351 N 
ATOM      5  C   UNL A   1      32.530  28.483  27.460  1.00  0.00     0.281 C 
ATOM      6  O   UNL A   1      31.777  27.828  28.197  1.00  0.00    -0.268 OA
ATOM      7  H   UNL A   1      32.231  30.030  28.695  1.00  0.00     0.163 HD
BRANCH   5   8
ATOM      8  C   UNL A   1      33.181  27.796  26.165  1.00  0.00     0.186 C 
ATOM      9  C   UNL A   1      34.565  28.480  26.000  1.00  0.00     0.091 C 
ATOM     10  N   UNL A   1      33.413  26.299  26.296  1.00  0.00    -0.314 N 
ATOM     11  C   UNL A   1      32.473  27.863  24.839  1.00  0.00     0.170 C 
ATOM     12  C   UNL A   1      32.537  25.554  25.287  1.00  0.00     0.236 C 
ATOM     13  H   UNL A   1      33.173  26.000  27.241  1.00  0.00     0.348 HD
ATOM     14  H   UNL A   1      34.395  26.090  26.111  1.00  0.00     0.348 HD
ATOM     15  C   UNL A   1      31.613  26.618  24.763  1.00  0.00     0.177 C 
ATOM     16  C   UNL A   1      31.514  28.907  24.406  1.00  0.00     0.244 C 
ATOM     17  C   UNL A   1      33.326  24.793  24.216  1.00  0.00     0.232 C 
ATOM     18  C   UNL A   1      31.866  24.388  26.051  1.00  0.00     0.232 C 
ATOM     19  C   UNL A   1      30.934  26.874  23.453  1.00  0.00     0.245 C 
ATOM     20  N   UNL A   1      30.735  28.262  23.444  1.00  0.00    -0.250 N 
ATOM     21  O   UNL A   1      31.472  30.051  24.814  1.00  0.00    -0.273 OA
ATOM     22  O   UNL A   1      34.115  25.273  23.424  1.00  0.00    -0.286 OA
ATOM     23  C   UNL A   1      33.003  23.353  24.318  1.00  0.00     0.036 A 
ATOM     24  C   UNL A   1      32.155  23.140  25.389  1.00  0.00     0.036 A 
ATOM     25  O   UNL A   1      31.229  24.373  27.086  1.00  0.00    -0.286 OA
ATOM     26  O   UNL A   1      30.503  26.008  22.714  1.00  0.00    -0.273 OA
ATOM     27  C   UNL A   1      33.427  22.278  23.564  1.00  0.00     0.013 A 
ATOM     28  C   UNL A   1      31.701  21.892  25.781  1.00  0.00     0.013 A 
ATOM     29  C   UNL A   1      32.974  20.995  23.928  1.00  0.00     0.001 A 
ATOM     30  C   UNL A   1      32.120  20.802  25.031  1.00  0.00     0.001 A 
BRANCH  20  31
ATOM     31  C   UNL A   1      29.704  28.946  22.774  1.00  0.00     0.052 A 
ATOM     32  C   UNL A   1      30.018  29.945  21.843  1.00  0.00     0.027 A 
ATOM     33  C   UNL A   1      28.373  28.762  23.163  1.00  0.00     0.027 A 
ATOM     34  C   UNL A   1      29.012  30.744  21.298  1.00  0.00     0.002 A 
ATOM     35  C   UNL A   1      27.376  29.602  22.656  1.00  0.00     0.002 A 
ATOM     36  C   UNL A   1      27.694  30.586  21.720  1.00  0.00     0.000 A 
ENDBRANCH  20  31
ENDBRANCH   5   8
ENDBRANCH   3   4
ENDBRANCH   2   3
ENDBRANCH   1   2
BRANCH   1  37
ATOM     37  C   UNL A   1      34.000  34.196  29.207  1.00  0.00     0.116 C 
BRANCH  37  38
ATOM     38  N   UNL A   1      32.976  34.873  30.010  1.00  0.00    -0.352 N 
ATOM     39  C   UNL A   1      32.944  35.141  31.365  1.00  0.00     0.251 C 
ATOM     40  H   UNL A   1      32.190  35.185  29.504  1.00  0.00     0.163 HD
ATOM     41  O   UNL A   1      31.986  35.714  31.874  1.00  0.00    -0.269 OA
BRANCH  39  42
ATOM     42  C   UNL A   1      34.052  34.656  32.213  1.00  0.00     0.039 A 
ATOM     43  C   UNL A   1      35.203  35.424  32.330  1.00  0.00     0.014 A 
ATOM     44  C   UNL A   1      34.015  33.358  32.726  1.00  0.00     0.014 A 
ATOM     45  C   UNL A   1      36.395  34.781  32.617  1.00  0.00     0.010 A 
ATOM     46  C   UNL A   1      35.195  32.771  33.197  1.00  0.00     0.010 A 
ATOM     47  C   UNL A   1      36.417  33.443  33.051  1.00  0.00    -0.014 A 
BRANCH  47  48
ATOM     48  C   UNL A   1      37.735  32.795  33.312  1.00  0.00     0.031 A 
ATOM     49  C   UNL A   1      38.472  32.988  34.616  1.00  0.00     0.074 A 
ATOM     50  C   UNL A   1      38.218  31.929  32.397  1.00  0.00     0.049 A 
ATOM     51  N   UNL A   1      39.594  32.435  35.013  1.00  0.00    -0.248 NA
ATOM     52  C   UNL A   1      37.896  33.921  35.599  1.00  0.00     0.031 C 
ATOM     53  C   UNL A   1      37.591  31.637  31.104  1.00  0.00     0.029 A 
ATOM     54  N   UNL A   1      39.302  31.089  32.433  1.00  0.00    -0.354 N 
ATOM     55  C   UNL A   1      39.871  32.975  36.265  1.00  0.00     0.074 A 
ATOM     56  C   UNL A   1      38.816  33.920  36.556  1.00  0.00     0.031 C 
ATOM     57  C   UNL A   1      38.228  30.611  30.529  1.00  0.00     0.029 A 
ATOM     58  C   UNL A   1      39.377  30.248  31.348  1.00  0.00     0.049 A 
ATOM     59  H   UNL A   1      39.962  31.088  33.164  1.00  0.00     0.167 HD
ATOM     60  C   UNL A   1      40.904  32.702  37.098  1.00  0.00     0.031 A 
ATOM     61  C   UNL A   1      40.272  29.296  31.026  1.00  0.00     0.031 A 
ATOM     62  C   UNL A   1      41.939  31.739  36.819  1.00  0.00     0.049 A 
ATOM     63  C   UNL A   1      41.421  29.037  31.952  1.00  0.00     0.074 A 
ATOM     64  C   UNL A   1      43.016  31.384  37.613  1.00  0.00     0.029 A 
ATOM     65  N   UNL A   1      42.022  30.974  35.667  1.00  0.00    -0.354 N 
ATOM     66  N   UNL A   1      41.670  29.572  33.122  1.00  0.00    -0.248 NA
ATOM     67  C   UNL A   1      42.417  28.054  31.510  1.00  0.00     0.031 C 
ATOM     68  C   UNL A   1      43.787  30.453  36.913  1.00  0.00     0.029 A 
ATOM     69  C   UNL A   1      43.150  30.168  35.717  1.00  0.00     0.049 A 
ATOM     70  H   UNL A   1      41.378  30.997  34.923  1.00  0.00     0.167 HD
ATOM     71  C   UNL A   1      42.850  28.988  33.560  1.00  0.00     0.074 A 
ATOM     72  C   UNL A   1      43.246  28.032  32.544  1.00  0.00     0.031 C 
ATOM     73  C   UNL A   1      43.546  29.232  34.697  1.00  0.00     0.031 A 
BRANCH  60  74
ATOM     74  C   UNL A   1      40.995  33.460  38.399  1.00  0.00    -0.014 A 
ATOM     75  C   UNL A   1      40.326  32.975  39.535  1.00  0.00     0.009 A 
ATOM     76  C   UNL A   1      41.644  34.703  38.477  1.00  0.00     0.009 A 
ATOM     77  C   UNL A   1      40.287  33.723  40.713  1.00  0.00     0.001 A 
ATOM     78  C   UNL A   1      41.630  35.435  39.669  1.00  0.00     0.001 A 
ATOM     79  C   UNL A   1      40.943  34.951  40.781  1.00  0.00     0.000 A 
ENDBRANCH  60  74
BRANCH  61  80
ATOM     80  C   UNL A   1      40.101  28.538  29.758  1.00  0.00    -0.014 A 
ATOM     81  C   UNL A   1      39.460  27.288  29.756  1.00  0.00     0.009 A 
ATOM     82  C   UNL A   1      40.641  29.023  28.558  1.00  0.00     0.009 A 
ATOM     83  C   UNL A   1      39.401  26.519  28.593  1.00  0.00     0.001 A 
ATOM     84  C   UNL A   1      40.546  28.270  27.385  1.00  0.00     0.001 A 
ATOM     85  C   UNL A   1      39.940  27.014  27.407  1.00  0.00     0.000 A 
ENDBRANCH  61  80
BRANCH  73  86
ATOM     86  C   UNL A   1      44.815  28.455  34.914  1.00  0.00    -0.014 A 
ATOM     87  C   UNL A   1      44.779  27.237  35.612  1.00  0.00     0.009 A 
ATOM     88  C   UNL A   1      46.054  28.960  34.494  1.00  0.00     0.009 A 
ATOM     89  C   UNL A   1      45.957  26.547  35.895  1.00  0.00     0.001 A 
ATOM     90  C   UNL A   1      47.229  28.250  34.747  1.00  0.00     0.001 A 
ATOM     91  C   UNL A   1      47.181  27.049  35.455  1.00  0.00     0.000 A 
ENDBRANCH  73  86
ENDBRANCH  47  48
ENDBRANCH  39  42
ENDBRANCH  37  38
ENDBRANCH   1  37
TORSDOF 12
ENDMDL
MODEL 3
REMARK VINA RESULT:     -13.4      6.224     11.603
REMARK SMILES C[C@]1(C(=O)NCCCCNC(=O)c2ccc(-c3c4nc(c(-c5ccccc5)c5ccc([nH]5)c(-c5ccccc5)c5nc(c(-c6ccccc6)c6ccc3[nH]6)C=C5)C=C4)cc2)[NH2+]C2(C(=O)c3ccccc3C2=O)[C@@H]2C(=O)N(c3ccccc3)C(=O)[C@H]21
REMARK SMILES IDX 8 1 7 2 6 3 5 4 3 5 4 6 2 8 1 9 61 10 85 11 62 12 73 15
REMARK SMILES IDX 83 16 63 17 71 18 74 19 76 20 84 21 64 22 65 23 70 24 72 25
REMARK SMILES IDX 75 26 66 27 69 28 67 29 68 30 77 31 78 32 82 33 79 34 81 35
REMARK SMILES IDX 80 36 9 37 10 38 11 39 12 41 13 42 14 43 60 44 15 45 59 46
REMARK SMILES IDX 16 47 17 48 18 49 53 50 19 51 58 52 52 53 54 54 20 55 57 56
REMARK SMILES IDX 51 57 50 58 21 60 43 61 28 62 42 63 29 64 32 65 41 66 55 67
REMARK SMILES IDX 30 68 31 69 40 71 56 72 33 73 22 74 23 75 27 76 24 77 26 78
REMARK SMILES IDX 25 79 44 80 45 81 49 82 46 83 48 84 47 85 34 86 35 87 39 88
REMARK SMILES IDX 36 89 38 90 37 91
REMARK H PARENT 5 7 61 13 61 14 10 40 54 59 32 70
REMARK Flexibility Score: inf
ROOT
ATOM      1  C   UNL A   1      40.699  20.255  26.109  1.00  0.00     0.023 C 
ENDROOT
BRANCH   1   2
ATOM      2  C   UNL A   1      39.936  21.555  26.234  1.00  0.00     0.023 C 
BRANCH   2   3
ATOM      3  C   UNL A   1      38.496  21.530  25.751  1.00  0.00     0.116 C 
BRANCH   3   4
ATOM      4  N   UNL A   1      38.144  22.157  24.520  1.00  0.00    -0.351 N 
ATOM      5  C   UNL A   1      37.028  22.888  24.219  1.00  0.00     0.281 C 
ATOM      6  O   UNL A   1      37.021  23.326  23.057  1.00  0.00    -0.268 OA
ATOM      7  H   UNL A   1      38.793  22.049  23.787  1.00  0.00     0.163 HD
BRANCH   5   8
ATOM      8  C   UNL A   1      35.804  23.210  25.204  1.00  0.00     0.186 C 
ATOM      9  C   UNL A   1      36.458  23.459  26.590  1.00  0.00     0.091 C 
ATOM     10  N   UNL A   1      35.008  24.452  24.834  1.00  0.00    -0.314 N 
ATOM     11  C   UNL A   1      34.700  22.205  25.389  1.00  0.00     0.170 C 
ATOM     12  C   UNL A   1      33.580  24.054  24.458  1.00  0.00     0.236 C 
ATOM     13  H   UNL A   1      35.452  24.916  24.042  1.00  0.00     0.348 HD
ATOM     14  H   UNL A   1      34.983  25.089  25.632  1.00  0.00     0.348 HD
ATOM     15  C   UNL A   1      33.643  22.554  24.361  1.00  0.00     0.177 C 
ATOM     16  C   UNL A   1      34.807  20.738  25.210  1.00  0.00     0.244 C 
ATOM     17  C   UNL A   1      32.507  24.600  25.406  1.00  0.00     0.232 C 
ATOM     18  C   UNL A   1      33.236  24.804  23.149  1.00  0.00     0.232 C 
ATOM     19  C   UNL A   1      32.677  21.439  24.620  1.00  0.00     0.245 C 
ATOM     20  N   UNL A   1      33.501  20.344  24.916  1.00  0.00    -0.250 N 
ATOM     21  O   UNL A   1      35.821  20.077  25.323  1.00  0.00    -0.273 OA
ATOM     22  O   UNL A   1      32.426  24.389  26.602  1.00  0.00    -0.286 OA
ATOM     23  C   UNL A   1      31.590  25.469  24.638  1.00  0.00     0.036 A 
ATOM     24  C   UNL A   1      32.031  25.575  23.332  1.00  0.00     0.036 A 
ATOM     25  O   UNL A   1      33.827  24.876  22.091  1.00  0.00    -0.286 OA
ATOM     26  O   UNL A   1      31.480  21.494  24.406  1.00  0.00    -0.273 OA
ATOM     27  C   UNL A   1      30.460  26.159  25.031  1.00  0.00     0.013 A 
ATOM     28  C   UNL A   1      31.414  26.354  22.367  1.00  0.00     0.013 A 
ATOM     29  C   UNL A   1      29.802  26.951  24.071  1.00  0.00     0.001 A 
ATOM     30  C   UNL A   1      30.278  27.052  22.749  1.00  0.00     0.001 A 
BRANCH  20  31
ATOM     31  C   UNL A   1      33.189  18.990  24.692  1.00  0.00     0.052 A 
ATOM     32  C   UNL A   1      32.871  18.159  25.775  1.00  0.00     0.027 A 
ATOM     33  C   UNL A   1      33.371  18.428  23.424  1.00  0.00     0.027 A 
ATOM     34  C   UNL A   1      32.725  16.783  25.590  1.00  0.00     0.002 A 
ATOM     35  C   UNL A   1      33.279  17.043  23.255  1.00  0.00     0.002 A 
ATOM     36  C   UNL A   1      32.948  16.223  24.335  1.00  0.00     0.000 A 
ENDBRANCH  20  31
ENDBRANCH   5   8
ENDBRANCH   3   4
ENDBRANCH   2   3
ENDBRANCH   1   2
BRANCH   1  37
ATOM     37  C   UNL A   1      42.214  20.385  26.210  1.00  0.00     0.116 C 
BRANCH  37  38
ATOM     38  N   UNL A   1      42.986  19.463  25.371  1.00  0.00    -0.352 N 
ATOM     39  C   UNL A   1      44.175  19.662  24.693  1.00  0.00     0.251 C 
ATOM     40  H   UNL A   1      42.597  18.563  25.274  1.00  0.00     0.163 HD
ATOM     41  O   UNL A   1      44.676  18.769  24.019  1.00  0.00    -0.269 OA
BRANCH  39  42
ATOM     42  C   UNL A   1      44.799  21.001  24.731  1.00  0.00     0.039 A 
ATOM     43  C   UNL A   1      45.606  21.344  25.808  1.00  0.00     0.014 A 
ATOM     44  C   UNL A   1      44.421  21.967  23.796  1.00  0.00     0.014 A 
ATOM     45  C   UNL A   1      45.722  22.682  26.142  1.00  0.00     0.010 A 
ATOM     46  C   UNL A   1      44.710  23.314  24.046  1.00  0.00     0.010 A 
ATOM     47  C   UNL A   1      45.273  23.694  25.273  1.00  0.00    -0.014 A 
BRANCH  47  48
ATOM     48  C   UNL A   1      45.395  25.115  25.704  1.00  0.00     0.031 A 
ATOM     49  C   UNL A   1      44.241  25.857  26.337  1.00  0.00     0.074 A 
ATOM     50  C   UNL A   1      46.603  25.712  25.623  1.00  0.00     0.049 A 
ATOM     51  N   UNL A   1      44.218  27.074  26.825  1.00  0.00    -0.248 NA
ATOM     52  C   UNL A   1      42.946  25.161  26.432  1.00  0.00     0.031 C 
ATOM     53  C   UNL A   1      47.805  25.097  25.051  1.00  0.00     0.029 A 
ATOM     54  N   UNL A   1      47.041  26.930  26.077  1.00  0.00    -0.354 N 
ATOM     55  C   UNL A   1      42.912  27.298  27.248  1.00  0.00     0.074 A 
ATOM     56  C   UNL A   1      42.160  26.102  26.939  1.00  0.00     0.031 C 
ATOM     57  C   UNL A   1      48.858  25.886  25.291  1.00  0.00     0.029 A 
ATOM     58  C   UNL A   1      48.396  27.112  25.926  1.00  0.00     0.049 A 
ATOM     59  H   UNL A   1      46.445  27.607  26.470  1.00  0.00     0.167 HD
ATOM     60  C   UNL A   1      42.388  28.395  27.847  1.00  0.00     0.031 A 
ATOM     61  C   UNL A   1      49.189  28.152  26.245  1.00  0.00     0.031 A 
ATOM     62  C   UNL A   1      43.145  29.576  28.181  1.00  0.00     0.049 A 
ATOM     63  C   UNL A   1      48.578  29.364  26.879  1.00  0.00     0.074 A 
ATOM     64  C   UNL A   1      42.702  30.730  28.804  1.00  0.00     0.029 A 
ATOM     65  N   UNL A   1      44.496  29.751  27.930  1.00  0.00    -0.354 N 
ATOM     66  N   UNL A   1      47.338  29.558  27.254  1.00  0.00    -0.248 NA
ATOM     67  C   UNL A   1      49.471  30.503  27.123  1.00  0.00     0.031 C 
ATOM     68  C   UNL A   1      43.769  31.629  28.871  1.00  0.00     0.029 A 
ATOM     69  C   UNL A   1      44.897  31.006  28.361  1.00  0.00     0.049 A 
ATOM     70  H   UNL A   1      45.085  29.085  27.509  1.00  0.00     0.167 HD
ATOM     71  C   UNL A   1      47.300  30.841  27.783  1.00  0.00     0.074 A 
ATOM     72  C   UNL A   1      48.651  31.363  27.711  1.00  0.00     0.031 C 
ATOM     73  C   UNL A   1      46.238  31.525  28.272  1.00  0.00     0.031 A 
BRANCH  60  74
ATOM     74  C   UNL A   1      40.917  28.400  28.176  1.00  0.00    -0.014 A 
ATOM     75  C   UNL A   1      40.010  29.015  27.297  1.00  0.00     0.009 A 
ATOM     76  C   UNL A   1      40.438  27.900  29.398  1.00  0.00     0.009 A 
ATOM     77  C   UNL A   1      38.663  29.147  27.640  1.00  0.00     0.001 A 
ATOM     78  C   UNL A   1      39.083  28.006  29.724  1.00  0.00     0.001 A 
ATOM     79  C   UNL A   1      38.199  28.639  28.851  1.00  0.00     0.000 A 
ENDBRANCH  60  74
BRANCH  61  80
ATOM     80  C   UNL A   1      50.644  28.071  25.951  1.00  0.00    -0.014 A 
ATOM     81  C   UNL A   1      51.138  28.443  24.689  1.00  0.00     0.009 A 
ATOM     82  C   UNL A   1      51.538  27.554  26.901  1.00  0.00     0.009 A 
ATOM     83  C   UNL A   1      52.484  28.259  24.368  1.00  0.00     0.001 A 
ATOM     84  C   UNL A   1      52.892  27.409  26.591  1.00  0.00     0.001 A 
ATOM     85  C   UNL A   1      53.360  27.746  25.321  1.00  0.00     0.000 A 
ENDBRANCH  61  80
BRANCH  73  86
ATOM     86  C   UNL A   1      46.484  32.921  28.774  1.00  0.00    -0.014 A 
ATOM     87  C   UNL A   1      46.803  33.132  30.125  1.00  0.00     0.009 A 
ATOM     88  C   UNL A   1      46.328  34.031  27.931  1.00  0.00     0.009 A 
ATOM     89  C   UNL A   1      46.951  34.426  30.624  1.00  0.00     0.001 A 
ATOM     90  C   UNL A   1      46.511  35.324  28.425  1.00  0.00     0.001 A 
ATOM     91  C   UNL A   1      46.813  35.521  29.772  1.00  0.00     0.000 A 
ENDBRANCH  73  86
ENDBRANCH  47  48
ENDBRANCH  39  42
ENDBRANCH  37  38
ENDBRANCH   1  37
TORSDOF 12
ENDMDL
