MODEL 1
REMARK VINA RESULT:     -12.3      0.000      0.000
REMARK SMILES CC[C@@H](NC(=O)N[C@@](C)(CC)C(=O)NCCCCNC(=O)c1ccc(-c2c3nc(c(-c4ccccc4)c4ccc([nH]4)c(-c4ccccc4)c4nc(c(-c5ccccc5)c5ccc2[nH]5)C=C4)C=C3)cc1)c1cccs1
REMARK SMILES IDX 16 1 15 2 14 3 12 4 13 5 8 7 9 8 7 9 4 10 5 11 6 13 3 15
REMARK SMILES IDX 2 16 1 17 70 18 71 19 74 20 72 21 73 22 10 23 11 24 17 25
REMARK SMILES IDX 18 26 19 27 20 28 21 30 22 31 23 32 69 33 24 34 68 35 25 36
REMARK SMILES IDX 26 37 27 38 62 39 28 40 67 41 61 42 63 43 29 44 66 45 60 46
REMARK SMILES IDX 59 47 30 49 52 50 37 51 51 52 38 53 41 54 50 55 64 56 39 57
REMARK SMILES IDX 40 58 49 60 65 61 42 62 31 63 32 64 36 65 33 66 35 67 34 68
REMARK SMILES IDX 53 69 54 70 58 71 55 72 57 73 56 74 43 75 44 76 48 77 45 78
REMARK SMILES IDX 47 79 46 80
REMARK H PARENT 14 6 4 12 7 14 19 29 63 48 41 59
REMARK Flexibility Score: inf
ROOT
ATOM      1  C   UNL A   1      31.999  30.823  26.102  1.00  0.00     0.023 C 
ENDROOT
BRANCH   1   2
ATOM      2  C   UNL A   1      32.999  30.020  26.929  1.00  0.00     0.116 C 
BRANCH   2   3
ATOM      3  N   UNL A   1      32.311  28.933  27.605  1.00  0.00    -0.354 N 
ATOM      4  C   UNL A   1      31.852  27.700  27.247  1.00  0.00     0.245 C 
ATOM      5  O   UNL A   1      30.853  27.444  27.952  1.00  0.00    -0.272 OA
ATOM      6  H   UNL A   1      32.132  29.136  28.551  1.00  0.00     0.163 HD
BRANCH   4   7
ATOM      7  C   UNL A   1      32.334  26.604  25.890  1.00  0.00     0.117 C 
ATOM      8  C   UNL A   1      34.316  26.166  24.928  1.00  0.00     0.045 C 
BRANCH   7   9
ATOM      9  N   UNL A   1      31.438  25.320  26.736  1.00  0.00    -0.324 N 
ATOM     10  N   UNL A   1      31.384  23.394  25.368  1.00  0.00    -0.331 N 
ATOM     11  C   UNL A   1      31.094  24.017  26.536  1.00  0.00     0.316 C 
ATOM     12  H   UNL A   1      30.938  22.532  25.203  1.00  0.00     0.166 HD
ATOM     13  O   UNL A   1      30.392  23.436  27.363  1.00  0.00    -0.249 OA
ATOM     14  H   UNL A   1      31.093  25.644  27.600  1.00  0.00     0.166 HD
BRANCH  10  15
ATOM     15  C   UNL A   1      32.284  23.865  24.341  1.00  0.00     0.124 C 
BRANCH  15  16
ATOM     16  C   UNL A   1      31.466  24.245  23.096  1.00  0.00     0.027 C 
ATOM     17  C   UNL A   1      32.224  25.043  22.042  1.00  0.00     0.006 C 
ENDBRANCH  15  16
BRANCH  15  18
ATOM     18  C   UNL A   1      33.255  22.716  24.246  1.00  0.00     0.027 A 
ATOM     19  C   UNL A   1      34.938  22.634  24.817  1.00  0.00     0.017 A 
ATOM     20  S   UNL A   1      32.409  20.623  23.824  1.00  0.00    -0.147 S 
ATOM     21  C   UNL A   1      35.504  20.841  25.177  1.00  0.00     0.012 A 
ATOM     22  C   UNL A   1      34.297  19.649  24.735  1.00  0.00     0.065 A 
ENDBRANCH  15  18
ENDBRANCH  10  15
ENDBRANCH   7   9
BRANCH   7  23
ATOM     23  C   UNL A   1      30.816  27.212  25.023  1.00  0.00     0.035 C 
ATOM     24  C   UNL A   1      30.934  28.089  23.752  1.00  0.00     0.007 C 
ENDBRANCH   7  23
ENDBRANCH   4   7
ENDBRANCH   2   3
ENDBRANCH   1   2
BRANCH   1  25
ATOM     25  C   UNL A   1      31.571  32.149  26.745  1.00  0.00     0.023 C 
BRANCH  25  26
ATOM     26  C   UNL A   1      32.682  32.932  27.440  1.00  0.00     0.116 C 
BRANCH  26  27
ATOM     27  N   UNL A   1      32.315  34.313  27.736  1.00  0.00    -0.352 N 
ATOM     28  C   UNL A   1      32.906  35.185  28.618  1.00  0.00     0.251 C 
ATOM     29  H   UNL A   1      31.544  34.667  27.237  1.00  0.00     0.163 HD
ATOM     30  O   UNL A   1      32.435  36.293  28.834  1.00  0.00    -0.269 OA
BRANCH  28  31
ATOM     31  C   UNL A   1      34.113  34.729  29.322  1.00  0.00     0.039 A 
ATOM     32  C   UNL A   1      33.983  34.144  30.581  1.00  0.00     0.014 A 
ATOM     33  C   UNL A   1      35.340  34.756  28.654  1.00  0.00     0.014 A 
ATOM     34  C   UNL A   1      35.087  33.516  31.150  1.00  0.00     0.010 A 
ATOM     35  C   UNL A   1      36.411  34.052  29.184  1.00  0.00     0.010 A 
ATOM     36  C   UNL A   1      36.296  33.430  30.438  1.00  0.00    -0.014 A 
BRANCH  36  37
ATOM     37  C   UNL A   1      37.458  32.700  30.998  1.00  0.00     0.031 A 
ATOM     38  C   UNL A   1      38.036  33.127  32.318  1.00  0.00     0.074 A 
ATOM     39  C   UNL A   1      38.016  31.690  30.302  1.00  0.00     0.049 A 
ATOM     40  N   UNL A   1      39.055  32.631  32.970  1.00  0.00    -0.248 NA
ATOM     41  C   UNL A   1      37.404  34.281  32.979  1.00  0.00     0.031 C 
ATOM     42  C   UNL A   1      37.575  31.216  28.988  1.00  0.00     0.029 A 
ATOM     43  N   UNL A   1      39.076  30.875  30.608  1.00  0.00    -0.354 N 
ATOM     44  C   UNL A   1      39.191  33.419  34.105  1.00  0.00     0.074 A 
ATOM     45  C   UNL A   1      38.199  34.466  34.020  1.00  0.00     0.031 C 
ATOM     46  C   UNL A   1      38.330  30.167  28.621  1.00  0.00     0.029 A 
ATOM     47  C   UNL A   1      39.332  29.921  29.653  1.00  0.00     0.049 A 
ATOM     48  H   UNL A   1      39.604  30.964  31.435  1.00  0.00     0.167 HD
ATOM     49  C   UNL A   1      40.046  33.269  35.144  1.00  0.00     0.031 A 
ATOM     50  C   UNL A   1      40.270  28.955  29.615  1.00  0.00     0.031 A 
ATOM     51  C   UNL A   1      41.026  32.221  35.229  1.00  0.00     0.049 A 
ATOM     52  C   UNL A   1      41.220  28.819  30.774  1.00  0.00     0.074 A 
ATOM     53  C   UNL A   1      41.907  31.948  36.259  1.00  0.00     0.029 A 
ATOM     54  N   UNL A   1      41.256  31.277  34.240  1.00  0.00    -0.354 N 
ATOM     55  N   UNL A   1      41.285  29.524  31.878  1.00  0.00    -0.248 NA
ATOM     56  C   UNL A   1      42.218  27.744  30.687  1.00  0.00     0.031 C 
ATOM     57  C   UNL A   1      42.712  30.873  35.868  1.00  0.00     0.029 A 
ATOM     58  C   UNL A   1      42.284  30.434  34.624  1.00  0.00     0.049 A 
ATOM     59  H   UNL A   1      40.761  31.215  33.391  1.00  0.00     0.167 HD
ATOM     60  C   UNL A   1      42.307  28.959  32.630  1.00  0.00     0.074 A 
ATOM     61  C   UNL A   1      42.819  27.841  31.864  1.00  0.00     0.031 C 
ATOM     62  C   UNL A   1      42.779  29.328  33.846  1.00  0.00     0.031 A 
BRANCH  49  63
ATOM     63  C   UNL A   1      39.955  34.270  36.262  1.00  0.00    -0.014 A 
ATOM     64  C   UNL A   1      40.669  35.480  36.219  1.00  0.00     0.009 A 
ATOM     65  C   UNL A   1      39.130  34.011  37.366  1.00  0.00     0.009 A 
ATOM     66  C   UNL A   1      40.592  36.387  37.277  1.00  0.00     0.001 A 
ATOM     67  C   UNL A   1      39.027  34.936  38.407  1.00  0.00     0.001 A 
ATOM     68  C   UNL A   1      39.766  36.117  38.367  1.00  0.00     0.000 A 
ENDBRANCH  49  63
BRANCH  50  69
ATOM     69  C   UNL A   1      40.347  28.026  28.456  1.00  0.00    -0.014 A 
ATOM     70  C   UNL A   1      39.684  26.788  28.485  1.00  0.00     0.009 A 
ATOM     71  C   UNL A   1      41.098  28.362  27.319  1.00  0.00     0.009 A 
ATOM     72  C   UNL A   1      39.801  25.894  27.418  1.00  0.00     0.001 A 
ATOM     73  C   UNL A   1      41.186  27.480  26.238  1.00  0.00     0.001 A 
ATOM     74  C   UNL A   1      40.547  26.243  26.293  1.00  0.00     0.000 A 
ENDBRANCH  50  69
BRANCH  62  75
ATOM     75  C   UNL A   1      43.878  28.491  34.441  1.00  0.00    -0.014 A 
ATOM     76  C   UNL A   1      43.597  27.354  35.214  1.00  0.00     0.009 A 
ATOM     77  C   UNL A   1      45.217  28.826  34.185  1.00  0.00     0.009 A 
ATOM     78  C   UNL A   1      44.638  26.594  35.752  1.00  0.00     0.001 A 
ATOM     79  C   UNL A   1      46.253  28.044  34.694  1.00  0.00     0.001 A 
ATOM     80  C   UNL A   1      45.964  26.935  35.486  1.00  0.00     0.000 A 
ENDBRANCH  62  75
ENDBRANCH  36  37
ENDBRANCH  28  31
ENDBRANCH  26  27
ENDBRANCH  25  26
ENDBRANCH   1  25
TORSDOF 16
ENDMDL
MODEL 2
REMARK VINA RESULT:     -11.9      5.342     10.509
REMARK SMILES CC[C@@H](NC(=O)N[C@@](C)(CC)C(=O)NCCCCNC(=O)c1ccc(-c2c3nc(c(-c4ccccc4)c4ccc([nH]4)c(-c4ccccc4)c4nc(c(-c5ccccc5)c5ccc2[nH]5)C=C4)C=C3)cc1)c1cccs1
REMARK SMILES IDX 16 1 15 2 14 3 12 4 13 5 8 7 9 8 7 9 4 10 5 11 6 13 3 15
REMARK SMILES IDX 2 16 1 17 70 18 71 19 74 20 72 21 73 22 10 23 11 24 17 25
REMARK SMILES IDX 18 26 19 27 20 28 21 30 22 31 23 32 69 33 24 34 68 35 25 36
REMARK SMILES IDX 26 37 27 38 62 39 28 40 67 41 61 42 63 43 29 44 66 45 60 46
REMARK SMILES IDX 59 47 30 49 52 50 37 51 51 52 38 53 41 54 50 55 64 56 39 57
REMARK SMILES IDX 40 58 49 60 65 61 42 62 31 63 32 64 36 65 33 66 35 67 34 68
REMARK SMILES IDX 53 69 54 70 58 71 55 72 57 73 56 74 43 75 44 76 48 77 45 78
REMARK SMILES IDX 47 79 46 80
REMARK H PARENT 14 6 4 12 7 14 19 29 63 48 41 59
REMARK Flexibility Score: inf
ROOT
ATOM      1  C   UNL A   1      37.069  20.896  25.495  1.00  0.00     0.023 C 
ENDROOT
BRANCH   1   2
ATOM      2  C   UNL A   1      37.451  22.373  25.429  1.00  0.00     0.116 C 
BRANCH   2   3
ATOM      3  N   UNL A   1      37.109  22.907  24.122  1.00  0.00    -0.354 N 
ATOM      4  C   UNL A   1      35.966  23.338  23.516  1.00  0.00     0.245 C 
ATOM      5  O   UNL A   1      36.074  23.112  22.292  1.00  0.00    -0.272 OA
ATOM      6  H   UNL A   1      37.892  22.975  23.530  1.00  0.00     0.163 HD
BRANCH   4   7
ATOM      7  C   UNL A   1      34.408  23.939  24.213  1.00  0.00     0.117 C 
ATOM      8  C   UNL A   1      33.925  25.060  26.098  1.00  0.00     0.045 C 
BRANCH   7   9
ATOM      9  N   UNL A   1      34.088  24.668  22.622  1.00  0.00    -0.324 N 
ATOM     10  N   UNL A   1      31.911  25.588  22.625  1.00  0.00    -0.331 N 
ATOM     11  C   UNL A   1      33.094  25.365  22.003  1.00  0.00     0.316 C 
ATOM     12  H   UNL A   1      31.170  25.913  22.064  1.00  0.00     0.166 HD
ATOM     13  O   UNL A   1      33.214  25.679  20.819  1.00  0.00    -0.249 OA
ATOM     14  H   UNL A   1      34.849  24.529  22.013  1.00  0.00     0.166 HD
BRANCH  10  15
ATOM     15  C   UNL A   1      31.626  25.400  24.028  1.00  0.00     0.124 C 
BRANCH  15  16
ATOM     16  C   UNL A   1      30.666  24.211  24.189  1.00  0.00     0.027 C 
ATOM     17  C   UNL A   1      30.651  23.572  25.573  1.00  0.00     0.006 C 
ENDBRANCH  15  16
BRANCH  15  18
ATOM     18  C   UNL A   1      31.150  26.775  24.422  1.00  0.00     0.027 A 
ATOM     19  C   UNL A   1      31.964  27.983  25.444  1.00  0.00     0.017 A 
ATOM     20  S   UNL A   1      29.455  27.719  23.194  1.00  0.00    -0.147 S 
ATOM     21  C   UNL A   1      31.398  29.771  25.058  1.00  0.00     0.012 A 
ATOM     22  C   UNL A   1      30.097  29.830  23.884  1.00  0.00     0.065 A 
ENDBRANCH  15  18
ENDBRANCH  10  15
ENDBRANCH   7   9
BRANCH   7  23
ATOM     23  C   UNL A   1      33.695  22.307  23.707  1.00  0.00     0.035 C 
ATOM     24  C   UNL A   1      33.350  21.235  24.769  1.00  0.00     0.007 C 
ENDBRANCH   7  23
ENDBRANCH   4   7
ENDBRANCH   2   3
ENDBRANCH   1   2
BRANCH   1  25
ATOM     25  C   UNL A   1      38.224  19.934  25.190  1.00  0.00     0.023 C 
BRANCH  25  26
ATOM     26  C   UNL A   1      39.503  20.165  25.989  1.00  0.00     0.116 C 
BRANCH  26  27
ATOM     27  N   UNL A   1      40.439  19.047  25.918  1.00  0.00    -0.352 N 
ATOM     28  C   UNL A   1      41.802  19.060  26.084  1.00  0.00     0.251 C 
ATOM     29  H   UNL A   1      40.039  18.168  25.729  1.00  0.00     0.163 HD
ATOM     30  O   UNL A   1      42.477  18.056  25.906  1.00  0.00    -0.269 OA
BRANCH  28  31
ATOM     31  C   UNL A   1      42.431  20.336  26.454  1.00  0.00     0.039 A 
ATOM     32  C   UNL A   1      42.963  21.145  25.450  1.00  0.00     0.014 A 
ATOM     33  C   UNL A   1      42.350  20.776  27.777  1.00  0.00     0.014 A 
ATOM     34  C   UNL A   1      43.357  22.442  25.767  1.00  0.00     0.010 A 
ATOM     35  C   UNL A   1      42.661  22.096  28.069  1.00  0.00     0.010 A 
ATOM     36  C   UNL A   1      43.170  22.939  27.069  1.00  0.00    -0.014 A 
BRANCH  36  37
ATOM     37  C   UNL A   1      43.517  24.341  27.404  1.00  0.00     0.031 A 
ATOM     38  C   UNL A   1      44.944  24.797  27.302  1.00  0.00     0.074 A 
ATOM     39  C   UNL A   1      42.558  25.183  27.840  1.00  0.00     0.049 A 
ATOM     40  N   UNL A   1      45.454  25.973  27.563  1.00  0.00    -0.248 NA
ATOM     41  C   UNL A   1      45.935  23.793  26.880  1.00  0.00     0.031 C 
ATOM     42  C   UNL A   1      41.146  24.842  28.026  1.00  0.00     0.029 A 
ATOM     43  N   UNL A   1      42.630  26.504  28.200  1.00  0.00    -0.354 N 
ATOM     44  C   UNL A   1      46.820  25.843  27.349  1.00  0.00     0.074 A 
ATOM     45  C   UNL A   1      47.069  24.461  27.007  1.00  0.00     0.031 C 
ATOM     46  C   UNL A   1      40.478  25.937  28.425  1.00  0.00     0.029 A 
ATOM     47  C   UNL A   1      41.419  27.044  28.561  1.00  0.00     0.049 A 
ATOM     48  H   UNL A   1      43.470  27.018  28.201  1.00  0.00     0.167 HD
ATOM     49  C   UNL A   1      47.780  26.796  27.403  1.00  0.00     0.031 A 
ATOM     50  C   UNL A   1      41.104  28.292  28.956  1.00  0.00     0.031 A 
ATOM     51  C   UNL A   1      47.527  28.170  27.736  1.00  0.00     0.049 A 
ATOM     52  C   UNL A   1      42.192  29.329  29.025  1.00  0.00     0.074 A 
ATOM     53  C   UNL A   1      48.418  29.226  27.770  1.00  0.00     0.029 A 
ATOM     54  N   UNL A   1      46.287  28.676  28.098  1.00  0.00    -0.354 N 
ATOM     55  N   UNL A   1      43.467  29.210  28.743  1.00  0.00    -0.248 NA
ATOM     56  C   UNL A   1      41.794  30.677  29.452  1.00  0.00     0.031 C 
ATOM     57  C   UNL A   1      47.730  30.361  28.211  1.00  0.00     0.029 A 
ATOM     58  C   UNL A   1      46.395  30.025  28.383  1.00  0.00     0.049 A 
ATOM     59  H   UNL A   1      45.454  28.153  28.145  1.00  0.00     0.167 HD
ATOM     60  C   UNL A   1      44.016  30.472  28.928  1.00  0.00     0.074 A 
ATOM     61  C   UNL A   1      42.931  31.345  29.326  1.00  0.00     0.031 C 
ATOM     62  C   UNL A   1      45.302  30.876  28.779  1.00  0.00     0.031 A 
BRANCH  49  63
ATOM     63  C   UNL A   1      49.190  26.370  27.100  1.00  0.00    -0.014 A 
ATOM     64  C   UNL A   1      49.681  26.352  25.783  1.00  0.00     0.009 A 
ATOM     65  C   UNL A   1      50.049  26.001  28.147  1.00  0.00     0.009 A 
ATOM     66  C   UNL A   1      50.985  25.931  25.518  1.00  0.00     0.001 A 
ATOM     67  C   UNL A   1      51.363  25.615  27.882  1.00  0.00     0.001 A 
ATOM     68  C   UNL A   1      51.827  25.569  26.568  1.00  0.00     0.000 A 
ENDBRANCH  49  63
BRANCH  50  69
ATOM     69  C   UNL A   1      39.698  28.641  29.296  1.00  0.00    -0.014 A 
ATOM     70  C   UNL A   1      39.211  28.460  30.601  1.00  0.00     0.009 A 
ATOM     71  C   UNL A   1      38.828  29.140  28.315  1.00  0.00     0.009 A 
ATOM     72  C   UNL A   1      37.876  28.737  30.906  1.00  0.00     0.001 A 
ATOM     73  C   UNL A   1      37.502  29.449  28.630  1.00  0.00     0.001 A 
ATOM     74  C   UNL A   1      37.024  29.236  29.922  1.00  0.00     0.000 A 
ENDBRANCH  50  69
BRANCH  62  75
ATOM     75  C   UNL A   1      45.597  32.332  29.009  1.00  0.00    -0.014 A 
ATOM     76  C   UNL A   1      46.012  32.808  30.262  1.00  0.00     0.009 A 
ATOM     77  C   UNL A   1      45.497  33.235  27.938  1.00  0.00     0.009 A 
ATOM     78  C   UNL A   1      46.282  34.166  30.446  1.00  0.00     0.001 A 
ATOM     79  C   UNL A   1      45.802  34.584  28.116  1.00  0.00     0.001 A 
ATOM     80  C   UNL A   1      46.183  35.051  29.372  1.00  0.00     0.000 A 
ENDBRANCH  62  75
ENDBRANCH  36  37
ENDBRANCH  28  31
ENDBRANCH  26  27
ENDBRANCH  25  26
ENDBRANCH   1  25
TORSDOF 16
ENDMDL
MODEL 3
REMARK VINA RESULT:     -11.9      4.063      9.003
REMARK SMILES CC[C@@H](NC(=O)N[C@@](C)(CC)C(=O)NCCCCNC(=O)c1ccc(-c2c3nc(c(-c4ccccc4)c4ccc([nH]4)c(-c4ccccc4)c4nc(c(-c5ccccc5)c5ccc2[nH]5)C=C4)C=C3)cc1)c1cccs1
REMARK SMILES IDX 16 1 15 2 14 3 12 4 13 5 8 7 9 8 7 9 4 10 5 11 6 13 3 15
REMARK SMILES IDX 2 16 1 17 70 18 71 19 74 20 72 21 73 22 10 23 11 24 17 25
REMARK SMILES IDX 18 26 19 27 20 28 21 30 22 31 23 32 69 33 24 34 68 35 25 36
REMARK SMILES IDX 26 37 27 38 62 39 28 40 67 41 61 42 63 43 29 44 66 45 60 46
REMARK SMILES IDX 59 47 30 49 52 50 37 51 51 52 38 53 41 54 50 55 64 56 39 57
REMARK SMILES IDX 40 58 49 60 65 61 42 62 31 63 32 64 36 65 33 66 35 67 34 68
REMARK SMILES IDX 53 69 54 70 58 71 55 72 57 73 56 74 43 75 44 76 48 77 45 78
REMARK SMILES IDX 47 79 46 80
REMARK H PARENT 14 6 4 12 7 14 19 29 63 48 41 59
REMARK Flexibility Score: inf
ROOT
ATOM      1  C   UNL A   1      35.776  21.586  26.048  1.00  0.00     0.023 C 
ENDROOT
BRANCH   1   2
ATOM      2  C   UNL A   1      34.371  21.251  25.555  1.00  0.00     0.116 C 
BRANCH   2   3
ATOM      3  N   UNL A   1      33.388  21.851  26.441  1.00  0.00    -0.354 N 
ATOM      4  C   UNL A   1      32.648  22.996  26.440  1.00  0.00     0.245 C 
ATOM      5  O   UNL A   1      32.455  23.326  27.630  1.00  0.00    -0.272 OA
ATOM      6  H   UNL A   1      33.214  21.295  27.235  1.00  0.00     0.163 HD
BRANCH   4   7
ATOM      7  C   UNL A   1      32.144  24.082  25.083  1.00  0.00     0.117 C 
ATOM      8  C   UNL A   1      30.795  23.769  23.315  1.00  0.00     0.045 C 
BRANCH   7   9
ATOM      9  N   UNL A   1      31.739  25.289  26.326  1.00  0.00    -0.324 N 
ATOM     10  N   UNL A   1      31.363  27.372  25.276  1.00  0.00    -0.331 N 
ATOM     11  C   UNL A   1      31.387  26.603  26.392  1.00  0.00     0.316 C 
ATOM     12  H   UNL A   1      31.302  28.346  25.411  1.00  0.00     0.166 HD
ATOM     13  O   UNL A   1      31.221  27.137  27.488  1.00  0.00    -0.249 OA
ATOM     14  H   UNL A   1      31.779  24.892  27.227  1.00  0.00     0.166 HD
BRANCH  10  15
ATOM     15  C   UNL A   1      31.415  26.909  23.910  1.00  0.00     0.124 C 
BRANCH  15  16
ATOM     16  C   UNL A   1      32.699  27.439  23.251  1.00  0.00     0.027 C 
ATOM     17  C   UNL A   1      33.605  28.258  24.163  1.00  0.00     0.006 C 
ENDBRANCH  15  16
BRANCH  15  18
ATOM     18  C   UNL A   1      30.083  27.382  23.385  1.00  0.00     0.027 A 
ATOM     19  C   UNL A   1      28.454  26.807  23.810  1.00  0.00     0.017 A 
ATOM     20  S   UNL A   1      30.005  29.416  22.322  1.00  0.00    -0.147 S 
ATOM     21  C   UNL A   1      27.108  28.135  23.515  1.00  0.00     0.012 A 
ATOM     22  C   UNL A   1      27.740  29.584  22.756  1.00  0.00     0.065 A 
ENDBRANCH  15  18
ENDBRANCH  10  15
ENDBRANCH   7   9
BRANCH   7  23
ATOM     23  C   UNL A   1      33.915  24.616  25.017  1.00  0.00     0.035 C 
ATOM     24  C   UNL A   1      34.769  24.357  23.751  1.00  0.00     0.007 C 
ENDBRANCH   7  23
ENDBRANCH   4   7
ENDBRANCH   2   3
ENDBRANCH   1   2
BRANCH   1  25
ATOM     25  C   UNL A   1      36.899  21.119  25.113  1.00  0.00     0.023 C 
BRANCH  25  26
ATOM     26  C   UNL A   1      38.318  21.323  25.635  1.00  0.00     0.116 C 
BRANCH  26  27
ATOM     27  N   UNL A   1      39.132  20.112  25.586  1.00  0.00    -0.352 N 
ATOM     28  C   UNL A   1      40.445  19.948  25.951  1.00  0.00     0.251 C 
ATOM     29  H   UNL A   1      38.678  19.307  25.249  1.00  0.00     0.163 HD
ATOM     30  O   UNL A   1      41.032  18.890  25.771  1.00  0.00    -0.269 OA
BRANCH  28  31
ATOM     31  C   UNL A   1      41.138  21.102  26.542  1.00  0.00     0.039 A 
ATOM     32  C   UNL A   1      41.731  22.040  25.697  1.00  0.00     0.014 A 
ATOM     33  C   UNL A   1      41.058  21.311  27.921  1.00  0.00     0.014 A 
ATOM     34  C   UNL A   1      42.192  23.238  26.238  1.00  0.00     0.010 A 
ATOM     35  C   UNL A   1      41.435  22.541  28.439  1.00  0.00     0.010 A 
ATOM     36  C   UNL A   1      42.009  23.513  27.605  1.00  0.00    -0.014 A 
BRANCH  36  37
ATOM     37  C   UNL A   1      42.427  24.813  28.181  1.00  0.00     0.031 A 
ATOM     38  C   UNL A   1      41.410  25.903  28.370  1.00  0.00     0.074 A 
ATOM     39  C   UNL A   1      43.722  25.026  28.489  1.00  0.00     0.049 A 
ATOM     40  N   UNL A   1      41.574  27.111  28.842  1.00  0.00    -0.248 NA
ATOM     41  C   UNL A   1      40.031  25.606  27.945  1.00  0.00     0.031 C 
ATOM     42  C   UNL A   1      44.810  24.062  28.305  1.00  0.00     0.029 A 
ATOM     43  N   UNL A   1      44.341  26.124  29.029  1.00  0.00    -0.354 N 
ATOM     44  C   UNL A   1      40.328  27.717  28.758  1.00  0.00     0.074 A 
ATOM     45  C   UNL A   1      39.435  26.773  28.127  1.00  0.00     0.031 C 
ATOM     46  C   UNL A   1      45.953  24.596  28.765  1.00  0.00     0.029 A 
ATOM     47  C   UNL A   1      45.688  25.951  29.237  1.00  0.00     0.049 A 
ATOM     48  H   UNL A   1      43.865  26.958  29.248  1.00  0.00     0.167 HD
ATOM     49  C   UNL A   1      39.950  28.941  29.195  1.00  0.00     0.031 A 
ATOM     50  C   UNL A   1      46.606  26.792  29.752  1.00  0.00     0.031 A 
ATOM     51  C   UNL A   1      40.840  29.875  29.829  1.00  0.00     0.049 A 
ATOM     52  C   UNL A   1      46.164  28.154  30.215  1.00  0.00     0.074 A 
ATOM     53  C   UNL A   1      40.549  31.120  30.355  1.00  0.00     0.029 A 
ATOM     54  N   UNL A   1      42.197  29.663  30.019  1.00  0.00    -0.354 N 
ATOM     55  N   UNL A   1      44.965  28.684  30.201  1.00  0.00    -0.248 NA
ATOM     56  C   UNL A   1      47.202  29.029  30.778  1.00  0.00     0.031 C 
ATOM     57  C   UNL A   1      41.744  31.689  30.809  1.00  0.00     0.029 A 
ATOM     58  C   UNL A   1      42.764  30.767  30.630  1.00  0.00     0.049 A 
ATOM     59  H   UNL A   1      42.685  28.849  29.757  1.00  0.00     0.167 HD
ATOM     60  C   UNL A   1      45.098  29.939  30.781  1.00  0.00     0.074 A 
ATOM     61  C   UNL A   1      46.490  30.081  31.153  1.00  0.00     0.031 C 
ATOM     62  C   UNL A   1      44.153  30.889  30.990  1.00  0.00     0.031 A 
BRANCH  49  63
ATOM     63  C   UNL A   1      38.513  29.334  28.990  1.00  0.00    -0.014 A 
ATOM     64  C   UNL A   1      38.052  29.791  27.744  1.00  0.00     0.009 A 
ATOM     65  C   UNL A   1      37.602  29.227  30.051  1.00  0.00     0.009 A 
ATOM     66  C   UNL A   1      36.719  30.174  27.578  1.00  0.00     0.001 A 
ATOM     67  C   UNL A   1      36.262  29.577  29.873  1.00  0.00     0.001 A 
ATOM     68  C   UNL A   1      35.825  30.060  28.640  1.00  0.00     0.000 A 
ENDBRANCH  49  63
BRANCH  50  69
ATOM     69  C   UNL A   1      48.026  26.368  29.881  1.00  0.00    -0.014 A 
ATOM     70  C   UNL A   1      48.932  26.572  28.828  1.00  0.00     0.009 A 
ATOM     71  C   UNL A   1      48.481  25.739  31.050  1.00  0.00     0.009 A 
ATOM     72  C   UNL A   1      50.252  26.125  28.929  1.00  0.00     0.001 A 
ATOM     73  C   UNL A   1      49.810  25.323  31.162  1.00  0.00     0.001 A 
ATOM     74  C   UNL A   1      50.691  25.505  30.098  1.00  0.00     0.000 A 
ENDBRANCH  50  69
BRANCH  62  75
ATOM     75  C   UNL A   1      44.587  32.148  31.688  1.00  0.00    -0.014 A 
ATOM     76  C   UNL A   1      44.570  32.255  33.087  1.00  0.00     0.009 A 
ATOM     77  C   UNL A   1      45.060  33.231  30.930  1.00  0.00     0.009 A 
ATOM     78  C   UNL A   1      44.980  33.437  33.709  1.00  0.00     0.001 A 
ATOM     79  C   UNL A   1      45.504  34.396  31.555  1.00  0.00     0.001 A 
ATOM     80  C   UNL A   1      45.453  34.502  32.944  1.00  0.00     0.000 A 
ENDBRANCH  62  75
ENDBRANCH  36  37
ENDBRANCH  28  31
ENDBRANCH  26  27
ENDBRANCH  25  26
ENDBRANCH   1  25
TORSDOF 16
ENDMDL
