MODEL 1
REMARK VINA RESULT:     -11.3      0.000      0.000
REMARK SMILES CC1([C@@H]2C[C@H](C(F)(F)F)n3nc(C(=O)NCCCCNC(=O)c4ccc(-c5c6nc(c(-c7ccccc7)c7ccc([nH]7)c(-c7ccccc7)c7nc(c(-c8ccccc8)c8ccc5[nH]8)C=C7)C=C6)cc4)cc3N2)CC1
REMARK SMILES IDX 18 1 17 2 16 3 15 4 13 5 14 6 12 8 3 9 4 10 73 11 5 12 72 13
REMARK SMILES IDX 10 15 71 16 11 17 2 18 1 19 74 20 75 21 6 22 7 23 8 24 9 25
REMARK SMILES IDX 19 26 20 27 21 28 22 30 23 31 24 32 70 33 25 34 69 35 26 36
REMARK SMILES IDX 27 37 28 38 63 39 29 40 68 41 62 42 64 43 30 44 67 45 61 46
REMARK SMILES IDX 60 47 31 49 53 50 38 51 52 52 39 53 42 54 51 55 65 56 40 57
REMARK SMILES IDX 41 58 50 60 66 61 43 62 32 63 33 64 37 65 34 66 36 67 35 68
REMARK SMILES IDX 54 69 55 70 59 71 56 72 58 73 57 74 44 75 45 76 49 77 46 78
REMARK SMILES IDX 48 79 47 80
REMARK H PARENT 15 7 73 14 20 29 64 48 42 59
REMARK Flexibility Score: inf
ROOT
ATOM      1  C   UNL A   1      33.992  28.532  25.770  1.00  0.00     0.023 C 
ENDROOT
BRANCH   1   2
ATOM      2  C   UNL A   1      32.893  28.826  24.742  1.00  0.00     0.023 C 
BRANCH   2   3
ATOM      3  C   UNL A   1      32.218  27.578  24.170  1.00  0.00     0.116 C 
BRANCH   3   4
ATOM      4  N   UNL A   1      31.123  27.144  25.010  1.00  0.00    -0.351 N 
ATOM      5  C   UNL A   1      30.973  26.029  25.806  1.00  0.00     0.271 C 
ATOM      6  O   UNL A   1      29.940  25.984  26.480  1.00  0.00    -0.267 OA
ATOM      7  H   UNL A   1      30.349  27.751  25.014  1.00  0.00     0.163 HD
BRANCH   5   8
ATOM      8  C   UNL A   1      32.002  24.967  25.856  1.00  0.00     0.152 A 
ATOM      9  C   UNL A   1      35.363  21.818  26.325  1.00  0.00     0.089 C 
ATOM     10  C   UNL A   1      34.079  20.968  26.232  1.00  0.00     0.062 C 
ATOM     11  N   UNL A   1      35.074  23.242  26.379  1.00  0.00    -0.367 N 
ATOM     12  C   UNL A   1      32.891  21.581  25.466  1.00  0.00     0.216 C 
ATOM     13  C   UNL A   1      33.868  23.767  26.100  1.00  0.00     0.126 A 
ATOM     14  H   UNL A   1      35.800  23.855  26.635  1.00  0.00     0.162 HD
ATOM     15  N   UNL A   1      32.813  23.003  25.710  1.00  0.00    -0.237 N 
ATOM     16  C   UNL A   1      33.403  25.054  26.112  1.00  0.00     0.082 A 
ATOM     17  N   UNL A   1      31.661  23.679  25.621  1.00  0.00    -0.165 NA
BRANCH   9  18
ATOM     18  C   UNL A   1      36.451  21.484  25.295  1.00  0.00    -0.012 C 
ATOM     19  C   UNL A   1      36.478  20.027  24.875  1.00  0.00     0.013 C 
ATOM     20  C   UNL A   1      37.845  22.090  25.438  1.00  0.00     0.009 C 
ATOM     21  C   UNL A   1      36.954  22.533  24.320  1.00  0.00     0.009 C 
ENDBRANCH   9  18
BRANCH  12  22
ATOM     22  C   UNL A   1      32.890  21.307  23.979  1.00  0.00     0.410 C 
ATOM     23  F   UNL A   1      33.791  22.106  23.350  1.00  0.00    -0.169 F 
ATOM     24  F   UNL A   1      33.264  20.035  23.703  1.00  0.00    -0.169 F 
ATOM     25  F   UNL A   1      31.704  21.510  23.377  1.00  0.00    -0.169 F 
ENDBRANCH  12  22
ENDBRANCH   5   8
ENDBRANCH   3   4
ENDBRANCH   2   3
ENDBRANCH   1   2
BRANCH   1  26
ATOM     26  C   UNL A   1      33.576  28.692  27.229  1.00  0.00     0.116 C 
BRANCH  26  27
ATOM     27  N   UNL A   1      33.546  30.076  27.674  1.00  0.00    -0.352 N 
ATOM     28  C   UNL A   1      34.540  30.802  28.284  1.00  0.00     0.251 C 
ATOM     29  H   UNL A   1      32.702  30.556  27.518  1.00  0.00     0.163 HD
ATOM     30  O   UNL A   1      34.316  31.937  28.695  1.00  0.00    -0.269 OA
BRANCH  28  31
ATOM     31  C   UNL A   1      35.871  30.190  28.481  1.00  0.00     0.039 A 
ATOM     32  C   UNL A   1      36.798  30.251  27.438  1.00  0.00     0.014 A 
ATOM     33  C   UNL A   1      36.210  29.582  29.692  1.00  0.00     0.014 A 
ATOM     34  C   UNL A   1      38.088  29.758  27.632  1.00  0.00     0.010 A 
ATOM     35  C   UNL A   1      37.517  29.155  29.908  1.00  0.00     0.010 A 
ATOM     36  C   UNL A   1      38.468  29.237  28.881  1.00  0.00    -0.014 A 
BRANCH  36  37
ATOM     37  C   UNL A   1      39.858  28.778  29.125  1.00  0.00     0.031 A 
ATOM     38  C   UNL A   1      40.855  29.694  29.779  1.00  0.00     0.074 A 
ATOM     39  C   UNL A   1      40.238  27.555  28.707  1.00  0.00     0.049 A 
ATOM     40  N   UNL A   1      42.117  29.479  30.052  1.00  0.00    -0.248 NA
ATOM     41  C   UNL A   1      40.378  31.034  30.156  1.00  0.00     0.031 C 
ATOM     42  C   UNL A   1      39.380  26.589  28.016  1.00  0.00     0.029 A 
ATOM     43  N   UNL A   1      41.447  26.915  28.803  1.00  0.00    -0.354 N 
ATOM     44  C   UNL A   1      42.587  30.658  30.616  1.00  0.00     0.074 A 
ATOM     45  C   UNL A   1      41.490  31.602  30.597  1.00  0.00     0.031 C 
ATOM     46  C   UNL A   1      40.080  25.468  27.781  1.00  0.00     0.029 A 
ATOM     47  C   UNL A   1      41.444  25.648  28.270  1.00  0.00     0.049 A 
ATOM     48  H   UNL A   1      42.243  27.324  29.215  1.00  0.00     0.167 HD
ATOM     49  C   UNL A   1      43.814  30.927  31.122  1.00  0.00     0.031 A 
ATOM     50  C   UNL A   1      42.428  24.733  28.187  1.00  0.00     0.031 A 
ATOM     51  C   UNL A   1      44.901  29.986  31.150  1.00  0.00     0.049 A 
ATOM     52  C   UNL A   1      43.781  25.057  28.754  1.00  0.00     0.074 A 
ATOM     53  C   UNL A   1      46.164  30.143  31.693  1.00  0.00     0.029 A 
ATOM     54  N   UNL A   1      44.854  28.711  30.608  1.00  0.00    -0.354 N 
ATOM     55  N   UNL A   1      44.187  26.151  29.351  1.00  0.00    -0.248 NA
ATOM     56  C   UNL A   1      44.808  24.009  28.649  1.00  0.00     0.031 C 
ATOM     57  C   UNL A   1      46.898  28.980  31.437  1.00  0.00     0.029 A 
ATOM     58  C   UNL A   1      46.073  28.077  30.785  1.00  0.00     0.049 A 
ATOM     59  H   UNL A   1      44.071  28.314  30.164  1.00  0.00     0.167 HD
ATOM     60  C   UNL A   1      45.506  25.914  29.719  1.00  0.00     0.074 A 
ATOM     61  C   UNL A   1      45.825  24.567  29.292  1.00  0.00     0.031 C 
ATOM     62  C   UNL A   1      46.374  26.737  30.355  1.00  0.00     0.031 A 
BRANCH  49  63
ATOM     63  C   UNL A   1      44.041  32.301  31.688  1.00  0.00    -0.014 A 
ATOM     64  C   UNL A   1      43.811  32.576  33.046  1.00  0.00     0.009 A 
ATOM     65  C   UNL A   1      44.519  33.329  30.860  1.00  0.00     0.009 A 
ATOM     66  C   UNL A   1      44.017  33.861  33.553  1.00  0.00     0.001 A 
ATOM     67  C   UNL A   1      44.753  34.604  31.376  1.00  0.00     0.001 A 
ATOM     68  C   UNL A   1      44.492  34.872  32.719  1.00  0.00     0.000 A 
ENDBRANCH  49  63
BRANCH  50  69
ATOM     69  C   UNL A   1      42.164  23.410  27.563  1.00  0.00    -0.014 A 
ATOM     70  C   UNL A   1      41.494  22.408  28.282  1.00  0.00     0.009 A 
ATOM     71  C   UNL A   1      42.586  23.139  26.253  1.00  0.00     0.009 A 
ATOM     72  C   UNL A   1      41.277  21.152  27.711  1.00  0.00     0.001 A 
ATOM     73  C   UNL A   1      42.342  21.891  25.674  1.00  0.00     0.001 A 
ATOM     74  C   UNL A   1      41.698  20.896  26.407  1.00  0.00     0.000 A 
ENDBRANCH  50  69
BRANCH  62  75
ATOM     75  C   UNL A   1      47.740  26.190  30.660  1.00  0.00    -0.014 A 
ATOM     76  C   UNL A   1      48.754  26.171  29.691  1.00  0.00     0.009 A 
ATOM     77  C   UNL A   1      48.023  25.714  31.951  1.00  0.00     0.009 A 
ATOM     78  C   UNL A   1      50.014  25.655  29.999  1.00  0.00     0.001 A 
ATOM     79  C   UNL A   1      49.292  25.227  32.264  1.00  0.00     0.001 A 
ATOM     80  C   UNL A   1      50.283  25.188  31.285  1.00  0.00     0.000 A 
ENDBRANCH  62  75
ENDBRANCH  36  37
ENDBRANCH  28  31
ENDBRANCH  26  27
ENDBRANCH   1  26
TORSDOF 13
ENDMDL
MODEL 2
REMARK VINA RESULT:     -11.3      0.823      5.973
REMARK SMILES CC1([C@@H]2C[C@H](C(F)(F)F)n3nc(C(=O)NCCCCNC(=O)c4ccc(-c5c6nc(c(-c7ccccc7)c7ccc([nH]7)c(-c7ccccc7)c7nc(c(-c8ccccc8)c8ccc5[nH]8)C=C7)C=C6)cc4)cc3N2)CC1
REMARK SMILES IDX 18 1 17 2 16 3 15 4 13 5 14 6 12 8 3 9 4 10 73 11 5 12 72 13
REMARK SMILES IDX 10 15 71 16 11 17 2 18 1 19 74 20 75 21 6 22 7 23 8 24 9 25
REMARK SMILES IDX 19 26 20 27 21 28 22 30 23 31 24 32 70 33 25 34 69 35 26 36
REMARK SMILES IDX 27 37 28 38 63 39 29 40 68 41 62 42 64 43 30 44 67 45 61 46
REMARK SMILES IDX 60 47 31 49 53 50 38 51 52 52 39 53 42 54 51 55 65 56 40 57
REMARK SMILES IDX 41 58 50 60 66 61 43 62 32 63 33 64 37 65 34 66 36 67 35 68
REMARK SMILES IDX 54 69 55 70 59 71 56 72 58 73 57 74 44 75 45 76 49 77 46 78
REMARK SMILES IDX 48 79 47 80
REMARK H PARENT 15 7 73 14 20 29 64 48 42 59
REMARK Flexibility Score: inf
ROOT
ATOM      1  C   UNL A   1      33.622  28.416  25.740  1.00  0.00     0.023 C 
ENDROOT
BRANCH   1   2
ATOM      2  C   UNL A   1      32.348  28.811  24.985  1.00  0.00     0.023 C 
BRANCH   2   3
ATOM      3  C   UNL A   1      31.665  27.654  24.254  1.00  0.00     0.116 C 
BRANCH   3   4
ATOM      4  N   UNL A   1      30.681  27.010  25.096  1.00  0.00    -0.351 N 
ATOM      5  C   UNL A   1      30.723  25.830  25.807  1.00  0.00     0.271 C 
ATOM      6  O   UNL A   1      29.738  25.592  26.513  1.00  0.00    -0.267 OA
ATOM      7  H   UNL A   1      29.832  27.501  25.176  1.00  0.00     0.163 HD
BRANCH   5   8
ATOM      8  C   UNL A   1      31.889  24.924  25.738  1.00  0.00     0.152 A 
ATOM      9  C   UNL A   1      35.495  22.024  25.896  1.00  0.00     0.089 C 
ATOM     10  C   UNL A   1      34.625  21.460  24.754  1.00  0.00     0.062 C 
ATOM     11  N   UNL A   1      34.844  23.125  26.588  1.00  0.00    -0.367 N 
ATOM     12  C   UNL A   1      33.718  22.458  24.009  1.00  0.00     0.216 C 
ATOM     13  C   UNL A   1      33.753  23.756  26.120  1.00  0.00     0.126 A 
ATOM     14  H   UNL A   1      35.221  23.424  27.446  1.00  0.00     0.162 HD
ATOM     15  N   UNL A   1      33.179  23.433  24.930  1.00  0.00    -0.237 N 
ATOM     16  C   UNL A   1      33.000  24.781  26.622  1.00  0.00     0.082 A 
ATOM     17  N   UNL A   1      32.021  24.065  24.701  1.00  0.00    -0.165 NA
BRANCH   9  18
ATOM     18  C   UNL A   1      36.947  22.352  25.519  1.00  0.00    -0.012 C 
ATOM     19  C   UNL A   1      37.677  21.215  24.830  1.00  0.00     0.013 C 
ATOM     20  C   UNL A   1      37.830  23.125  26.495  1.00  0.00     0.009 C 
ATOM     21  C   UNL A   1      37.377  23.778  25.227  1.00  0.00     0.009 C 
ENDBRANCH   9  18
BRANCH  12  22
ATOM     22  C   UNL A   1      34.374  23.155  22.839  1.00  0.00     0.410 C 
ATOM     23  F   UNL A   1      35.597  22.617  22.592  1.00  0.00    -0.169 F 
ATOM     24  F   UNL A   1      33.661  22.998  21.698  1.00  0.00    -0.169 F 
ATOM     25  F   UNL A   1      34.558  24.477  23.011  1.00  0.00    -0.169 F 
ENDBRANCH  12  22
ENDBRANCH   5   8
ENDBRANCH   3   4
ENDBRANCH   2   3
ENDBRANCH   1   2
BRANCH   1  26
ATOM     26  C   UNL A   1      33.565  28.600  27.253  1.00  0.00     0.116 C 
BRANCH  26  27
ATOM     27  N   UNL A   1      33.513  29.994  27.665  1.00  0.00    -0.352 N 
ATOM     28  C   UNL A   1      34.499  30.753  28.245  1.00  0.00     0.251 C 
ATOM     29  H   UNL A   1      32.657  30.454  27.508  1.00  0.00     0.163 HD
ATOM     30  O   UNL A   1      34.259  31.893  28.631  1.00  0.00    -0.269 OA
BRANCH  28  31
ATOM     31  C   UNL A   1      35.845  30.173  28.439  1.00  0.00     0.039 A 
ATOM     32  C   UNL A   1      36.747  30.198  27.373  1.00  0.00     0.014 A 
ATOM     33  C   UNL A   1      36.221  29.630  29.670  1.00  0.00     0.014 A 
ATOM     34  C   UNL A   1      38.049  29.735  27.561  1.00  0.00     0.010 A 
ATOM     35  C   UNL A   1      37.540  29.234  29.875  1.00  0.00     0.010 A 
ATOM     36  C   UNL A   1      38.466  29.281  28.823  1.00  0.00    -0.014 A 
BRANCH  36  37
ATOM     37  C   UNL A   1      39.868  28.856  29.057  1.00  0.00     0.031 A 
ATOM     38  C   UNL A   1      40.319  27.477  28.664  1.00  0.00     0.074 A 
ATOM     39  C   UNL A   1      40.723  29.695  29.675  1.00  0.00     0.049 A 
ATOM     40  N   UNL A   1      41.494  26.920  28.811  1.00  0.00    -0.248 NA
ATOM     41  C   UNL A   1      39.311  26.600  28.045  1.00  0.00     0.031 C 
ATOM     42  C   UNL A   1      40.396  31.041  30.151  1.00  0.00     0.029 A 
ATOM     43  N   UNL A   1      42.043  29.535  30.011  1.00  0.00    -0.354 N 
ATOM     44  C   UNL A   1      41.363  25.628  28.319  1.00  0.00     0.074 A 
ATOM     45  C   UNL A   1      39.982  25.466  27.918  1.00  0.00     0.031 C 
ATOM     46  C   UNL A   1      41.495  31.597  30.686  1.00  0.00     0.029 A 
ATOM     47  C   UNL A   1      42.592  30.636  30.625  1.00  0.00     0.049 A 
ATOM     48  H   UNL A   1      42.551  28.711  29.830  1.00  0.00     0.167 HD
ATOM     49  C   UNL A   1      42.310  24.667  28.192  1.00  0.00     0.031 A 
ATOM     50  C   UNL A   1      43.839  30.847  31.085  1.00  0.00     0.031 A 
ATOM     51  C   UNL A   1      43.685  24.831  28.581  1.00  0.00     0.049 A 
ATOM     52  C   UNL A   1      44.871  29.765  30.934  1.00  0.00     0.074 A 
ATOM     53  C   UNL A   1      44.733  23.939  28.441  1.00  0.00     0.029 A 
ATOM     54  N   UNL A   1      44.202  25.964  29.190  1.00  0.00    -0.354 N 
ATOM     55  N   UNL A   1      44.749  28.575  30.399  1.00  0.00    -0.248 NA
ATOM     56  C   UNL A   1      46.219  30.064  31.440  1.00  0.00     0.031 C 
ATOM     57  C   UNL A   1      45.875  24.513  29.009  1.00  0.00     0.029 A 
ATOM     58  C   UNL A   1      45.551  25.786  29.451  1.00  0.00     0.049 A 
ATOM     59  H   UNL A   1      43.688  26.775  29.405  1.00  0.00     0.167 HD
ATOM     60  C   UNL A   1      46.008  27.995  30.475  1.00  0.00     0.074 A 
ATOM     61  C   UNL A   1      46.883  28.970  31.094  1.00  0.00     0.031 C 
ATOM     62  C   UNL A   1      46.407  26.765  30.067  1.00  0.00     0.031 A 
BRANCH  49  63
ATOM     63  C   UNL A   1      41.883  23.350  27.607  1.00  0.00    -0.014 A 
ATOM     64  C   UNL A   1      41.370  22.325  28.418  1.00  0.00     0.009 A 
ATOM     65  C   UNL A   1      41.968  23.140  26.221  1.00  0.00     0.009 A 
ATOM     66  C   UNL A   1      40.987  21.104  27.860  1.00  0.00     0.001 A 
ATOM     67  C   UNL A   1      41.556  21.929  25.662  1.00  0.00     0.001 A 
ATOM     68  C   UNL A   1      41.076  20.909  26.482  1.00  0.00     0.000 A 
ENDBRANCH  49  63
BRANCH  50  69
ATOM     69  C   UNL A   1      44.192  32.150  31.709  1.00  0.00    -0.014 A 
ATOM     70  C   UNL A   1      44.172  32.297  33.104  1.00  0.00     0.009 A 
ATOM     71  C   UNL A   1      44.543  33.252  30.914  1.00  0.00     0.009 A 
ATOM     72  C   UNL A   1      44.467  33.530  33.690  1.00  0.00     0.001 A 
ATOM     73  C   UNL A   1      44.866  34.476  31.505  1.00  0.00     0.001 A 
ATOM     74  C   UNL A   1      44.818  34.617  32.891  1.00  0.00     0.000 A 
ENDBRANCH  50  69
BRANCH  62  75
ATOM     75  C   UNL A   1      47.858  26.420  30.244  1.00  0.00    -0.014 A 
ATOM     76  C   UNL A   1      48.334  25.847  31.433  1.00  0.00     0.009 A 
ATOM     77  C   UNL A   1      48.757  26.645  29.189  1.00  0.00     0.009 A 
ATOM     78  C   UNL A   1      49.688  25.538  31.573  1.00  0.00     0.001 A 
ATOM     79  C   UNL A   1      50.104  26.307  29.322  1.00  0.00     0.001 A 
ATOM     80  C   UNL A   1      50.571  25.764  30.517  1.00  0.00     0.000 A 
ENDBRANCH  62  75
ENDBRANCH  36  37
ENDBRANCH  28  31
ENDBRANCH  26  27
ENDBRANCH   1  26
TORSDOF 13
ENDMDL
MODEL 3
REMARK VINA RESULT:     -11.2      2.349      7.609
REMARK SMILES CC1([C@@H]2C[C@H](C(F)(F)F)n3nc(C(=O)NCCCCNC(=O)c4ccc(-c5c6nc(c(-c7ccccc7)c7ccc([nH]7)c(-c7ccccc7)c7nc(c(-c8ccccc8)c8ccc5[nH]8)C=C7)C=C6)cc4)cc3N2)CC1
REMARK SMILES IDX 18 1 17 2 16 3 15 4 13 5 14 6 12 8 3 9 4 10 73 11 5 12 72 13
REMARK SMILES IDX 10 15 71 16 11 17 2 18 1 19 74 20 75 21 6 22 7 23 8 24 9 25
REMARK SMILES IDX 19 26 20 27 21 28 22 30 23 31 24 32 70 33 25 34 69 35 26 36
REMARK SMILES IDX 27 37 28 38 63 39 29 40 68 41 62 42 64 43 30 44 67 45 61 46
REMARK SMILES IDX 60 47 31 49 53 50 38 51 52 52 39 53 42 54 51 55 65 56 40 57
REMARK SMILES IDX 41 58 50 60 66 61 43 62 32 63 33 64 37 65 34 66 36 67 35 68
REMARK SMILES IDX 54 69 55 70 59 71 56 72 58 73 57 74 44 75 45 76 49 77 46 78
REMARK SMILES IDX 48 79 47 80
REMARK H PARENT 15 7 73 14 20 29 64 48 42 59
REMARK Flexibility Score: inf
ROOT
ATOM      1  C   UNL A   1      37.489  19.994  24.917  1.00  0.00     0.023 C 
ENDROOT
BRANCH   1   2
ATOM      2  C   UNL A   1      36.452  21.101  24.690  1.00  0.00     0.023 C 
BRANCH   2   3
ATOM      3  C   UNL A   1      35.435  21.251  25.823  1.00  0.00     0.116 C 
BRANCH   3   4
ATOM      4  N   UNL A   1      34.302  20.373  25.630  1.00  0.00    -0.351 N 
ATOM      5  C   UNL A   1      32.972  20.643  25.391  1.00  0.00     0.271 C 
ATOM      6  O   UNL A   1      32.253  19.662  25.180  1.00  0.00    -0.267 OA
ATOM      7  H   UNL A   1      34.518  19.415  25.676  1.00  0.00     0.163 HD
BRANCH   5   8
ATOM      8  C   UNL A   1      32.452  22.028  25.372  1.00  0.00     0.152 A 
ATOM      9  C   UNL A   1      30.475  26.214  25.336  1.00  0.00     0.089 C 
ATOM     10  C   UNL A   1      31.520  26.315  26.465  1.00  0.00     0.062 C 
ATOM     11  N   UNL A   1      30.375  24.865  24.802  1.00  0.00    -0.367 N 
ATOM     12  C   UNL A   1      32.751  25.396  26.361  1.00  0.00     0.216 C 
ATOM     13  C   UNL A   1      31.271  23.896  25.058  1.00  0.00     0.126 A 
ATOM     14  H   UNL A   1      29.610  24.649  24.222  1.00  0.00     0.162 HD
ATOM     15  N   UNL A   1      32.375  24.109  25.823  1.00  0.00    -0.237 N 
ATOM     16  C   UNL A   1      31.342  22.586  24.671  1.00  0.00     0.082 A 
ATOM     17  N   UNL A   1      33.070  22.995  26.089  1.00  0.00    -0.165 NA
BRANCH   9  18
ATOM     18  C   UNL A   1      30.595  27.271  24.228  1.00  0.00    -0.012 C 
ATOM     19  C   UNL A   1      31.347  28.519  24.646  1.00  0.00     0.013 C 
ATOM     20  C   UNL A   1      29.398  27.568  23.328  1.00  0.00     0.009 C 
ATOM     21  C   UNL A   1      30.597  26.872  22.764  1.00  0.00     0.009 C 
ENDBRANCH   9  18
BRANCH  12  22
ATOM     22  C   UNL A   1      33.905  25.972  25.571  1.00  0.00     0.410 C 
ATOM     23  F   UNL A   1      33.600  26.012  24.247  1.00  0.00    -0.169 F 
ATOM     24  F   UNL A   1      34.169  27.252  25.930  1.00  0.00    -0.169 F 
ATOM     25  F   UNL A   1      35.055  25.284  25.685  1.00  0.00    -0.169 F 
ENDBRANCH  12  22
ENDBRANCH   5   8
ENDBRANCH   3   4
ENDBRANCH   2   3
ENDBRANCH   1   2
BRANCH   1  26
ATOM     26  C   UNL A   1      38.719  20.411  25.716  1.00  0.00     0.116 C 
BRANCH  26  27
ATOM     27  N   UNL A   1      39.788  19.425  25.690  1.00  0.00    -0.352 N 
ATOM     28  C   UNL A   1      41.107  19.581  26.040  1.00  0.00     0.251 C 
ATOM     29  H   UNL A   1      39.532  18.526  25.380  1.00  0.00     0.163 HD
ATOM     30  O   UNL A   1      41.909  18.669  25.859  1.00  0.00    -0.269 OA
BRANCH  28  31
ATOM     31  C   UNL A   1      41.564  20.870  26.598  1.00  0.00     0.039 A 
ATOM     32  C   UNL A   1      42.044  21.848  25.723  1.00  0.00     0.014 A 
ATOM     33  C   UNL A   1      41.499  21.122  27.971  1.00  0.00     0.014 A 
ATOM     34  C   UNL A   1      42.398  23.103  26.219  1.00  0.00     0.010 A 
ATOM     35  C   UNL A   1      41.786  22.396  28.454  1.00  0.00     0.010 A 
ATOM     36  C   UNL A   1      42.240  23.398  27.583  1.00  0.00    -0.014 A 
BRANCH  36  37
ATOM     37  C   UNL A   1      42.542  24.751  28.112  1.00  0.00     0.031 A 
ATOM     38  C   UNL A   1      43.940  25.106  28.536  1.00  0.00     0.074 A 
ATOM     39  C   UNL A   1      41.544  25.644  28.263  1.00  0.00     0.049 A 
ATOM     40  N   UNL A   1      44.389  26.225  29.043  1.00  0.00    -0.248 NA
ATOM     41  C   UNL A   1      44.964  24.057  28.392  1.00  0.00     0.031 C 
ATOM     42  C   UNL A   1      40.136  25.407  27.936  1.00  0.00     0.029 A 
ATOM     43  N   UNL A   1      41.564  26.932  28.733  1.00  0.00    -0.354 N 
ATOM     44  C   UNL A   1      45.739  26.012  29.292  1.00  0.00     0.074 A 
ATOM     45  C   UNL A   1      46.024  24.640  28.931  1.00  0.00     0.031 C 
ATOM     46  C   UNL A   1      39.433  26.524  28.183  1.00  0.00     0.029 A 
ATOM     47  C   UNL A   1      40.332  27.541  28.720  1.00  0.00     0.049 A 
ATOM     48  H   UNL A   1      42.382  27.379  29.050  1.00  0.00     0.167 HD
ATOM     49  C   UNL A   1      46.664  26.883  29.761  1.00  0.00     0.031 A 
ATOM     50  C   UNL A   1      39.967  28.782  29.095  1.00  0.00     0.031 A 
ATOM     51  C   UNL A   1      46.384  28.250  30.110  1.00  0.00     0.049 A 
ATOM     52  C   UNL A   1      41.013  29.729  29.614  1.00  0.00     0.074 A 
ATOM     53  C   UNL A   1      47.263  29.228  30.539  1.00  0.00     0.029 A 
ATOM     54  N   UNL A   1      45.126  28.830  30.074  1.00  0.00    -0.354 N 
ATOM     55  N   UNL A   1      42.299  29.534  29.773  1.00  0.00    -0.248 NA
ATOM     56  C   UNL A   1      40.554  31.075  29.989  1.00  0.00     0.031 C 
ATOM     57  C   UNL A   1      46.530  30.388  30.808  1.00  0.00     0.029 A 
ATOM     58  C   UNL A   1      45.202  30.149  30.492  1.00  0.00     0.049 A 
ATOM     59  H   UNL A   1      44.300  28.374  29.792  1.00  0.00     0.167 HD
ATOM     60  C   UNL A   1      42.809  30.739  30.239  1.00  0.00     0.074 A 
ATOM     61  C   UNL A   1      41.696  31.663  30.320  1.00  0.00     0.031 C 
ATOM     62  C   UNL A   1      44.086  31.054  30.567  1.00  0.00     0.031 A 
BRANCH  49  63
ATOM     63  C   UNL A   1      48.070  26.376  29.921  1.00  0.00    -0.014 A 
ATOM     64  C   UNL A   1      48.515  25.836  31.139  1.00  0.00     0.009 A 
ATOM     65  C   UNL A   1      48.956  26.413  28.833  1.00  0.00     0.009 A 
ATOM     66  C   UNL A   1      49.827  25.379  31.274  1.00  0.00     0.001 A 
ATOM     67  C   UNL A   1      50.259  25.927  28.962  1.00  0.00     0.001 A 
ATOM     68  C   UNL A   1      50.696  25.421  30.184  1.00  0.00     0.000 A 
ENDBRANCH  49  63
BRANCH  50  69
ATOM     69  C   UNL A   1      38.550  29.212  28.969  1.00  0.00    -0.014 A 
ATOM     70  C   UNL A   1      38.068  29.725  27.755  1.00  0.00     0.009 A 
ATOM     71  C   UNL A   1      37.675  29.119  30.062  1.00  0.00     0.009 A 
ATOM     72  C   UNL A   1      36.747  30.163  27.646  1.00  0.00     0.001 A 
ATOM     73  C   UNL A   1      36.345  29.532  29.941  1.00  0.00     0.001 A 
ATOM     74  C   UNL A   1      35.885  30.063  28.737  1.00  0.00     0.000 A 
ENDBRANCH  50  69
BRANCH  62  75
ATOM     75  C   UNL A   1      44.352  32.465  31.010  1.00  0.00    -0.014 A 
ATOM     76  C   UNL A   1      44.307  32.828  32.364  1.00  0.00     0.009 A 
ATOM     77  C   UNL A   1      44.685  33.439  30.055  1.00  0.00     0.009 A 
ATOM     78  C   UNL A   1      44.556  34.147  32.749  1.00  0.00     0.001 A 
ATOM     79  C   UNL A   1      44.963  34.749  30.446  1.00  0.00     0.001 A 
ATOM     80  C   UNL A   1      44.888  35.104  31.791  1.00  0.00     0.000 A 
ENDBRANCH  62  75
ENDBRANCH  36  37
ENDBRANCH  28  31
ENDBRANCH  26  27
ENDBRANCH   1  26
TORSDOF 13
ENDMDL
