MODEL 1
REMARK VINA RESULT:     -10.5      0.000      0.000
REMARK SMILES CC(C)(O)CC[C@@H](C(=O)NCCCCNC(=O)c1ccc(-c2c3nc(c(-c4ccccc4)c4ccc([nH]4)c(-c4ccccc4)c4nc(c(-c5ccccc5)c5ccc2[nH]5)C=C4)C=C3)cc1)[C@@H]1CCS(=O)(=O)C1
REMARK SMILES IDX 11 1 10 2 8 3 9 4 7 6 6 7 5 8 2 9 1 10 3 11 4 12 66 14 67 15
REMARK SMILES IDX 72 16 68 17 69 18 70 19 71 20 12 21 13 22 14 23 15 24 16 25
REMARK SMILES IDX 17 27 18 28 19 29 65 30 20 31 64 32 21 33 22 34 23 35 58 36
REMARK SMILES IDX 24 37 63 38 57 39 59 40 25 41 62 42 56 43 55 44 26 46 48 47
REMARK SMILES IDX 33 48 47 49 34 50 37 51 46 52 60 53 35 54 36 55 45 57 61 58
REMARK SMILES IDX 38 59 27 60 28 61 32 62 29 63 31 64 30 65 49 66 50 67 54 68
REMARK SMILES IDX 51 69 53 70 52 71 39 72 40 73 44 74 41 75 43 76 42 77
REMARK H PARENT 10 5 4 13 15 26 59 45 37 56
REMARK Flexibility Score: inf
ROOT
ATOM      1  C   UNL A   1      32.150  27.918  27.082  1.00  0.00     0.116 C 
ENDROOT
BRANCH   1   2
ATOM      2  N   UNL A   1      31.041  27.001  27.074  1.00  0.00    -0.356 N 
ATOM      3  C   UNL A   1      30.580  26.153  26.118  1.00  0.00     0.223 C 
ATOM      4  O   UNL A   1      29.641  25.439  26.479  1.00  0.00    -0.275 OA
ATOM      5  H   UNL A   1      30.523  26.986  27.911  1.00  0.00     0.163 HD
BRANCH   3   6
ATOM      6  C   UNL A   1      31.228  26.030  24.700  1.00  0.00     0.082 C 
BRANCH   6   7
ATOM      7  C   UNL A   1      30.212  26.225  23.552  1.00  0.00     0.017 C 
BRANCH   7   8
ATOM      8  C   UNL A   1      29.185  27.377  23.499  1.00  0.00     0.035 C 
BRANCH   8   9
ATOM      9  C   UNL A   1      29.405  28.783  22.873  1.00  0.00     0.059 C 
ATOM     10  C   UNL A   1      30.027  29.904  23.703  1.00  0.00     0.042 C 
ATOM     11  C   UNL A   1      28.044  29.283  22.347  1.00  0.00     0.042 C 
BRANCH   9  12
ATOM     12  O   UNL A   1      30.260  28.600  21.742  1.00  0.00    -0.390 OA
ATOM     13  H   UNL A   1      30.182  27.688  21.421  1.00  0.00     0.211 HD
ENDBRANCH   9  12
ENDBRANCH   8   9
ENDBRANCH   7   8
ENDBRANCH   6   7
BRANCH   6  14
ATOM     14  C   UNL A   1      31.992  24.626  24.633  1.00  0.00     0.017 C 
ATOM     15  C   UNL A   1      33.364  24.668  25.341  1.00  0.00     0.021 C 
ATOM     16  C   UNL A   1      32.290  23.975  23.266  1.00  0.00     0.141 C 
ATOM     17  C   UNL A   1      34.398  25.183  24.349  1.00  0.00     0.137 C 
ATOM     18  S   UNL A   1      33.909  24.546  22.760  1.00  0.00     0.150 S 
ATOM     19  O   UNL A   1      33.773  25.651  21.841  1.00  0.00    -0.229 OA
ATOM     20  O   UNL A   1      34.731  23.393  22.448  1.00  0.00    -0.229 OA
ENDBRANCH   6  14
ENDBRANCH   3   6
ENDBRANCH   1   2
BRANCH   1  21
ATOM     21  C   UNL A   1      31.694  29.374  27.173  1.00  0.00     0.023 C 
BRANCH  21  22
ATOM     22  C   UNL A   1      32.547  30.350  26.384  1.00  0.00     0.023 C 
BRANCH  22  23
ATOM     23  C   UNL A   1      33.353  31.307  27.252  1.00  0.00     0.116 C 
BRANCH  23  24
ATOM     24  N   UNL A   1      32.717  32.598  27.490  1.00  0.00    -0.352 N 
ATOM     25  C   UNL A   1      33.205  33.651  28.236  1.00  0.00     0.251 C 
ATOM     26  H   UNL A   1      31.836  32.735  27.071  1.00  0.00     0.163 HD
ATOM     27  O   UNL A   1      32.552  34.674  28.399  1.00  0.00    -0.269 OA
BRANCH  25  28
ATOM     28  C   UNL A   1      34.519  33.484  28.885  1.00  0.00     0.039 A 
ATOM     29  C   UNL A   1      34.590  32.798  30.097  1.00  0.00     0.014 A 
ATOM     30  C   UNL A   1      35.679  33.853  28.199  1.00  0.00     0.014 A 
ATOM     31  C   UNL A   1      35.835  32.390  30.574  1.00  0.00     0.010 A 
ATOM     32  C   UNL A   1      36.900  33.342  28.616  1.00  0.00     0.010 A 
ATOM     33  C   UNL A   1      36.993  32.606  29.808  1.00  0.00    -0.014 A 
BRANCH  33  34
ATOM     34  C   UNL A   1      38.313  32.074  30.233  1.00  0.00     0.031 A 
ATOM     35  C   UNL A   1      38.794  30.755  29.693  1.00  0.00     0.074 A 
ATOM     36  C   UNL A   1      39.046  32.738  31.149  1.00  0.00     0.049 A 
ATOM     37  N   UNL A   1      39.887  30.095  29.980  1.00  0.00    -0.248 NA
ATOM     38  C   UNL A   1      37.917  30.072  28.727  1.00  0.00     0.031 C 
ATOM     39  C   UNL A   1      38.669  34.000  31.792  1.00  0.00     0.029 A 
ATOM     40  N   UNL A   1      40.267  32.441  31.701  1.00  0.00    -0.354 N 
ATOM     41  C   UNL A   1      39.818  28.919  29.244  1.00  0.00     0.074 A 
ATOM     42  C   UNL A   1      38.546  28.921  28.556  1.00  0.00     0.031 C 
ATOM     43  C   UNL A   1      39.655  34.386  32.618  1.00  0.00     0.029 A 
ATOM     44  C   UNL A   1      40.712  33.381  32.601  1.00  0.00     0.049 A 
ATOM     45  H   UNL A   1      40.778  31.630  31.473  1.00  0.00     0.167 HD
ATOM     46  C   UNL A   1      40.742  27.938  29.122  1.00  0.00     0.031 A 
ATOM     47  C   UNL A   1      41.842  33.424  33.334  1.00  0.00     0.031 A 
ATOM     48  C   UNL A   1      42.010  27.941  29.798  1.00  0.00     0.049 A 
ATOM     49  C   UNL A   1      42.845  32.311  33.198  1.00  0.00     0.074 A 
ATOM     50  C   UNL A   1      43.038  27.019  29.703  1.00  0.00     0.029 A 
ATOM     51  N   UNL A   1      42.423  28.913  30.696  1.00  0.00    -0.354 N 
ATOM     52  N   UNL A   1      42.796  31.243  32.440  1.00  0.00    -0.248 NA
ATOM     53  C   UNL A   1      44.065  32.418  34.009  1.00  0.00     0.031 C 
ATOM     54  C   UNL A   1      44.048  27.403  30.590  1.00  0.00     0.029 A 
ATOM     55  C   UNL A   1      43.679  28.600  31.183  1.00  0.00     0.049 A 
ATOM     56  H   UNL A   1      41.900  29.708  30.948  1.00  0.00     0.167 HD
ATOM     57  C   UNL A   1      43.990  30.567  32.660  1.00  0.00     0.074 A 
ATOM     58  C   UNL A   1      44.749  31.357  33.608  1.00  0.00     0.031 C 
ATOM     59  C   UNL A   1      44.420  29.398  32.126  1.00  0.00     0.031 A 
BRANCH  46  60
ATOM     60  C   UNL A   1      40.405  26.781  28.222  1.00  0.00    -0.014 A 
ATOM     61  C   UNL A   1      39.619  25.708  28.677  1.00  0.00     0.009 A 
ATOM     62  C   UNL A   1      40.860  26.772  26.895  1.00  0.00     0.009 A 
ATOM     63  C   UNL A   1      39.334  24.632  27.836  1.00  0.00     0.001 A 
ATOM     64  C   UNL A   1      40.543  25.711  26.045  1.00  0.00     0.001 A 
ATOM     65  C   UNL A   1      39.791  24.636  26.520  1.00  0.00     0.000 A 
ENDBRANCH  46  60
BRANCH  47  66
ATOM     66  C   UNL A   1      42.094  34.565  34.256  1.00  0.00    -0.014 A 
ATOM     67  C   UNL A   1      41.688  34.505  35.598  1.00  0.00     0.009 A 
ATOM     68  C   UNL A   1      42.728  35.730  33.794  1.00  0.00     0.009 A 
ATOM     69  C   UNL A   1      41.882  35.597  36.449  1.00  0.00     0.001 A 
ATOM     70  C   UNL A   1      42.951  36.806  34.655  1.00  0.00     0.001 A 
ATOM     71  C   UNL A   1      42.517  36.744  35.978  1.00  0.00     0.000 A 
ENDBRANCH  47  66
BRANCH  59  72
ATOM     72  C   UNL A   1      45.790  28.920  32.522  1.00  0.00    -0.014 A 
ATOM     73  C   UNL A   1      46.938  29.316  31.817  1.00  0.00     0.009 A 
ATOM     74  C   UNL A   1      45.936  28.098  33.651  1.00  0.00     0.009 A 
ATOM     75  C   UNL A   1      48.198  28.867  32.213  1.00  0.00     0.001 A 
ATOM     76  C   UNL A   1      47.200  27.679  34.065  1.00  0.00     0.001 A 
ATOM     77  C   UNL A   1      48.330  28.055  33.340  1.00  0.00     0.000 A 
ENDBRANCH  59  72
ENDBRANCH  33  34
ENDBRANCH  25  28
ENDBRANCH  23  24
ENDBRANCH  22  23
ENDBRANCH  21  22
ENDBRANCH   1  21
TORSDOF 16
ENDMDL
MODEL 2
REMARK VINA RESULT:     -10.5      2.773      4.864
REMARK SMILES CC(C)(O)CC[C@@H](C(=O)NCCCCNC(=O)c1ccc(-c2c3nc(c(-c4ccccc4)c4ccc([nH]4)c(-c4ccccc4)c4nc(c(-c5ccccc5)c5ccc2[nH]5)C=C4)C=C3)cc1)[C@@H]1CCS(=O)(=O)C1
REMARK SMILES IDX 11 1 10 2 8 3 9 4 7 6 6 7 5 8 2 9 1 10 3 11 4 12 66 14 67 15
REMARK SMILES IDX 72 16 68 17 69 18 70 19 71 20 12 21 13 22 14 23 15 24 16 25
REMARK SMILES IDX 17 27 18 28 19 29 65 30 20 31 64 32 21 33 22 34 23 35 58 36
REMARK SMILES IDX 24 37 63 38 57 39 59 40 25 41 62 42 56 43 55 44 26 46 48 47
REMARK SMILES IDX 33 48 47 49 34 50 37 51 46 52 60 53 35 54 36 55 45 57 61 58
REMARK SMILES IDX 38 59 27 60 28 61 32 62 29 63 31 64 30 65 49 66 50 67 54 68
REMARK SMILES IDX 51 69 53 70 52 71 39 72 40 73 44 74 41 75 43 76 42 77
REMARK H PARENT 10 5 4 13 15 26 59 45 37 56
REMARK Flexibility Score: inf
ROOT
ATOM      1  C   UNL A   1      33.848  26.714  24.981  1.00  0.00     0.116 C 
ENDROOT
BRANCH   1   2
ATOM      2  N   UNL A   1      33.747  26.291  23.609  1.00  0.00    -0.356 N 
ATOM      3  C   UNL A   1      33.825  25.061  23.038  1.00  0.00     0.223 C 
ATOM      4  O   UNL A   1      33.608  25.049  21.822  1.00  0.00    -0.275 OA
ATOM      5  H   UNL A   1      33.596  27.025  22.970  1.00  0.00     0.163 HD
BRANCH   3   6
ATOM      6  C   UNL A   1      34.090  23.754  23.853  1.00  0.00     0.082 C 
BRANCH   6   7
ATOM      7  C   UNL A   1      35.329  22.974  23.360  1.00  0.00     0.017 C 
BRANCH   7   8
ATOM      8  C   UNL A   1      36.738  23.118  23.977  1.00  0.00     0.035 C 
BRANCH   8   9
ATOM      9  C   UNL A   1      37.238  22.475  25.300  1.00  0.00     0.059 C 
ATOM     10  C   UNL A   1      38.282  23.190  26.155  1.00  0.00     0.042 C 
ATOM     11  C   UNL A   1      37.782  21.071  24.966  1.00  0.00     0.042 C 
BRANCH   9  12
ATOM     12  O   UNL A   1      36.089  22.302  26.132  1.00  0.00    -0.390 OA
ATOM     13  H   UNL A   1      35.436  21.752  25.673  1.00  0.00     0.211 HD
ENDBRANCH   9  12
ENDBRANCH   8   9
ENDBRANCH   7   8
ENDBRANCH   6   7
BRANCH   6  14
ATOM     14  C   UNL A   1      32.748  22.884  23.831  1.00  0.00     0.017 C 
ATOM     15  C   UNL A   1      32.005  22.910  25.184  1.00  0.00     0.021 C 
ATOM     16  C   UNL A   1      32.806  21.388  23.459  1.00  0.00     0.141 C 
ATOM     17  C   UNL A   1      32.595  21.824  26.074  1.00  0.00     0.137 C 
ATOM     18  S   UNL A   1      33.018  20.480  24.987  1.00  0.00     0.150 S 
ATOM     19  O   UNL A   1      34.412  20.155  25.173  1.00  0.00    -0.229 OA
ATOM     20  O   UNL A   1      31.982  19.468  25.073  1.00  0.00    -0.229 OA
ENDBRANCH   6  14
ENDBRANCH   3   6
ENDBRANCH   1   2
BRANCH   1  21
ATOM     21  C   UNL A   1      32.682  27.613  25.394  1.00  0.00     0.023 C 
BRANCH  21  22
ATOM     22  C   UNL A   1      33.093  28.991  25.879  1.00  0.00     0.023 C 
BRANCH  22  23
ATOM     23  C   UNL A   1      33.593  29.016  27.317  1.00  0.00     0.116 C 
BRANCH  23  24
ATOM     24  N   UNL A   1      33.664  30.346  27.915  1.00  0.00    -0.352 N 
ATOM     25  C   UNL A   1      34.759  30.946  28.500  1.00  0.00     0.251 C 
ATOM     26  H   UNL A   1      32.835  30.876  27.899  1.00  0.00     0.163 HD
ATOM     27  O   UNL A   1      34.681  32.057  29.010  1.00  0.00    -0.269 OA
BRANCH  25  28
ATOM     28  C   UNL A   1      36.020  30.182  28.548  1.00  0.00     0.039 A 
ATOM     29  C   UNL A   1      36.899  30.262  27.469  1.00  0.00     0.014 A 
ATOM     30  C   UNL A   1      36.393  29.540  29.732  1.00  0.00     0.014 A 
ATOM     31  C   UNL A   1      38.200  29.782  27.616  1.00  0.00     0.010 A 
ATOM     32  C   UNL A   1      37.719  29.173  29.912  1.00  0.00     0.010 A 
ATOM     33  C   UNL A   1      38.638  29.289  28.857  1.00  0.00    -0.014 A 
BRANCH  33  34
ATOM     34  C   UNL A   1      40.050  28.886  29.075  1.00  0.00     0.031 A 
ATOM     35  C   UNL A   1      40.502  27.508  28.676  1.00  0.00     0.074 A 
ATOM     36  C   UNL A   1      40.907  29.728  29.689  1.00  0.00     0.049 A 
ATOM     37  N   UNL A   1      41.674  26.946  28.832  1.00  0.00    -0.248 NA
ATOM     38  C   UNL A   1      39.496  26.634  28.049  1.00  0.00     0.031 C 
ATOM     39  C   UNL A   1      40.581  31.072  30.175  1.00  0.00     0.029 A 
ATOM     40  N   UNL A   1      42.233  29.574  30.011  1.00  0.00    -0.354 N 
ATOM     41  C   UNL A   1      41.539  25.655  28.336  1.00  0.00     0.074 A 
ATOM     42  C   UNL A   1      40.157  25.492  27.945  1.00  0.00     0.031 C 
ATOM     43  C   UNL A   1      41.685  31.631  30.695  1.00  0.00     0.029 A 
ATOM     44  C   UNL A   1      42.784  30.675  30.623  1.00  0.00     0.049 A 
ATOM     45  H   UNL A   1      42.741  28.753  29.819  1.00  0.00     0.167 HD
ATOM     46  C   UNL A   1      42.485  24.699  28.188  1.00  0.00     0.031 A 
ATOM     47  C   UNL A   1      44.034  30.886  31.081  1.00  0.00     0.031 A 
ATOM     48  C   UNL A   1      43.860  24.865  28.568  1.00  0.00     0.049 A 
ATOM     49  C   UNL A   1      45.063  29.800  30.924  1.00  0.00     0.074 A 
ATOM     50  C   UNL A   1      44.909  23.975  28.414  1.00  0.00     0.029 A 
ATOM     51  N   UNL A   1      44.378  25.995  29.180  1.00  0.00    -0.354 N 
ATOM     52  N   UNL A   1      44.936  28.612  30.385  1.00  0.00    -0.248 NA
ATOM     53  C   UNL A   1      46.413  30.091  31.427  1.00  0.00     0.031 C 
ATOM     54  C   UNL A   1      46.049  24.545  28.988  1.00  0.00     0.029 A 
ATOM     55  C   UNL A   1      45.727  25.816  29.435  1.00  0.00     0.049 A 
ATOM     56  H   UNL A   1      43.863  26.806  29.400  1.00  0.00     0.167 HD
ATOM     57  C   UNL A   1      46.193  28.026  30.458  1.00  0.00     0.074 A 
ATOM     58  C   UNL A   1      47.073  28.998  31.075  1.00  0.00     0.031 C 
ATOM     59  C   UNL A   1      46.586  26.794  30.049  1.00  0.00     0.031 A 
BRANCH  46  60
ATOM     60  C   UNL A   1      42.052  23.388  27.589  1.00  0.00    -0.014 A 
ATOM     61  C   UNL A   1      42.199  23.132  26.216  1.00  0.00     0.009 A 
ATOM     62  C   UNL A   1      41.511  22.389  28.411  1.00  0.00     0.009 A 
ATOM     63  C   UNL A   1      41.772  21.919  25.672  1.00  0.00     0.001 A 
ATOM     64  C   UNL A   1      41.118  21.164  27.871  1.00  0.00     0.001 A 
ATOM     65  C   UNL A   1      41.237  20.934  26.500  1.00  0.00     0.000 A 
ENDBRANCH  46  60
BRANCH  47  66
ATOM     66  C   UNL A   1      44.389  32.182  31.722  1.00  0.00    -0.014 A 
ATOM     67  C   UNL A   1      44.174  32.385  33.094  1.00  0.00     0.009 A 
ATOM     68  C   UNL A   1      44.930  33.231  30.960  1.00  0.00     0.009 A 
ATOM     69  C   UNL A   1      44.462  33.620  33.683  1.00  0.00     0.001 A 
ATOM     70  C   UNL A   1      45.248  34.452  31.559  1.00  0.00     0.001 A 
ATOM     71  C   UNL A   1      45.002  34.650  32.916  1.00  0.00     0.000 A 
ENDBRANCH  47  66
BRANCH  59  72
ATOM     72  C   UNL A   1      48.039  26.441  30.220  1.00  0.00    -0.014 A 
ATOM     73  C   UNL A   1      48.511  25.823  31.387  1.00  0.00     0.009 A 
ATOM     74  C   UNL A   1      48.938  26.691  29.171  1.00  0.00     0.009 A 
ATOM     75  C   UNL A   1      49.862  25.495  31.514  1.00  0.00     0.001 A 
ATOM     76  C   UNL A   1      50.281  26.332  29.287  1.00  0.00     0.001 A 
ATOM     77  C   UNL A   1      50.744  25.744  30.462  1.00  0.00     0.000 A 
ENDBRANCH  59  72
ENDBRANCH  33  34
ENDBRANCH  25  28
ENDBRANCH  23  24
ENDBRANCH  22  23
ENDBRANCH  21  22
ENDBRANCH   1  21
TORSDOF 16
ENDMDL
MODEL 3
REMARK VINA RESULT:     -10.4      1.172      6.175
REMARK SMILES CC(C)(O)CC[C@@H](C(=O)NCCCCNC(=O)c1ccc(-c2c3nc(c(-c4ccccc4)c4ccc([nH]4)c(-c4ccccc4)c4nc(c(-c5ccccc5)c5ccc2[nH]5)C=C4)C=C3)cc1)[C@@H]1CCS(=O)(=O)C1
REMARK SMILES IDX 11 1 10 2 8 3 9 4 7 6 6 7 5 8 2 9 1 10 3 11 4 12 66 14 67 15
REMARK SMILES IDX 72 16 68 17 69 18 70 19 71 20 12 21 13 22 14 23 15 24 16 25
REMARK SMILES IDX 17 27 18 28 19 29 65 30 20 31 64 32 21 33 22 34 23 35 58 36
REMARK SMILES IDX 24 37 63 38 57 39 59 40 25 41 62 42 56 43 55 44 26 46 48 47
REMARK SMILES IDX 33 48 47 49 34 50 37 51 46 52 60 53 35 54 36 55 45 57 61 58
REMARK SMILES IDX 38 59 27 60 28 61 32 62 29 63 31 64 30 65 49 66 50 67 54 68
REMARK SMILES IDX 51 69 53 70 52 71 39 72 40 73 44 74 41 75 43 76 42 77
REMARK H PARENT 10 5 4 13 15 26 59 45 37 56
REMARK Flexibility Score: inf
ROOT
ATOM      1  C   UNL A   1      33.399  28.697  26.351  1.00  0.00     0.116 C 
ENDROOT
BRANCH   1   2
ATOM      2  N   UNL A   1      33.576  29.130  24.989  1.00  0.00    -0.356 N 
ATOM      3  C   UNL A   1      33.097  28.638  23.818  1.00  0.00     0.223 C 
ATOM      4  O   UNL A   1      33.382  29.314  22.825  1.00  0.00    -0.275 OA
ATOM      5  H   UNL A   1      34.148  29.926  24.890  1.00  0.00     0.163 HD
BRANCH   3   6
ATOM      6  C   UNL A   1      32.193  27.365  23.731  1.00  0.00     0.082 C 
BRANCH   6   7
ATOM      7  C   UNL A   1      30.707  27.656  24.039  1.00  0.00     0.017 C 
BRANCH   7   8
ATOM      8  C   UNL A   1      29.712  28.234  23.009  1.00  0.00     0.035 C 
BRANCH   8   9
ATOM      9  C   UNL A   1      29.537  29.732  22.631  1.00  0.00     0.059 C 
ATOM     10  C   UNL A   1      29.556  30.805  23.718  1.00  0.00     0.042 C 
ATOM     11  C   UNL A   1      28.212  29.870  21.854  1.00  0.00     0.042 C 
BRANCH   9  12
ATOM     12  O   UNL A   1      30.599  30.054  21.731  1.00  0.00    -0.390 OA
ATOM     13  H   UNL A   1      30.373  30.860  21.240  1.00  0.00     0.211 HD
ENDBRANCH   9  12
ENDBRANCH   8   9
ENDBRANCH   7   8
ENDBRANCH   6   7
BRANCH   6  14
ATOM     14  C   UNL A   1      32.827  26.250  24.686  1.00  0.00     0.017 C 
ATOM     15  C   UNL A   1      33.911  25.411  23.974  1.00  0.00     0.021 C 
ATOM     16  C   UNL A   1      31.916  25.201  25.357  1.00  0.00     0.141 C 
ATOM     17  C   UNL A   1      33.224  24.269  23.237  1.00  0.00     0.137 C 
ATOM     18  S   UNL A   1      31.843  23.794  24.254  1.00  0.00     0.150 S 
ATOM     19  O   UNL A   1      30.639  23.857  23.459  1.00  0.00    -0.229 OA
ATOM     20  O   UNL A   1      32.202  22.602  24.998  1.00  0.00    -0.229 OA
ENDBRANCH   6  14
ENDBRANCH   3   6
ENDBRANCH   1   2
BRANCH   1  21
ATOM     21  C   UNL A   1      32.247  29.426  27.042  1.00  0.00     0.023 C 
BRANCH  21  22
ATOM     22  C   UNL A   1      32.074  30.872  26.617  1.00  0.00     0.023 C 
BRANCH  22  23
ATOM     23  C   UNL A   1      33.073  31.828  27.254  1.00  0.00     0.116 C 
BRANCH  23  24
ATOM     24  N   UNL A   1      32.540  33.150  27.567  1.00  0.00    -0.352 N 
ATOM     25  C   UNL A   1      33.117  34.124  28.355  1.00  0.00     0.251 C 
ATOM     26  H   UNL A   1      31.668  33.373  27.169  1.00  0.00     0.163 HD
ATOM     27  O   UNL A   1      32.546  35.183  28.579  1.00  0.00    -0.269 OA
BRANCH  25  28
ATOM     28  C   UNL A   1      34.422  33.825  28.973  1.00  0.00     0.039 A 
ATOM     29  C   UNL A   1      34.454  33.104  30.167  1.00  0.00     0.014 A 
ATOM     30  C   UNL A   1      35.598  34.108  28.274  1.00  0.00     0.014 A 
ATOM     31  C   UNL A   1      35.667  32.575  30.608  1.00  0.00     0.010 A 
ATOM     32  C   UNL A   1      36.777  33.482  28.654  1.00  0.00     0.010 A 
ATOM     33  C   UNL A   1      36.825  32.709  29.825  1.00  0.00    -0.014 A 
BRANCH  33  34
ATOM     34  C   UNL A   1      38.100  32.052  30.211  1.00  0.00     0.031 A 
ATOM     35  C   UNL A   1      39.034  32.743  31.167  1.00  0.00     0.074 A 
ATOM     36  C   UNL A   1      38.449  30.874  29.656  1.00  0.00     0.049 A 
ATOM     37  N   UNL A   1      40.215  32.364  31.585  1.00  0.00    -0.248 NA
ATOM     38  C   UNL A   1      38.599  34.045  31.698  1.00  0.00     0.031 C 
ATOM     39  C   UNL A   1      37.659  30.126  28.674  1.00  0.00     0.029 A 
ATOM     40  N   UNL A   1      39.566  30.097  29.839  1.00  0.00    -0.354 N 
ATOM     41  C   UNL A   1      40.664  33.386  32.412  1.00  0.00     0.074 A 
ATOM     42  C   UNL A   1      39.666  34.431  32.379  1.00  0.00     0.031 C 
ATOM     43  C   UNL A   1      38.297  28.983  28.374  1.00  0.00     0.029 A 
ATOM     44  C   UNL A   1      39.560  28.936  29.102  1.00  0.00     0.049 A 
ATOM     45  H   UNL A   1      40.303  30.348  30.443  1.00  0.00     0.167 HD
ATOM     46  C   UNL A   1      41.790  33.440  33.161  1.00  0.00     0.031 A 
ATOM     47  C   UNL A   1      40.472  27.948  29.020  1.00  0.00     0.031 A 
ATOM     48  C   UNL A   1      42.777  32.397  33.202  1.00  0.00     0.049 A 
ATOM     49  C   UNL A   1      41.726  28.040  29.845  1.00  0.00     0.074 A 
ATOM     50  C   UNL A   1      43.930  32.332  33.966  1.00  0.00     0.029 A 
ATOM     51  N   UNL A   1      42.731  31.236  32.445  1.00  0.00    -0.354 N 
ATOM     52  N   UNL A   1      42.100  28.979  30.679  1.00  0.00    -0.248 NA
ATOM     53  C   UNL A   1      42.678  26.927  29.726  1.00  0.00     0.031 C 
ATOM     54  C   UNL A   1      44.610  31.159  33.626  1.00  0.00     0.029 A 
ATOM     55  C   UNL A   1      43.847  30.461  32.704  1.00  0.00     0.049 A 
ATOM     56  H   UNL A   1      42.009  30.999  31.818  1.00  0.00     0.167 HD
ATOM     57  C   UNL A   1      43.314  28.558  31.206  1.00  0.00     0.074 A 
ATOM     58  C   UNL A   1      43.603  27.269  30.612  1.00  0.00     0.031 C 
ATOM     59  C   UNL A   1      44.118  29.180  32.103  1.00  0.00     0.031 A 
BRANCH  46  60
ATOM     60  C   UNL A   1      42.007  34.674  33.993  1.00  0.00    -0.014 A 
ATOM     61  C   UNL A   1      41.592  34.730  35.334  1.00  0.00     0.009 A 
ATOM     62  C   UNL A   1      42.652  35.788  33.436  1.00  0.00     0.009 A 
ATOM     63  C   UNL A   1      41.781  35.891  36.086  1.00  0.00     0.001 A 
ATOM     64  C   UNL A   1      42.871  36.935  34.201  1.00  0.00     0.001 A 
ATOM     65  C   UNL A   1      42.425  36.990  35.521  1.00  0.00     0.000 A 
ENDBRANCH  46  60
BRANCH  47  66
ATOM     66  C   UNL A   1      40.232  26.778  28.131  1.00  0.00    -0.014 A 
ATOM     67  C   UNL A   1      39.477  25.682  28.576  1.00  0.00     0.009 A 
ATOM     68  C   UNL A   1      40.772  26.744  26.835  1.00  0.00     0.009 A 
ATOM     69  C   UNL A   1      39.296  24.564  27.757  1.00  0.00     0.001 A 
ATOM     70  C   UNL A   1      40.560  25.640  26.006  1.00  0.00     0.001 A 
ATOM     71  C   UNL A   1      39.834  24.546  26.472  1.00  0.00     0.000 A 
ENDBRANCH  47  66
BRANCH  59  72
ATOM     72  C   UNL A   1      45.368  28.459  32.528  1.00  0.00    -0.014 A 
ATOM     73  C   UNL A   1      46.591  28.661  31.870  1.00  0.00     0.009 A 
ATOM     74  C   UNL A   1      45.325  27.598  33.636  1.00  0.00     0.009 A 
ATOM     75  C   UNL A   1      47.738  27.986  32.292  1.00  0.00     0.001 A 
ATOM     76  C   UNL A   1      46.481  26.951  34.077  1.00  0.00     0.001 A 
ATOM     77  C   UNL A   1      47.684  27.139  33.398  1.00  0.00     0.000 A 
ENDBRANCH  59  72
ENDBRANCH  33  34
ENDBRANCH  25  28
ENDBRANCH  23  24
ENDBRANCH  22  23
ENDBRANCH  21  22
ENDBRANCH   1  21
TORSDOF 16
ENDMDL
