MODEL 1
REMARK VINA RESULT:     -11.5      0.000      0.000
REMARK SMILES O=C(NCc1ccsc1)NC[C@H]1CC[C@@H](C(=O)NCCCCNC(=O)c2ccc(-c3c4nc(c(-c5ccccc5)c5ccc([nH]5)c(-c5ccccc5)c5nc(c(-c6ccccc6)c6ccc3[nH]6)C=C5)C=C4)cc2)CC1
REMARK SMILES IDX 19 1 18 2 16 3 17 4 15 6 12 7 13 8 75 9 14 10 74 11 11 12
REMARK SMILES IDX 10 13 1 14 2 15 3 16 4 19 5 20 6 21 9 22 7 23 8 24 20 25
REMARK SMILES IDX 21 26 22 27 23 28 24 29 25 31 26 32 27 33 73 34 28 35 72 36
REMARK SMILES IDX 29 37 30 38 31 39 66 40 32 41 71 42 65 43 67 44 33 45 70 46
REMARK SMILES IDX 64 47 63 48 34 50 56 51 41 52 55 53 42 54 45 55 54 56 68 57
REMARK SMILES IDX 43 58 44 59 53 61 69 62 46 63 35 64 36 65 40 66 37 67 39 68
REMARK SMILES IDX 38 69 57 70 58 71 62 72 59 73 61 74 60 75 47 76 48 77 52 78
REMARK SMILES IDX 49 79 51 80 50 81
REMARK H PARENT 18 5 3 17 10 18 23 30 67 49 45 60
REMARK Flexibility Score: inf
ROOT
ATOM      1  C   UNL A   1      31.043  26.848  25.995  1.00  0.00     0.116 C 
ENDROOT
BRANCH   1   2
ATOM      2  N   UNL A   1      30.594  25.588  26.541  1.00  0.00    -0.356 N 
ATOM      3  C   UNL A   1      31.158  24.359  26.612  1.00  0.00     0.223 C 
ATOM      4  O   UNL A   1      30.509  23.511  27.237  1.00  0.00    -0.275 OA
ATOM      5  H   UNL A   1      29.697  25.631  26.942  1.00  0.00     0.163 HD
BRANCH   3   6
ATOM      6  C   UNL A   1      32.492  23.948  25.968  1.00  0.00     0.078 C 
ATOM      7  C   UNL A   1      33.643  25.115  23.420  1.00  0.00     0.008 C 
ATOM      8  C   UNL A   1      33.916  25.785  24.783  1.00  0.00     0.006 C 
ATOM      9  C   UNL A   1      32.479  24.114  23.410  1.00  0.00     0.006 C 
ATOM     10  C   UNL A   1      33.647  24.945  26.028  1.00  0.00     0.014 C 
ATOM     11  C   UNL A   1      32.376  23.225  24.634  1.00  0.00     0.014 C 
BRANCH   7  12
ATOM     12  C   UNL A   1      33.453  26.227  22.358  1.00  0.00     0.121 C 
BRANCH  12  13
ATOM     13  N   UNL A   1      32.398  27.173  22.672  1.00  0.00    -0.338 N 
ATOM     14  O   UNL A   1      33.789  28.971  22.775  1.00  0.00    -0.249 OA
ATOM     15  C   UNL A   1      32.661  28.494  22.858  1.00  0.00     0.315 C 
ATOM     16  N   UNL A   1      31.638  29.308  23.183  1.00  0.00    -0.334 N 
ATOM     17  H   UNL A   1      31.889  30.255  23.281  1.00  0.00     0.165 HD
ATOM     18  H   UNL A   1      31.471  26.852  22.752  1.00  0.00     0.165 HD
BRANCH  16  19
ATOM     19  C   UNL A   1      30.239  29.039  23.416  1.00  0.00     0.154 C 
BRANCH  19  20
ATOM     20  C   UNL A   1      29.432  30.184  22.889  1.00  0.00    -0.018 A 
ATOM     21  C   UNL A   1      28.813  31.200  23.697  1.00  0.00     0.017 A 
ATOM     22  C   UNL A   1      29.159  30.403  21.549  1.00  0.00     0.070 A 
ATOM     23  C   UNL A   1      28.104  32.117  22.955  1.00  0.00     0.065 A 
ATOM     24  S   UNL A   1      28.178  31.778  21.282  1.00  0.00    -0.152 S 
ENDBRANCH  19  20
ENDBRANCH  16  19
ENDBRANCH  12  13
ENDBRANCH   7  12
ENDBRANCH   3   6
ENDBRANCH   1   2
BRANCH   1  25
ATOM     25  C   UNL A   1      31.447  27.848  27.077  1.00  0.00     0.023 C 
BRANCH  25  26
ATOM     26  C   UNL A   1      32.194  29.083  26.595  1.00  0.00     0.023 C 
BRANCH  26  27
ATOM     27  C   UNL A   1      33.544  29.358  27.246  1.00  0.00     0.116 C 
BRANCH  27  28
ATOM     28  N   UNL A   1      33.656  30.592  28.013  1.00  0.00    -0.352 N 
ATOM     29  C   UNL A   1      34.782  31.091  28.636  1.00  0.00     0.251 C 
ATOM     30  H   UNL A   1      32.836  31.130  28.096  1.00  0.00     0.163 HD
ATOM     31  O   UNL A   1      34.790  32.167  29.226  1.00  0.00    -0.269 OA
BRANCH  29  32
ATOM     32  C   UNL A   1      35.986  30.240  28.673  1.00  0.00     0.039 A 
ATOM     33  C   UNL A   1      36.836  30.258  27.564  1.00  0.00     0.014 A 
ATOM     34  C   UNL A   1      36.354  29.578  29.845  1.00  0.00     0.014 A 
ATOM     35  C   UNL A   1      38.110  29.705  27.669  1.00  0.00     0.010 A 
ATOM     36  C   UNL A   1      37.656  29.114  29.978  1.00  0.00     0.010 A 
ATOM     37  C   UNL A   1      38.551  29.186  28.897  1.00  0.00    -0.014 A 
BRANCH  37  38
ATOM     38  C   UNL A   1      39.947  28.722  29.080  1.00  0.00     0.031 A 
ATOM     39  C   UNL A   1      40.972  29.658  29.653  1.00  0.00     0.074 A 
ATOM     40  C   UNL A   1      40.311  27.495  28.657  1.00  0.00     0.049 A 
ATOM     41  N   UNL A   1      42.259  29.480  29.809  1.00  0.00    -0.248 NA
ATOM     42  C   UNL A   1      40.491  30.984  30.071  1.00  0.00     0.031 C 
ATOM     43  C   UNL A   1      39.423  26.508  28.040  1.00  0.00     0.029 A 
ATOM     44  N   UNL A   1      41.533  26.872  28.681  1.00  0.00    -0.354 N 
ATOM     45  C   UNL A   1      42.742  30.682  30.308  1.00  0.00     0.074 A 
ATOM     46  C   UNL A   1      41.623  31.596  30.379  1.00  0.00     0.031 C 
ATOM     47  C   UNL A   1      40.119  25.389  27.783  1.00  0.00     0.029 A 
ATOM     48  C   UNL A   1      41.509  25.594  28.176  1.00  0.00     0.049 A 
ATOM     49  H   UNL A   1      42.350  27.299  29.026  1.00  0.00     0.167 HD
ATOM     50  C   UNL A   1      44.001  30.994  30.698  1.00  0.00     0.031 A 
ATOM     51  C   UNL A   1      42.497  24.689  28.049  1.00  0.00     0.031 A 
ATOM     52  C   UNL A   1      45.106  30.077  30.655  1.00  0.00     0.049 A 
ATOM     53  C   UNL A   1      43.885  25.050  28.498  1.00  0.00     0.074 A 
ATOM     54  C   UNL A   1      46.405  30.270  31.087  1.00  0.00     0.029 A 
ATOM     55  N   UNL A   1      45.037  28.787  30.151  1.00  0.00    -0.354 N 
ATOM     56  N   UNL A   1      44.316  26.171  29.024  1.00  0.00    -0.248 NA
ATOM     57  C   UNL A   1      44.919  24.017  28.342  1.00  0.00     0.031 C 
ATOM     58  C   UNL A   1      47.134  29.108  30.810  1.00  0.00     0.029 A 
ATOM     59  C   UNL A   1      46.275  28.176  30.247  1.00  0.00     0.049 A 
ATOM     60  H   UNL A   1      44.227  28.368  29.780  1.00  0.00     0.167 HD
ATOM     61  C   UNL A   1      45.666  25.972  29.286  1.00  0.00     0.074 A 
ATOM     62  C   UNL A   1      45.977  24.618  28.869  1.00  0.00     0.031 C 
ATOM     63  C   UNL A   1      46.564  26.830  29.824  1.00  0.00     0.031 A 
BRANCH  50  64
ATOM     64  C   UNL A   1      44.230  32.394  31.193  1.00  0.00    -0.014 A 
ATOM     65  C   UNL A   1      44.074  32.720  32.550  1.00  0.00     0.009 A 
ATOM     66  C   UNL A   1      44.584  33.405  30.287  1.00  0.00     0.009 A 
ATOM     67  C   UNL A   1      44.213  34.041  32.980  1.00  0.00     0.001 A 
ATOM     68  C   UNL A   1      44.754  34.719  30.726  1.00  0.00     0.001 A 
ATOM     69  C   UNL A   1      44.553  35.039  32.068  1.00  0.00     0.000 A 
ENDBRANCH  50  64
BRANCH  51  70
ATOM     70  C   UNL A   1      42.201  23.335  27.511  1.00  0.00    -0.014 A 
ATOM     71  C   UNL A   1      42.479  23.037  26.168  1.00  0.00     0.009 A 
ATOM     72  C   UNL A   1      41.653  22.337  28.330  1.00  0.00     0.009 A 
ATOM     73  C   UNL A   1      42.199  21.770  25.652  1.00  0.00     0.001 A 
ATOM     74  C   UNL A   1      41.396  21.063  27.816  1.00  0.00     0.001 A 
ATOM     75  C   UNL A   1      41.663  20.783  26.477  1.00  0.00     0.000 A 
ENDBRANCH  51  70
BRANCH  63  76
ATOM     76  C   UNL A   1      47.962  26.321  30.022  1.00  0.00    -0.014 A 
ATOM     77  C   UNL A   1      48.921  26.411  29.002  1.00  0.00     0.009 A 
ATOM     78  C   UNL A   1      48.336  25.785  31.264  1.00  0.00     0.009 A 
ATOM     79  C   UNL A   1      50.220  25.948  29.213  1.00  0.00     0.001 A 
ATOM     80  C   UNL A   1      49.643  25.346  31.481  1.00  0.00     0.001 A 
ATOM     81  C   UNL A   1      50.581  25.421  30.453  1.00  0.00     0.000 A 
ENDBRANCH  63  76
ENDBRANCH  37  38
ENDBRANCH  29  32
ENDBRANCH  27  28
ENDBRANCH  26  27
ENDBRANCH  25  26
ENDBRANCH   1  25
TORSDOF 15
ENDMDL
MODEL 2
REMARK VINA RESULT:     -11.3      4.321      6.256
REMARK SMILES O=C(NCc1ccsc1)NC[C@H]1CC[C@@H](C(=O)NCCCCNC(=O)c2ccc(-c3c4nc(c(-c5ccccc5)c5ccc([nH]5)c(-c5ccccc5)c5nc(c(-c6ccccc6)c6ccc3[nH]6)C=C5)C=C4)cc2)CC1
REMARK SMILES IDX 19 1 18 2 16 3 17 4 15 6 12 7 13 8 75 9 14 10 74 11 11 12
REMARK SMILES IDX 10 13 1 14 2 15 3 16 4 19 5 20 6 21 9 22 7 23 8 24 20 25
REMARK SMILES IDX 21 26 22 27 23 28 24 29 25 31 26 32 27 33 73 34 28 35 72 36
REMARK SMILES IDX 29 37 30 38 31 39 66 40 32 41 71 42 65 43 67 44 33 45 70 46
REMARK SMILES IDX 64 47 63 48 34 50 56 51 41 52 55 53 42 54 45 55 54 56 68 57
REMARK SMILES IDX 43 58 44 59 53 61 69 62 46 63 35 64 36 65 40 66 37 67 39 68
REMARK SMILES IDX 38 69 57 70 58 71 62 72 59 73 61 74 60 75 47 76 48 77 52 78
REMARK SMILES IDX 49 79 51 80 50 81
REMARK H PARENT 18 5 3 17 10 18 23 30 67 49 45 60
REMARK Flexibility Score: inf
ROOT
ATOM      1  C   UNL A   1      34.666  31.658  28.189  1.00  0.00     0.116 C 
ENDROOT
BRANCH   1   2
ATOM      2  N   UNL A   1      33.537  31.491  27.303  1.00  0.00    -0.356 N 
ATOM      3  C   UNL A   1      32.772  30.424  26.975  1.00  0.00     0.223 C 
ATOM      4  O   UNL A   1      31.814  30.665  26.229  1.00  0.00    -0.275 OA
ATOM      5  H   UNL A   1      33.270  32.320  26.846  1.00  0.00     0.163 HD
BRANCH   3   6
ATOM      6  C   UNL A   1      33.016  28.975  27.425  1.00  0.00     0.078 C 
ATOM      7  C   UNL A   1      32.168  26.498  25.901  1.00  0.00     0.008 C 
ATOM      8  C   UNL A   1      33.521  27.178  25.603  1.00  0.00     0.006 C 
ATOM      9  C   UNL A   1      31.168  27.357  26.688  1.00  0.00     0.006 C 
ATOM     10  C   UNL A   1      34.045  28.154  26.651  1.00  0.00     0.014 C 
ATOM     11  C   UNL A   1      31.768  28.192  27.805  1.00  0.00     0.014 C 
BRANCH   7  12
ATOM     12  C   UNL A   1      31.566  25.999  24.563  1.00  0.00     0.121 C 
BRANCH  12  13
ATOM     13  N   UNL A   1      30.616  26.916  23.961  1.00  0.00    -0.338 N 
ATOM     14  O   UNL A   1      31.890  27.320  22.120  1.00  0.00    -0.249 OA
ATOM     15  C   UNL A   1      30.863  27.512  22.765  1.00  0.00     0.315 C 
ATOM     16  N   UNL A   1      29.952  28.381  22.284  1.00  0.00    -0.334 N 
ATOM     17  H   UNL A   1      30.179  28.759  21.404  1.00  0.00     0.165 HD
ATOM     18  H   UNL A   1      29.772  27.111  24.430  1.00  0.00     0.165 HD
BRANCH  16  19
ATOM     19  C   UNL A   1      28.704  28.856  22.831  1.00  0.00     0.154 C 
BRANCH  19  20
ATOM     20  C   UNL A   1      28.591  30.326  22.571  1.00  0.00    -0.018 A 
ATOM     21  C   UNL A   1      28.094  30.914  21.356  1.00  0.00     0.017 A 
ATOM     22  C   UNL A   1      28.971  31.314  23.463  1.00  0.00     0.070 A 
ATOM     23  C   UNL A   1      28.130  32.290  21.375  1.00  0.00     0.065 A 
ATOM     24  S   UNL A   1      28.749  32.894  22.848  1.00  0.00    -0.152 S 
ENDBRANCH  19  20
ENDBRANCH  16  19
ENDBRANCH  12  13
ENDBRANCH   7  12
ENDBRANCH   3   6
ENDBRANCH   1   2
BRANCH   1  25
ATOM     25  C   UNL A   1      34.884  33.115  28.596  1.00  0.00     0.023 C 
BRANCH  25  26
ATOM     26  C   UNL A   1      33.623  33.944  28.794  1.00  0.00     0.023 C 
BRANCH  26  27
ATOM     27  C   UNL A   1      33.794  35.284  29.500  1.00  0.00     0.116 C 
BRANCH  27  28
ATOM     28  N   UNL A   1      32.713  35.697  30.383  1.00  0.00    -0.352 N 
ATOM     29  C   UNL A   1      32.705  35.678  31.763  1.00  0.00     0.251 C 
ATOM     30  H   UNL A   1      31.893  36.025  29.946  1.00  0.00     0.163 HD
ATOM     31  O   UNL A   1      31.758  36.088  32.426  1.00  0.00    -0.269 OA
BRANCH  29  32
ATOM     32  C   UNL A   1      33.846  35.045  32.452  1.00  0.00     0.039 A 
ATOM     33  C   UNL A   1      33.703  33.721  32.874  1.00  0.00     0.014 A 
ATOM     34  C   UNL A   1      35.082  35.689  32.519  1.00  0.00     0.014 A 
ATOM     35  C   UNL A   1      34.832  33.001  33.261  1.00  0.00     0.010 A 
ATOM     36  C   UNL A   1      36.216  34.942  32.813  1.00  0.00     0.010 A 
ATOM     37  C   UNL A   1      36.104  33.588  33.172  1.00  0.00    -0.014 A 
BRANCH  37  38
ATOM     38  C   UNL A   1      37.334  32.806  33.439  1.00  0.00     0.031 A 
ATOM     39  C   UNL A   1      38.087  33.019  34.720  1.00  0.00     0.074 A 
ATOM     40  C   UNL A   1      37.818  31.970  32.499  1.00  0.00     0.049 A 
ATOM     41  N   UNL A   1      39.228  32.506  35.105  1.00  0.00    -0.248 NA
ATOM     42  C   UNL A   1      37.495  33.963  35.681  1.00  0.00     0.031 C 
ATOM     43  C   UNL A   1      37.209  31.709  31.193  1.00  0.00     0.029 A 
ATOM     44  N   UNL A   1      38.945  31.185  32.502  1.00  0.00    -0.354 N 
ATOM     45  C   UNL A   1      39.504  33.093  36.332  1.00  0.00     0.074 A 
ATOM     46  C   UNL A   1      38.442  34.037  36.602  1.00  0.00     0.031 C 
ATOM     47  C   UNL A   1      37.944  30.796  30.538  1.00  0.00     0.029 A 
ATOM     48  C   UNL A   1      39.097  30.438  31.358  1.00  0.00     0.049 A 
ATOM     49  H   UNL A   1      39.583  31.159  33.250  1.00  0.00     0.167 HD
ATOM     50  C   UNL A   1      40.537  32.853  37.174  1.00  0.00     0.031 A 
ATOM     51  C   UNL A   1      40.058  29.561  31.012  1.00  0.00     0.031 A 
ATOM     52  C   UNL A   1      41.576  31.894  36.918  1.00  0.00     0.049 A 
ATOM     53  C   UNL A   1      41.190  29.300  31.965  1.00  0.00     0.074 A 
ATOM     54  C   UNL A   1      42.630  31.525  37.734  1.00  0.00     0.029 A 
ATOM     55  N   UNL A   1      41.686  31.147  35.755  1.00  0.00    -0.354 N 
ATOM     56  N   UNL A   1      41.407  29.818  33.150  1.00  0.00    -0.248 NA
ATOM     57  C   UNL A   1      42.203  28.326  31.535  1.00  0.00     0.031 C 
ATOM     58  C   UNL A   1      43.402  30.581  37.047  1.00  0.00     0.029 A 
ATOM     59  C   UNL A   1      42.801  30.329  35.823  1.00  0.00     0.049 A 
ATOM     60  H   UNL A   1      41.064  31.192  34.993  1.00  0.00     0.167 HD
ATOM     61  C   UNL A   1      42.568  29.216  33.618  1.00  0.00     0.074 A 
ATOM     62  C   UNL A   1      43.000  28.286  32.594  1.00  0.00     0.031 C 
ATOM     63  C   UNL A   1      43.215  29.413  34.792  1.00  0.00     0.031 A 
BRANCH  50  64
ATOM     64  C   UNL A   1      40.580  33.658  38.442  1.00  0.00    -0.014 A 
ATOM     65  C   UNL A   1      39.930  33.216  39.606  1.00  0.00     0.009 A 
ATOM     66  C   UNL A   1      41.259  34.885  38.466  1.00  0.00     0.009 A 
ATOM     67  C   UNL A   1      39.913  34.014  40.752  1.00  0.00     0.001 A 
ATOM     68  C   UNL A   1      41.266  35.666  39.624  1.00  0.00     0.001 A 
ATOM     69  C   UNL A   1      40.581  35.237  40.760  1.00  0.00     0.000 A 
ENDBRANCH  50  64
BRANCH  51  70
ATOM     70  C   UNL A   1      39.968  28.832  29.720  1.00  0.00    -0.014 A 
ATOM     71  C   UNL A   1      40.458  29.423  28.545  1.00  0.00     0.009 A 
ATOM     72  C   UNL A   1      39.409  27.547  29.653  1.00  0.00     0.009 A 
ATOM     73  C   UNL A   1      40.374  28.748  27.325  1.00  0.00     0.001 A 
ATOM     74  C   UNL A   1      39.348  26.865  28.435  1.00  0.00     0.001 A 
ATOM     75  C   UNL A   1      39.823  27.468  27.272  1.00  0.00     0.000 A 
ENDBRANCH  51  70
BRANCH  63  76
ATOM     76  C   UNL A   1      44.441  28.586  35.044  1.00  0.00    -0.014 A 
ATOM     77  C   UNL A   1      44.354  27.315  35.631  1.00  0.00     0.009 A 
ATOM     78  C   UNL A   1      45.697  29.070  34.645  1.00  0.00     0.009 A 
ATOM     79  C   UNL A   1      45.506  26.555  35.840  1.00  0.00     0.001 A 
ATOM     80  C   UNL A   1      46.844  28.297  34.833  1.00  0.00     0.001 A 
ATOM     81  C   UNL A   1      46.748  27.045  35.436  1.00  0.00     0.000 A 
ENDBRANCH  63  76
ENDBRANCH  37  38
ENDBRANCH  29  32
ENDBRANCH  27  28
ENDBRANCH  26  27
ENDBRANCH  25  26
ENDBRANCH   1  25
TORSDOF 15
ENDMDL
MODEL 3
REMARK VINA RESULT:     -11.3      3.933      8.430
REMARK SMILES O=C(NCc1ccsc1)NC[C@H]1CC[C@@H](C(=O)NCCCCNC(=O)c2ccc(-c3c4nc(c(-c5ccccc5)c5ccc([nH]5)c(-c5ccccc5)c5nc(c(-c6ccccc6)c6ccc3[nH]6)C=C5)C=C4)cc2)CC1
REMARK SMILES IDX 19 1 18 2 16 3 17 4 15 6 12 7 13 8 75 9 14 10 74 11 11 12
REMARK SMILES IDX 10 13 1 14 2 15 3 16 4 19 5 20 6 21 9 22 7 23 8 24 20 25
REMARK SMILES IDX 21 26 22 27 23 28 24 29 25 31 26 32 27 33 73 34 28 35 72 36
REMARK SMILES IDX 29 37 30 38 31 39 66 40 32 41 71 42 65 43 67 44 33 45 70 46
REMARK SMILES IDX 64 47 63 48 34 50 56 51 41 52 55 53 42 54 45 55 54 56 68 57
REMARK SMILES IDX 43 58 44 59 53 61 69 62 46 63 35 64 36 65 40 66 37 67 39 68
REMARK SMILES IDX 38 69 57 70 58 71 62 72 59 73 61 74 60 75 47 76 48 77 52 78
REMARK SMILES IDX 49 79 51 80 50 81
REMARK H PARENT 18 5 3 17 10 18 23 30 67 49 45 60
REMARK Flexibility Score: inf
ROOT
ATOM      1  C   UNL A   1      34.281  23.246  23.620  1.00  0.00     0.116 C 
ENDROOT
BRANCH   1   2
ATOM      2  N   UNL A   1      33.999  24.137  22.518  1.00  0.00    -0.356 N 
ATOM      3  C   UNL A   1      33.286  25.283  22.416  1.00  0.00     0.223 C 
ATOM      4  O   UNL A   1      33.326  25.838  21.311  1.00  0.00    -0.275 OA
ATOM      5  H   UNL A   1      34.408  23.853  21.669  1.00  0.00     0.163 HD
BRANCH   3   6
ATOM      6  C   UNL A   1      32.435  25.909  23.532  1.00  0.00     0.078 C 
ATOM      7  C   UNL A   1      31.668  24.546  26.127  1.00  0.00     0.008 C 
ATOM      8  C   UNL A   1      33.002  25.313  26.007  1.00  0.00     0.006 C 
ATOM      9  C   UNL A   1      30.995  24.201  24.791  1.00  0.00     0.006 C 
ATOM     10  C   UNL A   1      33.136  26.281  24.836  1.00  0.00     0.014 C 
ATOM     11  C   UNL A   1      31.061  25.285  23.732  1.00  0.00     0.014 C 
BRANCH   7  12
ATOM     12  C   UNL A   1      31.906  23.283  26.993  1.00  0.00     0.121 C 
BRANCH  12  13
ATOM     13  N   UNL A   1      32.397  22.138  26.249  1.00  0.00    -0.338 N 
ATOM     14  O   UNL A   1      34.032  21.633  27.748  1.00  0.00    -0.249 OA
ATOM     15  C   UNL A   1      33.441  21.393  26.699  1.00  0.00     0.315 C 
ATOM     16  N   UNL A   1      33.867  20.366  25.938  1.00  0.00    -0.334 N 
ATOM     17  H   UNL A   1      34.609  19.852  26.330  1.00  0.00     0.165 HD
ATOM     18  H   UNL A   1      31.963  21.894  25.399  1.00  0.00     0.165 HD
BRANCH  16  19
ATOM     19  C   UNL A   1      33.428  19.886  24.649  1.00  0.00     0.154 C 
BRANCH  19  20
ATOM     20  C   UNL A   1      33.315  18.394  24.702  1.00  0.00    -0.018 A 
ATOM     21  C   UNL A   1      33.730  17.496  23.659  1.00  0.00     0.017 A 
ATOM     22  C   UNL A   1      32.774  17.684  25.760  1.00  0.00     0.070 A 
ATOM     23  C   UNL A   1      33.481  16.176  23.958  1.00  0.00     0.065 A 
ATOM     24  S   UNL A   1      32.755  15.995  25.493  1.00  0.00    -0.152 S 
ENDBRANCH  19  20
ENDBRANCH  16  19
ENDBRANCH  12  13
ENDBRANCH   7  12
ENDBRANCH   3   6
ENDBRANCH   1   2
BRANCH   1  25
ATOM     25  C   UNL A   1      35.683  23.447  24.194  1.00  0.00     0.023 C 
BRANCH  25  26
ATOM     26  C   UNL A   1      36.575  22.214  24.215  1.00  0.00     0.023 C 
BRANCH  26  27
ATOM     27  C   UNL A   1      37.093  21.771  25.578  1.00  0.00     0.116 C 
BRANCH  27  28
ATOM     28  N   UNL A   1      38.241  20.875  25.577  1.00  0.00    -0.352 N 
ATOM     29  C   UNL A   1      39.468  21.085  26.173  1.00  0.00     0.251 C 
ATOM     30  H   UNL A   1      38.129  20.023  25.096  1.00  0.00     0.163 HD
ATOM     31  O   UNL A   1      40.365  20.249  26.155  1.00  0.00    -0.269 OA
BRANCH  29  32
ATOM     32  C   UNL A   1      39.732  22.412  26.762  1.00  0.00     0.039 A 
ATOM     33  C   UNL A   1      40.756  22.517  27.706  1.00  0.00     0.014 A 
ATOM     34  C   UNL A   1      39.099  23.551  26.263  1.00  0.00     0.014 A 
ATOM     35  C   UNL A   1      41.225  23.778  28.069  1.00  0.00     0.010 A 
ATOM     36  C   UNL A   1      39.631  24.800  26.552  1.00  0.00     0.010 A 
ATOM     37  C   UNL A   1      40.709  24.925  27.446  1.00  0.00    -0.014 A 
BRANCH  37  38
ATOM     38  C   UNL A   1      41.284  26.267  27.703  1.00  0.00     0.031 A 
ATOM     39  C   UNL A   1      42.608  26.636  27.099  1.00  0.00     0.074 A 
ATOM     40  C   UNL A   1      40.661  27.118  28.541  1.00  0.00     0.049 A 
ATOM     41  N   UNL A   1      43.324  27.717  27.273  1.00  0.00    -0.248 NA
ATOM     42  C   UNL A   1      43.226  25.639  26.210  1.00  0.00     0.031 C 
ATOM     43  C   UNL A   1      39.394  26.863  29.231  1.00  0.00     0.029 A 
ATOM     44  N   UNL A   1      41.017  28.376  28.960  1.00  0.00    -0.354 N 
ATOM     45  C   UNL A   1      44.488  27.513  26.545  1.00  0.00     0.074 A 
ATOM     46  C   UNL A   1      44.407  26.187  25.973  1.00  0.00     0.031 C 
ATOM     47  C   UNL A   1      39.058  27.945  29.951  1.00  0.00     0.029 A 
ATOM     48  C   UNL A   1      40.104  28.953  29.810  1.00  0.00     0.049 A 
ATOM     49  H   UNL A   1      41.847  28.823  28.678  1.00  0.00     0.167 HD
ATOM     50  C   UNL A   1      45.526  28.361  26.348  1.00  0.00     0.031 A 
ATOM     51  C   UNL A   1      40.109  30.160  30.404  1.00  0.00     0.031 A 
ATOM     52  C   UNL A   1      45.593  29.689  26.892  1.00  0.00     0.049 A 
ATOM     53  C   UNL A   1      41.264  31.091  30.164  1.00  0.00     0.074 A 
ATOM     54  C   UNL A   1      46.566  30.653  26.700  1.00  0.00     0.029 A 
ATOM     55  N   UNL A   1      44.641  30.240  27.736  1.00  0.00    -0.354 N 
ATOM     56  N   UNL A   1      42.331  30.908  29.425  1.00  0.00    -0.248 NA
ATOM     57  C   UNL A   1      41.208  32.398  30.835  1.00  0.00     0.031 C 
ATOM     58  C   UNL A   1      46.221  31.777  27.459  1.00  0.00     0.029 A 
ATOM     59  C   UNL A   1      45.010  31.527  28.087  1.00  0.00     0.049 A 
ATOM     60  H   UNL A   1      43.823  29.785  28.041  1.00  0.00     0.167 HD
ATOM     61  C   UNL A   1      43.064  32.084  29.521  1.00  0.00     0.074 A 
ATOM     62  C   UNL A   1      42.311  32.977  30.380  1.00  0.00     0.031 C 
ATOM     63  C   UNL A   1      44.249  32.398  28.945  1.00  0.00     0.031 A 
BRANCH  50  64
ATOM     64  C   UNL A   1      46.667  27.854  25.512  1.00  0.00    -0.014 A 
ATOM     65  C   UNL A   1      46.703  28.068  24.125  1.00  0.00     0.009 A 
ATOM     66  C   UNL A   1      47.707  27.133  26.116  1.00  0.00     0.009 A 
ATOM     67  C   UNL A   1      47.730  27.522  23.352  1.00  0.00     0.001 A 
ATOM     68  C   UNL A   1      48.749  26.615  25.345  1.00  0.00     0.001 A 
ATOM     69  C   UNL A   1      48.752  26.797  23.963  1.00  0.00     0.000 A 
ENDBRANCH  50  64
BRANCH  51  70
ATOM     70  C   UNL A   1      38.961  30.576  31.253  1.00  0.00    -0.014 A 
ATOM     71  C   UNL A   1      37.859  31.224  30.675  1.00  0.00     0.009 A 
ATOM     72  C   UNL A   1      38.953  30.320  32.632  1.00  0.00     0.009 A 
ATOM     73  C   UNL A   1      36.778  31.622  31.464  1.00  0.00     0.001 A 
ATOM     74  C   UNL A   1      37.860  30.699  33.415  1.00  0.00     0.001 A 
ATOM     75  C   UNL A   1      36.777  31.355  32.832  1.00  0.00     0.000 A 
ENDBRANCH  51  70
BRANCH  63  76
ATOM     76  C   UNL A   1      44.791  33.773  29.203  1.00  0.00    -0.014 A 
ATOM     77  C   UNL A   1      44.443  34.858  28.384  1.00  0.00     0.009 A 
ATOM     78  C   UNL A   1      45.627  33.993  30.309  1.00  0.00     0.009 A 
ATOM     79  C   UNL A   1      44.944  36.132  28.653  1.00  0.00     0.001 A 
ATOM     80  C   UNL A   1      46.106  35.274  30.589  1.00  0.00     0.001 A 
ATOM     81  C   UNL A   1      45.771  36.339  29.757  1.00  0.00     0.000 A 
ENDBRANCH  63  76
ENDBRANCH  37  38
ENDBRANCH  29  32
ENDBRANCH  27  28
ENDBRANCH  26  27
ENDBRANCH  25  26
ENDBRANCH   1  25
TORSDOF 15
ENDMDL
