MODEL 1
REMARK VINA RESULT:     -13.1      0.000      0.000
REMARK SMILES CC(C)[C@H](NC(=O)[C@H]1CC(=O)N(c2ccc(F)cc2)C1)C(=O)N1CCC[C@@H]1C(=O)NCCCCNC(=O)c1ccc(-c2c3nc(c(-c4ccccc4)c4ccc([nH]4)c(-c4ccccc4)c4nc(c(-c5ccccc5)c5ccc2[nH]5)C=C4)C=C3)cc1
REMARK SMILES IDX 31 1 30 2 28 3 29 4 27 6 23 7 24 8 25 9 26 10 21 11 22 12
REMARK SMILES IDX 4 13 2 14 1 15 3 16 5 17 6 18 7 20 8 21 9 22 20 23 10 24
REMARK SMILES IDX 12 25 11 26 13 27 14 28 19 29 15 30 18 31 16 32 17 33 32 34
REMARK SMILES IDX 33 35 34 36 35 37 36 38 37 40 38 41 39 42 85 43 40 44 84 45
REMARK SMILES IDX 41 46 42 47 43 48 78 49 44 50 83 51 77 52 79 53 45 54 82 55
REMARK SMILES IDX 76 56 75 57 46 59 68 60 53 61 67 62 54 63 57 64 66 65 80 66
REMARK SMILES IDX 55 67 56 68 65 70 81 71 58 72 47 73 48 74 52 75 49 76 51 77
REMARK SMILES IDX 50 78 69 79 70 80 74 81 71 82 73 83 72 84 59 85 60 86 64 87
REMARK SMILES IDX 61 88 63 89 62 90
REMARK H PARENT 30 5 5 19 35 39 79 58 57 69
REMARK Flexibility Score: inf
ROOT
ATOM      1  C   UNL A   1      34.222  23.074  23.296  1.00  0.00     0.116 C 
ENDROOT
BRANCH   1   2
ATOM      2  N   UNL A   1      33.401  22.068  23.959  1.00  0.00    -0.354 N 
ATOM      3  C   UNL A   1      32.107  21.959  24.399  1.00  0.00     0.242 C 
ATOM      4  O   UNL A   1      31.820  20.783  24.692  1.00  0.00    -0.273 OA
ATOM      5  H   UNL A   1      33.912  21.246  24.137  1.00  0.00     0.163 HD
BRANCH   3   6
ATOM      6  C   UNL A   1      31.062  23.094  24.853  1.00  0.00     0.174 C 
ATOM      7  N   UNL A   1      31.202  24.843  24.728  1.00  0.00    -0.329 N 
ATOM      8  C   UNL A   1      31.711  25.027  26.340  1.00  0.00     0.120 C 
ATOM      9  C   UNL A   1      31.940  23.703  27.015  1.00  0.00     0.024 C 
ATOM     10  C   UNL A   1      30.948  22.802  26.373  1.00  0.00     0.037 C 
BRANCH   7  11
ATOM     11  C   UNL A   1      31.189  26.058  23.127  1.00  0.00     0.246 C 
ATOM     12  O   UNL A   1      31.280  25.817  21.884  1.00  0.00    -0.272 OA
BRANCH  11  13
ATOM     13  C   UNL A   1      30.919  27.945  23.219  1.00  0.00     0.174 C 
BRANCH  13  14
ATOM     14  C   UNL A   1      29.636  28.978  23.084  1.00  0.00     0.015 C 
ATOM     15  C   UNL A   1      29.760  29.955  21.899  1.00  0.00     0.010 C 
ATOM     16  C   UNL A   1      28.159  28.501  22.990  1.00  0.00     0.010 C 
ENDBRANCH  13  14
BRANCH  13  17
ATOM     17  N   UNL A   1      31.977  28.429  22.427  1.00  0.00    -0.344 N 
ATOM     18  C   UNL A   1      32.993  28.736  23.229  1.00  0.00     0.226 C 
ATOM     19  H   UNL A   1      31.966  28.524  21.447  1.00  0.00     0.164 HD
ATOM     20  O   UNL A   1      34.133  28.935  22.842  1.00  0.00    -0.275 OA
BRANCH  18  21
ATOM     21  C   UNL A   1      32.529  28.818  24.686  1.00  0.00     0.107 C 
ATOM     22  C   UNL A   1      34.034  28.097  25.815  1.00  0.00     0.116 C 
ATOM     23  C   UNL A   1      31.945  30.553  25.717  1.00  0.00     0.139 C 
ATOM     24  C   UNL A   1      34.395  29.382  27.291  1.00  0.00     0.227 C 
ATOM     25  N   UNL A   1      33.270  30.803  27.122  1.00  0.00    -0.312 N 
ATOM     26  O   UNL A   1      35.263  29.281  28.153  1.00  0.00    -0.274 OA
BRANCH  25  27
ATOM     27  C   UNL A   1      33.624  32.084  27.665  1.00  0.00     0.044 A 
ATOM     28  C   UNL A   1      34.889  32.285  28.235  1.00  0.00     0.029 A 
ATOM     29  C   UNL A   1      32.718  33.145  27.704  1.00  0.00     0.029 A 
ATOM     30  C   UNL A   1      35.222  33.497  28.856  1.00  0.00     0.041 A 
ATOM     31  C   UNL A   1      33.009  34.319  28.409  1.00  0.00     0.041 A 
ATOM     32  C   UNL A   1      34.263  34.490  28.971  1.00  0.00     0.123 A 
ATOM     33  F   UNL A   1      34.545  35.623  29.627  1.00  0.00    -0.207 F 
ENDBRANCH  25  27
ENDBRANCH  18  21
ENDBRANCH  13  17
ENDBRANCH  11  13
ENDBRANCH   7  11
ENDBRANCH   3   6
ENDBRANCH   1   2
BRANCH   1  34
ATOM     34  C   UNL A   1      35.723  22.986  23.551  1.00  0.00     0.023 C 
BRANCH  34  35
ATOM     35  C   UNL A   1      36.180  21.701  24.251  1.00  0.00     0.023 C 
BRANCH  35  36
ATOM     36  C   UNL A   1      36.961  21.871  25.558  1.00  0.00     0.116 C 
BRANCH  36  37
ATOM     37  N   UNL A   1      38.047  20.914  25.732  1.00  0.00    -0.352 N 
ATOM     38  C   UNL A   1      39.330  21.115  26.188  1.00  0.00     0.251 C 
ATOM     39  H   UNL A   1      37.831  19.987  25.485  1.00  0.00     0.163 HD
ATOM     40  O   UNL A   1      40.144  20.197  26.167  1.00  0.00    -0.269 OA
BRANCH  38  41
ATOM     41  C   UNL A   1      39.736  22.450  26.670  1.00  0.00     0.039 A 
ATOM     42  C   UNL A   1      40.772  22.547  27.600  1.00  0.00     0.014 A 
ATOM     43  C   UNL A   1      39.128  23.604  26.169  1.00  0.00     0.014 A 
ATOM     44  C   UNL A   1      41.261  23.806  27.959  1.00  0.00     0.010 A 
ATOM     45  C   UNL A   1      39.672  24.851  26.460  1.00  0.00     0.010 A 
ATOM     46  C   UNL A   1      40.750  24.966  27.353  1.00  0.00    -0.014 A 
BRANCH  46  47
ATOM     47  C   UNL A   1      41.348  26.300  27.628  1.00  0.00     0.031 A 
ATOM     48  C   UNL A   1      42.687  26.667  27.044  1.00  0.00     0.074 A 
ATOM     49  C   UNL A   1      40.710  27.164  28.444  1.00  0.00     0.049 A 
ATOM     50  N   UNL A   1      43.377  27.769  27.197  1.00  0.00    -0.248 NA
ATOM     51  C   UNL A   1      43.346  25.662  26.193  1.00  0.00     0.031 C 
ATOM     52  C   UNL A   1      39.422  26.919  29.101  1.00  0.00     0.029 A 
ATOM     53  N   UNL A   1      41.055  28.426  28.862  1.00  0.00    -0.354 N 
ATOM     54  C   UNL A   1      44.553  27.582  26.482  1.00  0.00     0.074 A 
ATOM     55  C   UNL A   1      44.506  26.247  25.928  1.00  0.00     0.031 C 
ATOM     56  C   UNL A   1      39.072  28.006  29.808  1.00  0.00     0.029 A 
ATOM     57  C   UNL A   1      40.131  29.004  29.702  1.00  0.00     0.049 A 
ATOM     58  H   UNL A   1      41.885  28.876  28.586  1.00  0.00     0.167 HD
ATOM     59  C   UNL A   1      45.575  28.449  26.292  1.00  0.00     0.031 A 
ATOM     60  C   UNL A   1      40.141  30.196  30.332  1.00  0.00     0.031 A 
ATOM     61  C   UNL A   1      45.616  29.781  26.833  1.00  0.00     0.049 A 
ATOM     62  C   UNL A   1      41.314  31.119  30.128  1.00  0.00     0.074 A 
ATOM     63  C   UNL A   1      46.580  30.755  26.635  1.00  0.00     0.029 A 
ATOM     64  N   UNL A   1      44.669  30.320  27.687  1.00  0.00    -0.354 N 
ATOM     65  N   UNL A   1      42.371  30.960  29.369  1.00  0.00    -0.248 NA
ATOM     66  C   UNL A   1      41.289  32.394  30.862  1.00  0.00     0.031 C 
ATOM     67  C   UNL A   1      46.260  31.852  27.437  1.00  0.00     0.029 A 
ATOM     68  C   UNL A   1      45.049  31.598  28.060  1.00  0.00     0.049 A 
ATOM     69  H   UNL A   1      43.848  29.865  27.982  1.00  0.00     0.167 HD
ATOM     70  C   UNL A   1      43.112  32.129  29.504  1.00  0.00     0.074 A 
ATOM     71  C   UNL A   1      42.372  32.995  30.395  1.00  0.00     0.031 C 
ATOM     72  C   UNL A   1      44.300  32.456  28.940  1.00  0.00     0.031 A 
BRANCH  59  73
ATOM     73  C   UNL A   1      46.756  27.989  25.482  1.00  0.00    -0.014 A 
ATOM     74  C   UNL A   1      46.732  27.994  24.080  1.00  0.00     0.009 A 
ATOM     75  C   UNL A   1      47.946  27.636  26.140  1.00  0.00     0.009 A 
ATOM     76  C   UNL A   1      47.872  27.640  23.353  1.00  0.00     0.001 A 
ATOM     77  C   UNL A   1      49.092  27.315  25.412  1.00  0.00     0.001 A 
ATOM     78  C   UNL A   1      49.053  27.312  24.020  1.00  0.00     0.000 A 
ENDBRANCH  59  73
BRANCH  60  79
ATOM     79  C   UNL A   1      39.028  30.593  31.240  1.00  0.00    -0.014 A 
ATOM     80  C   UNL A   1      39.033  30.218  32.593  1.00  0.00     0.009 A 
ATOM     81  C   UNL A   1      37.913  31.283  30.738  1.00  0.00     0.009 A 
ATOM     82  C   UNL A   1      37.924  30.470  33.405  1.00  0.00     0.001 A 
ATOM     83  C   UNL A   1      36.825  31.574  31.563  1.00  0.00     0.001 A 
ATOM     84  C   UNL A   1      36.821  31.149  32.890  1.00  0.00     0.000 A 
ENDBRANCH  60  79
BRANCH  72  85
ATOM     85  C   UNL A   1      44.847  33.830  29.217  1.00  0.00    -0.014 A 
ATOM     86  C   UNL A   1      45.780  34.060  30.241  1.00  0.00     0.009 A 
ATOM     87  C   UNL A   1      44.451  34.906  28.407  1.00  0.00     0.009 A 
ATOM     88  C   UNL A   1      46.269  35.348  30.473  1.00  0.00     0.001 A 
ATOM     89  C   UNL A   1      44.974  36.182  28.614  1.00  0.00     0.001 A 
ATOM     90  C   UNL A   1      45.872  36.405  29.655  1.00  0.00     0.000 A 
ENDBRANCH  72  85
ENDBRANCH  46  47
ENDBRANCH  38  41
ENDBRANCH  36  37
ENDBRANCH  35  36
ENDBRANCH  34  35
ENDBRANCH   1  34
TORSDOF 17
ENDMDL
MODEL 2
REMARK VINA RESULT:     -12.0      6.041     12.674
REMARK SMILES CC(C)[C@H](NC(=O)[C@H]1CC(=O)N(c2ccc(F)cc2)C1)C(=O)N1CCC[C@@H]1C(=O)NCCCCNC(=O)c1ccc(-c2c3nc(c(-c4ccccc4)c4ccc([nH]4)c(-c4ccccc4)c4nc(c(-c5ccccc5)c5ccc2[nH]5)C=C4)C=C3)cc1
REMARK SMILES IDX 31 1 30 2 28 3 29 4 27 6 23 7 24 8 25 9 26 10 21 11 22 12
REMARK SMILES IDX 4 13 2 14 1 15 3 16 5 17 6 18 7 20 8 21 9 22 20 23 10 24
REMARK SMILES IDX 12 25 11 26 13 27 14 28 19 29 15 30 18 31 16 32 17 33 32 34
REMARK SMILES IDX 33 35 34 36 35 37 36 38 37 40 38 41 39 42 85 43 40 44 84 45
REMARK SMILES IDX 41 46 42 47 43 48 78 49 44 50 83 51 77 52 79 53 45 54 82 55
REMARK SMILES IDX 76 56 75 57 46 59 68 60 53 61 67 62 54 63 57 64 66 65 80 66
REMARK SMILES IDX 55 67 56 68 65 70 81 71 58 72 47 73 48 74 52 75 49 76 51 77
REMARK SMILES IDX 50 78 69 79 70 80 74 81 71 82 73 83 72 84 59 85 60 86 64 87
REMARK SMILES IDX 61 88 63 89 62 90
REMARK H PARENT 30 5 5 19 35 39 79 58 57 69
REMARK Flexibility Score: inf
ROOT
ATOM      1  C   UNL A   1      35.475  34.844  33.348  1.00  0.00     0.116 C 
ENDROOT
BRANCH   1   2
ATOM      2  N   UNL A   1      35.858  33.868  34.361  1.00  0.00    -0.354 N 
ATOM      3  C   UNL A   1      37.002  33.505  35.024  1.00  0.00     0.242 C 
ATOM      4  O   UNL A   1      36.755  32.756  35.987  1.00  0.00    -0.273 OA
ATOM      5  H   UNL A   1      35.089  33.324  34.646  1.00  0.00     0.163 HD
BRANCH   3   6
ATOM      6  C   UNL A   1      38.545  33.647  34.592  1.00  0.00     0.174 C 
ATOM      7  N   UNL A   1      39.899  32.582  34.950  1.00  0.00    -0.329 N 
ATOM      8  C   UNL A   1      40.440  33.529  36.254  1.00  0.00     0.120 C 
ATOM      9  C   UNL A   1      39.493  34.655  36.567  1.00  0.00     0.024 C 
ATOM     10  C   UNL A   1      38.911  35.006  35.246  1.00  0.00     0.037 C 
BRANCH   7  11
ATOM     11  C   UNL A   1      40.323  30.725  34.310  1.00  0.00     0.246 C 
ATOM     12  O   UNL A   1      39.809  30.010  33.395  1.00  0.00    -0.272 OA
BRANCH  11  13
ATOM     13  C   UNL A   1      41.765  29.668  34.975  1.00  0.00     0.174 C 
BRANCH  13  14
ATOM     14  C   UNL A   1      42.430  28.196  34.626  1.00  0.00     0.015 C 
ATOM     15  C   UNL A   1      41.877  27.053  35.498  1.00  0.00     0.010 C 
ATOM     16  C   UNL A   1      42.435  27.575  33.199  1.00  0.00     0.010 C 
ENDBRANCH  13  14
BRANCH  13  17
ATOM     17  N   UNL A   1      41.577  29.762  36.367  1.00  0.00    -0.344 N 
ATOM     18  C   UNL A   1      42.462  30.629  36.851  1.00  0.00     0.226 C 
ATOM     19  H   UNL A   1      40.904  29.271  36.892  1.00  0.00     0.164 HD
ATOM     20  O   UNL A   1      42.397  31.122  37.965  1.00  0.00    -0.275 OA
BRANCH  18  21
ATOM     21  C   UNL A   1      43.570  30.901  35.829  1.00  0.00     0.107 C 
ATOM     22  C   UNL A   1      44.126  32.822  36.075  1.00  0.00     0.116 C 
ATOM     23  C   UNL A   1      45.403  29.887  35.671  1.00  0.00     0.139 C 
ATOM     24  C   UNL A   1      46.111  32.898  36.202  1.00  0.00     0.227 C 
ATOM     25  N   UNL A   1      46.773  31.207  36.086  1.00  0.00    -0.312 N 
ATOM     26  O   UNL A   1      46.793  33.902  36.383  1.00  0.00    -0.274 OA
BRANCH  25  27
ATOM     27  C   UNL A   1      48.047  30.880  36.662  1.00  0.00     0.044 A 
ATOM     28  C   UNL A   1      49.194  30.830  35.859  1.00  0.00     0.029 A 
ATOM     29  C   UNL A   1      48.182  30.545  38.010  1.00  0.00     0.029 A 
ATOM     30  C   UNL A   1      50.430  30.421  36.381  1.00  0.00     0.041 A 
ATOM     31  C   UNL A   1      49.388  30.042  38.513  1.00  0.00     0.041 A 
ATOM     32  C   UNL A   1      50.506  29.993  37.696  1.00  0.00     0.123 A 
ATOM     33  F   UNL A   1      51.663  29.530  38.186  1.00  0.00    -0.207 F 
ENDBRANCH  25  27
ENDBRANCH  18  21
ENDBRANCH  13  17
ENDBRANCH  11  13
ENDBRANCH   7  11
ENDBRANCH   3   6
ENDBRANCH   1   2
BRANCH   1  34
ATOM     34  C   UNL A   1      34.325  35.775  33.717  1.00  0.00     0.023 C 
BRANCH  34  35
ATOM     35  C   UNL A   1      33.270  35.958  32.620  1.00  0.00     0.023 C 
BRANCH  35  36
ATOM     36  C   UNL A   1      33.791  36.240  31.207  1.00  0.00     0.116 C 
BRANCH  36  37
ATOM     37  N   UNL A   1      32.940  35.721  30.144  1.00  0.00    -0.352 N 
ATOM     38  C   UNL A   1      33.184  34.715  29.235  1.00  0.00     0.251 C 
ATOM     39  H   UNL A   1      32.060  36.154  30.063  1.00  0.00     0.163 HD
ATOM     40  O   UNL A   1      32.379  34.485  28.338  1.00  0.00    -0.269 OA
BRANCH  38  41
ATOM     41  C   UNL A   1      34.436  33.939  29.321  1.00  0.00     0.039 A 
ATOM     42  C   UNL A   1      35.459  34.204  28.410  1.00  0.00     0.014 A 
ATOM     43  C   UNL A   1      34.616  32.987  30.327  1.00  0.00     0.014 A 
ATOM     44  C   UNL A   1      36.699  33.579  28.565  1.00  0.00     0.010 A 
ATOM     45  C   UNL A   1      35.877  32.431  30.531  1.00  0.00     0.010 A 
ATOM     46  C   UNL A   1      36.934  32.726  29.657  1.00  0.00    -0.014 A 
BRANCH  46  47
ATOM     47  C   UNL A   1      38.286  32.158  29.906  1.00  0.00     0.031 A 
ATOM     48  C   UNL A   1      39.323  32.959  30.649  1.00  0.00     0.074 A 
ATOM     49  C   UNL A   1      38.598  30.937  29.422  1.00  0.00     0.049 A 
ATOM     50  N   UNL A   1      40.560  32.640  30.934  1.00  0.00    -0.248 NA
ATOM     51  C   UNL A   1      38.927  34.299  31.116  1.00  0.00     0.031 C 
ATOM     52  C   UNL A   1      37.696  30.071  28.658  1.00  0.00     0.029 A 
ATOM     53  N   UNL A   1      39.761  30.211  29.500  1.00  0.00    -0.354 N 
ATOM     54  C   UNL A   1      41.092  33.741  31.592  1.00  0.00     0.074 A 
ATOM     55  C   UNL A   1      40.061  34.754  31.630  1.00  0.00     0.031 C 
ATOM     56  C   UNL A   1      38.326  28.921  28.369  1.00  0.00     0.029 A 
ATOM     57  C   UNL A   1      39.692  28.986  28.877  1.00  0.00     0.049 A 
ATOM     58  H   UNL A   1      40.568  30.535  29.960  1.00  0.00     0.167 HD
ATOM     59  C   UNL A   1      42.326  33.891  32.130  1.00  0.00     0.031 A 
ATOM     60  C   UNL A   1      40.628  28.029  28.715  1.00  0.00     0.031 A 
ATOM     61  C   UNL A   1      43.348  32.879  32.102  1.00  0.00     0.049 A 
ATOM     62  C   UNL A   1      42.003  28.247  29.293  1.00  0.00     0.074 A 
ATOM     63  C   UNL A   1      44.604  32.916  32.683  1.00  0.00     0.029 A 
ATOM     64  N   UNL A   1      43.242  31.662  31.452  1.00  0.00    -0.354 N 
ATOM     65  N   UNL A   1      42.455  29.257  29.997  1.00  0.00    -0.248 NA
ATOM     66  C   UNL A   1      42.994  27.185  29.063  1.00  0.00     0.031 C 
ATOM     67  C   UNL A   1      45.290  31.759  32.311  1.00  0.00     0.029 A 
ATOM     68  C   UNL A   1      44.428  30.959  31.579  1.00  0.00     0.049 A 
ATOM     69  H   UNL A   1      42.443  31.343  30.973  1.00  0.00     0.167 HD
ATOM     70  C   UNL A   1      43.765  28.931  30.326  1.00  0.00     0.074 A 
ATOM     71  C   UNL A   1      44.027  27.623  29.767  1.00  0.00     0.031 C 
ATOM     72  C   UNL A   1      44.673  29.652  31.028  1.00  0.00     0.031 A 
BRANCH  59  73
ATOM     73  C   UNL A   1      42.663  35.205  32.780  1.00  0.00    -0.014 A 
ATOM     74  C   UNL A   1      42.363  35.457  34.126  1.00  0.00     0.009 A 
ATOM     75  C   UNL A   1      43.381  36.168  32.052  1.00  0.00     0.009 A 
ATOM     76  C   UNL A   1      42.762  36.654  34.726  1.00  0.00     0.001 A 
ATOM     77  C   UNL A   1      43.807  37.349  32.662  1.00  0.00     0.001 A 
ATOM     78  C   UNL A   1      43.492  37.593  33.996  1.00  0.00     0.000 A 
ENDBRANCH  59  73
BRANCH  60  79
ATOM     79  C   UNL A   1      40.327  26.783  27.955  1.00  0.00    -0.014 A 
ATOM     80  C   UNL A   1      39.689  25.697  28.577  1.00  0.00     0.009 A 
ATOM     81  C   UNL A   1      40.748  26.642  26.624  1.00  0.00     0.009 A 
ATOM     82  C   UNL A   1      39.535  24.482  27.903  1.00  0.00     0.001 A 
ATOM     83  C   UNL A   1      40.553  25.442  25.938  1.00  0.00     0.001 A 
ATOM     84  C   UNL A   1      39.966  24.356  26.584  1.00  0.00     0.000 A 
ENDBRANCH  60  79
BRANCH  72  85
ATOM     85  C   UNL A   1      46.014  29.020  31.286  1.00  0.00    -0.014 A 
ATOM     86  C   UNL A   1      46.249  28.222  32.416  1.00  0.00     0.009 A 
ATOM     87  C   UNL A   1      47.050  29.195  30.353  1.00  0.00     0.009 A 
ATOM     88  C   UNL A   1      47.506  27.650  32.628  1.00  0.00     0.001 A 
ATOM     89  C   UNL A   1      48.290  28.588  30.545  1.00  0.00     0.001 A 
ATOM     90  C   UNL A   1      48.522  27.827  31.689  1.00  0.00     0.000 A 
ENDBRANCH  72  85
ENDBRANCH  46  47
ENDBRANCH  38  41
ENDBRANCH  36  37
ENDBRANCH  35  36
ENDBRANCH  34  35
ENDBRANCH   1  34
TORSDOF 17
ENDMDL
MODEL 3
REMARK VINA RESULT:     -12.0      4.067      9.399
REMARK SMILES CC(C)[C@H](NC(=O)[C@H]1CC(=O)N(c2ccc(F)cc2)C1)C(=O)N1CCC[C@@H]1C(=O)NCCCCNC(=O)c1ccc(-c2c3nc(c(-c4ccccc4)c4ccc([nH]4)c(-c4ccccc4)c4nc(c(-c5ccccc5)c5ccc2[nH]5)C=C4)C=C3)cc1
REMARK SMILES IDX 31 1 30 2 28 3 29 4 27 6 23 7 24 8 25 9 26 10 21 11 22 12
REMARK SMILES IDX 4 13 2 14 1 15 3 16 5 17 6 18 7 20 8 21 9 22 20 23 10 24
REMARK SMILES IDX 12 25 11 26 13 27 14 28 19 29 15 30 18 31 16 32 17 33 32 34
REMARK SMILES IDX 33 35 34 36 35 37 36 38 37 40 38 41 39 42 85 43 40 44 84 45
REMARK SMILES IDX 41 46 42 47 43 48 78 49 44 50 83 51 77 52 79 53 45 54 82 55
REMARK SMILES IDX 76 56 75 57 46 59 68 60 53 61 67 62 54 63 57 64 66 65 80 66
REMARK SMILES IDX 55 67 56 68 65 70 81 71 58 72 47 73 48 74 52 75 49 76 51 77
REMARK SMILES IDX 50 78 69 79 70 80 74 81 71 82 73 83 72 84 59 85 60 86 64 87
REMARK SMILES IDX 61 88 63 89 62 90
REMARK H PARENT 30 5 5 19 35 39 79 58 57 69
REMARK Flexibility Score: inf
ROOT
ATOM      1  C   UNL A   1      36.432  28.860  27.731  1.00  0.00     0.116 C 
ENDROOT
BRANCH   1   2
ATOM      2  N   UNL A   1      35.694  30.040  27.294  1.00  0.00    -0.354 N 
ATOM      3  C   UNL A   1      34.393  30.471  27.305  1.00  0.00     0.242 C 
ATOM      4  O   UNL A   1      34.309  31.681  27.021  1.00  0.00    -0.273 OA
ATOM      5  H   UNL A   1      36.290  30.706  26.882  1.00  0.00     0.163 HD
BRANCH   3   6
ATOM      6  C   UNL A   1      33.019  29.635  27.332  1.00  0.00     0.174 C 
ATOM      7  N   UNL A   1      32.436  28.425  26.196  1.00  0.00    -0.329 N 
ATOM      8  C   UNL A   1      31.451  29.528  25.357  1.00  0.00     0.120 C 
ATOM      9  C   UNL A   1      31.647  30.940  25.839  1.00  0.00     0.024 C 
ATOM     10  C   UNL A   1      31.974  30.781  27.279  1.00  0.00     0.037 C 
BRANCH   7  11
ATOM     11  C   UNL A   1      33.078  26.560  25.808  1.00  0.00     0.246 C 
ATOM     12  O   UNL A   1      34.244  26.063  25.760  1.00  0.00    -0.272 OA
BRANCH  11  13
ATOM     13  C   UNL A   1      31.922  25.072  25.510  1.00  0.00     0.174 C 
BRANCH  13  14
ATOM     14  C   UNL A   1      30.586  24.761  24.589  1.00  0.00     0.015 C 
ATOM     15  C   UNL A   1      29.666  25.984  24.411  1.00  0.00     0.010 C 
ATOM     16  C   UNL A   1      30.654  24.166  23.153  1.00  0.00     0.010 C 
ENDBRANCH  13  14
BRANCH  13  17
ATOM     17  N   UNL A   1      31.684  24.621  26.822  1.00  0.00    -0.344 N 
ATOM     18  C   UNL A   1      32.327  23.470  26.992  1.00  0.00     0.226 C 
ATOM     19  H   UNL A   1      31.134  25.081  27.498  1.00  0.00     0.164 HD
ATOM     20  O   UNL A   1      32.534  22.956  28.080  1.00  0.00    -0.275 OA
BRANCH  18  21
ATOM     21  C   UNL A   1      32.752  22.881  25.644  1.00  0.00     0.107 C 
ATOM     22  C   UNL A   1      34.739  22.563  25.750  1.00  0.00     0.116 C 
ATOM     23  C   UNL A   1      32.029  21.114  24.767  1.00  0.00     0.139 C 
ATOM     24  C   UNL A   1      35.120  20.710  25.130  1.00  0.00     0.227 C 
ATOM     25  N   UNL A   1      33.549  19.899  24.698  1.00  0.00    -0.312 N 
ATOM     26  O   UNL A   1      36.220  20.166  25.087  1.00  0.00    -0.274 OA
BRANCH  25  27
ATOM     27  C   UNL A   1      33.430  18.469  24.742  1.00  0.00     0.044 A 
ATOM     28  C   UNL A   1      32.676  17.852  25.749  1.00  0.00     0.029 A 
ATOM     29  C   UNL A   1      34.100  17.646  23.835  1.00  0.00     0.029 A 
ATOM     30  C   UNL A   1      32.624  16.456  25.867  1.00  0.00     0.041 A 
ATOM     31  C   UNL A   1      34.133  16.257  24.007  1.00  0.00     0.041 A 
ATOM     32  C   UNL A   1      33.386  15.672  25.016  1.00  0.00     0.123 A 
ATOM     33  F   UNL A   1      33.403  14.341  25.166  1.00  0.00    -0.207 F 
ENDBRANCH  25  27
ENDBRANCH  18  21
ENDBRANCH  13  17
ENDBRANCH  11  13
ENDBRANCH   7  11
ENDBRANCH   3   6
ENDBRANCH   1   2
BRANCH   1  34
ATOM     34  C   UNL A   1      37.767  29.124  28.420  1.00  0.00     0.023 C 
BRANCH  34  35
ATOM     35  C   UNL A   1      38.908  28.199  27.982  1.00  0.00     0.023 C 
BRANCH  35  36
ATOM     36  C   UNL A   1      39.309  27.090  28.962  1.00  0.00     0.116 C 
BRANCH  36  37
ATOM     37  N   UNL A   1      39.388  25.765  28.360  1.00  0.00    -0.352 N 
ATOM     38  C   UNL A   1      40.420  25.176  27.666  1.00  0.00     0.251 C 
ATOM     39  H   UNL A   1      38.583  25.209  28.466  1.00  0.00     0.163 HD
ATOM     40  O   UNL A   1      40.263  24.078  27.140  1.00  0.00    -0.269 OA
BRANCH  38  41
ATOM     41  C   UNL A   1      41.707  25.886  27.524  1.00  0.00     0.039 A 
ATOM     42  C   UNL A   1      42.071  26.378  26.270  1.00  0.00     0.014 A 
ATOM     43  C   UNL A   1      42.526  26.104  28.633  1.00  0.00     0.014 A 
ATOM     44  C   UNL A   1      43.215  27.172  26.147  1.00  0.00     0.010 A 
ATOM     45  C   UNL A   1      43.615  26.965  28.526  1.00  0.00     0.010 A 
ATOM     46  C   UNL A   1      43.968  27.515  27.283  1.00  0.00    -0.014 A 
BRANCH  46  47
ATOM     47  C   UNL A   1      45.109  28.463  27.186  1.00  0.00     0.031 A 
ATOM     48  C   UNL A   1      44.872  29.948  27.261  1.00  0.00     0.074 A 
ATOM     49  C   UNL A   1      46.357  27.989  26.982  1.00  0.00     0.049 A 
ATOM     50  N   UNL A   1      45.739  30.925  27.167  1.00  0.00    -0.248 NA
ATOM     51  C   UNL A   1      43.482  30.397  27.446  1.00  0.00     0.031 C 
ATOM     52  C   UNL A   1      46.719  26.574  26.859  1.00  0.00     0.029 A 
ATOM     53  N   UNL A   1      47.555  28.646  26.843  1.00  0.00    -0.354 N 
ATOM     54  C   UNL A   1      44.999  32.097  27.261  1.00  0.00     0.074 A 
ATOM     55  C   UNL A   1      43.609  31.715  27.378  1.00  0.00     0.031 C 
ATOM     56  C   UNL A   1      48.048  26.470  26.698  1.00  0.00     0.029 A 
ATOM     57  C   UNL A   1      48.628  27.807  26.650  1.00  0.00     0.049 A 
ATOM     58  H   UNL A   1      47.638  29.626  26.878  1.00  0.00     0.167 HD
ATOM     59  C   UNL A   1      45.439  33.377  27.264  1.00  0.00     0.031 A 
ATOM     60  C   UNL A   1      49.931  28.082  26.441  1.00  0.00     0.031 A 
ATOM     61  C   UNL A   1      46.822  33.757  27.160  1.00  0.00     0.049 A 
ATOM     62  C   UNL A   1      50.379  29.520  26.412  1.00  0.00     0.074 A 
ATOM     63  C   UNL A   1      47.368  35.028  27.224  1.00  0.00     0.029 A 
ATOM     64  N   UNL A   1      47.873  32.880  26.954  1.00  0.00    -0.354 N 
ATOM     65  N   UNL A   1      49.675  30.611  26.600  1.00  0.00    -0.248 NA
ATOM     66  C   UNL A   1      51.805  29.765  26.151  1.00  0.00     0.031 C 
ATOM     67  C   UNL A   1      48.737  34.927  26.971  1.00  0.00     0.029 A 
ATOM     68  C   UNL A   1      49.058  33.586  26.843  1.00  0.00     0.049 A 
ATOM     69  H   UNL A   1      47.790  31.900  26.897  1.00  0.00     0.167 HD
ATOM     70  C   UNL A   1      50.580  31.663  26.521  1.00  0.00     0.074 A 
ATOM     71  C   UNL A   1      51.884  31.079  26.293  1.00  0.00     0.031 C 
ATOM     72  C   UNL A   1      50.352  32.994  26.627  1.00  0.00     0.031 A 
BRANCH  59  73
ATOM     73  C   UNL A   1      44.419  34.479  27.360  1.00  0.00    -0.014 A 
ATOM     74  C   UNL A   1      43.753  34.966  26.226  1.00  0.00     0.009 A 
ATOM     75  C   UNL A   1      44.052  34.967  28.625  1.00  0.00     0.009 A 
ATOM     76  C   UNL A   1      42.752  35.931  26.355  1.00  0.00     0.001 A 
ATOM     77  C   UNL A   1      43.028  35.907  28.755  1.00  0.00     0.001 A 
ATOM     78  C   UNL A   1      42.383  36.392  27.619  1.00  0.00     0.000 A 
ENDBRANCH  59  73
BRANCH  60  79
ATOM     79  C   UNL A   1      50.918  26.989  26.215  1.00  0.00    -0.014 A 
ATOM     80  C   UNL A   1      51.569  26.371  27.296  1.00  0.00     0.009 A 
ATOM     81  C   UNL A   1      51.275  26.611  24.911  1.00  0.00     0.009 A 
ATOM     82  C   UNL A   1      52.594  25.446  27.074  1.00  0.00     0.001 A 
ATOM     83  C   UNL A   1      52.268  25.654  24.693  1.00  0.00     0.001 A 
ATOM     84  C   UNL A   1      52.942  25.088  25.774  1.00  0.00     0.000 A 
ENDBRANCH  60  79
BRANCH  72  85
ATOM     85  C   UNL A   1      51.543  33.912  26.560  1.00  0.00    -0.014 A 
ATOM     86  C   UNL A   1      51.979  34.467  25.348  1.00  0.00     0.009 A 
ATOM     87  C   UNL A   1      52.213  34.259  27.745  1.00  0.00     0.009 A 
ATOM     88  C   UNL A   1      53.089  35.316  25.319  1.00  0.00     0.001 A 
ATOM     89  C   UNL A   1      53.293  35.140  27.719  1.00  0.00     0.001 A 
ATOM     90  C   UNL A   1      53.740  35.657  26.505  1.00  0.00     0.000 A 
ENDBRANCH  72  85
ENDBRANCH  46  47
ENDBRANCH  38  41
ENDBRANCH  36  37
ENDBRANCH  35  36
ENDBRANCH  34  35
ENDBRANCH   1  34
TORSDOF 17
ENDMDL
