MODEL 1
REMARK VINA RESULT:     -11.7      0.000      0.000
REMARK SMILES O=C(/C=C/c1ccc(O)cc1)NC[C@@H]1CC[C@H](C(=O)NCCCCNC(=O)c2ccc(-c3c4nc(c(-c5ccccc5)c5ccc([nH]5)c(-c5ccccc5)c5nc(c(-c6ccccc6)c6ccc3[nH]6)C=C5)C=C4)cc2)O1
REMARK SMILES IDX 21 1 20 2 18 3 19 4 17 6 14 7 15 8 76 9 16 10 13 11 12 12
REMARK SMILES IDX 1 13 2 14 3 16 4 17 5 18 6 19 11 20 7 21 10 22 8 23 9 24
REMARK SMILES IDX 22 26 23 27 24 28 25 29 26 30 27 32 28 33 29 34 75 35 30 36
REMARK SMILES IDX 74 37 31 38 32 39 33 40 68 41 34 42 73 43 67 44 69 45 35 46
REMARK SMILES IDX 72 47 66 48 65 49 36 51 58 52 43 53 57 54 44 55 47 56 56 57
REMARK SMILES IDX 70 58 45 59 46 60 55 62 71 63 48 64 37 65 38 66 42 67 39 68
REMARK SMILES IDX 41 69 40 70 59 71 60 72 64 73 61 74 63 75 62 76 49 77 50 78
REMARK SMILES IDX 54 79 51 80 53 81 52 82
REMARK H PARENT 20 5 12 15 9 25 25 31 69 50 47 61
REMARK Flexibility Score: inf
ROOT
ATOM      1  C   UNL A   1      35.325  21.350  24.907  1.00  0.00     0.116 C 
ENDROOT
BRANCH   1   2
ATOM      2  N   UNL A   1      35.021  19.937  24.894  1.00  0.00    -0.354 N 
ATOM      3  C   UNL A   1      33.860  19.305  24.556  1.00  0.00     0.249 C 
ATOM      4  O   UNL A   1      33.850  18.070  24.604  1.00  0.00    -0.272 OA
ATOM      5  H   UNL A   1      35.758  19.346  25.169  1.00  0.00     0.163 HD
BRANCH   3   6
ATOM      6  C   UNL A   1      32.577  20.090  24.196  1.00  0.00     0.207 C 
ATOM      7  C   UNL A   1      31.948  22.174  23.370  1.00  0.00     0.138 C 
ATOM      8  C   UNL A   1      32.032  22.329  24.877  1.00  0.00     0.037 C 
ATOM      9  O   UNL A   1      32.661  20.961  23.063  1.00  0.00    -0.363 OA
ATOM     10  C   UNL A   1      32.047  20.903  25.373  1.00  0.00     0.045 C 
BRANCH   7  11
ATOM     11  C   UNL A   1      32.570  23.360  22.627  1.00  0.00     0.148 C 
BRANCH  11  12
ATOM     12  N   UNL A   1      31.717  24.532  22.653  1.00  0.00    -0.350 N 
ATOM     13  O   UNL A   1      33.296  25.896  21.718  1.00  0.00    -0.270 OA
ATOM     14  C   UNL A   1      32.172  25.734  22.184  1.00  0.00     0.244 C 
ATOM     15  H   UNL A   1      30.802  24.464  23.010  1.00  0.00     0.163 HD
BRANCH  14  16
ATOM     16  C   UNL A   1      31.263  26.900  22.292  1.00  0.00     0.072 C 
ATOM     17  C   UNL A   1      30.298  27.106  23.200  1.00  0.00     0.014 C 
BRANCH  17  18
ATOM     18  C   UNL A   1      29.521  28.353  23.230  1.00  0.00    -0.025 A 
ATOM     19  C   UNL A   1      30.115  29.595  23.499  1.00  0.00     0.012 A 
ATOM     20  C   UNL A   1      28.145  28.299  22.974  1.00  0.00     0.012 A 
ATOM     21  C   UNL A   1      29.340  30.757  23.550  1.00  0.00     0.047 A 
ATOM     22  C   UNL A   1      27.371  29.460  23.024  1.00  0.00     0.047 A 
ATOM     23  C   UNL A   1      27.972  30.677  23.319  1.00  0.00     0.115 A 
BRANCH  23  24
ATOM     24  O   UNL A   1      27.176  31.782  23.375  1.00  0.00    -0.508 OA
ATOM     25  H   UNL A   1      26.742  32.087  22.604  1.00  0.00     0.293 HD
ENDBRANCH  23  24
ENDBRANCH  17  18
ENDBRANCH  14  16
ENDBRANCH  11  12
ENDBRANCH   7  11
ENDBRANCH   3   6
ENDBRANCH   1   2
BRANCH   1  26
ATOM     26  C   UNL A   1      36.820  21.617  24.745  1.00  0.00     0.023 C 
BRANCH  26  27
ATOM     27  C   UNL A   1      37.704  20.402  25.022  1.00  0.00     0.023 C 
BRANCH  27  28
ATOM     28  C   UNL A   1      39.044  20.718  25.680  1.00  0.00     0.116 C 
BRANCH  28  29
ATOM     29  N   UNL A   1      39.980  19.601  25.689  1.00  0.00    -0.352 N 
ATOM     30  C   UNL A   1      41.299  19.615  26.079  1.00  0.00     0.251 C 
ATOM     31  H   UNL A   1      39.626  18.736  25.381  1.00  0.00     0.163 HD
ATOM     32  O   UNL A   1      42.005  18.619  25.963  1.00  0.00    -0.269 OA
BRANCH  30  33
ATOM     33  C   UNL A   1      41.867  20.875  26.593  1.00  0.00     0.039 A 
ATOM     34  C   UNL A   1      42.384  21.801  25.685  1.00  0.00     0.014 A 
ATOM     35  C   UNL A   1      41.795  21.174  27.956  1.00  0.00     0.014 A 
ATOM     36  C   UNL A   1      42.747  23.071  26.135  1.00  0.00     0.010 A 
ATOM     37  C   UNL A   1      42.096  22.458  28.390  1.00  0.00     0.010 A 
ATOM     38  C   UNL A   1      42.561  23.423  27.482  1.00  0.00    -0.014 A 
BRANCH  38  39
ATOM     39  C   UNL A   1      42.819  24.801  27.964  1.00  0.00     0.031 A 
ATOM     40  C   UNL A   1      44.204  25.198  28.389  1.00  0.00     0.074 A 
ATOM     41  C   UNL A   1      41.793  25.661  28.109  1.00  0.00     0.049 A 
ATOM     42  N   UNL A   1      44.607  26.311  28.944  1.00  0.00    -0.248 NA
ATOM     43  C   UNL A   1      45.267  24.201  28.190  1.00  0.00     0.031 C 
ATOM     44  C   UNL A   1      40.394  25.383  27.772  1.00  0.00     0.029 A 
ATOM     45  N   UNL A   1      41.768  26.944  28.594  1.00  0.00    -0.354 N 
ATOM     46  C   UNL A   1      45.963  26.139  29.184  1.00  0.00     0.074 A 
ATOM     47  C   UNL A   1      46.306  24.802  28.750  1.00  0.00     0.031 C 
ATOM     48  C   UNL A   1      39.653  26.470  28.042  1.00  0.00     0.029 A 
ATOM     49  C   UNL A   1      40.514  27.505  28.605  1.00  0.00     0.049 A 
ATOM     50  H   UNL A   1      42.573  27.418  28.905  1.00  0.00     0.167 HD
ATOM     51  C   UNL A   1      46.850  27.020  29.705  1.00  0.00     0.031 A 
ATOM     52  C   UNL A   1      40.103  28.715  29.029  1.00  0.00     0.031 A 
ATOM     53  C   UNL A   1      46.518  28.356  30.115  1.00  0.00     0.049 A 
ATOM     54  C   UNL A   1      41.107  29.676  29.598  1.00  0.00     0.074 A 
ATOM     55  C   UNL A   1      47.358  29.345  30.597  1.00  0.00     0.029 A 
ATOM     56  N   UNL A   1      45.241  28.894  30.085  1.00  0.00    -0.354 N 
ATOM     57  N   UNL A   1      42.396  29.518  29.768  1.00  0.00    -0.248 NA
ATOM     58  C   UNL A   1      40.597  30.986  30.030  1.00  0.00     0.031 C 
ATOM     59  C   UNL A   1      46.583  30.470  30.892  1.00  0.00     0.029 A 
ATOM     60  C   UNL A   1      45.267  30.195  30.555  1.00  0.00     0.049 A 
ATOM     61  H   UNL A   1      44.435  28.421  29.777  1.00  0.00     0.167 HD
ATOM     62  C   UNL A   1      42.856  30.714  30.301  1.00  0.00     0.074 A 
ATOM     63  C   UNL A   1      41.711  31.592  30.418  1.00  0.00     0.031 C 
ATOM     64  C   UNL A   1      44.118  31.055  30.659  1.00  0.00     0.031 A 
BRANCH  51  65
ATOM     65  C   UNL A   1      48.268  26.554  29.861  1.00  0.00    -0.014 A 
ATOM     66  C   UNL A   1      49.211  26.746  28.838  1.00  0.00     0.009 A 
ATOM     67  C   UNL A   1      48.673  25.935  31.053  1.00  0.00     0.009 A 
ATOM     68  C   UNL A   1      50.522  26.292  28.993  1.00  0.00     0.001 A 
ATOM     69  C   UNL A   1      49.991  25.505  31.214  1.00  0.00     0.001 A 
ATOM     70  C   UNL A   1      50.912  25.676  30.181  1.00  0.00     0.000 A 
ENDBRANCH  51  65
BRANCH  52  71
ATOM     71  C   UNL A   1      38.672  29.095  28.917  1.00  0.00    -0.014 A 
ATOM     72  C   UNL A   1      38.173  29.623  27.716  1.00  0.00     0.009 A 
ATOM     73  C   UNL A   1      37.801  28.939  30.005  1.00  0.00     0.009 A 
ATOM     74  C   UNL A   1      36.834  30.009  27.615  1.00  0.00     0.001 A 
ATOM     75  C   UNL A   1      36.458  29.304  29.894  1.00  0.00     0.001 A 
ATOM     76  C   UNL A   1      35.977  29.846  28.702  1.00  0.00     0.000 A 
ENDBRANCH  52  71
BRANCH  64  77
ATOM     77  C   UNL A   1      44.330  32.447  31.179  1.00  0.00    -0.014 A 
ATOM     78  C   UNL A   1      44.272  32.724  32.553  1.00  0.00     0.009 A 
ATOM     79  C   UNL A   1      44.642  33.481  30.284  1.00  0.00     0.009 A 
ATOM     80  C   UNL A   1      44.500  34.021  33.018  1.00  0.00     0.001 A 
ATOM     81  C   UNL A   1      44.891  34.771  30.753  1.00  0.00     0.001 A 
ATOM     82  C   UNL A   1      44.813  35.041  32.119  1.00  0.00     0.000 A 
ENDBRANCH  64  77
ENDBRANCH  38  39
ENDBRANCH  30  33
ENDBRANCH  28  29
ENDBRANCH  27  28
ENDBRANCH  26  27
ENDBRANCH   1  26
TORSDOF 16
ENDMDL
MODEL 2
REMARK VINA RESULT:     -11.6      0.483      5.901
REMARK SMILES O=C(/C=C/c1ccc(O)cc1)NC[C@@H]1CC[C@H](C(=O)NCCCCNC(=O)c2ccc(-c3c4nc(c(-c5ccccc5)c5ccc([nH]5)c(-c5ccccc5)c5nc(c(-c6ccccc6)c6ccc3[nH]6)C=C5)C=C4)cc2)O1
REMARK SMILES IDX 21 1 20 2 18 3 19 4 17 6 14 7 15 8 76 9 16 10 13 11 12 12
REMARK SMILES IDX 1 13 2 14 3 16 4 17 5 18 6 19 11 20 7 21 10 22 8 23 9 24
REMARK SMILES IDX 22 26 23 27 24 28 25 29 26 30 27 32 28 33 29 34 75 35 30 36
REMARK SMILES IDX 74 37 31 38 32 39 33 40 68 41 34 42 73 43 67 44 69 45 35 46
REMARK SMILES IDX 72 47 66 48 65 49 36 51 58 52 43 53 57 54 44 55 47 56 56 57
REMARK SMILES IDX 70 58 45 59 46 60 55 62 71 63 48 64 37 65 38 66 42 67 39 68
REMARK SMILES IDX 41 69 40 70 59 71 60 72 64 73 61 74 63 75 62 76 49 77 50 78
REMARK SMILES IDX 54 79 51 80 53 81 52 82
REMARK H PARENT 20 5 12 15 9 25 25 31 69 50 47 61
REMARK Flexibility Score: inf
ROOT
ATOM      1  C   UNL A   1      35.166  21.617  25.833  1.00  0.00     0.116 C 
ENDROOT
BRANCH   1   2
ATOM      2  N   UNL A   1      34.997  20.222  25.493  1.00  0.00    -0.354 N 
ATOM      3  C   UNL A   1      34.051  19.632  24.706  1.00  0.00     0.249 C 
ATOM      4  O   UNL A   1      34.128  18.409  24.545  1.00  0.00    -0.272 OA
ATOM      5  H   UNL A   1      35.659  19.610  25.887  1.00  0.00     0.163 HD
BRANCH   3   6
ATOM      6  C   UNL A   1      32.882  20.435  24.092  1.00  0.00     0.207 C 
ATOM      7  C   UNL A   1      32.359  22.623  23.490  1.00  0.00     0.138 C 
ATOM      8  C   UNL A   1      31.948  22.479  24.944  1.00  0.00     0.037 C 
ATOM      9  O   UNL A   1      33.239  21.516  23.222  1.00  0.00    -0.363 OA
ATOM     10  C   UNL A   1      31.936  20.984  25.155  1.00  0.00     0.045 C 
BRANCH   7  11
ATOM     11  C   UNL A   1      33.072  23.950  23.215  1.00  0.00     0.148 C 
BRANCH  11  12
ATOM     12  N   UNL A   1      32.158  25.076  23.218  1.00  0.00    -0.350 N 
ATOM     13  O   UNL A   1      32.987  25.956  21.277  1.00  0.00    -0.270 OA
ATOM     14  C   UNL A   1      32.201  26.009  22.219  1.00  0.00     0.244 C 
ATOM     15  H   UNL A   1      31.500  25.170  23.944  1.00  0.00     0.163 HD
BRANCH  14  16
ATOM     16  C   UNL A   1      31.273  27.160  22.316  1.00  0.00     0.072 C 
ATOM     17  C   UNL A   1      30.339  27.384  23.253  1.00  0.00     0.014 C 
BRANCH  17  18
ATOM     18  C   UNL A   1      29.538  28.615  23.265  1.00  0.00    -0.025 A 
ATOM     19  C   UNL A   1      28.206  28.643  22.825  1.00  0.00     0.012 A 
ATOM     20  C   UNL A   1      30.121  29.797  23.738  1.00  0.00     0.012 A 
ATOM     21  C   UNL A   1      27.483  29.839  22.821  1.00  0.00     0.047 A 
ATOM     22  C   UNL A   1      29.399  30.993  23.735  1.00  0.00     0.047 A 
ATOM     23  C   UNL A   1      28.091  31.005  23.271  1.00  0.00     0.115 A 
BRANCH  23  24
ATOM     24  O   UNL A   1      27.428  32.197  23.269  1.00  0.00    -0.508 OA
ATOM     25  H   UNL A   1      27.054  32.525  22.476  1.00  0.00     0.293 HD
ENDBRANCH  23  24
ENDBRANCH  17  18
ENDBRANCH  14  16
ENDBRANCH  11  12
ENDBRANCH   7  11
ENDBRANCH   3   6
ENDBRANCH   1   2
BRANCH   1  26
ATOM     26  C   UNL A   1      36.245  22.288  24.986  1.00  0.00     0.023 C 
BRANCH  26  27
ATOM     27  C   UNL A   1      37.412  21.371  24.623  1.00  0.00     0.023 C 
BRANCH  27  28
ATOM     28  C   UNL A   1      38.519  21.294  25.671  1.00  0.00     0.116 C 
BRANCH  28  29
ATOM     29  N   UNL A   1      39.347  20.099  25.573  1.00  0.00    -0.352 N 
ATOM     30  C   UNL A   1      40.664  19.958  25.947  1.00  0.00     0.251 C 
ATOM     31  H   UNL A   1      38.914  19.300  25.194  1.00  0.00     0.163 HD
ATOM     32  O   UNL A   1      41.274  18.915  25.738  1.00  0.00    -0.269 OA
BRANCH  30  33
ATOM     33  C   UNL A   1      41.347  21.111  26.562  1.00  0.00     0.039 A 
ATOM     34  C   UNL A   1      41.961  22.051  25.733  1.00  0.00     0.014 A 
ATOM     35  C   UNL A   1      41.292  21.305  27.945  1.00  0.00     0.014 A 
ATOM     36  C   UNL A   1      42.442  23.240  26.284  1.00  0.00     0.010 A 
ATOM     37  C   UNL A   1      41.712  22.515  28.482  1.00  0.00     0.010 A 
ATOM     38  C   UNL A   1      42.277  23.499  27.655  1.00  0.00    -0.014 A 
BRANCH  38  39
ATOM     39  C   UNL A   1      42.664  24.802  28.247  1.00  0.00     0.031 A 
ATOM     40  C   UNL A   1      41.628  25.870  28.449  1.00  0.00     0.074 A 
ATOM     41  C   UNL A   1      43.960  25.056  28.514  1.00  0.00     0.049 A 
ATOM     42  N   UNL A   1      41.786  27.107  28.843  1.00  0.00    -0.248 NA
ATOM     43  C   UNL A   1      40.236  25.507  28.139  1.00  0.00     0.031 C 
ATOM     44  C   UNL A   1      45.069  24.117  28.323  1.00  0.00     0.029 A 
ATOM     45  N   UNL A   1      44.565  26.191  28.992  1.00  0.00    -0.354 N 
ATOM     46  C   UNL A   1      40.521  27.676  28.803  1.00  0.00     0.074 A 
ATOM     47  C   UNL A   1      39.614  26.663  28.311  1.00  0.00     0.031 C 
ATOM     48  C   UNL A   1      46.214  24.709  28.699  1.00  0.00     0.029 A 
ATOM     49  C   UNL A   1      45.928  26.076  29.119  1.00  0.00     0.049 A 
ATOM     50  H   UNL A   1      44.069  27.010  29.221  1.00  0.00     0.167 HD
ATOM     51  C   UNL A   1      40.143  28.927  29.158  1.00  0.00     0.031 A 
ATOM     52  C   UNL A   1      46.845  26.976  29.522  1.00  0.00     0.031 A 
ATOM     53  C   UNL A   1      41.039  29.929  29.669  1.00  0.00     0.049 A 
ATOM     54  C   UNL A   1      46.401  28.355  29.916  1.00  0.00     0.074 A 
ATOM     55  C   UNL A   1      40.741  31.205  30.115  1.00  0.00     0.029 A 
ATOM     56  N   UNL A   1      42.408  29.764  29.807  1.00  0.00    -0.354 N 
ATOM     57  N   UNL A   1      45.193  28.861  29.924  1.00  0.00    -0.248 NA
ATOM     58  C   UNL A   1      47.448  29.286  30.360  1.00  0.00     0.031 C 
ATOM     59  C   UNL A   1      41.937  31.825  30.490  1.00  0.00     0.029 A 
ATOM     60  C   UNL A   1      42.972  30.920  30.316  1.00  0.00     0.049 A 
ATOM     61  H   UNL A   1      42.905  28.946  29.577  1.00  0.00     0.167 HD
ATOM     62  C   UNL A   1      45.330  30.158  30.399  1.00  0.00     0.074 A 
ATOM     63  C   UNL A   1      46.737  30.359  30.676  1.00  0.00     0.031 C 
ATOM     64  C   UNL A   1      44.373  31.099  30.590  1.00  0.00     0.031 A 
BRANCH  51  65
ATOM     65  C   UNL A   1      38.692  29.277  29.000  1.00  0.00    -0.014 A 
ATOM     66  C   UNL A   1      38.191  29.754  27.778  1.00  0.00     0.009 A 
ATOM     67  C   UNL A   1      37.811  29.109  30.078  1.00  0.00     0.009 A 
ATOM     68  C   UNL A   1      36.842  30.091  27.652  1.00  0.00     0.001 A 
ATOM     69  C   UNL A   1      36.458  29.422  29.941  1.00  0.00     0.001 A 
ATOM     70  C   UNL A   1      35.977  29.920  28.732  1.00  0.00     0.000 A 
ENDBRANCH  51  65
BRANCH  52  71
ATOM     71  C   UNL A   1      48.279  26.596  29.590  1.00  0.00    -0.014 A 
ATOM     72  C   UNL A   1      48.781  25.927  30.717  1.00  0.00     0.009 A 
ATOM     73  C   UNL A   1      49.153  26.903  28.537  1.00  0.00     0.009 A 
ATOM     74  C   UNL A   1      50.134  25.593  30.797  1.00  0.00     0.001 A 
ATOM     75  C   UNL A   1      50.501  26.548  28.609  1.00  0.00     0.001 A 
ATOM     76  C   UNL A   1      50.993  25.900  29.743  1.00  0.00     0.000 A 
ENDBRANCH  52  71
BRANCH  64  77
ATOM     77  C   UNL A   1      44.813  32.418  31.156  1.00  0.00    -0.014 A 
ATOM     78  C   UNL A   1      44.877  32.627  32.542  1.00  0.00     0.009 A 
ATOM     79  C   UNL A   1      45.214  33.445  30.288  1.00  0.00     0.009 A 
ATOM     80  C   UNL A   1      45.315  33.853  33.047  1.00  0.00     0.001 A 
ATOM     81  C   UNL A   1      45.671  34.661  30.797  1.00  0.00     0.001 A 
ATOM     82  C   UNL A   1      45.716  34.866  32.175  1.00  0.00     0.000 A 
ENDBRANCH  64  77
ENDBRANCH  38  39
ENDBRANCH  30  33
ENDBRANCH  28  29
ENDBRANCH  27  28
ENDBRANCH  26  27
ENDBRANCH   1  26
TORSDOF 16
ENDMDL
MODEL 3
REMARK VINA RESULT:     -11.5      3.941      9.907
REMARK SMILES O=C(/C=C/c1ccc(O)cc1)NC[C@@H]1CC[C@H](C(=O)NCCCCNC(=O)c2ccc(-c3c4nc(c(-c5ccccc5)c5ccc([nH]5)c(-c5ccccc5)c5nc(c(-c6ccccc6)c6ccc3[nH]6)C=C5)C=C4)cc2)O1
REMARK SMILES IDX 21 1 20 2 18 3 19 4 17 6 14 7 15 8 76 9 16 10 13 11 12 12
REMARK SMILES IDX 1 13 2 14 3 16 4 17 5 18 6 19 11 20 7 21 10 22 8 23 9 24
REMARK SMILES IDX 22 26 23 27 24 28 25 29 26 30 27 32 28 33 29 34 75 35 30 36
REMARK SMILES IDX 74 37 31 38 32 39 33 40 68 41 34 42 73 43 67 44 69 45 35 46
REMARK SMILES IDX 72 47 66 48 65 49 36 51 58 52 43 53 57 54 44 55 47 56 56 57
REMARK SMILES IDX 70 58 45 59 46 60 55 62 71 63 48 64 37 65 38 66 42 67 39 68
REMARK SMILES IDX 41 69 40 70 59 71 60 72 64 73 61 74 63 75 62 76 49 77 50 78
REMARK SMILES IDX 54 79 51 80 53 81 52 82
REMARK H PARENT 20 5 12 15 9 25 25 31 69 50 47 61
REMARK Flexibility Score: inf
ROOT
ATOM      1  C   UNL A   1      34.803  29.915  27.422  1.00  0.00     0.116 C 
ENDROOT
BRANCH   1   2
ATOM      2  N   UNL A   1      34.011  29.959  26.213  1.00  0.00    -0.354 N 
ATOM      3  C   UNL A   1      33.147  29.030  25.710  1.00  0.00     0.249 C 
ATOM      4  O   UNL A   1      32.563  29.308  24.658  1.00  0.00    -0.272 OA
ATOM      5  H   UNL A   1      34.111  30.777  25.675  1.00  0.00     0.163 HD
BRANCH   3   6
ATOM      6  C   UNL A   1      32.949  27.651  26.381  1.00  0.00     0.207 C 
ATOM      7  C   UNL A   1      32.351  25.474  25.813  1.00  0.00     0.138 C 
ATOM      8  C   UNL A   1      31.054  26.196  26.127  1.00  0.00     0.037 C 
ATOM      9  O   UNL A   1      33.333  26.507  25.610  1.00  0.00    -0.363 OA
ATOM     10  C   UNL A   1      31.514  27.438  26.852  1.00  0.00     0.045 C 
BRANCH   7  11
ATOM     11  C   UNL A   1      32.239  24.592  24.566  1.00  0.00     0.148 C 
BRANCH  11  12
ATOM     12  N   UNL A   1      32.520  23.198  24.851  1.00  0.00    -0.350 N 
ATOM     13  O   UNL A   1      33.206  22.736  22.720  1.00  0.00    -0.270 OA
ATOM     14  C   UNL A   1      32.990  22.369  23.871  1.00  0.00     0.244 C 
ATOM     15  H   UNL A   1      32.371  22.846  25.758  1.00  0.00     0.163 HD
BRANCH  14  16
ATOM     16  C   UNL A   1      33.203  20.945  24.223  1.00  0.00     0.072 C 
ATOM     17  C   UNL A   1      32.537  19.877  23.760  1.00  0.00     0.014 C 
BRANCH  17  18
ATOM     18  C   UNL A   1      32.912  18.509  24.143  1.00  0.00    -0.025 A 
ATOM     19  C   UNL A   1      33.558  17.636  23.256  1.00  0.00     0.012 A 
ATOM     20  C   UNL A   1      32.621  18.065  25.440  1.00  0.00     0.012 A 
ATOM     21  C   UNL A   1      33.872  16.330  23.644  1.00  0.00     0.047 A 
ATOM     22  C   UNL A   1      32.935  16.761  25.828  1.00  0.00     0.047 A 
ATOM     23  C   UNL A   1      33.550  15.903  24.927  1.00  0.00     0.115 A 
BRANCH  23  24
ATOM     24  O   UNL A   1      33.823  14.634  25.342  1.00  0.00    -0.508 OA
ATOM     25  H   UNL A   1      34.605  14.205  25.056  1.00  0.00     0.293 HD
ENDBRANCH  23  24
ENDBRANCH  17  18
ENDBRANCH  14  16
ENDBRANCH  11  12
ENDBRANCH   7  11
ENDBRANCH   3   6
ENDBRANCH   1   2
BRANCH   1  26
ATOM     26  C   UNL A   1      35.070  31.310  27.984  1.00  0.00     0.023 C 
BRANCH  26  27
ATOM     27  C   UNL A   1      33.834  32.206  28.044  1.00  0.00     0.023 C 
BRANCH  27  28
ATOM     28  C   UNL A   1      34.125  33.704  28.053  1.00  0.00     0.116 C 
BRANCH  28  29
ATOM     29  N   UNL A   1      33.327  34.458  29.011  1.00  0.00    -0.352 N 
ATOM     30  C   UNL A   1      33.551  34.604  30.360  1.00  0.00     0.251 C 
ATOM     31  H   UNL A   1      32.535  34.917  28.649  1.00  0.00     0.163 HD
ATOM     32  O   UNL A   1      32.755  35.203  31.074  1.00  0.00    -0.269 OA
BRANCH  30  33
ATOM     33  C   UNL A   1      34.750  33.975  30.946  1.00  0.00     0.039 A 
ATOM     34  C   UNL A   1      34.594  32.838  31.741  1.00  0.00     0.014 A 
ATOM     35  C   UNL A   1      36.023  34.454  30.625  1.00  0.00     0.014 A 
ATOM     36  C   UNL A   1      35.723  32.122  32.141  1.00  0.00     0.010 A 
ATOM     37  C   UNL A   1      37.141  33.705  30.970  1.00  0.00     0.010 A 
ATOM     38  C   UNL A   1      37.000  32.525  31.718  1.00  0.00    -0.014 A 
BRANCH  38  39
ATOM     39  C   UNL A   1      38.206  31.718  32.022  1.00  0.00     0.031 A 
ATOM     40  C   UNL A   1      39.052  32.057  33.216  1.00  0.00     0.074 A 
ATOM     41  C   UNL A   1      38.590  30.745  31.174  1.00  0.00     0.049 A 
ATOM     42  N   UNL A   1      40.200  31.548  33.584  1.00  0.00    -0.248 NA
ATOM     43  C   UNL A   1      38.556  33.128  34.094  1.00  0.00     0.031 C 
ATOM     44  C   UNL A   1      37.879  30.347  29.957  1.00  0.00     0.029 A 
ATOM     45  N   UNL A   1      39.687  29.922  31.200  1.00  0.00    -0.354 N 
ATOM     46  C   UNL A   1      40.575  32.254  34.718  1.00  0.00     0.074 A 
ATOM     47  C   UNL A   1      39.554  33.250  34.957  1.00  0.00     0.031 C 
ATOM     48  C   UNL A   1      38.547  29.343  29.366  1.00  0.00     0.029 A 
ATOM     49  C   UNL A   1      39.751  29.054  30.138  1.00  0.00     0.049 A 
ATOM     50  H   UNL A   1      40.366  29.952  31.914  1.00  0.00     0.167 HD
ATOM     51  C   UNL A   1      41.665  32.079  35.503  1.00  0.00     0.031 A 
ATOM     52  C   UNL A   1      40.680  28.134  29.817  1.00  0.00     0.031 A 
ATOM     53  C   UNL A   1      42.668  31.074  35.281  1.00  0.00     0.049 A 
ATOM     54  C   UNL A   1      41.877  27.955  30.706  1.00  0.00     0.074 A 
ATOM     55  C   UNL A   1      43.777  30.777  36.055  1.00  0.00     0.029 A 
ATOM     56  N   UNL A   1      42.682  30.198  34.208  1.00  0.00    -0.354 N 
ATOM     57  N   UNL A   1      42.190  28.593  31.806  1.00  0.00    -0.248 NA
ATOM     58  C   UNL A   1      42.847  26.924  30.310  1.00  0.00     0.031 C 
ATOM     59  C   UNL A   1      44.481  29.743  35.430  1.00  0.00     0.029 A 
ATOM     60  C   UNL A   1      43.787  29.370  34.290  1.00  0.00     0.049 A 
ATOM     61  H   UNL A   1      42.006  30.169  33.493  1.00  0.00     0.167 HD
ATOM     62  C   UNL A   1      43.377  28.025  32.248  1.00  0.00     0.074 A 
ATOM     63  C   UNL A   1      43.724  26.985  31.303  1.00  0.00     0.031 C 
ATOM     64  C   UNL A   1      44.113  28.337  33.342  1.00  0.00     0.031 A 
BRANCH  51  65
ATOM     65  C   UNL A   1      41.823  33.004  36.674  1.00  0.00    -0.014 A 
ATOM     66  C   UNL A   1      41.170  32.749  37.891  1.00  0.00     0.009 A 
ATOM     67  C   UNL A   1      42.650  34.132  36.567  1.00  0.00     0.009 A 
ATOM     68  C   UNL A   1      41.315  33.629  38.966  1.00  0.00     0.001 A 
ATOM     69  C   UNL A   1      42.812  34.994  37.652  1.00  0.00     0.001 A 
ATOM     70  C   UNL A   1      42.138  34.748  38.847  1.00  0.00     0.000 A 
ENDBRANCH  51  65
BRANCH  52  71
ATOM     71  C   UNL A   1      40.508  27.295  28.605  1.00  0.00    -0.014 A 
ATOM     72  C   UNL A   1      39.816  26.075  28.680  1.00  0.00     0.009 A 
ATOM     73  C   UNL A   1      41.034  27.702  27.370  1.00  0.00     0.009 A 
ATOM     74  C   UNL A   1      39.677  25.270  27.548  1.00  0.00     0.001 A 
ATOM     75  C   UNL A   1      40.873  26.906  26.234  1.00  0.00     0.001 A 
ATOM     76  C   UNL A   1      40.202  25.687  26.326  1.00  0.00     0.000 A 
ENDBRANCH  52  71
BRANCH  64  77
ATOM     77  C   UNL A   1      45.347  27.521  33.593  1.00  0.00    -0.014 A 
ATOM     78  C   UNL A   1      46.597  27.927  33.102  1.00  0.00     0.009 A 
ATOM     79  C   UNL A   1      45.263  26.359  34.375  1.00  0.00     0.009 A 
ATOM     80  C   UNL A   1      47.737  27.167  33.370  1.00  0.00     0.001 A 
ATOM     81  C   UNL A   1      46.407  25.615  34.660  1.00  0.00     0.001 A 
ATOM     82  C   UNL A   1      47.642  26.016  34.152  1.00  0.00     0.000 A 
ENDBRANCH  64  77
ENDBRANCH  38  39
ENDBRANCH  30  33
ENDBRANCH  28  29
ENDBRANCH  27  28
ENDBRANCH  26  27
ENDBRANCH   1  26
TORSDOF 16
ENDMDL
