MODEL 1
REMARK VINA RESULT:     -12.5      0.000      0.000
REMARK SMILES O=C(NCCCCNC(=O)[C@H](c1c[nH]c2cc(F)ccc12)[NH+]1CCN(c2ccccc2)CC1)c1ccc(-c2c3nc(c(-c4ccccc4)c4ccc([nH]4)c(-c4ccccc4)c4nc(c(-c5ccccc5)c5ccc2[nH]5)C=C4)C=C3)cc1
REMARK SMILES IDX 5 1 4 2 3 3 1 4 2 5 34 7 35 8 81 9 36 10 80 11 37 12 38 13
REMARK SMILES IDX 39 14 74 15 40 16 79 17 73 18 75 19 41 20 78 21 72 22 71 23
REMARK SMILES IDX 42 25 64 26 49 27 63 28 50 29 53 30 62 31 76 32 51 33 52 34
REMARK SMILES IDX 61 36 77 37 54 38 43 39 44 40 48 41 45 42 47 43 46 44 65 45
REMARK SMILES IDX 66 46 70 47 67 48 69 49 68 50 55 51 56 52 60 53 57 54 59 55
REMARK SMILES IDX 58 56 6 57 7 58 8 59 9 60 10 62 11 63 22 64 23 65 33 66
REMARK SMILES IDX 24 68 32 69 25 70 26 71 27 72 31 73 28 74 30 75 29 76 12 77
REMARK SMILES IDX 13 78 21 79 14 80 15 81 20 82 16 84 19 85 17 86 18 87
REMARK H PARENT 3 6 75 24 53 35 8 61 22 67 14 83
REMARK Flexibility Score: inf
ROOT
ATOM      1  C   UNL A   1      33.053  28.814  25.681  1.00  0.00     0.023 C 
ENDROOT
BRANCH   1   2
ATOM      2  C   UNL A   1      33.631  28.874  27.091  1.00  0.00     0.116 C 
BRANCH   2   3
ATOM      3  N   UNL A   1      33.603  30.207  27.673  1.00  0.00    -0.352 N 
ATOM      4  O   UNL A   1      34.277  31.969  28.900  1.00  0.00    -0.269 OA
ATOM      5  C   UNL A   1      34.562  30.891  28.383  1.00  0.00     0.251 C 
ATOM      6  H   UNL A   1      32.761  30.698  27.537  1.00  0.00     0.163 HD
BRANCH   5   7
ATOM      7  C   UNL A   1      35.921  30.332  28.570  1.00  0.00     0.039 A 
ATOM      8  C   UNL A   1      36.292  29.699  29.756  1.00  0.00     0.014 A 
ATOM      9  C   UNL A   1      36.835  30.415  27.513  1.00  0.00     0.014 A 
ATOM     10  C   UNL A   1      37.613  29.295  29.945  1.00  0.00     0.010 A 
ATOM     11  C   UNL A   1      38.139  29.935  27.675  1.00  0.00     0.010 A 
ATOM     12  C   UNL A   1      38.553  29.408  28.909  1.00  0.00    -0.014 A 
BRANCH  12  13
ATOM     13  C   UNL A   1      39.950  28.940  29.117  1.00  0.00     0.031 A 
ATOM     14  C   UNL A   1      40.981  29.828  29.761  1.00  0.00     0.074 A 
ATOM     15  C   UNL A   1      40.288  27.692  28.738  1.00  0.00     0.049 A 
ATOM     16  N   UNL A   1      42.239  29.573  30.028  1.00  0.00    -0.248 NA
ATOM     17  C   UNL A   1      40.550  31.179  30.152  1.00  0.00     0.031 C 
ATOM     18  C   UNL A   1      39.387  26.730  28.100  1.00  0.00     0.029 A 
ATOM     19  N   UNL A   1      41.476  27.014  28.844  1.00  0.00    -0.354 N 
ATOM     20  C   UNL A   1      42.751  30.730  30.601  1.00  0.00     0.074 A 
ATOM     21  C   UNL A   1      41.677  31.701  30.618  1.00  0.00     0.031 C 
ATOM     22  C   UNL A   1      40.041  25.576  27.908  1.00  0.00     0.029 A 
ATOM     23  C   UNL A   1      41.422  25.733  28.351  1.00  0.00     0.049 A 
ATOM     24  H   UNL A   1      42.290  27.408  29.234  1.00  0.00     0.167 HD
ATOM     25  C   UNL A   1      44.000  30.964  31.074  1.00  0.00     0.031 A 
ATOM     26  C   UNL A   1      42.377  24.790  28.250  1.00  0.00     0.031 A 
ATOM     27  C   UNL A   1      45.072  30.003  31.055  1.00  0.00     0.049 A 
ATOM     28  C   UNL A   1      43.763  25.091  28.742  1.00  0.00     0.074 A 
ATOM     29  C   UNL A   1      46.361  30.140  31.543  1.00  0.00     0.029 A 
ATOM     30  N   UNL A   1      44.984  28.730  30.513  1.00  0.00    -0.354 N 
ATOM     31  N   UNL A   1      44.218  26.178  29.315  1.00  0.00    -0.248 NA
ATOM     32  C   UNL A   1      44.767  24.032  28.572  1.00  0.00     0.031 C 
ATOM     33  C   UNL A   1      47.069  28.970  31.245  1.00  0.00     0.029 A 
ATOM     34  C   UNL A   1      46.204  28.082  30.628  1.00  0.00     0.049 A 
ATOM     35  H   UNL A   1      44.175  28.343  30.107  1.00  0.00     0.167 HD
ATOM     36  C   UNL A   1      45.555  25.927  29.594  1.00  0.00     0.074 A 
ATOM     37  C   UNL A   1      45.831  24.578  29.145  1.00  0.00     0.031 C 
ATOM     38  C   UNL A   1      46.470  26.742  30.171  1.00  0.00     0.031 A 
BRANCH  25  39
ATOM     39  C   UNL A   1      44.288  32.332  31.633  1.00  0.00    -0.014 A 
ATOM     40  C   UNL A   1      44.056  32.635  32.984  1.00  0.00     0.009 A 
ATOM     41  C   UNL A   1      44.848  33.318  30.805  1.00  0.00     0.009 A 
ATOM     42  C   UNL A   1      44.348  33.906  33.485  1.00  0.00     0.001 A 
ATOM     43  C   UNL A   1      45.165  34.578  31.315  1.00  0.00     0.001 A 
ATOM     44  C   UNL A   1      44.906  34.875  32.652  1.00  0.00     0.000 A 
ENDBRANCH  25  39
BRANCH  26  45
ATOM     45  C   UNL A   1      42.053  23.474  27.643  1.00  0.00    -0.014 A 
ATOM     46  C   UNL A   1      42.317  23.227  26.288  1.00  0.00     0.009 A 
ATOM     47  C   UNL A   1      41.484  22.453  28.421  1.00  0.00     0.009 A 
ATOM     48  C   UNL A   1      42.000  21.991  25.721  1.00  0.00     0.001 A 
ATOM     49  C   UNL A   1      41.198  21.208  27.859  1.00  0.00     0.001 A 
ATOM     50  C   UNL A   1      41.447  20.981  26.507  1.00  0.00     0.000 A 
ENDBRANCH  26  45
BRANCH  38  51
ATOM     51  C   UNL A   1      47.851  26.184  30.378  1.00  0.00    -0.014 A 
ATOM     52  C   UNL A   1      48.788  26.152  29.335  1.00  0.00     0.009 A 
ATOM     53  C   UNL A   1      48.224  25.708  31.645  1.00  0.00     0.009 A 
ATOM     54  C   UNL A   1      50.063  25.621  29.548  1.00  0.00     0.001 A 
ATOM     55  C   UNL A   1      49.507  25.205  31.862  1.00  0.00     0.001 A 
ATOM     56  C   UNL A   1      50.423  25.153  30.811  1.00  0.00     0.000 A 
ENDBRANCH  38  51
ENDBRANCH  12  13
ENDBRANCH   5   7
ENDBRANCH   2   3
ENDBRANCH   1   2
BRANCH   1  57
ATOM     57  C   UNL A   1      33.634  27.743  24.750  1.00  0.00     0.023 C 
BRANCH  57  58
ATOM     58  C   UNL A   1      33.913  26.366  25.359  1.00  0.00     0.116 C 
BRANCH  58  59
ATOM     59  N   UNL A   1      34.217  25.327  24.389  1.00  0.00    -0.351 N 
ATOM     60  C   UNL A   1      33.659  24.077  24.232  1.00  0.00     0.283 C 
ATOM     61  H   UNL A   1      34.930  25.551  23.747  1.00  0.00     0.163 HD
ATOM     62  O   UNL A   1      34.029  23.435  23.242  1.00  0.00    -0.268 OA
BRANCH  60  63
ATOM     63  C   UNL A   1      32.618  23.549  25.250  1.00  0.00     0.307 C 
BRANCH  63  64
ATOM     64  N   UNL A   1      31.204  23.697  24.825  1.00  0.00    -0.318 N 
ATOM     65  C   UNL A   1      30.359  24.524  25.694  1.00  0.00     0.284 C 
ATOM     66  C   UNL A   1      30.919  23.978  23.403  1.00  0.00     0.284 C 
ATOM     67  H   UNL A   1      30.931  22.721  24.950  1.00  0.00     0.349 HD
ATOM     68  C   UNL A   1      30.274  26.022  25.326  1.00  0.00     0.178 C 
ATOM     69  C   UNL A   1      30.812  25.463  22.979  1.00  0.00     0.178 C 
ATOM     70  N   UNL A   1      29.946  26.192  23.913  1.00  0.00    -0.360 N 
BRANCH  70  71
ATOM     71  C   UNL A   1      29.479  27.433  23.503  1.00  0.00     0.037 A 
ATOM     72  C   UNL A   1      30.330  28.511  23.232  1.00  0.00     0.026 A 
ATOM     73  C   UNL A   1      28.099  27.640  23.399  1.00  0.00     0.026 A 
ATOM     74  C   UNL A   1      29.819  29.772  22.916  1.00  0.00     0.002 A 
ATOM     75  C   UNL A   1      27.581  28.901  23.092  1.00  0.00     0.002 A 
ATOM     76  C   UNL A   1      28.443  29.970  22.861  1.00  0.00     0.000 A 
ENDBRANCH  70  71
ENDBRANCH  63  64
BRANCH  63  77
ATOM     77  C   UNL A   1      32.838  22.096  25.667  1.00  0.00     0.044 A 
ATOM     78  C   UNL A   1      33.269  21.611  26.894  1.00  0.00     0.094 A 
ATOM     79  C   UNL A   1      32.697  20.936  24.822  1.00  0.00     0.009 A 
ATOM     80  N   UNL A   1      33.559  20.282  26.771  1.00  0.00    -0.361 N 
ATOM     81  C   UNL A   1      33.220  19.840  25.516  1.00  0.00     0.049 A 
ATOM     82  C   UNL A   1      32.214  20.723  23.511  1.00  0.00     0.014 A 
ATOM     83  H   UNL A   1      33.954  19.722  27.477  1.00  0.00     0.166 HD
ATOM     84  C   UNL A   1      33.346  18.566  24.949  1.00  0.00     0.065 A 
ATOM     85  C   UNL A   1      32.291  19.444  22.943  1.00  0.00     0.040 A 
ATOM     86  C   UNL A   1      32.868  18.399  23.652  1.00  0.00     0.125 A 
ATOM     87  F   UNL A   1      32.966  17.193  23.074  1.00  0.00    -0.207 F 
ENDBRANCH  63  77
ENDBRANCH  60  63
ENDBRANCH  58  59
ENDBRANCH  57  58
ENDBRANCH   1  57
TORSDOF 14
ENDMDL
MODEL 2
REMARK VINA RESULT:     -12.5      2.274      8.058
REMARK SMILES O=C(NCCCCNC(=O)[C@H](c1c[nH]c2cc(F)ccc12)[NH+]1CCN(c2ccccc2)CC1)c1ccc(-c2c3nc(c(-c4ccccc4)c4ccc([nH]4)c(-c4ccccc4)c4nc(c(-c5ccccc5)c5ccc2[nH]5)C=C4)C=C3)cc1
REMARK SMILES IDX 5 1 4 2 3 3 1 4 2 5 34 7 35 8 81 9 36 10 80 11 37 12 38 13
REMARK SMILES IDX 39 14 74 15 40 16 79 17 73 18 75 19 41 20 78 21 72 22 71 23
REMARK SMILES IDX 42 25 64 26 49 27 63 28 50 29 53 30 62 31 76 32 51 33 52 34
REMARK SMILES IDX 61 36 77 37 54 38 43 39 44 40 48 41 45 42 47 43 46 44 65 45
REMARK SMILES IDX 66 46 70 47 67 48 69 49 68 50 55 51 56 52 60 53 57 54 59 55
REMARK SMILES IDX 58 56 6 57 7 58 8 59 9 60 10 62 11 63 22 64 23 65 33 66
REMARK SMILES IDX 24 68 32 69 25 70 26 71 27 72 31 73 28 74 30 75 29 76 12 77
REMARK SMILES IDX 13 78 21 79 14 80 15 81 20 82 16 84 19 85 17 86 18 87
REMARK H PARENT 3 6 75 24 53 35 8 61 22 67 14 83
REMARK Flexibility Score: inf
ROOT
ATOM      1  C   UNL A   1      38.274  20.966  24.941  1.00  0.00     0.023 C 
ENDROOT
BRANCH   1   2
ATOM      2  C   UNL A   1      38.701  20.073  26.101  1.00  0.00     0.116 C 
BRANCH   2   3
ATOM      3  N   UNL A   1      39.903  19.302  25.827  1.00  0.00    -0.352 N 
ATOM      4  O   UNL A   1      42.093  18.873  25.537  1.00  0.00    -0.269 OA
ATOM      5  C   UNL A   1      41.230  19.643  25.951  1.00  0.00     0.251 C 
ATOM      6  H   UNL A   1      39.741  18.388  25.500  1.00  0.00     0.163 HD
BRANCH   5   7
ATOM      7  C   UNL A   1      41.635  20.939  26.541  1.00  0.00     0.039 A 
ATOM      8  C   UNL A   1      41.597  21.157  27.920  1.00  0.00     0.014 A 
ATOM      9  C   UNL A   1      42.100  21.951  25.693  1.00  0.00     0.014 A 
ATOM     10  C   UNL A   1      41.867  22.425  28.431  1.00  0.00     0.010 A 
ATOM     11  C   UNL A   1      42.449  23.201  26.218  1.00  0.00     0.010 A 
ATOM     12  C   UNL A   1      42.296  23.463  27.588  1.00  0.00    -0.014 A 
BRANCH  12  13
ATOM     13  C   UNL A   1      42.613  24.800  28.156  1.00  0.00     0.031 A 
ATOM     14  C   UNL A   1      44.021  25.165  28.549  1.00  0.00     0.074 A 
ATOM     15  C   UNL A   1      41.624  25.705  28.303  1.00  0.00     0.049 A 
ATOM     16  N   UNL A   1      44.473  26.290  29.048  1.00  0.00    -0.248 NA
ATOM     17  C   UNL A   1      45.054  24.135  28.366  1.00  0.00     0.031 C 
ATOM     18  C   UNL A   1      40.218  25.479  27.965  1.00  0.00     0.029 A 
ATOM     19  N   UNL A   1      41.653  26.997  28.763  1.00  0.00    -0.354 N 
ATOM     20  C   UNL A   1      45.834  26.099  29.251  1.00  0.00     0.074 A 
ATOM     21  C   UNL A   1      46.131  24.740  28.849  1.00  0.00     0.031 C 
ATOM     22  C   UNL A   1      39.526  26.605  28.190  1.00  0.00     0.029 A 
ATOM     23  C   UNL A   1      40.424  27.611  28.745  1.00  0.00     0.049 A 
ATOM     24  H   UNL A   1      42.474  27.441  29.077  1.00  0.00     0.167 HD
ATOM     25  C   UNL A   1      46.754  26.975  29.725  1.00  0.00     0.031 A 
ATOM     26  C   UNL A   1      40.052  28.841  29.145  1.00  0.00     0.031 A 
ATOM     27  C   UNL A   1      46.461  28.325  30.130  1.00  0.00     0.049 A 
ATOM     28  C   UNL A   1      41.084  29.775  29.708  1.00  0.00     0.074 A 
ATOM     29  C   UNL A   1      47.335  29.296  30.591  1.00  0.00     0.029 A 
ATOM     30  N   UNL A   1      45.197  28.894  30.131  1.00  0.00    -0.354 N 
ATOM     31  N   UNL A   1      42.373  29.590  29.856  1.00  0.00    -0.248 NA
ATOM     32  C   UNL A   1      40.608  31.092  30.156  1.00  0.00     0.031 C 
ATOM     33  C   UNL A   1      46.592  30.433  30.924  1.00  0.00     0.029 A 
ATOM     34  C   UNL A   1      45.264  30.192  30.612  1.00  0.00     0.049 A 
ATOM     35  H   UNL A   1      44.374  28.445  29.834  1.00  0.00     0.167 HD
ATOM     36  C   UNL A   1      42.865  30.771  30.395  1.00  0.00     0.074 A 
ATOM     37  C   UNL A   1      41.739  31.673  30.528  1.00  0.00     0.031 C 
ATOM     38  C   UNL A   1      44.137  31.079  30.748  1.00  0.00     0.031 A 
BRANCH  25  39
ATOM     39  C   UNL A   1      48.172  26.489  29.859  1.00  0.00    -0.014 A 
ATOM     40  C   UNL A   1      49.111  26.678  28.833  1.00  0.00     0.009 A 
ATOM     41  C   UNL A   1      48.589  25.879  31.053  1.00  0.00     0.009 A 
ATOM     42  C   UNL A   1      50.428  26.235  28.987  1.00  0.00     0.001 A 
ATOM     43  C   UNL A   1      49.911  25.463  31.215  1.00  0.00     0.001 A 
ATOM     44  C   UNL A   1      50.828  25.632  30.179  1.00  0.00     0.000 A 
ENDBRANCH  25  39
BRANCH  26  45
ATOM     45  C   UNL A   1      38.629  29.253  29.039  1.00  0.00    -0.014 A 
ATOM     46  C   UNL A   1      38.116  29.752  27.832  1.00  0.00     0.009 A 
ATOM     47  C   UNL A   1      37.772  29.138  30.146  1.00  0.00     0.009 A 
ATOM     48  C   UNL A   1      36.780  30.147  27.743  1.00  0.00     0.001 A 
ATOM     49  C   UNL A   1      36.430  29.503  30.044  1.00  0.00     0.001 A 
ATOM     50  C   UNL A   1      35.936  30.016  28.845  1.00  0.00     0.000 A 
ENDBRANCH  26  45
BRANCH  38  51
ATOM     51  C   UNL A   1      44.383  32.462  31.283  1.00  0.00    -0.014 A 
ATOM     52  C   UNL A   1      44.328  32.732  32.659  1.00  0.00     0.009 A 
ATOM     53  C   UNL A   1      44.699  33.504  30.396  1.00  0.00     0.009 A 
ATOM     54  C   UNL A   1      44.553  34.027  33.133  1.00  0.00     0.001 A 
ATOM     55  C   UNL A   1      44.952  34.790  30.875  1.00  0.00     0.001 A 
ATOM     56  C   UNL A   1      44.868  35.053  32.242  1.00  0.00     0.000 A 
ENDBRANCH  38  51
ENDBRANCH  12  13
ENDBRANCH   5   7
ENDBRANCH   2   3
ENDBRANCH   1   2
BRANCH   1  57
ATOM     57  C   UNL A   1      37.735  22.354  25.308  1.00  0.00     0.023 C 
BRANCH  57  58
ATOM     58  C   UNL A   1      36.568  22.892  24.476  1.00  0.00     0.116 C 
BRANCH  58  59
ATOM     59  N   UNL A   1      35.952  24.096  25.008  1.00  0.00    -0.351 N 
ATOM     60  C   UNL A   1      34.671  24.578  24.846  1.00  0.00     0.283 C 
ATOM     61  H   UNL A   1      36.540  24.652  25.570  1.00  0.00     0.163 HD
ATOM     62  O   UNL A   1      34.375  25.576  25.511  1.00  0.00    -0.268 OA
BRANCH  60  63
ATOM     63  C   UNL A   1      33.683  23.869  23.886  1.00  0.00     0.307 C 
BRANCH  63  64
ATOM     64  N   UNL A   1      32.684  23.001  24.555  1.00  0.00    -0.318 N 
ATOM     65  C   UNL A   1      31.886  22.144  23.669  1.00  0.00     0.284 C 
ATOM     66  C   UNL A   1      33.090  22.258  25.765  1.00  0.00     0.284 C 
ATOM     67  H   UNL A   1      32.081  23.746  24.905  1.00  0.00     0.349 HD
ATOM     68  C   UNL A   1      32.448  20.729  23.413  1.00  0.00     0.178 C 
ATOM     69  C   UNL A   1      33.651  20.829  25.570  1.00  0.00     0.178 C 
ATOM     70  N   UNL A   1      32.778  20.065  24.671  1.00  0.00    -0.360 N 
BRANCH  70  71
ATOM     71  C   UNL A   1      32.943  18.687  24.651  1.00  0.00     0.037 A 
ATOM     72  C   UNL A   1      32.629  17.870  25.745  1.00  0.00     0.026 A 
ATOM     73  C   UNL A   1      33.489  18.084  23.513  1.00  0.00     0.026 A 
ATOM     74  C   UNL A   1      32.900  16.500  25.723  1.00  0.00     0.002 A 
ATOM     75  C   UNL A   1      33.770  16.716  23.487  1.00  0.00     0.002 A 
ATOM     76  C   UNL A   1      33.485  15.926  24.599  1.00  0.00     0.000 A 
ENDBRANCH  70  71
ENDBRANCH  63  64
BRANCH  63  77
ATOM     77  C   UNL A   1      32.935  24.819  22.951  1.00  0.00     0.044 A 
ATOM     78  C   UNL A   1      33.211  25.109  21.622  1.00  0.00     0.094 A 
ATOM     79  C   UNL A   1      31.818  25.658  23.306  1.00  0.00     0.009 A 
ATOM     80  N   UNL A   1      32.455  26.178  21.234  1.00  0.00    -0.361 N 
ATOM     81  C   UNL A   1      31.593  26.536  22.240  1.00  0.00     0.049 A 
ATOM     82  C   UNL A   1      31.002  25.784  24.453  1.00  0.00     0.014 A 
ATOM     83  H   UNL A   1      32.518  26.628  20.361  1.00  0.00     0.166 HD
ATOM     84  C   UNL A   1      30.648  27.569  22.288  1.00  0.00     0.065 A 
ATOM     85  C   UNL A   1      30.021  26.783  24.500  1.00  0.00     0.040 A 
ATOM     86  C   UNL A   1      29.872  27.666  23.439  1.00  0.00     0.125 A 
ATOM     87  F   UNL A   1      28.952  28.638  23.523  1.00  0.00    -0.207 F 
ENDBRANCH  63  77
ENDBRANCH  60  63
ENDBRANCH  58  59
ENDBRANCH  57  58
ENDBRANCH   1  57
TORSDOF 14
ENDMDL
MODEL 3
REMARK VINA RESULT:     -12.4      0.257      5.728
REMARK SMILES O=C(NCCCCNC(=O)[C@H](c1c[nH]c2cc(F)ccc12)[NH+]1CCN(c2ccccc2)CC1)c1ccc(-c2c3nc(c(-c4ccccc4)c4ccc([nH]4)c(-c4ccccc4)c4nc(c(-c5ccccc5)c5ccc2[nH]5)C=C4)C=C3)cc1
REMARK SMILES IDX 5 1 4 2 3 3 1 4 2 5 34 7 35 8 81 9 36 10 80 11 37 12 38 13
REMARK SMILES IDX 39 14 74 15 40 16 79 17 73 18 75 19 41 20 78 21 72 22 71 23
REMARK SMILES IDX 42 25 64 26 49 27 63 28 50 29 53 30 62 31 76 32 51 33 52 34
REMARK SMILES IDX 61 36 77 37 54 38 43 39 44 40 48 41 45 42 47 43 46 44 65 45
REMARK SMILES IDX 66 46 70 47 67 48 69 49 68 50 55 51 56 52 60 53 57 54 59 55
REMARK SMILES IDX 58 56 6 57 7 58 8 59 9 60 10 62 11 63 22 64 23 65 33 66
REMARK SMILES IDX 24 68 32 69 25 70 26 71 27 72 31 73 28 74 30 75 29 76 12 77
REMARK SMILES IDX 13 78 21 79 14 80 15 81 20 82 16 84 19 85 17 86 18 87
REMARK H PARENT 3 6 75 24 53 35 8 61 22 67 14 83
REMARK Flexibility Score: inf
ROOT
ATOM      1  C   UNL A   1      34.021  28.816  25.695  1.00  0.00     0.023 C 
ENDROOT
BRANCH   1   2
ATOM      2  C   UNL A   1      33.671  28.827  27.180  1.00  0.00     0.116 C 
BRANCH   2   3
ATOM      3  N   UNL A   1      33.648  30.160  27.761  1.00  0.00    -0.352 N 
ATOM      4  O   UNL A   1      34.335  31.924  28.979  1.00  0.00    -0.269 OA
ATOM      5  C   UNL A   1      34.614  30.845  28.461  1.00  0.00     0.251 C 
ATOM      6  H   UNL A   1      32.806  30.652  27.632  1.00  0.00     0.163 HD
BRANCH   5   7
ATOM      7  C   UNL A   1      35.975  30.286  28.635  1.00  0.00     0.039 A 
ATOM      8  C   UNL A   1      36.359  29.657  29.820  1.00  0.00     0.014 A 
ATOM      9  C   UNL A   1      36.878  30.365  27.568  1.00  0.00     0.014 A 
ATOM     10  C   UNL A   1      37.681  29.252  29.996  1.00  0.00     0.010 A 
ATOM     11  C   UNL A   1      38.184  29.885  27.718  1.00  0.00     0.010 A 
ATOM     12  C   UNL A   1      38.611  29.362  28.949  1.00  0.00    -0.014 A 
BRANCH  12  13
ATOM     13  C   UNL A   1      40.009  28.893  29.144  1.00  0.00     0.031 A 
ATOM     14  C   UNL A   1      40.434  27.512  28.718  1.00  0.00     0.074 A 
ATOM     15  C   UNL A   1      40.913  29.729  29.693  1.00  0.00     0.049 A 
ATOM     16  N   UNL A   1      41.614  26.949  28.804  1.00  0.00    -0.248 NA
ATOM     17  C   UNL A   1      39.401  26.648  28.126  1.00  0.00     0.031 C 
ATOM     18  C   UNL A   1      40.632  31.091  30.151  1.00  0.00     0.029 A 
ATOM     19  N   UNL A   1      42.250  29.560  29.949  1.00  0.00    -0.354 N 
ATOM     20  C   UNL A   1      41.464  25.666  28.294  1.00  0.00     0.074 A 
ATOM     21  C   UNL A   1      40.071  25.521  27.926  1.00  0.00     0.031 C 
ATOM     22  C   UNL A   1      41.769  31.648  30.594  1.00  0.00     0.029 A 
ATOM     23  C   UNL A   1      42.844  30.665  30.509  1.00  0.00     0.049 A 
ATOM     24  H   UNL A   1      42.737  28.728  29.751  1.00  0.00     0.167 HD
ATOM     25  C   UNL A   1      42.400  24.696  28.140  1.00  0.00     0.031 A 
ATOM     26  C   UNL A   1      44.108  30.866  30.925  1.00  0.00     0.031 A 
ATOM     27  C   UNL A   1      43.785  24.835  28.509  1.00  0.00     0.049 A 
ATOM     28  C   UNL A   1      45.113  29.760  30.784  1.00  0.00     0.074 A 
ATOM     29  C   UNL A   1      44.813  23.919  28.360  1.00  0.00     0.029 A 
ATOM     30  N   UNL A   1      44.336  25.958  29.108  1.00  0.00    -0.354 N 
ATOM     31  N   UNL A   1      44.961  28.567  30.264  1.00  0.00    -0.248 NA
ATOM     32  C   UNL A   1      46.467  30.032  31.288  1.00  0.00     0.031 C 
ATOM     33  C   UNL A   1      45.972  24.466  28.920  1.00  0.00     0.029 A 
ATOM     34  C   UNL A   1      45.682  25.746  29.361  1.00  0.00     0.049 A 
ATOM     35  H   UNL A   1      43.844  26.783  29.321  1.00  0.00     0.167 HD
ATOM     36  C   UNL A   1      46.203  27.953  30.358  1.00  0.00     0.074 A 
ATOM     37  C   UNL A   1      47.101  28.913  30.967  1.00  0.00     0.031 C 
ATOM     38  C   UNL A   1      46.565  26.705  29.974  1.00  0.00     0.031 A 
BRANCH  25  39
ATOM     39  C   UNL A   1      41.950  23.378  27.570  1.00  0.00    -0.014 A 
ATOM     40  C   UNL A   1      41.987  23.128  26.189  1.00  0.00     0.009 A 
ATOM     41  C   UNL A   1      41.530  22.353  28.432  1.00  0.00     0.009 A 
ATOM     42  C   UNL A   1      41.582  21.890  25.683  1.00  0.00     0.001 A 
ATOM     43  C   UNL A   1      41.153  21.108  27.926  1.00  0.00     0.001 A 
ATOM     44  C   UNL A   1      41.169  20.880  26.551  1.00  0.00     0.000 A 
ENDBRANCH  25  39
BRANCH  26  45
ATOM     45  C   UNL A   1      44.487  32.168  31.529  1.00  0.00    -0.014 A 
ATOM     46  C   UNL A   1      44.974  33.214  30.730  1.00  0.00     0.009 A 
ATOM     47  C   UNL A   1      44.355  32.375  32.912  1.00  0.00     0.009 A 
ATOM     48  C   UNL A   1      45.339  34.432  31.307  1.00  0.00     0.001 A 
ATOM     49  C   UNL A   1      44.690  33.605  33.480  1.00  0.00     0.001 A 
ATOM     50  C   UNL A   1      45.190  34.629  32.679  1.00  0.00     0.000 A 
ENDBRANCH  26  45
BRANCH  38  51
ATOM     51  C   UNL A   1      48.004  26.317  30.173  1.00  0.00    -0.014 A 
ATOM     52  C   UNL A   1      48.448  25.756  31.379  1.00  0.00     0.009 A 
ATOM     53  C   UNL A   1      48.922  26.495  29.125  1.00  0.00     0.009 A 
ATOM     54  C   UNL A   1      49.792  25.411  31.544  1.00  0.00     0.001 A 
ATOM     55  C   UNL A   1      50.257  26.122  29.283  1.00  0.00     0.001 A 
ATOM     56  C   UNL A   1      50.693  25.590  30.496  1.00  0.00     0.000 A 
ENDBRANCH  38  51
ENDBRANCH  12  13
ENDBRANCH   5   7
ENDBRANCH   2   3
ENDBRANCH   1   2
BRANCH   1  57
ATOM     57  C   UNL A   1      33.604  27.571  24.904  1.00  0.00     0.023 C 
BRANCH  57  58
ATOM     58  C   UNL A   1      34.040  26.213  25.461  1.00  0.00     0.116 C 
BRANCH  58  59
ATOM     59  N   UNL A   1      34.303  25.202  24.450  1.00  0.00    -0.351 N 
ATOM     60  C   UNL A   1      33.700  23.980  24.247  1.00  0.00     0.283 C 
ATOM     61  H   UNL A   1      35.021  25.425  23.814  1.00  0.00     0.163 HD
ATOM     62  O   UNL A   1      34.042  23.364  23.232  1.00  0.00    -0.268 OA
BRANCH  60  63
ATOM     63  C   UNL A   1      32.643  23.450  25.249  1.00  0.00     0.307 C 
BRANCH  63  64
ATOM     64  N   UNL A   1      31.236  23.609  24.808  1.00  0.00    -0.318 N 
ATOM     65  C   UNL A   1      30.367  24.378  25.707  1.00  0.00     0.284 C 
ATOM     66  C   UNL A   1      30.972  23.968  23.400  1.00  0.00     0.284 C 
ATOM     67  H   UNL A   1      30.971  22.625  24.872  1.00  0.00     0.349 HD
ATOM     68  C   UNL A   1      30.273  25.892  25.424  1.00  0.00     0.178 C 
ATOM     69  C   UNL A   1      30.857  25.473  23.059  1.00  0.00     0.178 C 
ATOM     70  N   UNL A   1      29.967  26.140  24.017  1.00  0.00    -0.360 N 
BRANCH  70  71
ATOM     71  C   UNL A   1      29.494  27.398  23.670  1.00  0.00     0.037 A 
ATOM     72  C   UNL A   1      28.139  27.657  23.430  1.00  0.00     0.026 A 
ATOM     73  C   UNL A   1      30.406  28.446  23.506  1.00  0.00     0.026 A 
ATOM     74  C   UNL A   1      27.712  28.912  22.989  1.00  0.00     0.002 A 
ATOM     75  C   UNL A   1      29.987  29.701  23.056  1.00  0.00     0.002 A 
ATOM     76  C   UNL A   1      28.639  29.929  22.787  1.00  0.00     0.000 A 
ENDBRANCH  70  71
ENDBRANCH  63  64
BRANCH  63  77
ATOM     77  C   UNL A   1      32.850  21.993  25.659  1.00  0.00     0.044 A 
ATOM     78  C   UNL A   1      33.272  21.498  26.884  1.00  0.00     0.094 A 
ATOM     79  C   UNL A   1      32.705  20.839  24.806  1.00  0.00     0.009 A 
ATOM     80  N   UNL A   1      33.553  20.167  26.755  1.00  0.00    -0.361 N 
ATOM     81  C   UNL A   1      33.216  19.736  25.496  1.00  0.00     0.049 A 
ATOM     82  C   UNL A   1      32.225  20.637  23.492  1.00  0.00     0.014 A 
ATOM     83  H   UNL A   1      33.941  19.600  27.459  1.00  0.00     0.166 HD
ATOM     84  C   UNL A   1      33.335  18.464  24.922  1.00  0.00     0.065 A 
ATOM     85  C   UNL A   1      32.295  19.362  22.917  1.00  0.00     0.040 A 
ATOM     86  C   UNL A   1      32.861  18.308  23.622  1.00  0.00     0.125 A 
ATOM     87  F   UNL A   1      32.952  17.105  23.037  1.00  0.00    -0.207 F 
ENDBRANCH  63  77
ENDBRANCH  60  63
ENDBRANCH  58  59
ENDBRANCH  57  58
ENDBRANCH   1  57
TORSDOF 14
ENDMDL
