MODEL 1
REMARK VINA RESULT:     -11.2      0.000      0.000
REMARK SMILES O=C(Cc1ccccc1Nc1c(F)cccc1C(F)(F)F)NCCCCNC(=O)c1ccc(-c2c3nc(c(-c4ccccc4)c4ccc([nH]4)c(-c4ccccc4)c4nc(c(-c5ccccc5)c5ccc2[nH]5)C=C4)C=C3)cc1
REMARK SMILES IDX 23 1 22 2 1 3 2 4 3 6 4 7 5 8 9 9 6 10 8 11 7 12 10 13 11 15
REMARK SMILES IDX 12 16 17 17 13 18 14 19 16 20 15 21 18 22 19 23 20 24 21 25
REMARK SMILES IDX 24 26 25 27 26 28 27 29 28 30 29 32 30 33 31 34 77 35 32 36
REMARK SMILES IDX 76 37 33 38 34 39 35 40 70 41 36 42 75 43 69 44 71 45 37 46
REMARK SMILES IDX 74 47 68 48 67 49 38 51 60 52 45 53 59 54 46 55 49 56 58 57
REMARK SMILES IDX 72 58 47 59 48 60 57 62 73 63 50 64 39 65 40 66 44 67 41 68
REMARK SMILES IDX 43 69 42 70 61 71 62 72 66 73 63 74 65 75 64 76 51 77 52 78
REMARK SMILES IDX 56 79 53 80 55 81 54 82
REMARK H PARENT 22 5 10 14 27 31 71 50 49 61
REMARK Flexibility Score: inf
ROOT
ATOM      1  C   UNL A   1      34.506  23.899  24.888  1.00  0.00     0.116 C 
ENDROOT
BRANCH   1   2
ATOM      2  N   UNL A   1      34.393  25.281  24.471  1.00  0.00    -0.356 N 
ATOM      3  O   UNL A   1      32.789  25.891  25.993  1.00  0.00    -0.275 OA
ATOM      4  C   UNL A   1      33.531  26.180  25.058  1.00  0.00     0.224 C 
ATOM      5  H   UNL A   1      34.961  25.595  23.731  1.00  0.00     0.163 HD
BRANCH   4   6
ATOM      6  C   UNL A   1      33.464  27.536  24.380  1.00  0.00     0.137 C 
BRANCH   6   7
ATOM      7  C   UNL A   1      33.134  28.708  25.281  1.00  0.00    -0.015 A 
ATOM      8  C   UNL A   1      33.925  28.901  26.431  1.00  0.00     0.006 A 
ATOM      9  C   UNL A   1      32.068  29.597  25.023  1.00  0.00     0.042 A 
ATOM     10  C   UNL A   1      33.650  29.931  27.329  1.00  0.00     0.000 A 
ATOM     11  C   UNL A   1      31.796  30.612  25.955  1.00  0.00     0.026 A 
ATOM     12  C   UNL A   1      32.578  30.781  27.097  1.00  0.00     0.002 A 
BRANCH   9  13
ATOM     13  N   UNL A   1      31.312  29.487  23.829  1.00  0.00    -0.352 N 
ATOM     14  H   UNL A   1      31.839  29.459  22.998  1.00  0.00     0.167 HD
BRANCH  13  15
ATOM     15  C   UNL A   1      29.910  29.410  23.659  1.00  0.00     0.087 A 
ATOM     16  C   UNL A   1      29.206  30.629  23.573  1.00  0.00     0.147 A 
ATOM     17  C   UNL A   1      29.187  28.215  23.497  1.00  0.00     0.082 A 
ATOM     18  F   UNL A   1      29.871  31.778  23.779  1.00  0.00    -0.205 F 
ATOM     19  C   UNL A   1      27.853  30.690  23.269  1.00  0.00     0.041 A 
ATOM     20  C   UNL A   1      27.822  28.289  23.138  1.00  0.00     0.015 A 
ATOM     21  C   UNL A   1      27.163  29.514  23.017  1.00  0.00     0.004 A 
BRANCH  17  22
ATOM     22  C   UNL A   1      29.759  26.836  23.738  1.00  0.00     0.418 C 
ATOM     23  F   UNL A   1      28.802  25.871  23.567  1.00  0.00    -0.166 F 
ATOM     24  F   UNL A   1      30.755  26.509  22.874  1.00  0.00    -0.166 F 
ATOM     25  F   UNL A   1      30.229  26.624  24.995  1.00  0.00    -0.166 F 
ENDBRANCH  17  22
ENDBRANCH  13  15
ENDBRANCH   9  13
ENDBRANCH   6   7
ENDBRANCH   4   6
ENDBRANCH   1   2
BRANCH   1  26
ATOM     26  C   UNL A   1      35.083  23.011  23.783  1.00  0.00     0.023 C 
BRANCH  26  27
ATOM     27  C   UNL A   1      36.607  22.855  23.794  1.00  0.00     0.023 C 
BRANCH  27  28
ATOM     28  C   UNL A   1      37.312  23.316  25.067  1.00  0.00     0.116 C 
BRANCH  28  29
ATOM     29  N   UNL A   1      38.418  22.455  25.454  1.00  0.00    -0.352 N 
ATOM     30  C   UNL A   1      39.552  22.746  26.170  1.00  0.00     0.251 C 
ATOM     31  H   UNL A   1      38.342  21.520  25.156  1.00  0.00     0.163 HD
ATOM     32  O   UNL A   1      40.436  21.898  26.292  1.00  0.00    -0.269 OA
BRANCH  30  33
ATOM     33  C   UNL A   1      39.746  24.084  26.774  1.00  0.00     0.039 A 
ATOM     34  C   UNL A   1      39.254  24.323  28.062  1.00  0.00     0.014 A 
ATOM     35  C   UNL A   1      40.380  25.111  26.077  1.00  0.00     0.014 A 
ATOM     36  C   UNL A   1      39.478  25.558  28.681  1.00  0.00     0.010 A 
ATOM     37  C   UNL A   1      40.651  26.320  26.718  1.00  0.00     0.010 A 
ATOM     38  C   UNL A   1      40.226  26.555  28.034  1.00  0.00    -0.014 A 
BRANCH  38  39
ATOM     39  C   UNL A   1      40.598  27.824  28.723  1.00  0.00     0.031 A 
ATOM     40  C   UNL A   1      39.599  28.941  28.881  1.00  0.00     0.074 A 
ATOM     41  C   UNL A   1      41.867  28.012  29.141  1.00  0.00     0.049 A 
ATOM     42  N   UNL A   1      39.773  30.139  29.386  1.00  0.00    -0.248 NA
ATOM     43  C   UNL A   1      38.239  28.696  28.378  1.00  0.00     0.031 C 
ATOM     44  C   UNL A   1      42.960  27.046  29.005  1.00  0.00     0.029 A 
ATOM     45  N   UNL A   1      42.457  29.088  29.763  1.00  0.00    -0.354 N 
ATOM     46  C   UNL A   1      38.552  30.790  29.247  1.00  0.00     0.074 A 
ATOM     47  C   UNL A   1      37.668  29.878  28.556  1.00  0.00     0.031 C 
ATOM     48  C   UNL A   1      44.071  27.554  29.560  1.00  0.00     0.029 A 
ATOM     49  C   UNL A   1      43.788  28.900  30.050  1.00  0.00     0.049 A 
ATOM     50  H   UNL A   1      41.971  29.916  29.981  1.00  0.00     0.167 HD
ATOM     51  C   UNL A   1      38.189  32.023  29.676  1.00  0.00     0.031 A 
ATOM     52  C   UNL A   1      44.687  29.713  30.639  1.00  0.00     0.031 A 
ATOM     53  C   UNL A   1      39.054  32.931  30.383  1.00  0.00     0.049 A 
ATOM     54  C   UNL A   1      44.259  31.078  31.104  1.00  0.00     0.074 A 
ATOM     55  C   UNL A   1      38.752  34.177  30.908  1.00  0.00     0.029 A 
ATOM     56  N   UNL A   1      40.389  32.692  30.668  1.00  0.00    -0.354 N 
ATOM     57  N   UNL A   1      43.082  31.648  31.023  1.00  0.00    -0.248 NA
ATOM     58  C   UNL A   1      45.287  31.907  31.754  1.00  0.00     0.031 C 
ATOM     59  C   UNL A   1      39.917  34.712  31.465  1.00  0.00     0.029 A 
ATOM     60  C   UNL A   1      40.929  33.776  31.339  1.00  0.00     0.049 A 
ATOM     61  H   UNL A   1      40.880  31.873  30.428  1.00  0.00     0.167 HD
ATOM     62  C   UNL A   1      43.219  32.888  31.633  1.00  0.00     0.074 A 
ATOM     63  C   UNL A   1      44.588  32.980  32.096  1.00  0.00     0.031 C 
ATOM     64  C   UNL A   1      42.292  33.862  31.797  1.00  0.00     0.031 A 
BRANCH  51  65
ATOM     65  C   UNL A   1      36.779  32.466  29.393  1.00  0.00    -0.014 A 
ATOM     66  C   UNL A   1      35.765  32.329  30.355  1.00  0.00     0.009 A 
ATOM     67  C   UNL A   1      36.466  33.066  28.162  1.00  0.00     0.009 A 
ATOM     68  C   UNL A   1      34.461  32.744  30.077  1.00  0.00     0.001 A 
ATOM     69  C   UNL A   1      35.169  33.509  27.898  1.00  0.00     0.001 A 
ATOM     70  C   UNL A   1      34.166  33.337  28.851  1.00  0.00     0.000 A 
ENDBRANCH  51  65
BRANCH  52  71
ATOM     71  C   UNL A   1      46.088  29.256  30.838  1.00  0.00    -0.014 A 
ATOM     72  C   UNL A   1      46.460  28.596  32.019  1.00  0.00     0.009 A 
ATOM     73  C   UNL A   1      47.063  29.492  29.857  1.00  0.00     0.009 A 
ATOM     74  C   UNL A   1      47.786  28.207  32.226  1.00  0.00     0.001 A 
ATOM     75  C   UNL A   1      48.381  29.074  30.052  1.00  0.00     0.001 A 
ATOM     76  C   UNL A   1      48.744  28.442  31.240  1.00  0.00     0.000 A 
ENDBRANCH  52  71
BRANCH  64  77
ATOM     77  C   UNL A   1      42.713  35.101  32.537  1.00  0.00    -0.014 A 
ATOM     78  C   UNL A   1      42.467  35.252  33.910  1.00  0.00     0.009 A 
ATOM     79  C   UNL A   1      43.404  36.116  31.855  1.00  0.00     0.009 A 
ATOM     80  C   UNL A   1      42.874  36.411  34.577  1.00  0.00     0.001 A 
ATOM     81  C   UNL A   1      43.836  37.258  32.530  1.00  0.00     0.001 A 
ATOM     82  C   UNL A   1      43.563  37.409  33.888  1.00  0.00     0.000 A 
ENDBRANCH  64  77
ENDBRANCH  38  39
ENDBRANCH  30  33
ENDBRANCH  28  29
ENDBRANCH  27  28
ENDBRANCH  26  27
ENDBRANCH   1  26
TORSDOF 15
ENDMDL
MODEL 2
REMARK VINA RESULT:     -11.1      3.288      8.270
REMARK SMILES O=C(Cc1ccccc1Nc1c(F)cccc1C(F)(F)F)NCCCCNC(=O)c1ccc(-c2c3nc(c(-c4ccccc4)c4ccc([nH]4)c(-c4ccccc4)c4nc(c(-c5ccccc5)c5ccc2[nH]5)C=C4)C=C3)cc1
REMARK SMILES IDX 23 1 22 2 1 3 2 4 3 6 4 7 5 8 9 9 6 10 8 11 7 12 10 13 11 15
REMARK SMILES IDX 12 16 17 17 13 18 14 19 16 20 15 21 18 22 19 23 20 24 21 25
REMARK SMILES IDX 24 26 25 27 26 28 27 29 28 30 29 32 30 33 31 34 77 35 32 36
REMARK SMILES IDX 76 37 33 38 34 39 35 40 70 41 36 42 75 43 69 44 71 45 37 46
REMARK SMILES IDX 74 47 68 48 67 49 38 51 60 52 45 53 59 54 46 55 49 56 58 57
REMARK SMILES IDX 72 58 47 59 48 60 57 62 73 63 50 64 39 65 40 66 44 67 41 68
REMARK SMILES IDX 43 69 42 70 61 71 62 72 66 73 63 74 65 75 64 76 51 77 52 78
REMARK SMILES IDX 56 79 53 80 55 81 54 82
REMARK H PARENT 22 5 10 14 27 31 71 50 49 61
REMARK Flexibility Score: inf
ROOT
ATOM      1  C   UNL A   1      32.422  25.332  25.710  1.00  0.00     0.116 C 
ENDROOT
BRANCH   1   2
ATOM      2  N   UNL A   1      33.299  24.245  26.091  1.00  0.00    -0.356 N 
ATOM      3  O   UNL A   1      31.851  23.228  27.550  1.00  0.00    -0.275 OA
ATOM      4  C   UNL A   1      32.946  23.269  26.995  1.00  0.00     0.224 C 
ATOM      5  H   UNL A   1      34.195  24.202  25.684  1.00  0.00     0.163 HD
BRANCH   4   6
ATOM      6  C   UNL A   1      34.060  22.305  27.362  1.00  0.00     0.137 C 
BRANCH   6   7
ATOM      7  C   UNL A   1      35.225  22.244  26.395  1.00  0.00    -0.015 A 
ATOM      8  C   UNL A   1      36.124  23.328  26.374  1.00  0.00     0.006 A 
ATOM      9  C   UNL A   1      35.432  21.160  25.513  1.00  0.00     0.042 A 
ATOM     10  C   UNL A   1      37.191  23.360  25.477  1.00  0.00     0.000 A 
ATOM     11  C   UNL A   1      36.500  21.228  24.603  1.00  0.00     0.026 A 
ATOM     12  C   UNL A   1      37.373  22.314  24.583  1.00  0.00     0.002 A 
BRANCH   9  13
ATOM     13  N   UNL A   1      34.600  20.015  25.574  1.00  0.00    -0.352 N 
ATOM     14  H   UNL A   1      34.372  19.707  26.480  1.00  0.00     0.167 HD
BRANCH  13  15
ATOM     15  C   UNL A   1      34.051  19.250  24.518  1.00  0.00     0.087 A 
ATOM     16  C   UNL A   1      34.608  17.974  24.293  1.00  0.00     0.147 A 
ATOM     17  C   UNL A   1      32.949  19.639  23.735  1.00  0.00     0.082 A 
ATOM     18  F   UNL A   1      35.694  17.607  24.994  1.00  0.00    -0.205 F 
ATOM     19  C   UNL A   1      34.069  17.074  23.383  1.00  0.00     0.041 A 
ATOM     20  C   UNL A   1      32.378  18.698  22.849  1.00  0.00     0.015 A 
ATOM     21  C   UNL A   1      32.927  17.426  22.680  1.00  0.00     0.004 A 
BRANCH  17  22
ATOM     22  C   UNL A   1      32.358  21.031  23.732  1.00  0.00     0.418 C 
ATOM     23  F   UNL A   1      33.339  21.980  23.616  1.00  0.00    -0.166 F 
ATOM     24  F   UNL A   1      31.518  21.255  22.689  1.00  0.00    -0.166 F 
ATOM     25  F   UNL A   1      31.694  21.372  24.868  1.00  0.00    -0.166 F 
ENDBRANCH  17  22
ENDBRANCH  13  15
ENDBRANCH   9  13
ENDBRANCH   6   7
ENDBRANCH   4   6
ENDBRANCH   1   2
BRANCH   1  26
ATOM     26  C   UNL A   1      32.733  26.618  26.478  1.00  0.00     0.023 C 
BRANCH  26  27
ATOM     27  C   UNL A   1      33.051  27.841  25.611  1.00  0.00     0.023 C 
BRANCH  27  28
ATOM     28  C   UNL A   1      34.216  28.707  26.088  1.00  0.00     0.116 C 
BRANCH  28  29
ATOM     29  N   UNL A   1      33.793  29.989  26.627  1.00  0.00    -0.352 N 
ATOM     30  C   UNL A   1      34.375  30.773  27.593  1.00  0.00     0.251 C 
ATOM     31  H   UNL A   1      32.963  30.351  26.241  1.00  0.00     0.163 HD
ATOM     32  O   UNL A   1      33.792  31.778  27.999  1.00  0.00    -0.269 OA
BRANCH  30  33
ATOM     33  C   UNL A   1      35.683  30.407  28.181  1.00  0.00     0.039 A 
ATOM     34  C   UNL A   1      35.709  29.672  29.371  1.00  0.00     0.014 A 
ATOM     35  C   UNL A   1      36.882  30.803  27.589  1.00  0.00     0.014 A 
ATOM     36  C   UNL A   1      36.931  29.259  29.915  1.00  0.00     0.010 A 
ATOM     37  C   UNL A   1      38.094  30.341  28.103  1.00  0.00     0.010 A 
ATOM     38  C   UNL A   1      38.137  29.546  29.257  1.00  0.00    -0.014 A 
BRANCH  38  39
ATOM     39  C   UNL A   1      39.439  29.000  29.739  1.00  0.00     0.031 A 
ATOM     40  C   UNL A   1      40.256  29.738  30.767  1.00  0.00     0.074 A 
ATOM     41  C   UNL A   1      39.936  27.871  29.190  1.00  0.00     0.049 A 
ATOM     42  N   UNL A   1      41.442  29.447  31.244  1.00  0.00    -0.248 NA
ATOM     43  C   UNL A   1      39.683  30.980  31.307  1.00  0.00     0.031 C 
ATOM     44  C   UNL A   1      39.289  27.077  28.143  1.00  0.00     0.029 A 
ATOM     45  N   UNL A   1      41.109  27.196  29.434  1.00  0.00    -0.354 N 
ATOM     46  C   UNL A   1      41.761  30.475  32.124  1.00  0.00     0.074 A 
ATOM     47  C   UNL A   1      40.672  31.425  32.069  1.00  0.00     0.031 C 
ATOM     48  C   UNL A   1      40.050  26.008  27.864  1.00  0.00     0.029 A 
ATOM     49  C   UNL A   1      41.262  26.060  28.676  1.00  0.00     0.049 A 
ATOM     50  H   UNL A   1      41.777  27.499  30.092  1.00  0.00     0.167 HD
ATOM     51  C   UNL A   1      42.845  30.607  32.925  1.00  0.00     0.031 A 
ATOM     52  C   UNL A   1      42.262  25.158  28.630  1.00  0.00     0.031 A 
ATOM     53  C   UNL A   1      43.925  29.658  33.004  1.00  0.00     0.049 A 
ATOM     54  C   UNL A   1      43.456  25.328  29.528  1.00  0.00     0.074 A 
ATOM     55  C   UNL A   1      45.034  29.682  33.832  1.00  0.00     0.029 A 
ATOM     56  N   UNL A   1      44.030  28.513  32.230  1.00  0.00    -0.354 N 
ATOM     57  N   UNL A   1      43.706  26.272  30.402  1.00  0.00    -0.248 NA
ATOM     58  C   UNL A   1      44.503  24.298  29.439  1.00  0.00     0.031 C 
ATOM     59  C   UNL A   1      45.836  28.579  33.524  1.00  0.00     0.029 A 
ATOM     60  C   UNL A   1      45.196  27.837  32.545  1.00  0.00     0.049 A 
ATOM     61  H   UNL A   1      43.372  28.224  31.557  1.00  0.00     0.167 HD
ATOM     62  C   UNL A   1      44.921  25.937  30.985  1.00  0.00     0.074 A 
ATOM     63  C   UNL A   1      45.350  24.694  30.380  1.00  0.00     0.031 C 
ATOM     64  C   UNL A   1      45.618  26.600  31.939  1.00  0.00     0.031 A 
BRANCH  51  65
ATOM     65  C   UNL A   1      42.918  31.834  33.793  1.00  0.00    -0.014 A 
ATOM     66  C   UNL A   1      43.528  33.014  33.336  1.00  0.00     0.009 A 
ATOM     67  C   UNL A   1      42.336  31.826  35.071  1.00  0.00     0.009 A 
ATOM     68  C   UNL A   1      43.589  34.145  34.153  1.00  0.00     0.001 A 
ATOM     69  C   UNL A   1      42.370  32.967  35.874  1.00  0.00     0.001 A 
ATOM     70  C   UNL A   1      43.006  34.121  35.419  1.00  0.00     0.000 A 
ENDBRANCH  51  65
BRANCH  52  71
ATOM     71  C   UNL A   1      42.176  23.995  27.707  1.00  0.00    -0.014 A 
ATOM     72  C   UNL A   1      42.715  24.071  26.413  1.00  0.00     0.009 A 
ATOM     73  C   UNL A   1      41.541  22.810  28.108  1.00  0.00     0.009 A 
ATOM     74  C   UNL A   1      42.593  22.995  25.530  1.00  0.00     0.001 A 
ATOM     75  C   UNL A   1      41.448  21.724  27.235  1.00  0.00     0.001 A 
ATOM     76  C   UNL A   1      41.964  21.821  25.944  1.00  0.00     0.000 A 
ENDBRANCH  52  71
BRANCH  64  77
ATOM     77  C   UNL A   1      46.902  25.980  32.415  1.00  0.00    -0.014 A 
ATOM     78  C   UNL A   1      46.921  25.062  33.477  1.00  0.00     0.009 A 
ATOM     79  C   UNL A   1      48.107  26.289  31.763  1.00  0.00     0.009 A 
ATOM     80  C   UNL A   1      48.126  24.493  33.897  1.00  0.00     0.001 A 
ATOM     81  C   UNL A   1      49.304  25.697  32.165  1.00  0.00     0.001 A 
ATOM     82  C   UNL A   1      49.314  24.807  33.238  1.00  0.00     0.000 A 
ENDBRANCH  64  77
ENDBRANCH  38  39
ENDBRANCH  30  33
ENDBRANCH  28  29
ENDBRANCH  27  28
ENDBRANCH  26  27
ENDBRANCH   1  26
TORSDOF 15
ENDMDL
MODEL 3
REMARK VINA RESULT:     -10.9      2.406      7.094
REMARK SMILES O=C(Cc1ccccc1Nc1c(F)cccc1C(F)(F)F)NCCCCNC(=O)c1ccc(-c2c3nc(c(-c4ccccc4)c4ccc([nH]4)c(-c4ccccc4)c4nc(c(-c5ccccc5)c5ccc2[nH]5)C=C4)C=C3)cc1
REMARK SMILES IDX 23 1 22 2 1 3 2 4 3 6 4 7 5 8 9 9 6 10 8 11 7 12 10 13 11 15
REMARK SMILES IDX 12 16 17 17 13 18 14 19 16 20 15 21 18 22 19 23 20 24 21 25
REMARK SMILES IDX 24 26 25 27 26 28 27 29 28 30 29 32 30 33 31 34 77 35 32 36
REMARK SMILES IDX 76 37 33 38 34 39 35 40 70 41 36 42 75 43 69 44 71 45 37 46
REMARK SMILES IDX 74 47 68 48 67 49 38 51 60 52 45 53 59 54 46 55 49 56 58 57
REMARK SMILES IDX 72 58 47 59 48 60 57 62 73 63 50 64 39 65 40 66 44 67 41 68
REMARK SMILES IDX 43 69 42 70 61 71 62 72 66 73 63 74 65 75 64 76 51 77 52 78
REMARK SMILES IDX 56 79 53 80 55 81 54 82
REMARK H PARENT 22 5 10 14 27 31 71 50 49 61
REMARK Flexibility Score: inf
ROOT
ATOM      1  C   UNL A   1      36.137  21.995  24.275  1.00  0.00     0.116 C 
ENDROOT
BRANCH   1   2
ATOM      2  N   UNL A   1      34.745  22.172  23.918  1.00  0.00    -0.356 N 
ATOM      3  O   UNL A   1      34.962  24.273  23.025  1.00  0.00    -0.275 OA
ATOM      4  C   UNL A   1      34.257  23.311  23.319  1.00  0.00     0.224 C 
ATOM      5  H   UNL A   1      34.115  21.441  24.114  1.00  0.00     0.163 HD
BRANCH   4   6
ATOM      6  C   UNL A   1      32.748  23.352  23.159  1.00  0.00     0.137 C 
BRANCH   6   7
ATOM      7  C   UNL A   1      31.953  23.497  24.440  1.00  0.00    -0.015 A 
ATOM      8  C   UNL A   1      31.346  22.344  24.976  1.00  0.00     0.006 A 
ATOM      9  C   UNL A   1      31.786  24.733  25.102  1.00  0.00     0.042 A 
ATOM     10  C   UNL A   1      30.561  22.412  26.126  1.00  0.00     0.000 A 
ATOM     11  C   UNL A   1      30.970  24.780  26.245  1.00  0.00     0.026 A 
ATOM     12  C   UNL A   1      30.364  23.634  26.755  1.00  0.00     0.002 A 
BRANCH   9  13
ATOM     13  N   UNL A   1      32.457  25.893  24.642  1.00  0.00    -0.352 N 
ATOM     14  H   UNL A   1      33.174  25.732  23.986  1.00  0.00     0.167 HD
BRANCH  13  15
ATOM     15  C   UNL A   1      32.247  27.248  24.988  1.00  0.00     0.087 A 
ATOM     16  C   UNL A   1      33.194  27.846  25.844  1.00  0.00     0.147 A 
ATOM     17  C   UNL A   1      31.209  28.052  24.482  1.00  0.00     0.082 A 
ATOM     18  F   UNL A   1      34.160  27.082  26.379  1.00  0.00    -0.205 F 
ATOM     19  C   UNL A   1      33.177  29.202  26.145  1.00  0.00     0.041 A 
ATOM     20  C   UNL A   1      31.230  29.439  24.754  1.00  0.00     0.015 A 
ATOM     21  C   UNL A   1      32.207  30.010  25.570  1.00  0.00     0.004 A 
BRANCH  17  22
ATOM     22  C   UNL A   1      30.026  27.523  23.705  1.00  0.00     0.418 C 
ATOM     23  F   UNL A   1      29.213  28.545  23.291  1.00  0.00    -0.166 F 
ATOM     24  F   UNL A   1      30.379  26.865  22.570  1.00  0.00    -0.166 F 
ATOM     25  F   UNL A   1      29.201  26.702  24.408  1.00  0.00    -0.166 F 
ENDBRANCH  17  22
ENDBRANCH  13  15
ENDBRANCH   9  13
ENDBRANCH   6   7
ENDBRANCH   4   6
ENDBRANCH   1   2
BRANCH   1  26
ATOM     26  C   UNL A   1      36.376  20.681  25.023  1.00  0.00     0.023 C 
BRANCH  26  27
ATOM     27  C   UNL A   1      37.740  20.027  24.784  1.00  0.00     0.023 C 
BRANCH  27  28
ATOM     28  C   UNL A   1      38.803  20.303  25.846  1.00  0.00     0.116 C 
BRANCH  28  29
ATOM     29  N   UNL A   1      39.924  19.380  25.788  1.00  0.00    -0.352 N 
ATOM     30  C   UNL A   1      41.253  19.589  26.064  1.00  0.00     0.251 C 
ATOM     31  H   UNL A   1      39.697  18.464  25.506  1.00  0.00     0.163 HD
ATOM     32  O   UNL A   1      42.074  18.701  25.838  1.00  0.00    -0.269 OA
BRANCH  30  33
ATOM     33  C   UNL A   1      41.720  20.887  26.603  1.00  0.00     0.039 A 
ATOM     34  C   UNL A   1      42.206  21.853  25.715  1.00  0.00     0.014 A 
ATOM     35  C   UNL A   1      41.711  21.151  27.972  1.00  0.00     0.014 A 
ATOM     36  C   UNL A   1      42.596  23.111  26.190  1.00  0.00     0.010 A 
ATOM     37  C   UNL A   1      42.046  22.424  28.434  1.00  0.00     0.010 A 
ATOM     38  C   UNL A   1      42.471  23.428  27.552  1.00  0.00    -0.014 A 
BRANCH  38  39
ATOM     39  C   UNL A   1      42.745  24.803  28.062  1.00  0.00     0.031 A 
ATOM     40  C   UNL A   1      44.131  25.206  28.493  1.00  0.00     0.074 A 
ATOM     41  C   UNL A   1      41.727  25.675  28.219  1.00  0.00     0.049 A 
ATOM     42  N   UNL A   1      44.534  26.333  29.029  1.00  0.00    -0.248 NA
ATOM     43  C   UNL A   1      45.197  24.206  28.333  1.00  0.00     0.031 C 
ATOM     44  C   UNL A   1      40.322  25.409  27.901  1.00  0.00     0.029 A 
ATOM     45  N   UNL A   1      41.717  26.966  28.693  1.00  0.00    -0.354 N 
ATOM     46  C   UNL A   1      45.891  26.170  29.283  1.00  0.00     0.074 A 
ATOM     47  C   UNL A   1      46.228  24.817  28.898  1.00  0.00     0.031 C 
ATOM     48  C   UNL A   1      39.596  26.510  28.150  1.00  0.00     0.029 A 
ATOM     49  C   UNL A   1      40.471  27.547  28.689  1.00  0.00     0.049 A 
ATOM     50  H   UNL A   1      42.527  27.431  29.005  1.00  0.00     0.167 HD
ATOM     51  C   UNL A   1      46.784  27.068  29.765  1.00  0.00     0.031 A 
ATOM     52  C   UNL A   1      40.068  28.773  29.077  1.00  0.00     0.031 A 
ATOM     53  C   UNL A   1      46.465  28.423  30.131  1.00  0.00     0.049 A 
ATOM     54  C   UNL A   1      41.078  29.751  29.612  1.00  0.00     0.074 A 
ATOM     55  C   UNL A   1      47.318  29.420  30.573  1.00  0.00     0.029 A 
ATOM     56  N   UNL A   1      45.193  28.973  30.095  1.00  0.00    -0.354 N 
ATOM     57  N   UNL A   1      42.368  29.598  29.779  1.00  0.00    -0.248 NA
ATOM     58  C   UNL A   1      40.573  31.077  30.000  1.00  0.00     0.031 C 
ATOM     59  C   UNL A   1      46.555  30.558  30.853  1.00  0.00     0.029 A 
ATOM     60  C   UNL A   1      45.237  30.288  30.529  1.00  0.00     0.049 A 
ATOM     61  H   UNL A   1      44.381  28.500  29.804  1.00  0.00     0.167 HD
ATOM     62  C   UNL A   1      42.834  30.813  30.265  1.00  0.00     0.074 A 
ATOM     63  C   UNL A   1      41.691  31.698  30.349  1.00  0.00     0.031 C 
ATOM     64  C   UNL A   1      44.096  31.164  30.610  1.00  0.00     0.031 A 
BRANCH  51  65
ATOM     65  C   UNL A   1      48.209  26.609  29.924  1.00  0.00    -0.014 A 
ATOM     66  C   UNL A   1      48.644  25.983  31.104  1.00  0.00     0.009 A 
ATOM     67  C   UNL A   1      49.120  26.769  28.868  1.00  0.00     0.009 A 
ATOM     68  C   UNL A   1      49.969  25.564  31.238  1.00  0.00     0.001 A 
ATOM     69  C   UNL A   1      50.436  26.320  28.992  1.00  0.00     0.001 A 
ATOM     70  C   UNL A   1      50.862  25.729  30.181  1.00  0.00     0.000 A 
ENDBRANCH  51  65
BRANCH  52  71
ATOM     71  C   UNL A   1      38.636  29.159  28.963  1.00  0.00    -0.014 A 
ATOM     72  C   UNL A   1      38.124  29.645  27.750  1.00  0.00     0.009 A 
ATOM     73  C   UNL A   1      37.779  29.058  30.069  1.00  0.00     0.009 A 
ATOM     74  C   UNL A   1      36.790  30.050  27.655  1.00  0.00     0.001 A 
ATOM     75  C   UNL A   1      36.438  29.434  29.963  1.00  0.00     0.001 A 
ATOM     76  C   UNL A   1      35.948  29.939  28.761  1.00  0.00     0.000 A 
ENDBRANCH  52  71
BRANCH  64  77
ATOM     77  C   UNL A   1      44.319  32.575  31.077  1.00  0.00    -0.014 A 
ATOM     78  C   UNL A   1      44.623  33.605  30.174  1.00  0.00     0.009 A 
ATOM     79  C   UNL A   1      44.183  32.885  32.440  1.00  0.00     0.009 A 
ATOM     80  C   UNL A   1      44.819  34.911  30.631  1.00  0.00     0.001 A 
ATOM     81  C   UNL A   1      44.350  34.195  32.890  1.00  0.00     0.001 A 
ATOM     82  C   UNL A   1      44.677  35.205  31.987  1.00  0.00     0.000 A 
ENDBRANCH  64  77
ENDBRANCH  38  39
ENDBRANCH  30  33
ENDBRANCH  28  29
ENDBRANCH  27  28
ENDBRANCH  26  27
ENDBRANCH   1  26
TORSDOF 15
ENDMDL
