MODEL 1
REMARK VINA RESULT:     -10.5      0.000      0.000
REMARK SMILES CSCc1ccc(C(=O)N[C@@H](Cc2cnc[nH]2)C(=O)NCCCCNC(=O)c2ccc(-c3c4nc(c(-c5ccccc5)c5ccc([nH]5)c(-c5ccccc5)c5nc(c(-c6ccccc6)c6ccc3[nH]6)C=C5)C=C4)cc2)o1
REMARK SMILES IDX 21 1 20 2 18 3 19 4 11 6 10 7 8 8 9 9 7 11 4 12 5 13 76 14
REMARK SMILES IDX 6 15 3 16 2 17 1 18 12 19 13 20 14 21 17 22 15 23 16 24
REMARK SMILES IDX 22 26 23 27 24 28 25 29 26 30 27 32 28 33 29 34 75 35 30 36
REMARK SMILES IDX 74 37 31 38 32 39 33 40 68 41 34 42 73 43 67 44 69 45 35 46
REMARK SMILES IDX 72 47 66 48 65 49 36 51 58 52 43 53 57 54 44 55 47 56 56 57
REMARK SMILES IDX 70 58 45 59 46 60 55 62 71 63 48 64 37 65 38 66 42 67 39 68
REMARK SMILES IDX 41 69 40 70 59 71 60 72 64 73 61 74 63 75 62 76 49 77 50 78
REMARK SMILES IDX 54 79 51 80 53 81 52 82
REMARK H PARENT 20 5 10 10 17 25 25 31 69 50 47 61
REMARK Flexibility Score: inf
ROOT
ATOM      1  C   UNL A   1      35.988  21.606  25.850  1.00  0.00     0.116 C 
ENDROOT
BRANCH   1   2
ATOM      2  N   UNL A   1      34.858  20.717  26.018  1.00  0.00    -0.354 N 
ATOM      3  C   UNL A   1      33.579  20.840  25.562  1.00  0.00     0.242 C 
ATOM      4  O   UNL A   1      32.929  19.794  25.446  1.00  0.00    -0.273 OA
ATOM      5  H   UNL A   1      35.041  19.903  26.540  1.00  0.00     0.163 HD
BRANCH   3   6
ATOM      6  C   UNL A   1      32.948  22.183  25.124  1.00  0.00     0.177 C 
BRANCH   6   7
ATOM      7  N   UNL A   1      33.396  22.649  23.813  1.00  0.00    -0.337 N 
ATOM      8  C   UNL A   1      33.934  23.839  23.386  1.00  0.00     0.287 C 
ATOM      9  O   UNL A   1      34.393  23.789  22.239  1.00  0.00    -0.266 OA
ATOM     10  H   UNL A   1      33.293  21.981  23.098  1.00  0.00     0.164 HD
BRANCH   8  11
ATOM     11  C   UNL A   1      33.942  25.062  24.174  1.00  0.00     0.191 A 
ATOM     12  C   UNL A   1      33.554  27.248  24.363  1.00  0.00     0.114 A 
ATOM     13  C   UNL A   1      33.948  26.817  25.607  1.00  0.00     0.047 A 
ATOM     14  O   UNL A   1      33.582  26.204  23.490  1.00  0.00    -0.455 OA
ATOM     15  C   UNL A   1      34.181  25.422  25.490  1.00  0.00     0.056 A 
BRANCH  12  16
ATOM     16  C   UNL A   1      33.144  28.569  23.828  1.00  0.00     0.144 C 
BRANCH  16  17
ATOM     17  S   UNL A   1      31.424  28.987  24.255  1.00  0.00    -0.157 SA
ATOM     18  C   UNL A   1      31.678  29.544  25.960  1.00  0.00     0.085 C 
ENDBRANCH  16  17
ENDBRANCH  12  16
ENDBRANCH   8  11
ENDBRANCH   6   7
BRANCH   6  19
ATOM     19  C   UNL A   1      31.429  22.316  25.338  1.00  0.00     0.090 C 
BRANCH  19  20
ATOM     20  C   UNL A   1      30.883  23.691  25.516  1.00  0.00     0.037 A 
ATOM     21  C   UNL A   1      30.762  24.473  26.648  1.00  0.00     0.134 A 
ATOM     22  N   UNL A   1      30.432  24.492  24.494  1.00  0.00    -0.348 N 
ATOM     23  N   UNL A   1      30.145  25.660  26.354  1.00  0.00    -0.245 NA
ATOM     24  C   UNL A   1      29.966  25.650  25.054  1.00  0.00     0.196 A 
ATOM     25  H   UNL A   1      30.442  24.273  23.535  1.00  0.00     0.167 HD
ENDBRANCH  19  20
ENDBRANCH   6  19
ENDBRANCH   3   6
ENDBRANCH   1   2
BRANCH   1  26
ATOM     26  C   UNL A   1      36.914  21.234  24.703  1.00  0.00     0.023 C 
BRANCH  26  27
ATOM     27  C   UNL A   1      37.857  20.068  24.984  1.00  0.00     0.023 C 
BRANCH  27  28
ATOM     28  C   UNL A   1      39.115  20.401  25.783  1.00  0.00     0.116 C 
BRANCH  28  29
ATOM     29  N   UNL A   1      40.075  19.307  25.859  1.00  0.00    -0.352 N 
ATOM     30  C   UNL A   1      41.419  19.344  26.157  1.00  0.00     0.251 C 
ATOM     31  H   UNL A   1      39.710  18.413  25.668  1.00  0.00     0.163 HD
ATOM     32  O   UNL A   1      42.110  18.338  26.065  1.00  0.00    -0.269 OA
BRANCH  30  33
ATOM     33  C   UNL A   1      42.033  20.629  26.552  1.00  0.00     0.039 A 
ATOM     34  C   UNL A   1      42.559  21.462  25.562  1.00  0.00     0.014 A 
ATOM     35  C   UNL A   1      42.034  21.032  27.890  1.00  0.00     0.014 A 
ATOM     36  C   UNL A   1      42.989  22.746  25.902  1.00  0.00     0.010 A 
ATOM     37  C   UNL A   1      42.385  22.338  28.212  1.00  0.00     0.010 A 
ATOM     38  C   UNL A   1      42.853  23.213  27.219  1.00  0.00    -0.014 A 
BRANCH  38  39
ATOM     39  C   UNL A   1      43.165  24.619  27.579  1.00  0.00     0.031 A 
ATOM     40  C   UNL A   1      44.593  25.082  27.657  1.00  0.00     0.074 A 
ATOM     41  C   UNL A   1      42.167  25.457  27.923  1.00  0.00     0.049 A 
ATOM     42  N   UNL A   1      45.065  26.242  28.039  1.00  0.00    -0.248 NA
ATOM     43  C   UNL A   1      45.628  24.102  27.287  1.00  0.00     0.031 C 
ATOM     44  C   UNL A   1      40.740  25.120  27.942  1.00  0.00     0.029 A 
ATOM     45  N   UNL A   1      42.202  26.766  28.334  1.00  0.00    -0.354 N 
ATOM     46  C   UNL A   1      46.447  26.122  27.981  1.00  0.00     0.074 A 
ATOM     47  C   UNL A   1      46.739  24.766  27.571  1.00  0.00     0.031 C 
ATOM     48  C   UNL A   1      40.037  26.201  28.316  1.00  0.00     0.029 A 
ATOM     49  C   UNL A   1      40.962  27.294  28.600  1.00  0.00     0.049 A 
ATOM     50  H   UNL A   1      43.037  27.278  28.429  1.00  0.00     0.167 HD
ATOM     51  C   UNL A   1      47.390  27.061  28.228  1.00  0.00     0.031 A 
ATOM     52  C   UNL A   1      40.607  28.520  29.029  1.00  0.00     0.031 A 
ATOM     53  C   UNL A   1      47.105  28.417  28.612  1.00  0.00     0.049 A 
ATOM     54  C   UNL A   1      41.672  29.549  29.282  1.00  0.00     0.074 A 
ATOM     55  C   UNL A   1      47.991  29.460  28.820  1.00  0.00     0.029 A 
ATOM     56  N   UNL A   1      45.834  28.918  28.844  1.00  0.00    -0.354 N 
ATOM     57  N   UNL A   1      42.971  29.439  29.157  1.00  0.00    -0.248 NA
ATOM     58  C   UNL A   1      41.217  30.875  29.725  1.00  0.00     0.031 C 
ATOM     59  C   UNL A   1      47.257  30.584  29.213  1.00  0.00     0.029 A 
ATOM     60  C   UNL A   1      45.913  30.252  29.207  1.00  0.00     0.049 A 
ATOM     61  H   UNL A   1      44.998  28.403  28.762  1.00  0.00     0.167 HD
ATOM     62  C   UNL A   1      43.489  30.686  29.481  1.00  0.00     0.074 A 
ATOM     63  C   UNL A   1      42.362  31.540  29.796  1.00  0.00     0.031 C 
ATOM     64  C   UNL A   1      44.782  31.088  29.514  1.00  0.00     0.031 A 
BRANCH  51  65
ATOM     65  C   UNL A   1      48.827  26.645  28.088  1.00  0.00    -0.014 A 
ATOM     66  C   UNL A   1      49.487  26.720  26.851  1.00  0.00     0.009 A 
ATOM     67  C   UNL A   1      49.538  26.194  29.211  1.00  0.00     0.009 A 
ATOM     68  C   UNL A   1      50.817  26.315  26.734  1.00  0.00     0.001 A 
ATOM     69  C   UNL A   1      50.876  25.817  29.096  1.00  0.00     0.001 A 
ATOM     70  C   UNL A   1      51.512  25.867  27.856  1.00  0.00     0.000 A 
ENDBRANCH  51  65
BRANCH  52  71
ATOM     71  C   UNL A   1      39.173  28.854  29.224  1.00  0.00    -0.014 A 
ATOM     72  C   UNL A   1      38.415  29.368  28.161  1.00  0.00     0.009 A 
ATOM     73  C   UNL A   1      38.556  28.669  30.471  1.00  0.00     0.009 A 
ATOM     74  C   UNL A   1      37.076  29.714  28.348  1.00  0.00     0.001 A 
ATOM     75  C   UNL A   1      37.209  28.991  30.649  1.00  0.00     0.001 A 
ATOM     76  C   UNL A   1      36.473  29.521  29.590  1.00  0.00     0.000 A 
ENDBRANCH  52  71
BRANCH  64  77
ATOM     77  C   UNL A   1      45.046  32.521  29.871  1.00  0.00    -0.014 A 
ATOM     78  C   UNL A   1      45.062  33.524  28.888  1.00  0.00     0.009 A 
ATOM     79  C   UNL A   1      45.239  32.878  31.214  1.00  0.00     0.009 A 
ATOM     80  C   UNL A   1      45.297  34.853  29.243  1.00  0.00     0.001 A 
ATOM     81  C   UNL A   1      45.448  34.212  31.568  1.00  0.00     0.001 A 
ATOM     82  C   UNL A   1      45.485  35.197  30.582  1.00  0.00     0.000 A 
ENDBRANCH  64  77
ENDBRANCH  38  39
ENDBRANCH  30  33
ENDBRANCH  28  29
ENDBRANCH  27  28
ENDBRANCH  26  27
ENDBRANCH   1  26
TORSDOF 17
ENDMDL
MODEL 2
REMARK VINA RESULT:     -10.5      2.238      3.632
REMARK SMILES CSCc1ccc(C(=O)N[C@@H](Cc2cnc[nH]2)C(=O)NCCCCNC(=O)c2ccc(-c3c4nc(c(-c5ccccc5)c5ccc([nH]5)c(-c5ccccc5)c5nc(c(-c6ccccc6)c6ccc3[nH]6)C=C5)C=C4)cc2)o1
REMARK SMILES IDX 21 1 20 2 18 3 19 4 11 6 10 7 8 8 9 9 7 11 4 12 5 13 76 14
REMARK SMILES IDX 6 15 3 16 2 17 1 18 12 19 13 20 14 21 17 22 15 23 16 24
REMARK SMILES IDX 22 26 23 27 24 28 25 29 26 30 27 32 28 33 29 34 75 35 30 36
REMARK SMILES IDX 74 37 31 38 32 39 33 40 68 41 34 42 73 43 67 44 69 45 35 46
REMARK SMILES IDX 72 47 66 48 65 49 36 51 58 52 43 53 57 54 44 55 47 56 56 57
REMARK SMILES IDX 70 58 45 59 46 60 55 62 71 63 48 64 37 65 38 66 42 67 39 68
REMARK SMILES IDX 41 69 40 70 59 71 60 72 64 73 61 74 63 75 62 76 49 77 50 78
REMARK SMILES IDX 54 79 51 80 53 81 52 82
REMARK H PARENT 20 5 10 10 17 25 25 31 69 50 47 61
REMARK Flexibility Score: inf
ROOT
ATOM      1  C   UNL A   1      36.583  22.984  25.502  1.00  0.00     0.116 C 
ENDROOT
BRANCH   1   2
ATOM      2  N   UNL A   1      35.797  22.952  26.717  1.00  0.00    -0.354 N 
ATOM      3  C   UNL A   1      34.459  23.148  26.893  1.00  0.00     0.242 C 
ATOM      4  O   UNL A   1      33.954  22.652  27.907  1.00  0.00    -0.273 OA
ATOM      5  H   UNL A   1      36.304  22.760  27.538  1.00  0.00     0.163 HD
BRANCH   3   6
ATOM      6  C   UNL A   1      33.556  23.880  25.871  1.00  0.00     0.177 C 
BRANCH   6   7
ATOM      7  N   UNL A   1      32.141  23.528  25.972  1.00  0.00    -0.337 N 
ATOM      8  C   UNL A   1      31.450  22.373  25.694  1.00  0.00     0.287 C 
ATOM      9  O   UNL A   1      30.286  22.383  26.111  1.00  0.00    -0.266 OA
ATOM     10  H   UNL A   1      31.573  24.260  26.304  1.00  0.00     0.164 HD
BRANCH   8  11
ATOM     11  C   UNL A   1      32.001  21.250  24.951  1.00  0.00     0.191 A 
ATOM     12  C   UNL A   1      32.463  19.077  24.783  1.00  0.00     0.114 A 
ATOM     13  C   UNL A   1      32.825  19.642  23.584  1.00  0.00     0.047 A 
ATOM     14  O   UNL A   1      31.999  20.045  25.621  1.00  0.00    -0.455 OA
ATOM     15  C   UNL A   1      32.517  21.024  23.686  1.00  0.00     0.056 A 
BRANCH  12  16
ATOM     16  C   UNL A   1      32.498  17.689  25.305  1.00  0.00     0.144 C 
BRANCH  16  17
ATOM     17  S   UNL A   1      33.338  16.542  24.168  1.00  0.00    -0.157 SA
ATOM     18  C   UNL A   1      35.056  16.894  24.620  1.00  0.00     0.085 C 
ENDBRANCH  16  17
ENDBRANCH  12  16
ENDBRANCH   8  11
ENDBRANCH   6   7
BRANCH   6  19
ATOM     19  C   UNL A   1      33.805  25.391  25.713  1.00  0.00     0.090 C 
BRANCH  19  20
ATOM     20  C   UNL A   1      33.695  25.960  24.340  1.00  0.00     0.037 A 
ATOM     21  C   UNL A   1      33.769  27.265  23.896  1.00  0.00     0.134 A 
ATOM     22  N   UNL A   1      33.553  25.215  23.193  1.00  0.00    -0.348 N 
ATOM     23  N   UNL A   1      33.554  27.332  22.546  1.00  0.00    -0.245 NA
ATOM     24  C   UNL A   1      33.437  26.088  22.146  1.00  0.00     0.196 A 
ATOM     25  H   UNL A   1      33.537  24.232  23.136  1.00  0.00     0.167 HD
ENDBRANCH  19  20
ENDBRANCH   6  19
ENDBRANCH   3   6
ENDBRANCH   1   2
BRANCH   1  26
ATOM     26  C   UNL A   1      36.403  21.770  24.605  1.00  0.00     0.023 C 
BRANCH  26  27
ATOM     27  C   UNL A   1      37.629  20.871  24.477  1.00  0.00     0.023 C 
BRANCH  27  28
ATOM     28  C   UNL A   1      38.559  20.829  25.687  1.00  0.00     0.116 C 
BRANCH  28  29
ATOM     29  N   UNL A   1      39.522  19.736  25.656  1.00  0.00    -0.352 N 
ATOM     30  C   UNL A   1      40.856  19.739  25.995  1.00  0.00     0.251 C 
ATOM     31  H   UNL A   1      39.167  18.871  25.348  1.00  0.00     0.163 HD
ATOM     32  O   UNL A   1      41.555  18.753  25.800  1.00  0.00    -0.269 OA
BRANCH  30  33
ATOM     33  C   UNL A   1      41.453  20.967  26.561  1.00  0.00     0.039 A 
ATOM     34  C   UNL A   1      42.063  21.883  25.702  1.00  0.00     0.014 A 
ATOM     35  C   UNL A   1      41.354  21.236  27.928  1.00  0.00     0.014 A 
ATOM     36  C   UNL A   1      42.480  23.118  26.199  1.00  0.00     0.010 A 
ATOM     37  C   UNL A   1      41.695  22.497  28.405  1.00  0.00     0.010 A 
ATOM     38  C   UNL A   1      42.248  23.456  27.542  1.00  0.00    -0.014 A 
BRANCH  38  39
ATOM     39  C   UNL A   1      42.547  24.814  28.062  1.00  0.00     0.031 A 
ATOM     40  C   UNL A   1      43.937  25.163  28.514  1.00  0.00     0.074 A 
ATOM     41  C   UNL A   1      41.548  25.706  28.212  1.00  0.00     0.049 A 
ATOM     42  N   UNL A   1      44.371  26.262  29.077  1.00  0.00    -0.248 NA
ATOM     43  C   UNL A   1      44.970  24.128  28.338  1.00  0.00     0.031 C 
ATOM     44  C   UNL A   1      40.142  25.477  27.864  1.00  0.00     0.029 A 
ATOM     45  N   UNL A   1      41.561  26.985  28.709  1.00  0.00    -0.354 N 
ATOM     46  C   UNL A   1      45.715  26.042  29.346  1.00  0.00     0.074 A 
ATOM     47  C   UNL A   1      46.016  24.690  28.926  1.00  0.00     0.031 C 
ATOM     48  C   UNL A   1      39.436  26.588  28.131  1.00  0.00     0.029 A 
ATOM     49  C   UNL A   1      40.327  27.592  28.704  1.00  0.00     0.049 A 
ATOM     50  H   UNL A   1      42.376  27.428  29.038  1.00  0.00     0.167 HD
ATOM     51  C   UNL A   1      46.624  26.892  29.878  1.00  0.00     0.031 A 
ATOM     52  C   UNL A   1      39.954  28.817  29.118  1.00  0.00     0.031 A 
ATOM     53  C   UNL A   1      46.336  28.244  30.274  1.00  0.00     0.049 A 
ATOM     54  C   UNL A   1      40.985  29.748  29.691  1.00  0.00     0.074 A 
ATOM     55  C   UNL A   1      47.206  29.204  30.761  1.00  0.00     0.029 A 
ATOM     56  N   UNL A   1      45.081  28.827  30.227  1.00  0.00    -0.354 N 
ATOM     57  N   UNL A   1      42.265  29.546  29.876  1.00  0.00    -0.248 NA
ATOM     58  C   UNL A   1      40.517  31.079  30.102  1.00  0.00     0.031 C 
ATOM     59  C   UNL A   1      46.468  30.359  31.042  1.00  0.00     0.029 A 
ATOM     60  C   UNL A   1      45.149  30.130  30.689  1.00  0.00     0.049 A 
ATOM     61  H   UNL A   1      44.261  28.381  29.910  1.00  0.00     0.167 HD
ATOM     62  C   UNL A   1      42.762  30.732  30.400  1.00  0.00     0.074 A 
ATOM     63  C   UNL A   1      41.647  31.652  30.492  1.00  0.00     0.031 C 
ATOM     64  C   UNL A   1      44.030  31.032  30.772  1.00  0.00     0.031 A 
BRANCH  51  65
ATOM     65  C   UNL A   1      48.024  26.376  30.059  1.00  0.00    -0.014 A 
ATOM     66  C   UNL A   1      48.423  25.769  31.260  1.00  0.00     0.009 A 
ATOM     67  C   UNL A   1      48.948  26.476  29.008  1.00  0.00     0.009 A 
ATOM     68  C   UNL A   1      49.731  25.309  31.419  1.00  0.00     0.001 A 
ATOM     69  C   UNL A   1      50.247  25.989  29.160  1.00  0.00     0.001 A 
ATOM     70  C   UNL A   1      50.641  25.416  30.368  1.00  0.00     0.000 A 
ENDBRANCH  51  65
BRANCH  52  71
ATOM     71  C   UNL A   1      38.539  29.248  28.984  1.00  0.00    -0.014 A 
ATOM     72  C   UNL A   1      38.055  29.716  27.753  1.00  0.00     0.009 A 
ATOM     73  C   UNL A   1      37.667  29.202  30.083  1.00  0.00     0.009 A 
ATOM     74  C   UNL A   1      36.734  30.153  27.631  1.00  0.00     0.001 A 
ATOM     75  C   UNL A   1      36.340  29.615  29.952  1.00  0.00     0.001 A 
ATOM     76  C   UNL A   1      35.877  30.098  28.729  1.00  0.00     0.000 A 
ENDBRANCH  52  71
BRANCH  64  77
ATOM     77  C   UNL A   1      44.285  32.421  31.279  1.00  0.00    -0.014 A 
ATOM     78  C   UNL A   1      44.606  33.469  30.401  1.00  0.00     0.009 A 
ATOM     79  C   UNL A   1      44.161  32.693  32.651  1.00  0.00     0.009 A 
ATOM     80  C   UNL A   1      44.826  34.756  30.893  1.00  0.00     0.001 A 
ATOM     81  C   UNL A   1      44.358  33.987  33.136  1.00  0.00     0.001 A 
ATOM     82  C   UNL A   1      44.698  35.015  32.258  1.00  0.00     0.000 A 
ENDBRANCH  64  77
ENDBRANCH  38  39
ENDBRANCH  30  33
ENDBRANCH  28  29
ENDBRANCH  27  28
ENDBRANCH  26  27
ENDBRANCH   1  26
TORSDOF 17
ENDMDL
MODEL 3
REMARK VINA RESULT:     -10.5      1.122      6.016
REMARK SMILES CSCc1ccc(C(=O)N[C@@H](Cc2cnc[nH]2)C(=O)NCCCCNC(=O)c2ccc(-c3c4nc(c(-c5ccccc5)c5ccc([nH]5)c(-c5ccccc5)c5nc(c(-c6ccccc6)c6ccc3[nH]6)C=C5)C=C4)cc2)o1
REMARK SMILES IDX 21 1 20 2 18 3 19 4 11 6 10 7 8 8 9 9 7 11 4 12 5 13 76 14
REMARK SMILES IDX 6 15 3 16 2 17 1 18 12 19 13 20 14 21 17 22 15 23 16 24
REMARK SMILES IDX 22 26 23 27 24 28 25 29 26 30 27 32 28 33 29 34 75 35 30 36
REMARK SMILES IDX 74 37 31 38 32 39 33 40 68 41 34 42 73 43 67 44 69 45 35 46
REMARK SMILES IDX 72 47 66 48 65 49 36 51 58 52 43 53 57 54 44 55 47 56 56 57
REMARK SMILES IDX 70 58 45 59 46 60 55 62 71 63 48 64 37 65 38 66 42 67 39 68
REMARK SMILES IDX 41 69 40 70 59 71 60 72 64 73 61 74 63 75 62 76 49 77 50 78
REMARK SMILES IDX 54 79 51 80 53 81 52 82
REMARK H PARENT 20 5 10 10 17 25 25 31 69 50 47 61
REMARK Flexibility Score: inf
ROOT
ATOM      1  C   UNL A   1      36.193  21.741  25.616  1.00  0.00     0.116 C 
ENDROOT
BRANCH   1   2
ATOM      2  N   UNL A   1      35.194  20.695  25.566  1.00  0.00    -0.354 N 
ATOM      3  C   UNL A   1      33.940  20.714  25.031  1.00  0.00     0.242 C 
ATOM      4  O   UNL A   1      33.454  19.620  24.718  1.00  0.00    -0.273 OA
ATOM      5  H   UNL A   1      35.460  19.843  25.981  1.00  0.00     0.163 HD
BRANCH   3   6
ATOM      6  C   UNL A   1      33.150  22.012  24.738  1.00  0.00     0.177 C 
BRANCH   6   7
ATOM      7  N   UNL A   1      33.223  22.449  23.345  1.00  0.00    -0.337 N 
ATOM      8  C   UNL A   1      33.519  23.659  22.767  1.00  0.00     0.287 C 
ATOM      9  O   UNL A   1      33.694  23.592  21.545  1.00  0.00    -0.266 OA
ATOM     10  H   UNL A   1      33.023  21.737  22.695  1.00  0.00     0.164 HD
BRANCH   8  11
ATOM     11  C   UNL A   1      33.587  24.917  23.495  1.00  0.00     0.191 A 
ATOM     12  C   UNL A   1      32.765  26.936  23.956  1.00  0.00     0.114 A 
ATOM     13  C   UNL A   1      33.833  26.752  24.801  1.00  0.00     0.047 A 
ATOM     14  O   UNL A   1      32.634  25.851  23.145  1.00  0.00    -0.455 OA
ATOM     15  C   UNL A   1      34.348  25.460  24.517  1.00  0.00     0.056 A 
BRANCH  12  16
ATOM     16  C   UNL A   1      31.797  28.044  23.768  1.00  0.00     0.144 C 
BRANCH  16  17
ATOM     17  S   UNL A   1      30.306  27.516  22.867  1.00  0.00    -0.157 SA
ATOM     18  C   UNL A   1      29.699  29.139  22.338  1.00  0.00     0.085 C 
ENDBRANCH  16  17
ENDBRANCH  12  16
ENDBRANCH   8  11
ENDBRANCH   6   7
BRANCH   6  19
ATOM     19  C   UNL A   1      31.732  22.087  25.333  1.00  0.00     0.090 C 
BRANCH  19  20
ATOM     20  C   UNL A   1      31.240  23.428  25.756  1.00  0.00     0.037 A 
ATOM     21  C   UNL A   1      31.722  24.306  26.706  1.00  0.00     0.134 A 
ATOM     22  N   UNL A   1      30.180  24.089  25.183  1.00  0.00    -0.348 N 
ATOM     23  N   UNL A   1      30.916  25.409  26.802  1.00  0.00    -0.245 NA
ATOM     24  C   UNL A   1      30.004  25.259  25.870  1.00  0.00     0.196 A 
ATOM     25  H   UNL A   1      29.645  23.778  24.417  1.00  0.00     0.167 HD
ENDBRANCH  19  20
ENDBRANCH   6  19
ENDBRANCH   3   6
ENDBRANCH   1   2
BRANCH   1  26
ATOM     26  C   UNL A   1      37.386  21.514  24.701  1.00  0.00     0.023 C 
BRANCH  26  27
ATOM     27  C   UNL A   1      38.176  20.237  24.972  1.00  0.00     0.023 C 
BRANCH  27  28
ATOM     28  C   UNL A   1      39.363  20.372  25.921  1.00  0.00     0.116 C 
BRANCH  28  29
ATOM     29  N   UNL A   1      40.245  19.212  25.934  1.00  0.00    -0.352 N 
ATOM     30  C   UNL A   1      41.608  19.154  26.124  1.00  0.00     0.251 C 
ATOM     31  H   UNL A   1      39.803  18.345  25.785  1.00  0.00     0.163 HD
ATOM     32  O   UNL A   1      42.216  18.100  25.990  1.00  0.00    -0.269 OA
BRANCH  30  33
ATOM     33  C   UNL A   1      42.342  20.394  26.454  1.00  0.00     0.039 A 
ATOM     34  C   UNL A   1      42.891  21.152  25.417  1.00  0.00     0.014 A 
ATOM     35  C   UNL A   1      42.433  20.833  27.777  1.00  0.00     0.014 A 
ATOM     36  C   UNL A   1      43.440  22.404  25.698  1.00  0.00     0.010 A 
ATOM     37  C   UNL A   1      42.905  22.113  28.043  1.00  0.00     0.010 A 
ATOM     38  C   UNL A   1      43.400  22.918  27.005  1.00  0.00    -0.014 A 
BRANCH  38  39
ATOM     39  C   UNL A   1      43.841  24.302  27.307  1.00  0.00     0.031 A 
ATOM     40  C   UNL A   1      42.840  25.340  27.732  1.00  0.00     0.074 A 
ATOM     41  C   UNL A   1      45.128  24.651  27.111  1.00  0.00     0.049 A 
ATOM     42  N   UNL A   1      43.019  26.618  27.953  1.00  0.00    -0.248 NA
ATOM     43  C   UNL A   1      41.449  24.888  27.904  1.00  0.00     0.031 C 
ATOM     44  C   UNL A   1      46.192  23.755  26.648  1.00  0.00     0.029 A 
ATOM     45  N   UNL A   1      45.759  25.860  27.268  1.00  0.00    -0.354 N 
ATOM     46  C   UNL A   1      41.764  27.125  28.261  1.00  0.00     0.074 A 
ATOM     47  C   UNL A   1      40.825  26.028  28.156  1.00  0.00     0.031 C 
ATOM     48  C   UNL A   1      47.347  24.438  26.586  1.00  0.00     0.029 A 
ATOM     49  C   UNL A   1      47.100  25.825  26.967  1.00  0.00     0.049 A 
ATOM     50  H   UNL A   1      45.296  26.675  27.568  1.00  0.00     0.167 HD
ATOM     51  C   UNL A   1      41.423  28.386  28.618  1.00  0.00     0.031 A 
ATOM     52  C   UNL A   1      48.026  26.801  26.990  1.00  0.00     0.031 A 
ATOM     53  C   UNL A   1      42.354  29.473  28.747  1.00  0.00     0.049 A 
ATOM     54  C   UNL A   1      47.626  28.189  27.404  1.00  0.00     0.074 A 
ATOM     55  C   UNL A   1      42.114  30.770  29.168  1.00  0.00     0.029 A 
ATOM     56  N   UNL A   1      43.707  29.388  28.459  1.00  0.00    -0.354 N 
ATOM     57  N   UNL A   1      46.446  28.635  27.757  1.00  0.00    -0.248 NA
ATOM     58  C   UNL A   1      48.689  29.203  27.432  1.00  0.00     0.031 C 
ATOM     59  C   UNL A   1      43.317  31.480  29.100  1.00  0.00     0.029 A 
ATOM     60  C   UNL A   1      44.312  30.614  28.679  1.00  0.00     0.049 A 
ATOM     61  H   UNL A   1      44.169  28.577  28.146  1.00  0.00     0.167 HD
ATOM     62  C   UNL A   1      46.629  29.975  28.073  1.00  0.00     0.074 A 
ATOM     63  C   UNL A   1      48.035  30.264  27.882  1.00  0.00     0.031 C 
ATOM     64  C   UNL A   1      45.713  30.884  28.486  1.00  0.00     0.031 A 
BRANCH  51  65
ATOM     65  C   UNL A   1      39.970  28.652  28.894  1.00  0.00    -0.014 A 
ATOM     66  C   UNL A   1      39.411  28.391  30.155  1.00  0.00     0.009 A 
ATOM     67  C   UNL A   1      39.154  29.193  27.888  1.00  0.00     0.009 A 
ATOM     68  C   UNL A   1      38.057  28.630  30.392  1.00  0.00     0.001 A 
ATOM     69  C   UNL A   1      37.806  29.456  28.136  1.00  0.00     0.001 A 
ATOM     70  C   UNL A   1      37.256  29.165  29.384  1.00  0.00     0.000 A 
ENDBRANCH  51  65
BRANCH  52  71
ATOM     71  C   UNL A   1      49.436  26.498  26.633  1.00  0.00    -0.014 A 
ATOM     72  C   UNL A   1      50.310  25.963  27.592  1.00  0.00     0.009 A 
ATOM     73  C   UNL A   1      49.918  26.746  25.339  1.00  0.00     0.009 A 
ATOM     74  C   UNL A   1      51.644  25.706  27.270  1.00  0.00     0.001 A 
ATOM     75  C   UNL A   1      51.246  26.464  25.012  1.00  0.00     0.001 A 
ATOM     76  C   UNL A   1      52.109  25.953  25.979  1.00  0.00     0.000 A 
ENDBRANCH  52  71
BRANCH  64  77
ATOM     77  C   UNL A   1      46.209  32.267  28.791  1.00  0.00    -0.014 A 
ATOM     78  C   UNL A   1      46.695  32.600  30.065  1.00  0.00     0.009 A 
ATOM     79  C   UNL A   1      46.228  33.237  27.777  1.00  0.00     0.009 A 
ATOM     80  C   UNL A   1      47.164  33.889  30.324  1.00  0.00     0.001 A 
ATOM     81  C   UNL A   1      46.721  34.518  28.033  1.00  0.00     0.001 A 
ATOM     82  C   UNL A   1      47.181  34.845  29.308  1.00  0.00     0.000 A 
ENDBRANCH  64  77
ENDBRANCH  38  39
ENDBRANCH  30  33
ENDBRANCH  28  29
ENDBRANCH  27  28
ENDBRANCH  26  27
ENDBRANCH   1  26
TORSDOF 17
ENDMDL
