MODEL 1
REMARK VINA RESULT:     -11.2      0.000      0.000
REMARK SMILES N#C/C(=C/c1cccc(OCC(=O)NCCCCNC(=O)c2ccc(-c3c4nc(c(-c5ccccc5)c5ccc([nH]5)c(-c5ccccc5)c5nc(c(-c6ccccc6)c6ccc3[nH]6)C=C5)C=C4)cc2)c1)c1nc2ccccc2[nH]1
REMARK SMILES IDX 15 1 14 2 12 3 13 4 11 6 10 7 9 8 5 9 6 10 70 11 7 12 8 13
REMARK SMILES IDX 4 14 3 15 2 16 1 17 71 18 72 19 79 20 73 21 78 22 74 24
REMARK SMILES IDX 77 25 75 26 76 27 16 28 17 29 18 30 19 31 20 32 21 34 22 35
REMARK SMILES IDX 23 36 69 37 24 38 68 39 25 40 26 41 27 42 62 43 28 44 67 45
REMARK SMILES IDX 61 46 63 47 29 48 66 49 60 50 59 51 30 53 52 54 37 55 51 56
REMARK SMILES IDX 38 57 41 58 50 59 64 60 39 61 40 62 49 64 65 65 42 66 31 67
REMARK SMILES IDX 32 68 36 69 33 70 35 71 34 72 53 73 54 74 58 75 55 76 57 77
REMARK SMILES IDX 56 78 43 79 44 80 48 81 45 82 47 83 46 84
REMARK H PARENT 14 5 79 23 19 33 63 52 41 63
REMARK Flexibility Score: inf
ROOT
ATOM      1  C   UNL A   1      34.709  33.212  28.023  1.00  0.00     0.116 C 
ENDROOT
BRANCH   1   2
ATOM      2  N   UNL A   1      35.923  32.421  28.120  1.00  0.00    -0.353 N 
ATOM      3  C   UNL A   1      36.066  31.075  27.905  1.00  0.00     0.257 C 
ATOM      4  O   UNL A   1      37.193  30.598  27.741  1.00  0.00    -0.271 OA
ATOM      5  H   UNL A   1      36.740  32.910  28.369  1.00  0.00     0.163 HD
BRANCH   3   6
ATOM      6  C   UNL A   1      34.830  30.174  27.823  1.00  0.00     0.329 C 
BRANCH   6   7
ATOM      7  O   UNL A   1      34.193  30.094  26.559  1.00  0.00    -0.484 OA
BRANCH   7   8
ATOM      8  C   UNL A   1      33.725  28.875  26.148  1.00  0.00     0.120 A 
ATOM      9  C   UNL A   1      33.310  27.057  24.583  1.00  0.00    -0.021 A 
ATOM     10  C   UNL A   1      32.750  26.300  25.617  1.00  0.00     0.008 A 
ATOM     11  C   UNL A   1      33.773  28.356  24.851  1.00  0.00     0.054 A 
ATOM     12  C   UNL A   1      32.672  26.826  26.907  1.00  0.00     0.004 A 
ATOM     13  C   UNL A   1      33.160  28.107  27.168  1.00  0.00     0.046 A 
BRANCH   9  14
ATOM     14  C   UNL A   1      33.393  26.477  23.229  1.00  0.00     0.031 C 
ATOM     15  C   UNL A   1      32.460  26.585  22.262  1.00  0.00     0.095 C 
BRANCH  15  16
ATOM     16  C   UNL A   1      32.687  25.932  20.909  1.00  0.00     0.103 C 
ATOM     17  N   UNL A   1      32.875  25.390  19.786  1.00  0.00    -0.192 NA
ENDBRANCH  15  16
BRANCH  15  18
ATOM     18  C   UNL A   1      31.275  27.356  22.431  1.00  0.00     0.149 A 
ATOM     19  N   UNL A   1      30.103  27.032  22.944  1.00  0.00    -0.228 NA
ATOM     20  N   UNL A   1      31.267  28.666  22.002  1.00  0.00    -0.337 N 
ATOM     21  C   UNL A   1      29.309  28.141  22.792  1.00  0.00     0.089 A 
ATOM     22  C   UNL A   1      30.008  29.177  22.191  1.00  0.00     0.066 A 
ATOM     23  H   UNL A   1      32.036  29.153  21.624  1.00  0.00     0.168 HD
ATOM     24  C   UNL A   1      27.964  28.334  23.133  1.00  0.00     0.030 A 
ATOM     25  C   UNL A   1      29.431  30.407  21.866  1.00  0.00     0.028 A 
ATOM     26  C   UNL A   1      27.352  29.551  22.803  1.00  0.00     0.002 A 
ATOM     27  C   UNL A   1      28.075  30.565  22.171  1.00  0.00     0.002 A 
ENDBRANCH  15  18
ENDBRANCH   9  14
ENDBRANCH   7   8
ENDBRANCH   6   7
ENDBRANCH   3   6
ENDBRANCH   1   2
BRANCH   1  28
ATOM     28  C   UNL A   1      34.576  34.333  29.056  1.00  0.00     0.023 C 
BRANCH  28  29
ATOM     29  C   UNL A   1      33.373  35.281  28.964  1.00  0.00     0.023 C 
BRANCH  29  30
ATOM     30  C   UNL A   1      33.291  36.470  29.919  1.00  0.00     0.116 C 
BRANCH  30  31
ATOM     31  N   UNL A   1      32.338  36.283  30.999  1.00  0.00    -0.352 N 
ATOM     32  C   UNL A   1      32.469  35.567  32.167  1.00  0.00     0.251 C 
ATOM     33  H   UNL A   1      31.471  36.734  30.878  1.00  0.00     0.163 HD
ATOM     34  O   UNL A   1      31.481  35.418  32.895  1.00  0.00    -0.269 OA
BRANCH  32  35
ATOM     35  C   UNL A   1      33.756  34.945  32.568  1.00  0.00     0.039 A 
ATOM     36  C   UNL A   1      33.741  33.628  33.044  1.00  0.00     0.014 A 
ATOM     37  C   UNL A   1      34.965  35.648  32.541  1.00  0.00     0.014 A 
ATOM     38  C   UNL A   1      34.932  33.003  33.437  1.00  0.00     0.010 A 
ATOM     39  C   UNL A   1      36.162  35.007  32.888  1.00  0.00     0.010 A 
ATOM     40  C   UNL A   1      36.160  33.676  33.337  1.00  0.00    -0.014 A 
BRANCH  40  41
ATOM     41  C   UNL A   1      37.435  32.978  33.669  1.00  0.00     0.031 A 
ATOM     42  C   UNL A   1      38.052  31.979  32.727  1.00  0.00     0.074 A 
ATOM     43  C   UNL A   1      38.036  33.219  34.851  1.00  0.00     0.049 A 
ATOM     44  N   UNL A   1      39.165  31.299  32.855  1.00  0.00    -0.248 NA
ATOM     45  C   UNL A   1      37.315  31.696  31.487  1.00  0.00     0.031 C 
ATOM     46  C   UNL A   1      37.538  34.132  35.880  1.00  0.00     0.029 A 
ATOM     47  N   UNL A   1      39.198  32.716  35.386  1.00  0.00    -0.354 N 
ATOM     48  C   UNL A   1      39.261  30.505  31.720  1.00  0.00     0.074 A 
ATOM     49  C   UNL A   1      38.068  30.754  30.937  1.00  0.00     0.031 C 
ATOM     50  C   UNL A   1      38.396  34.141  36.912  1.00  0.00     0.029 A 
ATOM     51  C   UNL A   1      39.487  33.211  36.635  1.00  0.00     0.049 A 
ATOM     52  H   UNL A   1      39.767  32.062  34.920  1.00  0.00     0.167 HD
ATOM     53  C   UNL A   1      40.253  29.655  31.352  1.00  0.00     0.031 A 
ATOM     54  C   UNL A   1      40.509  32.948  37.473  1.00  0.00     0.031 A 
ATOM     55  C   UNL A   1      41.436  29.390  32.131  1.00  0.00     0.049 A 
ATOM     56  C   UNL A   1      41.583  31.981  37.060  1.00  0.00     0.074 A 
ATOM     57  C   UNL A   1      42.522  28.593  31.807  1.00  0.00     0.029 A 
ATOM     58  N   UNL A   1      41.681  29.898  33.397  1.00  0.00    -0.354 N 
ATOM     59  N   UNL A   1      41.701  31.306  35.943  1.00  0.00    -0.248 NA
ATOM     60  C   UNL A   1      42.671  31.751  38.021  1.00  0.00     0.031 C 
ATOM     61  C   UNL A   1      43.392  28.568  32.903  1.00  0.00     0.029 A 
ATOM     62  C   UNL A   1      42.880  29.400  33.885  1.00  0.00     0.049 A 
ATOM     63  H   UNL A   1      41.092  30.522  33.878  1.00  0.00     0.167 HD
ATOM     64  C   UNL A   1      42.880  30.581  36.060  1.00  0.00     0.074 A 
ATOM     65  C   UNL A   1      43.453  30.917  37.347  1.00  0.00     0.031 C 
ATOM     66  C   UNL A   1      43.436  29.716  35.177  1.00  0.00     0.031 A 
BRANCH  53  67
ATOM     67  C   UNL A   1      40.083  28.925  30.046  1.00  0.00    -0.014 A 
ATOM     68  C   UNL A   1      40.533  29.475  28.835  1.00  0.00     0.009 A 
ATOM     69  C   UNL A   1      39.479  27.658  30.028  1.00  0.00     0.009 A 
ATOM     70  C   UNL A   1      40.336  28.797  27.630  1.00  0.00     0.001 A 
ATOM     71  C   UNL A   1      39.312  26.967  28.826  1.00  0.00     0.001 A 
ATOM     72  C   UNL A   1      39.727  27.543  27.627  1.00  0.00     0.000 A 
ENDBRANCH  53  67
BRANCH  54  73
ATOM     73  C   UNL A   1      40.561  33.624  38.795  1.00  0.00    -0.014 A 
ATOM     74  C   UNL A   1      41.213  34.858  38.942  1.00  0.00     0.009 A 
ATOM     75  C   UNL A   1      39.932  33.050  39.911  1.00  0.00     0.009 A 
ATOM     76  C   UNL A   1      41.242  35.498  40.183  1.00  0.00     0.001 A 
ATOM     77  C   UNL A   1      39.939  33.707  41.143  1.00  0.00     0.001 A 
ATOM     78  C   UNL A   1      40.598  34.926  41.280  1.00  0.00     0.000 A 
ENDBRANCH  54  73
BRANCH  66  79
ATOM     79  C   UNL A   1      44.737  29.071  35.570  1.00  0.00    -0.014 A 
ATOM     80  C   UNL A   1      45.969  29.680  35.280  1.00  0.00     0.009 A 
ATOM     81  C   UNL A   1      44.732  27.854  36.269  1.00  0.00     0.009 A 
ATOM     82  C   UNL A   1      47.167  29.067  35.654  1.00  0.00     0.001 A 
ATOM     83  C   UNL A   1      45.931  27.258  36.668  1.00  0.00     0.001 A 
ATOM     84  C   UNL A   1      47.147  27.860  36.351  1.00  0.00     0.000 A 
ENDBRANCH  66  79
ENDBRANCH  40  41
ENDBRANCH  32  35
ENDBRANCH  30  31
ENDBRANCH  29  30
ENDBRANCH  28  29
ENDBRANCH   1  28
TORSDOF 16
ENDMDL
MODEL 2
REMARK VINA RESULT:     -11.0      0.385      5.781
REMARK SMILES N#C/C(=C/c1cccc(OCC(=O)NCCCCNC(=O)c2ccc(-c3c4nc(c(-c5ccccc5)c5ccc([nH]5)c(-c5ccccc5)c5nc(c(-c6ccccc6)c6ccc3[nH]6)C=C5)C=C4)cc2)c1)c1nc2ccccc2[nH]1
REMARK SMILES IDX 15 1 14 2 12 3 13 4 11 6 10 7 9 8 5 9 6 10 70 11 7 12 8 13
REMARK SMILES IDX 4 14 3 15 2 16 1 17 71 18 72 19 79 20 73 21 78 22 74 24
REMARK SMILES IDX 77 25 75 26 76 27 16 28 17 29 18 30 19 31 20 32 21 34 22 35
REMARK SMILES IDX 23 36 69 37 24 38 68 39 25 40 26 41 27 42 62 43 28 44 67 45
REMARK SMILES IDX 61 46 63 47 29 48 66 49 60 50 59 51 30 53 52 54 37 55 51 56
REMARK SMILES IDX 38 57 41 58 50 59 64 60 39 61 40 62 49 64 65 65 42 66 31 67
REMARK SMILES IDX 32 68 36 69 33 70 35 71 34 72 53 73 54 74 58 75 55 76 57 77
REMARK SMILES IDX 56 78 43 79 44 80 48 81 45 82 47 83 46 84
REMARK H PARENT 14 5 79 23 19 33 63 52 41 63
REMARK Flexibility Score: inf
ROOT
ATOM      1  C   UNL A   1      34.625  33.186  27.997  1.00  0.00     0.116 C 
ENDROOT
BRANCH   1   2
ATOM      2  N   UNL A   1      35.873  32.444  28.000  1.00  0.00    -0.353 N 
ATOM      3  C   UNL A   1      36.049  31.096  27.826  1.00  0.00     0.257 C 
ATOM      4  O   UNL A   1      37.172  30.654  27.567  1.00  0.00    -0.271 OA
ATOM      5  H   UNL A   1      36.691  32.973  28.144  1.00  0.00     0.163 HD
BRANCH   3   6
ATOM      6  C   UNL A   1      34.849  30.148  27.909  1.00  0.00     0.329 C 
BRANCH   6   7
ATOM      7  O   UNL A   1      33.907  30.233  26.853  1.00  0.00    -0.484 OA
BRANCH   7   8
ATOM      8  C   UNL A   1      33.324  29.075  26.413  1.00  0.00     0.120 A 
ATOM      9  C   UNL A   1      32.885  27.245  24.868  1.00  0.00    -0.021 A 
ATOM     10  C   UNL A   1      32.051  26.648  25.819  1.00  0.00     0.008 A 
ATOM     11  C   UNL A   1      33.499  28.475  25.163  1.00  0.00     0.054 A 
ATOM     12  C   UNL A   1      31.850  27.259  27.057  1.00  0.00     0.004 A 
ATOM     13  C   UNL A   1      32.486  28.466  27.350  1.00  0.00     0.046 A 
BRANCH   9  14
ATOM     14  C   UNL A   1      33.093  26.576  23.570  1.00  0.00     0.031 C 
ATOM     15  C   UNL A   1      32.325  26.721  22.472  1.00  0.00     0.095 C 
BRANCH  15  16
ATOM     16  C   UNL A   1      32.667  25.964  21.199  1.00  0.00     0.103 C 
ATOM     17  N   UNL A   1      32.951  25.335  20.143  1.00  0.00    -0.192 NA
ENDBRANCH  15  16
BRANCH  15  18
ATOM     18  C   UNL A   1      31.225  27.622  22.426  1.00  0.00     0.149 A 
ATOM     19  N   UNL A   1      31.152  28.872  22.007  1.00  0.00    -0.228 NA
ATOM     20  N   UNL A   1      29.997  27.198  22.888  1.00  0.00    -0.337 N 
ATOM     21  C   UNL A   1      29.865  29.276  22.255  1.00  0.00     0.089 A 
ATOM     22  C   UNL A   1      29.121  28.252  22.821  1.00  0.00     0.066 A 
ATOM     23  H   UNL A   1      29.785  26.292  23.210  1.00  0.00     0.168 HD
ATOM     24  C   UNL A   1      29.257  30.518  22.036  1.00  0.00     0.030 A 
ATOM     25  C   UNL A   1      27.792  28.400  23.226  1.00  0.00     0.028 A 
ATOM     26  C   UNL A   1      27.930  30.704  22.448  1.00  0.00     0.002 A 
ATOM     27  C   UNL A   1      27.216  29.662  23.042  1.00  0.00     0.002 A 
ENDBRANCH  15  18
ENDBRANCH   9  14
ENDBRANCH   7   8
ENDBRANCH   6   7
ENDBRANCH   3   6
ENDBRANCH   1   2
BRANCH   1  28
ATOM     28  C   UNL A   1      34.538  34.322  29.017  1.00  0.00     0.023 C 
BRANCH  28  29
ATOM     29  C   UNL A   1      33.326  35.263  28.971  1.00  0.00     0.023 C 
BRANCH  29  30
ATOM     30  C   UNL A   1      33.278  36.458  29.920  1.00  0.00     0.116 C 
BRANCH  30  31
ATOM     31  N   UNL A   1      32.348  36.287  31.023  1.00  0.00    -0.352 N 
ATOM     32  C   UNL A   1      32.490  35.563  32.183  1.00  0.00     0.251 C 
ATOM     33  H   UNL A   1      31.489  36.758  30.924  1.00  0.00     0.163 HD
ATOM     34  O   UNL A   1      31.517  35.432  32.935  1.00  0.00    -0.269 OA
BRANCH  32  35
ATOM     35  C   UNL A   1      33.772  34.911  32.550  1.00  0.00     0.039 A 
ATOM     36  C   UNL A   1      33.749  33.567  32.947  1.00  0.00     0.014 A 
ATOM     37  C   UNL A   1      34.985  35.606  32.569  1.00  0.00     0.014 A 
ATOM     38  C   UNL A   1      34.934  32.913  33.305  1.00  0.00     0.010 A 
ATOM     39  C   UNL A   1      36.178  34.939  32.881  1.00  0.00     0.010 A 
ATOM     40  C   UNL A   1      36.167  33.583  33.249  1.00  0.00    -0.014 A 
BRANCH  40  41
ATOM     41  C   UNL A   1      37.436  32.859  33.543  1.00  0.00     0.031 A 
ATOM     42  C   UNL A   1      38.219  33.127  34.801  1.00  0.00     0.074 A 
ATOM     43  C   UNL A   1      37.915  31.969  32.653  1.00  0.00     0.049 A 
ATOM     44  N   UNL A   1      39.331  32.571  35.218  1.00  0.00    -0.248 NA
ATOM     45  C   UNL A   1      37.692  34.164  35.701  1.00  0.00     0.031 C 
ATOM     46  C   UNL A   1      37.287  31.633  31.375  1.00  0.00     0.029 A 
ATOM     47  N   UNL A   1      39.043  31.183  32.687  1.00  0.00    -0.354 N 
ATOM     48  C   UNL A   1      39.641  33.192  36.421  1.00  0.00     0.074 A 
ATOM     49  C   UNL A   1      38.624  34.199  36.644  1.00  0.00     0.031 C 
ATOM     50  C   UNL A   1      38.023  30.696  30.757  1.00  0.00     0.029 A 
ATOM     51  C   UNL A   1      39.193  30.389  31.576  1.00  0.00     0.049 A 
ATOM     52  H   UNL A   1      39.682  31.190  33.436  1.00  0.00     0.167 HD
ATOM     53  C   UNL A   1      40.668  32.942  37.272  1.00  0.00     0.031 A 
ATOM     54  C   UNL A   1      40.162  29.514  31.241  1.00  0.00     0.031 A 
ATOM     55  C   UNL A   1      41.692  31.952  37.053  1.00  0.00     0.049 A 
ATOM     56  C   UNL A   1      41.307  29.273  32.184  1.00  0.00     0.074 A 
ATOM     57  C   UNL A   1      42.733  31.588  37.890  1.00  0.00     0.029 A 
ATOM     58  N   UNL A   1      41.817  31.182  35.907  1.00  0.00    -0.354 N 
ATOM     59  N   UNL A   1      41.536  29.806  33.359  1.00  0.00    -0.248 NA
ATOM     60  C   UNL A   1      42.321  28.298  31.758  1.00  0.00     0.031 C 
ATOM     61  C   UNL A   1      43.525  30.645  37.224  1.00  0.00     0.029 A 
ATOM     62  C   UNL A   1      42.941  30.375  35.997  1.00  0.00     0.049 A 
ATOM     63  H   UNL A   1      41.198  31.205  35.142  1.00  0.00     0.167 HD
ATOM     64  C   UNL A   1      42.711  29.224  33.818  1.00  0.00     0.074 A 
ATOM     65  C   UNL A   1      43.134  28.279  32.805  1.00  0.00     0.031 C 
ATOM     66  C   UNL A   1      43.375  29.454  34.977  1.00  0.00     0.031 A 
BRANCH  53  67
ATOM     67  C   UNL A   1      40.745  33.782  38.520  1.00  0.00    -0.014 A 
ATOM     68  C   UNL A   1      41.596  34.896  38.601  1.00  0.00     0.009 A 
ATOM     69  C   UNL A   1      39.942  33.464  39.627  1.00  0.00     0.009 A 
ATOM     70  C   UNL A   1      41.679  35.642  39.780  1.00  0.00     0.001 A 
ATOM     71  C   UNL A   1      40.002  34.230  40.792  1.00  0.00     0.001 A 
ATOM     72  C   UNL A   1      40.880  35.309  40.873  1.00  0.00     0.000 A 
ENDBRANCH  53  67
BRANCH  54  73
ATOM     73  C   UNL A   1      40.080  28.795  29.944  1.00  0.00    -0.014 A 
ATOM     74  C   UNL A   1      40.595  29.371  28.772  1.00  0.00     0.009 A 
ATOM     75  C   UNL A   1      39.511  27.513  29.878  1.00  0.00     0.009 A 
ATOM     76  C   UNL A   1      40.533  28.680  27.560  1.00  0.00     0.001 A 
ATOM     77  C   UNL A   1      39.476  26.814  28.670  1.00  0.00     0.001 A 
ATOM     78  C   UNL A   1      39.981  27.400  27.512  1.00  0.00     0.000 A 
ENDBRANCH  54  73
BRANCH  66  79
ATOM     79  C   UNL A   1      44.634  28.666  35.217  1.00  0.00    -0.014 A 
ATOM     80  C   UNL A   1      44.601  27.416  35.858  1.00  0.00     0.009 A 
ATOM     81  C   UNL A   1      45.868  29.163  34.767  1.00  0.00     0.009 A 
ATOM     82  C   UNL A   1      45.780  26.698  36.071  1.00  0.00     0.001 A 
ATOM     83  C   UNL A   1      47.041  28.429  34.956  1.00  0.00     0.001 A 
ATOM     84  C   UNL A   1      46.997  27.203  35.616  1.00  0.00     0.000 A 
ENDBRANCH  66  79
ENDBRANCH  40  41
ENDBRANCH  32  35
ENDBRANCH  30  31
ENDBRANCH  29  30
ENDBRANCH  28  29
ENDBRANCH   1  28
TORSDOF 16
ENDMDL
MODEL 3
REMARK VINA RESULT:     -10.9      1.747      6.579
REMARK SMILES N#C/C(=C/c1cccc(OCC(=O)NCCCCNC(=O)c2ccc(-c3c4nc(c(-c5ccccc5)c5ccc([nH]5)c(-c5ccccc5)c5nc(c(-c6ccccc6)c6ccc3[nH]6)C=C5)C=C4)cc2)c1)c1nc2ccccc2[nH]1
REMARK SMILES IDX 15 1 14 2 12 3 13 4 11 6 10 7 9 8 5 9 6 10 70 11 7 12 8 13
REMARK SMILES IDX 4 14 3 15 2 16 1 17 71 18 72 19 79 20 73 21 78 22 74 24
REMARK SMILES IDX 77 25 75 26 76 27 16 28 17 29 18 30 19 31 20 32 21 34 22 35
REMARK SMILES IDX 23 36 69 37 24 38 68 39 25 40 26 41 27 42 62 43 28 44 67 45
REMARK SMILES IDX 61 46 63 47 29 48 66 49 60 50 59 51 30 53 52 54 37 55 51 56
REMARK SMILES IDX 38 57 41 58 50 59 64 60 39 61 40 62 49 64 65 65 42 66 31 67
REMARK SMILES IDX 32 68 36 69 33 70 35 71 34 72 53 73 54 74 58 75 55 76 57 77
REMARK SMILES IDX 56 78 43 79 44 80 48 81 45 82 47 83 46 84
REMARK H PARENT 14 5 79 23 19 33 63 52 41 63
REMARK Flexibility Score: inf
ROOT
ATOM      1  C   UNL A   1      34.177  32.427  27.928  1.00  0.00     0.116 C 
ENDROOT
BRANCH   1   2
ATOM      2  N   UNL A   1      35.332  31.557  28.058  1.00  0.00    -0.353 N 
ATOM      3  C   UNL A   1      35.456  30.259  27.639  1.00  0.00     0.257 C 
ATOM      4  O   UNL A   1      36.576  29.747  27.557  1.00  0.00    -0.271 OA
ATOM      5  H   UNL A   1      36.120  31.947  28.501  1.00  0.00     0.163 HD
BRANCH   3   6
ATOM      6  C   UNL A   1      34.213  29.461  27.230  1.00  0.00     0.329 C 
BRANCH   6   7
ATOM      7  O   UNL A   1      33.613  29.822  25.997  1.00  0.00    -0.484 OA
BRANCH   7   8
ATOM      8  C   UNL A   1      32.668  28.983  25.470  1.00  0.00     0.120 A 
ATOM      9  C   UNL A   1      31.111  27.111  25.444  1.00  0.00    -0.021 A 
ATOM     10  C   UNL A   1      30.678  27.495  24.171  1.00  0.00     0.008 A 
ATOM     11  C   UNL A   1      32.127  27.847  26.078  1.00  0.00     0.054 A 
ATOM     12  C   UNL A   1      31.236  28.612  23.548  1.00  0.00     0.004 A 
ATOM     13  C   UNL A   1      32.224  29.351  24.197  1.00  0.00     0.046 A 
BRANCH   9  14
ATOM     14  C   UNL A   1      30.499  25.935  26.089  1.00  0.00     0.031 C 
ATOM     15  C   UNL A   1      30.986  24.678  26.071  1.00  0.00     0.095 C 
BRANCH  15  16
ATOM     16  C   UNL A   1      30.242  23.563  26.787  1.00  0.00     0.103 C 
ATOM     17  N   UNL A   1      29.624  22.638  27.382  1.00  0.00    -0.192 NA
ENDBRANCH  15  16
BRANCH  15  18
ATOM     18  C   UNL A   1      32.227  24.352  25.456  1.00  0.00     0.149 A 
ATOM     19  N   UNL A   1      32.500  23.955  24.226  1.00  0.00    -0.228 NA
ATOM     20  N   UNL A   1      33.382  24.426  26.204  1.00  0.00    -0.337 N 
ATOM     21  C   UNL A   1      33.852  23.719  24.201  1.00  0.00     0.089 A 
ATOM     22  C   UNL A   1      34.429  23.992  25.432  1.00  0.00     0.066 A 
ATOM     23  H   UNL A   1      33.444  24.739  27.136  1.00  0.00     0.168 HD
ATOM     24  C   UNL A   1      34.661  23.252  23.158  1.00  0.00     0.030 A 
ATOM     25  C   UNL A   1      35.783  23.789  25.708  1.00  0.00     0.028 A 
ATOM     26  C   UNL A   1      36.021  23.020  23.409  1.00  0.00     0.002 A 
ATOM     27  C   UNL A   1      36.567  23.277  24.668  1.00  0.00     0.002 A 
ENDBRANCH  15  18
ENDBRANCH   9  14
ENDBRANCH   7   8
ENDBRANCH   6   7
ENDBRANCH   3   6
ENDBRANCH   1   2
BRANCH   1  28
ATOM     28  C   UNL A   1      34.332  33.817  28.547  1.00  0.00     0.023 C 
BRANCH  28  29
ATOM     29  C   UNL A   1      33.070  34.639  28.841  1.00  0.00     0.023 C 
BRANCH  29  30
ATOM     30  C   UNL A   1      33.212  35.999  29.521  1.00  0.00     0.116 C 
BRANCH  30  31
ATOM     31  N   UNL A   1      32.409  36.134  30.724  1.00  0.00    -0.352 N 
ATOM     32  C   UNL A   1      32.638  35.644  31.988  1.00  0.00     0.251 C 
ATOM     33  H   UNL A   1      31.578  36.652  30.619  1.00  0.00     0.163 HD
ATOM     34  O   UNL A   1      31.754  35.752  32.846  1.00  0.00    -0.269 OA
BRANCH  32  35
ATOM     35  C   UNL A   1      33.908  34.964  32.349  1.00  0.00     0.039 A 
ATOM     36  C   UNL A   1      33.846  33.660  32.859  1.00  0.00     0.014 A 
ATOM     37  C   UNL A   1      35.149  35.601  32.253  1.00  0.00     0.014 A 
ATOM     38  C   UNL A   1      35.019  32.983  33.215  1.00  0.00     0.010 A 
ATOM     39  C   UNL A   1      36.326  34.906  32.565  1.00  0.00     0.010 A 
ATOM     40  C   UNL A   1      36.275  33.587  33.046  1.00  0.00    -0.014 A 
BRANCH  40  41
ATOM     41  C   UNL A   1      37.525  32.831  33.341  1.00  0.00     0.031 A 
ATOM     42  C   UNL A   1      38.302  33.065  34.610  1.00  0.00     0.074 A 
ATOM     43  C   UNL A   1      37.992  31.942  32.443  1.00  0.00     0.049 A 
ATOM     44  N   UNL A   1      39.398  32.478  35.028  1.00  0.00    -0.248 NA
ATOM     45  C   UNL A   1      37.791  34.100  35.519  1.00  0.00     0.031 C 
ATOM     46  C   UNL A   1      37.368  31.637  31.156  1.00  0.00     0.029 A 
ATOM     47  N   UNL A   1      39.101  31.131  32.477  1.00  0.00    -0.354 N 
ATOM     48  C   UNL A   1      39.711  33.076  36.243  1.00  0.00     0.074 A 
ATOM     49  C   UNL A   1      38.715  34.103  36.470  1.00  0.00     0.031 C 
ATOM     50  C   UNL A   1      38.088  30.692  30.531  1.00  0.00     0.029 A 
ATOM     51  C   UNL A   1      39.244  30.348  31.356  1.00  0.00     0.049 A 
ATOM     52  H   UNL A   1      39.733  31.113  33.230  1.00  0.00     0.167 HD
ATOM     53  C   UNL A   1      40.724  32.791  37.098  1.00  0.00     0.031 A 
ATOM     54  C   UNL A   1      40.195  29.457  31.018  1.00  0.00     0.031 A 
ATOM     55  C   UNL A   1      41.728  31.782  36.874  1.00  0.00     0.049 A 
ATOM     56  C   UNL A   1      41.326  29.177  31.967  1.00  0.00     0.074 A 
ATOM     57  C   UNL A   1      42.753  31.383  37.716  1.00  0.00     0.029 A 
ATOM     58  N   UNL A   1      41.846  31.024  35.720  1.00  0.00    -0.354 N 
ATOM     59  N   UNL A   1      41.557  29.689  33.151  1.00  0.00    -0.248 NA
ATOM     60  C   UNL A   1      42.322  28.185  31.536  1.00  0.00     0.031 C 
ATOM     61  C   UNL A   1      43.530  30.432  37.044  1.00  0.00     0.029 A 
ATOM     62  C   UNL A   1      42.951  30.190  35.808  1.00  0.00     0.049 A 
ATOM     63  H   UNL A   1      41.235  31.071  34.949  1.00  0.00     0.167 HD
ATOM     64  C   UNL A   1      42.714  29.074  33.612  1.00  0.00     0.074 A 
ATOM     65  C   UNL A   1      43.126  28.134  32.591  1.00  0.00     0.031 C 
ATOM     66  C   UNL A   1      43.373  29.274  34.779  1.00  0.00     0.031 A 
BRANCH  53  67
ATOM     67  C   UNL A   1      40.810  33.612  38.359  1.00  0.00    -0.014 A 
ATOM     68  C   UNL A   1      41.545  34.808  38.405  1.00  0.00     0.009 A 
ATOM     69  C   UNL A   1      40.130  33.193  39.512  1.00  0.00     0.009 A 
ATOM     70  C   UNL A   1      41.640  35.537  39.593  1.00  0.00     0.001 A 
ATOM     71  C   UNL A   1      40.199  33.940  40.690  1.00  0.00     0.001 A 
ATOM     72  C   UNL A   1      40.965  35.103  40.733  1.00  0.00     0.000 A 
ENDBRANCH  53  67
BRANCH  54  73
ATOM     73  C   UNL A   1      40.109  28.757  29.710  1.00  0.00    -0.014 A 
ATOM     74  C   UNL A   1      40.712  29.300  28.566  1.00  0.00     0.009 A 
ATOM     75  C   UNL A   1      39.446  27.523  29.609  1.00  0.00     0.009 A 
ATOM     76  C   UNL A   1      40.644  28.627  27.344  1.00  0.00     0.001 A 
ATOM     77  C   UNL A   1      39.404  26.839  28.392  1.00  0.00     0.001 A 
ATOM     78  C   UNL A   1      39.997  27.393  27.260  1.00  0.00     0.000 A 
ENDBRANCH  54  73
BRANCH  66  79
ATOM     79  C   UNL A   1      44.612  28.455  35.020  1.00  0.00    -0.014 A 
ATOM     80  C   UNL A   1      44.543  27.189  35.624  1.00  0.00     0.009 A 
ATOM     81  C   UNL A   1      45.863  28.939  34.606  1.00  0.00     0.009 A 
ATOM     82  C   UNL A   1      45.703  26.442  35.838  1.00  0.00     0.001 A 
ATOM     83  C   UNL A   1      47.018  28.177  34.795  1.00  0.00     0.001 A 
ATOM     84  C   UNL A   1      46.939  26.934  35.419  1.00  0.00     0.000 A 
ENDBRANCH  66  79
ENDBRANCH  40  41
ENDBRANCH  32  35
ENDBRANCH  30  31
ENDBRANCH  29  30
ENDBRANCH  28  29
ENDBRANCH   1  28
TORSDOF 16
ENDMDL
