MODEL 1
REMARK VINA RESULT:     -12.2      0.000      0.000
REMARK SMILES O=C(NCCCCNC(=O)[C@H]1CCCN(C(=O)C2CC[NH+](Cc3ccco3)CC2)C1)c1ccc(-c2c3nc(c(-c4ccccc4)c4ccc([nH]4)c(-c4ccccc4)c4nc(c(-c5ccccc5)c5ccc2[nH]5)C=C4)C=C3)cc1
REMARK SMILES IDX 6 1 5 2 4 3 3 4 1 5 2 6 31 8 32 9 78 10 33 11 77 12 34 13
REMARK SMILES IDX 35 14 36 15 71 16 37 17 76 18 70 19 72 20 38 21 75 22 69 23
REMARK SMILES IDX 68 24 39 26 61 27 46 28 60 29 47 30 50 31 59 32 73 33 48 34
REMARK SMILES IDX 49 35 58 37 74 38 51 39 40 40 41 41 45 42 42 43 44 44 43 45
REMARK SMILES IDX 62 46 63 47 67 48 64 49 66 50 65 51 52 52 53 53 57 54 54 55
REMARK SMILES IDX 56 56 55 57 7 58 8 59 9 60 10 62 11 63 12 64 30 65 13 66
REMARK SMILES IDX 15 67 14 68 16 69 17 70 18 71 19 72 29 73 20 74 28 75 21 76
REMARK SMILES IDX 22 78 23 79 24 80 27 81 25 82 26 83
REMARK H PARENT 3 7 72 25 50 36 8 61 21 77
REMARK Flexibility Score: inf
ROOT
ATOM      1  C   UNL A   1      31.783  30.325  26.704  1.00  0.00     0.023 C 
ENDROOT
BRANCH   1   2
ATOM      2  C   UNL A   1      31.563  31.836  26.674  1.00  0.00     0.023 C 
BRANCH   2   3
ATOM      3  C   UNL A   1      32.710  32.639  27.257  1.00  0.00     0.116 C 
BRANCH   3   4
ATOM      4  N   UNL A   1      32.343  34.011  27.572  1.00  0.00    -0.352 N 
ATOM      5  O   UNL A   1      32.502  35.954  28.727  1.00  0.00    -0.269 OA
ATOM      6  C   UNL A   1      32.935  34.841  28.493  1.00  0.00     0.251 C 
ATOM      7  H   UNL A   1      31.586  34.387  27.068  1.00  0.00     0.163 HD
BRANCH   6   8
ATOM      8  C   UNL A   1      34.095  34.306  29.224  1.00  0.00     0.039 A 
ATOM      9  C   UNL A   1      35.381  34.533  28.731  1.00  0.00     0.014 A 
ATOM     10  C   UNL A   1      33.872  33.479  30.324  1.00  0.00     0.014 A 
ATOM     11  C   UNL A   1      36.444  33.829  29.270  1.00  0.00     0.010 A 
ATOM     12  C   UNL A   1      34.956  32.840  30.920  1.00  0.00     0.010 A 
ATOM     13  C   UNL A   1      36.244  32.995  30.383  1.00  0.00    -0.014 A 
BRANCH  13  14
ATOM     14  C   UNL A   1      37.416  32.369  31.030  1.00  0.00     0.031 A 
ATOM     15  C   UNL A   1      37.936  32.857  32.349  1.00  0.00     0.074 A 
ATOM     16  C   UNL A   1      37.998  31.332  30.399  1.00  0.00     0.049 A 
ATOM     17  N   UNL A   1      38.961  32.420  33.035  1.00  0.00    -0.248 NA
ATOM     18  C   UNL A   1      37.225  33.981  32.977  1.00  0.00     0.031 C 
ATOM     19  C   UNL A   1      37.568  30.782  29.109  1.00  0.00     0.029 A 
ATOM     20  N   UNL A   1      39.056  30.544  30.760  1.00  0.00    -0.354 N 
ATOM     21  C   UNL A   1      39.034  33.228  34.163  1.00  0.00     0.074 A 
ATOM     22  C   UNL A   1      37.960  34.192  34.062  1.00  0.00     0.031 C 
ATOM     23  C   UNL A   1      38.320  29.714  28.814  1.00  0.00     0.029 A 
ATOM     24  C   UNL A   1      39.329  29.552  29.851  1.00  0.00     0.049 A 
ATOM     25  H   UNL A   1      39.572  30.676  31.588  1.00  0.00     0.167 HD
ATOM     26  C   UNL A   1      39.922  33.166  35.184  1.00  0.00     0.031 A 
ATOM     27  C   UNL A   1      40.301  28.624  29.841  1.00  0.00     0.031 A 
ATOM     28  C   UNL A   1      40.988  32.201  35.270  1.00  0.00     0.049 A 
ATOM     29  C   UNL A   1      41.285  28.602  30.969  1.00  0.00     0.074 A 
ATOM     30  C   UNL A   1      41.927  32.040  36.274  1.00  0.00     0.029 A 
ATOM     31  N   UNL A   1      41.256  31.235  34.311  1.00  0.00    -0.354 N 
ATOM     32  N   UNL A   1      41.332  29.363  32.036  1.00  0.00    -0.248 NA
ATOM     33  C   UNL A   1      42.353  27.598  30.889  1.00  0.00     0.031 C 
ATOM     34  C   UNL A   1      42.793  31.005  35.900  1.00  0.00     0.029 A 
ATOM     35  C   UNL A   1      42.361  30.488  34.688  1.00  0.00     0.049 A 
ATOM     36  H   UNL A   1      40.739  31.100  33.485  1.00  0.00     0.167 HD
ATOM     37  C   UNL A   1      42.428  28.924  32.762  1.00  0.00     0.074 A 
ATOM     38  C   UNL A   1      43.001  27.814  32.025  1.00  0.00     0.031 C 
ATOM     39  C   UNL A   1      42.919  29.398  33.932  1.00  0.00     0.031 A 
BRANCH  26  40
ATOM     40  C   UNL A   1      39.797  34.190  36.279  1.00  0.00    -0.014 A 
ATOM     41  C   UNL A   1      39.116  33.905  37.472  1.00  0.00     0.009 A 
ATOM     42  C   UNL A   1      40.412  35.443  36.130  1.00  0.00     0.009 A 
ATOM     43  C   UNL A   1      39.032  34.866  38.484  1.00  0.00     0.001 A 
ATOM     44  C   UNL A   1      40.346  36.392  37.153  1.00  0.00     0.001 A 
ATOM     45  C   UNL A   1      39.650  36.105  38.325  1.00  0.00     0.000 A 
ENDBRANCH  26  40
BRANCH  27  46
ATOM     46  C   UNL A   1      40.388  27.666  28.713  1.00  0.00    -0.014 A 
ATOM     47  C   UNL A   1      39.697  26.447  28.757  1.00  0.00     0.009 A 
ATOM     48  C   UNL A   1      41.139  27.982  27.568  1.00  0.00     0.009 A 
ATOM     49  C   UNL A   1      39.768  25.557  27.683  1.00  0.00     0.001 A 
ATOM     50  C   UNL A   1      41.183  27.105  26.485  1.00  0.00     0.001 A 
ATOM     51  C   UNL A   1      40.505  25.889  26.547  1.00  0.00     0.000 A 
ENDBRANCH  27  46
BRANCH  39  52
ATOM     52  C   UNL A   1      44.124  28.697  34.487  1.00  0.00    -0.014 A 
ATOM     53  C   UNL A   1      45.422  29.129  34.175  1.00  0.00     0.009 A 
ATOM     54  C   UNL A   1      43.955  27.599  35.344  1.00  0.00     0.009 A 
ATOM     55  C   UNL A   1      46.531  28.450  34.683  1.00  0.00     0.001 A 
ATOM     56  C   UNL A   1      45.065  26.940  35.872  1.00  0.00     0.001 A 
ATOM     57  C   UNL A   1      46.350  27.359  35.533  1.00  0.00     0.000 A 
ENDBRANCH  39  52
ENDBRANCH  13  14
ENDBRANCH   6   8
ENDBRANCH   3   4
ENDBRANCH   2   3
ENDBRANCH   1   2
BRANCH   1  58
ATOM     58  C   UNL A   1      33.114  29.879  26.100  1.00  0.00     0.116 C 
BRANCH  58  59
ATOM     59  N   UNL A   1      33.009  29.778  24.661  1.00  0.00    -0.356 N 
ATOM     60  C   UNL A   1      32.474  28.768  23.926  1.00  0.00     0.224 C 
ATOM     61  H   UNL A   1      33.372  30.538  24.149  1.00  0.00     0.163 HD
ATOM     62  O   UNL A   1      32.615  28.802  22.704  1.00  0.00    -0.275 OA
BRANCH  60  63
ATOM     63  C   UNL A   1      31.723  27.664  24.644  1.00  0.00     0.098 C 
ATOM     64  C   UNL A   1      30.363  27.453  23.955  1.00  0.00     0.017 C 
ATOM     65  C   UNL A   1      32.576  26.379  24.706  1.00  0.00     0.133 C 
ATOM     66  C   UNL A   1      29.674  26.223  24.514  1.00  0.00     0.022 C 
ATOM     67  N   UNL A   1      31.793  25.220  25.134  1.00  0.00    -0.342 N 
ATOM     68  C   UNL A   1      30.616  25.051  24.327  1.00  0.00     0.119 C 
BRANCH  67  69
ATOM     69  C   UNL A   1      32.219  24.410  26.169  1.00  0.00     0.226 C 
ATOM     70  O   UNL A   1      31.505  24.287  27.176  1.00  0.00    -0.275 OA
BRANCH  69  71
ATOM     71  C   UNL A   1      33.572  23.646  26.169  1.00  0.00     0.090 C 
ATOM     72  C   UNL A   1      33.921  22.940  24.865  1.00  0.00     0.075 C 
ATOM     73  C   UNL A   1      33.963  22.800  27.379  1.00  0.00     0.075 C 
ATOM     74  C   UNL A   1      33.362  21.530  24.788  1.00  0.00     0.263 C 
ATOM     75  C   UNL A   1      33.755  21.278  27.267  1.00  0.00     0.263 C 
ATOM     76  N   UNL A   1      33.686  20.681  25.932  1.00  0.00    -0.329 N 
ATOM     77  H   UNL A   1      34.678  20.523  25.748  1.00  0.00     0.348 HD
BRANCH  76  78
ATOM     78  C   UNL A   1      33.002  19.363  25.915  1.00  0.00     0.338 C 
BRANCH  78  79
ATOM     79  C   UNL A   1      33.283  18.464  24.739  1.00  0.00     0.157 A 
ATOM     80  C   UNL A   1      34.298  17.568  24.447  1.00  0.00     0.052 A 
ATOM     81  O   UNL A   1      32.381  18.471  23.709  1.00  0.00    -0.463 OA
ATOM     82  C   UNL A   1      34.025  17.038  23.162  1.00  0.00     0.042 A 
ATOM     83  C   UNL A   1      32.836  17.602  22.766  1.00  0.00     0.195 A 
ENDBRANCH  78  79
ENDBRANCH  76  78
ENDBRANCH  69  71
ENDBRANCH  67  69
ENDBRANCH  60  63
ENDBRANCH  58  59
ENDBRANCH   1  58
TORSDOF 15
ENDMDL
MODEL 2
REMARK VINA RESULT:     -12.2      4.754     10.614
REMARK SMILES O=C(NCCCCNC(=O)[C@H]1CCCN(C(=O)C2CC[NH+](Cc3ccco3)CC2)C1)c1ccc(-c2c3nc(c(-c4ccccc4)c4ccc([nH]4)c(-c4ccccc4)c4nc(c(-c5ccccc5)c5ccc2[nH]5)C=C4)C=C3)cc1
REMARK SMILES IDX 6 1 5 2 4 3 3 4 1 5 2 6 31 8 32 9 78 10 33 11 77 12 34 13
REMARK SMILES IDX 35 14 36 15 71 16 37 17 76 18 70 19 72 20 38 21 75 22 69 23
REMARK SMILES IDX 68 24 39 26 61 27 46 28 60 29 47 30 50 31 59 32 73 33 48 34
REMARK SMILES IDX 49 35 58 37 74 38 51 39 40 40 41 41 45 42 42 43 44 44 43 45
REMARK SMILES IDX 62 46 63 47 67 48 64 49 66 50 65 51 52 52 53 53 57 54 54 55
REMARK SMILES IDX 56 56 55 57 7 58 8 59 9 60 10 62 11 63 12 64 30 65 13 66
REMARK SMILES IDX 15 67 14 68 16 69 17 70 18 71 19 72 29 73 20 74 28 75 21 76
REMARK SMILES IDX 22 78 23 79 24 80 27 81 25 82 26 83
REMARK H PARENT 3 7 72 25 50 36 8 61 21 77
REMARK Flexibility Score: inf
ROOT
ATOM      1  C   UNL A   1      37.265  21.101  24.587  1.00  0.00     0.023 C 
ENDROOT
BRANCH   1   2
ATOM      2  C   UNL A   1      38.043  19.858  25.011  1.00  0.00     0.023 C 
BRANCH   2   3
ATOM      3  C   UNL A   1      39.265  20.154  25.859  1.00  0.00     0.116 C 
BRANCH   3   4
ATOM      4  N   UNL A   1      40.236  19.070  25.858  1.00  0.00    -0.352 N 
ATOM      5  O   UNL A   1      42.322  18.196  25.999  1.00  0.00    -0.269 OA
ATOM      6  C   UNL A   1      41.587  19.161  26.092  1.00  0.00     0.251 C 
ATOM      7  H   UNL A   1      39.885  18.171  25.669  1.00  0.00     0.163 HD
BRANCH   6   8
ATOM      8  C   UNL A   1      42.118  20.495  26.419  1.00  0.00     0.039 A 
ATOM      9  C   UNL A   1      42.219  20.885  27.756  1.00  0.00     0.014 A 
ATOM     10  C   UNL A   1      42.390  21.381  25.379  1.00  0.00     0.014 A 
ATOM     11  C   UNL A   1      42.478  22.212  28.053  1.00  0.00     0.010 A 
ATOM     12  C   UNL A   1      42.738  22.695  25.684  1.00  0.00     0.010 A 
ATOM     13  C   UNL A   1      42.762  23.122  27.021  1.00  0.00    -0.014 A 
BRANCH  13  14
ATOM     14  C   UNL A   1      43.178  24.496  27.372  1.00  0.00     0.031 A 
ATOM     15  C   UNL A   1      44.614  24.924  27.293  1.00  0.00     0.074 A 
ATOM     16  C   UNL A   1      42.221  25.360  27.754  1.00  0.00     0.049 A 
ATOM     17  N   UNL A   1      45.136  26.088  27.580  1.00  0.00    -0.248 NA
ATOM     18  C   UNL A   1      45.590  23.919  26.844  1.00  0.00     0.031 C 
ATOM     19  C   UNL A   1      40.793  25.041  27.864  1.00  0.00     0.029 A 
ATOM     20  N   UNL A   1      42.293  26.682  28.099  1.00  0.00    -0.354 N 
ATOM     21  C   UNL A   1      46.503  25.953  27.370  1.00  0.00     0.074 A 
ATOM     22  C   UNL A   1      46.732  24.588  26.947  1.00  0.00     0.031 C 
ATOM     23  C   UNL A   1      40.119  26.149  28.197  1.00  0.00     0.029 A 
ATOM     24  C   UNL A   1      41.072  27.233  28.398  1.00  0.00     0.049 A 
ATOM     25  H   UNL A   1      43.137  27.188  28.132  1.00  0.00     0.167 HD
ATOM     26  C   UNL A   1      47.472  26.887  27.522  1.00  0.00     0.031 A 
ATOM     27  C   UNL A   1      40.753  28.471  28.812  1.00  0.00     0.031 A 
ATOM     28  C   UNL A   1      47.229  28.242  27.945  1.00  0.00     0.049 A 
ATOM     29  C   UNL A   1      41.851  29.471  28.999  1.00  0.00     0.074 A 
ATOM     30  C   UNL A   1      48.139  29.272  28.108  1.00  0.00     0.029 A 
ATOM     31  N   UNL A   1      45.982  28.753  28.276  1.00  0.00    -0.354 N 
ATOM     32  N   UNL A   1      43.136  29.332  28.782  1.00  0.00    -0.248 NA
ATOM     33  C   UNL A   1      41.456  30.795  29.493  1.00  0.00     0.031 C 
ATOM     34  C   UNL A   1      47.448  30.394  28.583  1.00  0.00     0.029 A 
ATOM     35  C   UNL A   1      46.102  30.078  28.665  1.00  0.00     0.049 A 
ATOM     36  H   UNL A   1      45.137  28.249  28.240  1.00  0.00     0.167 HD
ATOM     37  C   UNL A   1      43.705  30.555  29.103  1.00  0.00     0.074 A 
ATOM     38  C   UNL A   1      42.620  31.428  29.505  1.00  0.00     0.031 C 
ATOM     39  C   UNL A   1      45.009  30.922  29.072  1.00  0.00     0.031 A 
BRANCH  26  40
ATOM     40  C   UNL A   1      48.891  26.467  27.256  1.00  0.00    -0.014 A 
ATOM     41  C   UNL A   1      49.723  26.008  28.288  1.00  0.00     0.009 A 
ATOM     42  C   UNL A   1      49.388  26.490  25.943  1.00  0.00     0.009 A 
ATOM     43  C   UNL A   1      51.033  25.604  28.014  1.00  0.00     0.001 A 
ATOM     44  C   UNL A   1      50.689  26.062  25.668  1.00  0.00     0.001 A 
ATOM     45  C   UNL A   1      51.512  25.628  26.705  1.00  0.00     0.000 A 
ENDBRANCH  26  40
BRANCH  27  46
ATOM     46  C   UNL A   1      39.336  28.809  29.090  1.00  0.00    -0.014 A 
ATOM     47  C   UNL A   1      38.794  28.614  30.368  1.00  0.00     0.009 A 
ATOM     48  C   UNL A   1      38.527  29.363  28.083  1.00  0.00     0.009 A 
ATOM     49  C   UNL A   1      37.463  28.952  30.628  1.00  0.00     0.001 A 
ATOM     50  C   UNL A   1      37.208  29.728  28.355  1.00  0.00     0.001 A 
ATOM     51  C   UNL A   1      36.675  29.514  29.624  1.00  0.00     0.000 A 
ENDBRANCH  27  46
BRANCH  39  52
ATOM     52  C   UNL A   1      45.318  32.336  29.466  1.00  0.00    -0.014 A 
ATOM     53  C   UNL A   1      45.558  32.680  30.805  1.00  0.00     0.009 A 
ATOM     54  C   UNL A   1      45.381  33.333  28.481  1.00  0.00     0.009 A 
ATOM     55  C   UNL A   1      45.822  34.006  31.155  1.00  0.00     0.001 A 
ATOM     56  C   UNL A   1      45.671  34.652  28.830  1.00  0.00     0.001 A 
ATOM     57  C   UNL A   1      45.881  34.988  30.167  1.00  0.00     0.000 A 
ENDBRANCH  39  52
ENDBRANCH  13  14
ENDBRANCH   6   8
ENDBRANCH   3   4
ENDBRANCH   2   3
ENDBRANCH   1   2
BRANCH   1  58
ATOM     58  C   UNL A   1      36.862  22.008  25.749  1.00  0.00     0.116 C 
BRANCH  58  59
ATOM     59  N   UNL A   1      35.723  21.456  26.451  1.00  0.00    -0.356 N 
ATOM     60  C   UNL A   1      34.404  21.596  26.155  1.00  0.00     0.224 C 
ATOM     61  H   UNL A   1      35.930  20.910  27.244  1.00  0.00     0.163 HD
ATOM     62  O   UNL A   1      33.580  21.171  26.963  1.00  0.00    -0.275 OA
BRANCH  60  63
ATOM     63  C   UNL A   1      34.019  22.254  24.844  1.00  0.00     0.098 C 
ATOM     64  C   UNL A   1      32.915  21.419  24.170  1.00  0.00     0.017 C 
ATOM     65  C   UNL A   1      33.610  23.724  25.074  1.00  0.00     0.133 C 
ATOM     66  C   UNL A   1      32.361  22.153  22.964  1.00  0.00     0.022 C 
ATOM     67  N   UNL A   1      32.969  24.308  23.895  1.00  0.00    -0.342 N 
ATOM     68  C   UNL A   1      31.868  23.504  23.441  1.00  0.00     0.119 C 
BRANCH  67  69
ATOM     69  C   UNL A   1      33.401  25.509  23.366  1.00  0.00     0.226 C 
ATOM     70  O   UNL A   1      34.023  25.510  22.292  1.00  0.00    -0.275 OA
BRANCH  69  71
ATOM     71  C   UNL A   1      33.177  26.885  24.049  1.00  0.00     0.090 C 
ATOM     72  C   UNL A   1      31.914  26.995  24.896  1.00  0.00     0.075 C 
ATOM     73  C   UNL A   1      33.429  28.170  23.263  1.00  0.00     0.075 C 
ATOM     74  C   UNL A   1      30.701  27.429  24.093  1.00  0.00     0.263 C 
ATOM     75  C   UNL A   1      32.197  28.895  22.690  1.00  0.00     0.263 C 
ATOM     76  N   UNL A   1      30.892  28.641  23.302  1.00  0.00    -0.329 N 
ATOM     77  H   UNL A   1      30.904  29.332  24.055  1.00  0.00     0.348 HD
BRANCH  76  78
ATOM     78  C   UNL A   1      29.753  28.961  22.405  1.00  0.00     0.338 C 
BRANCH  78  79
ATOM     79  C   UNL A   1      29.154  30.339  22.528  1.00  0.00     0.157 A 
ATOM     80  C   UNL A   1      28.747  31.107  23.607  1.00  0.00     0.052 A 
ATOM     81  O   UNL A   1      28.953  31.045  21.373  1.00  0.00    -0.463 OA
ATOM     82  C   UNL A   1      28.235  32.318  23.082  1.00  0.00     0.042 A 
ATOM     83  C   UNL A   1      28.403  32.241  21.720  1.00  0.00     0.195 A 
ENDBRANCH  78  79
ENDBRANCH  76  78
ENDBRANCH  69  71
ENDBRANCH  67  69
ENDBRANCH  60  63
ENDBRANCH  58  59
ENDBRANCH   1  58
TORSDOF 15
ENDMDL
MODEL 3
REMARK VINA RESULT:     -12.1      0.663      5.881
REMARK SMILES O=C(NCCCCNC(=O)[C@H]1CCCN(C(=O)C2CC[NH+](Cc3ccco3)CC2)C1)c1ccc(-c2c3nc(c(-c4ccccc4)c4ccc([nH]4)c(-c4ccccc4)c4nc(c(-c5ccccc5)c5ccc2[nH]5)C=C4)C=C3)cc1
REMARK SMILES IDX 6 1 5 2 4 3 3 4 1 5 2 6 31 8 32 9 78 10 33 11 77 12 34 13
REMARK SMILES IDX 35 14 36 15 71 16 37 17 76 18 70 19 72 20 38 21 75 22 69 23
REMARK SMILES IDX 68 24 39 26 61 27 46 28 60 29 47 30 50 31 59 32 73 33 48 34
REMARK SMILES IDX 49 35 58 37 74 38 51 39 40 40 41 41 45 42 42 43 44 44 43 45
REMARK SMILES IDX 62 46 63 47 67 48 64 49 66 50 65 51 52 52 53 53 57 54 54 55
REMARK SMILES IDX 56 56 55 57 7 58 8 59 9 60 10 62 11 63 12 64 30 65 13 66
REMARK SMILES IDX 15 67 14 68 16 69 17 70 18 71 19 72 29 73 20 74 28 75 21 76
REMARK SMILES IDX 22 78 23 79 24 80 27 81 25 82 26 83
REMARK H PARENT 3 7 72 25 50 36 8 61 21 77
REMARK Flexibility Score: inf
ROOT
ATOM      1  C   UNL A   1      31.781  30.384  26.843  1.00  0.00     0.023 C 
ENDROOT
BRANCH   1   2
ATOM      2  C   UNL A   1      31.605  31.894  26.704  1.00  0.00     0.023 C 
BRANCH   2   3
ATOM      3  C   UNL A   1      32.766  32.704  27.249  1.00  0.00     0.116 C 
BRANCH   3   4
ATOM      4  N   UNL A   1      32.386  34.053  27.641  1.00  0.00    -0.352 N 
ATOM      5  O   UNL A   1      32.564  35.949  28.869  1.00  0.00    -0.269 OA
ATOM      6  C   UNL A   1      33.007  34.857  28.565  1.00  0.00     0.251 C 
ATOM      7  H   UNL A   1      31.595  34.430  27.194  1.00  0.00     0.163 HD
BRANCH   6   8
ATOM      8  C   UNL A   1      34.217  34.321  29.211  1.00  0.00     0.039 A 
ATOM      9  C   UNL A   1      35.466  34.563  28.636  1.00  0.00     0.014 A 
ATOM     10  C   UNL A   1      34.072  33.478  30.312  1.00  0.00     0.014 A 
ATOM     11  C   UNL A   1      36.566  33.858  29.095  1.00  0.00     0.010 A 
ATOM     12  C   UNL A   1      35.197  32.839  30.827  1.00  0.00     0.010 A 
ATOM     13  C   UNL A   1      36.445  33.009  30.208  1.00  0.00    -0.014 A 
BRANCH  13  14
ATOM     14  C   UNL A   1      37.661  32.382  30.767  1.00  0.00     0.031 A 
ATOM     15  C   UNL A   1      38.289  31.181  30.125  1.00  0.00     0.074 A 
ATOM     16  C   UNL A   1      38.198  32.935  31.870  1.00  0.00     0.049 A 
ATOM     17  N   UNL A   1      39.347  30.512  30.505  1.00  0.00    -0.248 NA
ATOM     18  C   UNL A   1      37.647  30.657  28.910  1.00  0.00     0.031 C 
ATOM     19  C   UNL A   1      37.661  34.106  32.572  1.00  0.00     0.029 A 
ATOM     20  N   UNL A   1      39.317  32.606  32.583  1.00  0.00    -0.354 N 
ATOM     21  C   UNL A   1      39.487  29.474  29.592  1.00  0.00     0.074 A 
ATOM     22  C   UNL A   1      38.396  29.593  28.648  1.00  0.00     0.031 C 
ATOM     23  C   UNL A   1      38.481  34.428  33.580  1.00  0.00     0.029 A 
ATOM     24  C   UNL A   1      39.554  33.446  33.643  1.00  0.00     0.049 A 
ATOM     25  H   UNL A   1      39.896  31.841  32.360  1.00  0.00     0.167 HD
ATOM     26  C   UNL A   1      40.440  28.513  29.552  1.00  0.00     0.031 A 
ATOM     27  C   UNL A   1      40.518  33.417  34.579  1.00  0.00     0.031 A 
ATOM     28  C   UNL A   1      41.520  28.407  30.500  1.00  0.00     0.049 A 
ATOM     29  C   UNL A   1      41.538  32.324  34.525  1.00  0.00     0.074 A 
ATOM     30  C   UNL A   1      42.550  27.483  30.535  1.00  0.00     0.029 A 
ATOM     31  N   UNL A   1      41.705  29.254  31.583  1.00  0.00    -0.354 N 
ATOM     32  N   UNL A   1      41.666  31.358  33.647  1.00  0.00    -0.248 NA
ATOM     33  C   UNL A   1      42.544  32.311  35.595  1.00  0.00     0.031 C 
ATOM     34  C   UNL A   1      43.333  27.744  31.667  1.00  0.00     0.029 A 
ATOM     35  C   UNL A   1      42.819  28.862  32.306  1.00  0.00     0.049 A 
ATOM     36  H   UNL A   1      41.129  30.021  31.805  1.00  0.00     0.167 HD
ATOM     37  C   UNL A   1      42.773  30.628  34.050  1.00  0.00     0.074 A 
ATOM     38  C   UNL A   1      43.293  31.278  35.237  1.00  0.00     0.031 C 
ATOM     39  C   UNL A   1      43.309  29.517  33.491  1.00  0.00     0.031 A 
BRANCH  26  40
ATOM     40  C   UNL A   1      40.343  27.479  28.465  1.00  0.00    -0.014 A 
ATOM     41  C   UNL A   1      40.992  27.651  27.232  1.00  0.00     0.009 A 
ATOM     42  C   UNL A   1      39.628  26.293  28.696  1.00  0.00     0.009 A 
ATOM     43  C   UNL A   1      40.904  26.666  26.245  1.00  0.00     0.001 A 
ATOM     44  C   UNL A   1      39.562  25.301  27.716  1.00  0.00     0.001 A 
ATOM     45  C   UNL A   1      40.193  25.491  26.489  1.00  0.00     0.000 A 
ENDBRANCH  26  40
BRANCH  27  46
ATOM     46  C   UNL A   1      40.536  34.447  35.645  1.00  0.00    -0.014 A 
ATOM     47  C   UNL A   1      41.229  35.652  35.461  1.00  0.00     0.009 A 
ATOM     48  C   UNL A   1      39.828  34.244  36.841  1.00  0.00     0.009 A 
ATOM     49  C   UNL A   1      41.227  36.626  36.462  1.00  0.00     0.001 A 
ATOM     50  C   UNL A   1      39.802  35.232  37.826  1.00  0.00     0.001 A 
ATOM     51  C   UNL A   1      40.509  36.418  37.639  1.00  0.00     0.000 A 
ENDBRANCH  27  46
BRANCH  39  52
ATOM     52  C   UNL A   1      44.533  28.955  34.154  1.00  0.00    -0.014 A 
ATOM     53  C   UNL A   1      44.430  27.976  35.153  1.00  0.00     0.009 A 
ATOM     54  C   UNL A   1      45.803  29.405  33.762  1.00  0.00     0.009 A 
ATOM     55  C   UNL A   1      45.579  27.482  35.774  1.00  0.00     0.001 A 
ATOM     56  C   UNL A   1      46.950  28.889  34.365  1.00  0.00     0.001 A 
ATOM     57  C   UNL A   1      46.836  27.937  35.378  1.00  0.00     0.000 A 
ENDBRANCH  39  52
ENDBRANCH  13  14
ENDBRANCH   6   8
ENDBRANCH   3   4
ENDBRANCH   2   3
ENDBRANCH   1   2
BRANCH   1  58
ATOM     58  C   UNL A   1      33.046  29.842  26.178  1.00  0.00     0.116 C 
BRANCH  58  59
ATOM     59  N   UNL A   1      32.889  29.811  24.740  1.00  0.00    -0.356 N 
ATOM     60  C   UNL A   1      32.329  28.836  23.977  1.00  0.00     0.224 C 
ATOM     61  H   UNL A   1      33.231  30.595  24.253  1.00  0.00     0.163 HD
ATOM     62  O   UNL A   1      32.425  28.929  22.754  1.00  0.00    -0.275 OA
BRANCH  60  63
ATOM     63  C   UNL A   1      31.606  27.696  24.667  1.00  0.00     0.098 C 
ATOM     64  C   UNL A   1      30.256  27.461  23.968  1.00  0.00     0.017 C 
ATOM     65  C   UNL A   1      32.495  26.435  24.707  1.00  0.00     0.133 C 
ATOM     66  C   UNL A   1      29.600  26.200  24.497  1.00  0.00     0.022 C 
ATOM     67  N   UNL A   1      31.743  25.244  25.107  1.00  0.00    -0.342 N 
ATOM     68  C   UNL A   1      30.576  25.059  24.290  1.00  0.00     0.119 C 
BRANCH  67  69
ATOM     69  C   UNL A   1      32.188  24.426  26.126  1.00  0.00     0.226 C 
ATOM     70  O   UNL A   1      31.555  24.387  27.193  1.00  0.00    -0.275 OA
BRANCH  69  71
ATOM     71  C   UNL A   1      33.468  23.550  26.037  1.00  0.00     0.090 C 
ATOM     72  C   UNL A   1      33.912  23.187  24.625  1.00  0.00     0.075 C 
ATOM     73  C   UNL A   1      33.647  22.372  26.993  1.00  0.00     0.075 C 
ATOM     74  C   UNL A   1      33.258  21.919  24.107  1.00  0.00     0.263 C 
ATOM     75  C   UNL A   1      33.336  20.968  26.441  1.00  0.00     0.263 C 
ATOM     76  N   UNL A   1      33.377  20.764  24.992  1.00  0.00    -0.329 N 
ATOM     77  H   UNL A   1      34.369  20.556  24.863  1.00  0.00     0.348 HD
BRANCH  76  78
ATOM     78  C   UNL A   1      32.600  19.580  24.546  1.00  0.00     0.338 C 
BRANCH  78  79
ATOM     79  C   UNL A   1      33.279  18.239  24.652  1.00  0.00     0.157 A 
ATOM     80  C   UNL A   1      34.567  17.801  24.392  1.00  0.00     0.052 A 
ATOM     81  O   UNL A   1      32.531  17.186  25.107  1.00  0.00    -0.463 OA
ATOM     82  C   UNL A   1      34.593  16.410  24.659  1.00  0.00     0.042 A 
ATOM     83  C   UNL A   1      33.336  16.089  25.112  1.00  0.00     0.195 A 
ENDBRANCH  78  79
ENDBRANCH  76  78
ENDBRANCH  69  71
ENDBRANCH  67  69
ENDBRANCH  60  63
ENDBRANCH  58  59
ENDBRANCH   1  58
TORSDOF 15
ENDMDL
