MODEL 1
REMARK VINA RESULT:     -10.4      0.000      0.000
REMARK SMILES Cc1cccc(C[N@@H+](C)C[C@]2(C(=O)NCCCCNC(=O)c3ccc(-c4c5nc(c(-c6ccccc6)c6ccc([nH]6)c(-c6ccccc6)c6nc(c(-c7ccccc7)c7ccc4[nH]7)C=C6)C=C5)cc3)CCOC2)n1
REMARK SMILES IDX 15 1 14 2 12 3 13 4 11 6 70 7 73 8 71 9 72 10 10 11 8 12
REMARK SMILES IDX 9 13 7 15 6 16 1 17 2 18 3 19 74 20 4 21 5 22 16 23 17 24
REMARK SMILES IDX 18 25 19 26 20 27 21 29 22 30 23 31 69 32 24 33 68 34 25 35
REMARK SMILES IDX 26 36 27 37 62 38 28 39 67 40 61 41 63 42 29 43 66 44 60 45
REMARK SMILES IDX 59 46 30 48 52 49 37 50 51 51 38 52 41 53 50 54 64 55 39 56
REMARK SMILES IDX 40 57 49 59 65 60 42 61 31 62 32 63 36 64 33 65 35 66 34 67
REMARK SMILES IDX 53 68 54 69 58 70 55 71 57 72 56 73 43 74 44 75 48 76 45 77
REMARK SMILES IDX 47 78 46 79
REMARK H PARENT 14 5 8 14 19 28 63 47 41 58
REMARK Flexibility Score: inf
ROOT
ATOM      1  C   UNL A   1      30.895  26.173  25.988  1.00  0.00     0.116 C 
ENDROOT
BRANCH   1   2
ATOM      2  N   UNL A   1      30.394  24.913  26.496  1.00  0.00    -0.355 N 
ATOM      3  C   UNL A   1      30.803  23.630  26.407  1.00  0.00     0.234 C 
ATOM      4  O   UNL A   1      29.959  22.840  26.830  1.00  0.00    -0.274 OA
ATOM      5  H   UNL A   1      29.570  25.016  27.025  1.00  0.00     0.163 HD
BRANCH   3   6
ATOM      6  C   UNL A   1      32.181  23.187  25.899  1.00  0.00     0.123 C 
ATOM      7  C   UNL A   1      33.306  23.333  26.927  1.00  0.00     0.054 C 
ATOM      8  C   UNL A   1      32.114  21.657  25.670  1.00  0.00     0.183 C 
ATOM      9  C   UNL A   1      34.021  21.998  26.897  1.00  0.00     0.161 C 
ATOM     10  O   UNL A   1      33.016  21.033  26.596  1.00  0.00    -0.380 OA
BRANCH   6  11
ATOM     11  C   UNL A   1      32.553  23.842  24.520  1.00  0.00     0.281 C 
BRANCH  11  12
ATOM     12  N   UNL A   1      33.854  24.433  24.167  1.00  0.00    -0.331 N 
ATOM     13  C   UNL A   1      33.809  25.730  23.514  1.00  0.00     0.333 C 
ATOM     14  H   UNL A   1      34.212  24.589  25.109  1.00  0.00     0.348 HD
BRANCH  12  15
ATOM     15  C   UNL A   1      34.841  23.544  23.509  1.00  0.00     0.319 C 
BRANCH  15  16
ATOM     16  C   UNL A   1      36.010  23.065  24.362  1.00  0.00     0.095 A 
ATOM     17  C   UNL A   1      37.836  19.903  24.792  1.00  0.00     0.067 C 
ATOM     18  C   UNL A   1      37.469  21.347  24.943  1.00  0.00     0.038 A 
ATOM     19  C   UNL A   1      38.188  22.183  25.789  1.00  0.00     0.023 A 
ATOM     20  N   UNL A   1      36.402  21.773  24.224  1.00  0.00    -0.252 NA
ATOM     21  C   UNL A   1      37.777  23.500  25.932  1.00  0.00     0.004 A 
ATOM     22  C   UNL A   1      36.665  23.941  25.227  1.00  0.00     0.030 A 
ENDBRANCH  15  16
ENDBRANCH  12  15
ENDBRANCH  11  12
ENDBRANCH   6  11
ENDBRANCH   3   6
ENDBRANCH   1   2
BRANCH   1  23
ATOM     23  C   UNL A   1      32.085  26.649  26.822  1.00  0.00     0.023 C 
BRANCH  23  24
ATOM     24  C   UNL A   1      32.172  28.169  27.019  1.00  0.00     0.023 C 
BRANCH  24  25
ATOM     25  C   UNL A   1      33.571  28.724  27.265  1.00  0.00     0.116 C 
BRANCH  25  26
ATOM     26  N   UNL A   1      33.557  30.117  27.675  1.00  0.00    -0.352 N 
ATOM     27  C   UNL A   1      34.545  30.849  28.285  1.00  0.00     0.251 C 
ATOM     28  H   UNL A   1      32.723  30.604  27.490  1.00  0.00     0.163 HD
ATOM     29  O   UNL A   1      34.319  31.987  28.675  1.00  0.00    -0.269 OA
BRANCH  27  30
ATOM     30  C   UNL A   1      35.874  30.242  28.502  1.00  0.00     0.039 A 
ATOM     31  C   UNL A   1      36.792  30.258  27.451  1.00  0.00     0.014 A 
ATOM     32  C   UNL A   1      36.212  29.671  29.732  1.00  0.00     0.014 A 
ATOM     33  C   UNL A   1      38.077  29.753  27.651  1.00  0.00     0.010 A 
ATOM     34  C   UNL A   1      37.514  29.225  29.949  1.00  0.00     0.010 A 
ATOM     35  C   UNL A   1      38.457  29.261  28.910  1.00  0.00    -0.014 A 
BRANCH  35  36
ATOM     36  C   UNL A   1      39.838  28.782  29.159  1.00  0.00     0.031 A 
ATOM     37  C   UNL A   1      40.853  29.696  29.784  1.00  0.00     0.074 A 
ATOM     38  C   UNL A   1      40.194  27.543  28.767  1.00  0.00     0.049 A 
ATOM     39  N   UNL A   1      42.121  29.481  30.023  1.00  0.00    -0.248 NA
ATOM     40  C   UNL A   1      40.388  31.038  30.169  1.00  0.00     0.031 C 
ATOM     41  C   UNL A   1      39.312  26.572  28.117  1.00  0.00     0.029 A 
ATOM     42  N   UNL A   1      41.400  26.893  28.849  1.00  0.00    -0.354 N 
ATOM     43  C   UNL A   1      42.608  30.661  30.568  1.00  0.00     0.074 A 
ATOM     44  C   UNL A   1      41.511  31.604  30.583  1.00  0.00     0.031 C 
ATOM     45  C   UNL A   1      39.999  25.444  27.880  1.00  0.00     0.029 A 
ATOM     46  C   UNL A   1      41.377  25.624  28.325  1.00  0.00     0.049 A 
ATOM     47  H   UNL A   1      42.204  27.298  29.247  1.00  0.00     0.167 HD
ATOM     48  C   UNL A   1      43.852  30.932  31.030  1.00  0.00     0.031 A 
ATOM     49  C   UNL A   1      42.359  24.710  28.208  1.00  0.00     0.031 A 
ATOM     50  C   UNL A   1      44.940  29.990  31.025  1.00  0.00     0.049 A 
ATOM     51  C   UNL A   1      43.734  25.039  28.716  1.00  0.00     0.074 A 
ATOM     52  C   UNL A   1      46.220  30.151  31.524  1.00  0.00     0.029 A 
ATOM     53  N   UNL A   1      44.873  28.713  30.493  1.00  0.00    -0.354 N 
ATOM     54  N   UNL A   1      44.161  26.138  29.290  1.00  0.00    -0.248 NA
ATOM     55  C   UNL A   1      44.760  23.997  28.570  1.00  0.00     0.031 C 
ATOM     56  C   UNL A   1      46.944  28.986  31.251  1.00  0.00     0.029 A 
ATOM     57  C   UNL A   1      46.098  28.082  30.629  1.00  0.00     0.049 A 
ATOM     58  H   UNL A   1      44.074  28.312  30.080  1.00  0.00     0.167 HD
ATOM     59  C   UNL A   1      45.497  25.910  29.596  1.00  0.00     0.074 A 
ATOM     60  C   UNL A   1      45.805  24.564  29.158  1.00  0.00     0.031 C 
ATOM     61  C   UNL A   1      46.387  26.742  30.188  1.00  0.00     0.031 A 
BRANCH  48  62
ATOM     62  C   UNL A   1      44.102  32.312  31.571  1.00  0.00    -0.014 A 
ATOM     63  C   UNL A   1      44.538  33.354  30.737  1.00  0.00     0.009 A 
ATOM     64  C   UNL A   1      43.870  32.581  32.929  1.00  0.00     0.009 A 
ATOM     65  C   UNL A   1      44.772  34.627  31.259  1.00  0.00     0.001 A 
ATOM     66  C   UNL A   1      44.079  33.862  33.443  1.00  0.00     0.001 A 
ATOM     67  C   UNL A   1      44.539  34.881  32.609  1.00  0.00     0.000 A 
ENDBRANCH  48  62
BRANCH  49  68
ATOM     68  C   UNL A   1      42.073  23.388  27.593  1.00  0.00    -0.014 A 
ATOM     69  C   UNL A   1      41.508  22.356  28.357  1.00  0.00     0.009 A 
ATOM     70  C   UNL A   1      42.368  23.150  26.242  1.00  0.00     0.009 A 
ATOM     71  C   UNL A   1      41.266  21.104  27.786  1.00  0.00     0.001 A 
ATOM     72  C   UNL A   1      42.100  21.907  25.666  1.00  0.00     0.001 A 
ATOM     73  C   UNL A   1      41.558  20.882  26.440  1.00  0.00     0.000 A 
ENDBRANCH  49  68
BRANCH  61  74
ATOM     74  C   UNL A   1      47.770  26.208  30.428  1.00  0.00    -0.014 A 
ATOM     75  C   UNL A   1      48.736  26.206  29.410  1.00  0.00     0.009 A 
ATOM     76  C   UNL A   1      48.124  25.744  31.705  1.00  0.00     0.009 A 
ATOM     77  C   UNL A   1      50.022  25.720  29.660  1.00  0.00     0.001 A 
ATOM     78  C   UNL A   1      49.416  25.286  31.959  1.00  0.00     0.001 A 
ATOM     79  C   UNL A   1      50.362  25.267  30.934  1.00  0.00     0.000 A 
ENDBRANCH  61  74
ENDBRANCH  35  36
ENDBRANCH  27  30
ENDBRANCH  25  26
ENDBRANCH  24  25
ENDBRANCH  23  24
ENDBRANCH   1  23
TORSDOF 15
ENDMDL
MODEL 2
REMARK VINA RESULT:     -10.2      1.972      7.604
REMARK SMILES Cc1cccc(C[N@@H+](C)C[C@]2(C(=O)NCCCCNC(=O)c3ccc(-c4c5nc(c(-c6ccccc6)c6ccc([nH]6)c(-c6ccccc6)c6nc(c(-c7ccccc7)c7ccc4[nH]7)C=C6)C=C5)cc3)CCOC2)n1
REMARK SMILES IDX 15 1 14 2 12 3 13 4 11 6 70 7 73 8 71 9 72 10 10 11 8 12
REMARK SMILES IDX 9 13 7 15 6 16 1 17 2 18 3 19 74 20 4 21 5 22 16 23 17 24
REMARK SMILES IDX 18 25 19 26 20 27 21 29 22 30 23 31 69 32 24 33 68 34 25 35
REMARK SMILES IDX 26 36 27 37 62 38 28 39 67 40 61 41 63 42 29 43 66 44 60 45
REMARK SMILES IDX 59 46 30 48 52 49 37 50 51 51 38 52 41 53 50 54 64 55 39 56
REMARK SMILES IDX 40 57 49 59 65 60 42 61 31 62 32 63 36 64 33 65 35 66 34 67
REMARK SMILES IDX 53 68 54 69 58 70 55 71 57 72 56 73 43 74 44 75 48 76 45 77
REMARK SMILES IDX 47 78 46 79
REMARK H PARENT 14 5 8 14 19 28 63 47 41 58
REMARK Flexibility Score: inf
ROOT
ATOM      1  C   UNL A   1      36.158  21.152  25.538  1.00  0.00     0.116 C 
ENDROOT
BRANCH   1   2
ATOM      2  N   UNL A   1      35.293  20.075  25.105  1.00  0.00    -0.355 N 
ATOM      3  C   UNL A   1      34.002  19.999  24.718  1.00  0.00     0.234 C 
ATOM      4  O   UNL A   1      33.610  18.836  24.623  1.00  0.00    -0.274 OA
ATOM      5  H   UNL A   1      35.749  19.203  25.090  1.00  0.00     0.163 HD
BRANCH   3   6
ATOM      6  C   UNL A   1      33.122  21.207  24.373  1.00  0.00     0.123 C 
ATOM      7  C   UNL A   1      33.871  22.354  23.687  1.00  0.00     0.054 C 
ATOM      8  C   UNL A   1      32.119  20.748  23.287  1.00  0.00     0.183 C 
ATOM      9  C   UNL A   1      33.012  22.702  22.489  1.00  0.00     0.161 C 
ATOM     10  O   UNL A   1      32.404  21.479  22.085  1.00  0.00    -0.380 OA
BRANCH   6  11
ATOM     11  C   UNL A   1      32.276  21.707  25.599  1.00  0.00     0.281 C 
BRANCH  11  12
ATOM     12  N   UNL A   1      32.661  22.771  26.539  1.00  0.00    -0.331 N 
ATOM     13  C   UNL A   1      33.120  22.334  27.846  1.00  0.00     0.333 C 
ATOM     14  H   UNL A   1      33.478  23.126  26.042  1.00  0.00     0.348 HD
BRANCH  12  15
ATOM     15  C   UNL A   1      31.739  23.926  26.663  1.00  0.00     0.319 C 
BRANCH  15  16
ATOM     16  C   UNL A   1      32.307  25.298  26.319  1.00  0.00     0.095 A 
ATOM     17  C   UNL A   1      31.727  28.748  27.450  1.00  0.00     0.067 C 
ATOM     18  C   UNL A   1      32.338  27.590  26.723  1.00  0.00     0.038 A 
ATOM     19  C   UNL A   1      33.378  27.781  25.821  1.00  0.00     0.023 A 
ATOM     20  N   UNL A   1      31.809  26.371  26.986  1.00  0.00    -0.252 NA
ATOM     21  C   UNL A   1      33.876  26.683  25.136  1.00  0.00     0.004 A 
ATOM     22  C   UNL A   1      33.322  25.431  25.372  1.00  0.00     0.030 A 
ENDBRANCH  15  16
ENDBRANCH  12  15
ENDBRANCH  11  12
ENDBRANCH   6  11
ENDBRANCH   3   6
ENDBRANCH   1   2
BRANCH   1  23
ATOM     23  C   UNL A   1      37.409  21.216  24.661  1.00  0.00     0.023 C 
BRANCH  23  24
ATOM     24  C   UNL A   1      38.295  19.963  24.702  1.00  0.00     0.023 C 
BRANCH  24  25
ATOM     25  C   UNL A   1      39.027  19.716  26.017  1.00  0.00     0.116 C 
BRANCH  25  26
ATOM     26  N   UNL A   1      40.311  19.065  25.829  1.00  0.00    -0.352 N 
ATOM     27  C   UNL A   1      41.574  19.582  25.976  1.00  0.00     0.251 C 
ATOM     28  H   UNL A   1      40.270  18.119  25.559  1.00  0.00     0.163 HD
ATOM     29  O   UNL A   1      42.554  18.921  25.657  1.00  0.00    -0.269 OA
BRANCH  27  30
ATOM     30  C   UNL A   1      41.743  20.956  26.490  1.00  0.00     0.039 A 
ATOM     31  C   UNL A   1      41.545  21.187  27.853  1.00  0.00     0.014 A 
ATOM     32  C   UNL A   1      42.102  22.004  25.637  1.00  0.00     0.014 A 
ATOM     33  C   UNL A   1      41.765  22.462  28.374  1.00  0.00     0.010 A 
ATOM     34  C   UNL A   1      42.381  23.260  26.170  1.00  0.00     0.010 A 
ATOM     35  C   UNL A   1      42.214  23.501  27.543  1.00  0.00    -0.014 A 
BRANCH  35  36
ATOM     36  C   UNL A   1      42.517  24.844  28.093  1.00  0.00     0.031 A 
ATOM     37  C   UNL A   1      43.909  25.177  28.549  1.00  0.00     0.074 A 
ATOM     38  C   UNL A   1      41.525  25.743  28.237  1.00  0.00     0.049 A 
ATOM     39  N   UNL A   1      44.354  26.271  29.112  1.00  0.00    -0.248 NA
ATOM     40  C   UNL A   1      44.932  24.133  28.372  1.00  0.00     0.031 C 
ATOM     41  C   UNL A   1      40.125  25.530  27.865  1.00  0.00     0.029 A 
ATOM     42  N   UNL A   1      41.543  27.017  28.746  1.00  0.00    -0.354 N 
ATOM     43  C   UNL A   1      45.698  26.042  29.372  1.00  0.00     0.074 A 
ATOM     44  C   UNL A   1      45.987  24.690  28.946  1.00  0.00     0.031 C 
ATOM     45  C   UNL A   1      39.423  26.641  28.138  1.00  0.00     0.029 A 
ATOM     46  C   UNL A   1      40.313  27.630  28.737  1.00  0.00     0.049 A 
ATOM     47  H   UNL A   1      42.359  27.452  29.084  1.00  0.00     0.167 HD
ATOM     48  C   UNL A   1      46.615  26.886  29.902  1.00  0.00     0.031 A 
ATOM     49  C   UNL A   1      39.942  28.849  29.172  1.00  0.00     0.031 A 
ATOM     50  C   UNL A   1      46.329  28.235  30.314  1.00  0.00     0.049 A 
ATOM     51  C   UNL A   1      40.975  29.763  29.768  1.00  0.00     0.074 A 
ATOM     52  C   UNL A   1      47.204  29.188  30.808  1.00  0.00     0.029 A 
ATOM     53  N   UNL A   1      45.074  28.820  30.281  1.00  0.00    -0.354 N 
ATOM     54  N   UNL A   1      42.257  29.555  29.946  1.00  0.00    -0.248 NA
ATOM     55  C   UNL A   1      40.511  31.084  30.214  1.00  0.00     0.031 C 
ATOM     56  C   UNL A   1      46.467  30.335  31.120  1.00  0.00     0.029 A 
ATOM     57  C   UNL A   1      45.144  30.114  30.770  1.00  0.00     0.049 A 
ATOM     58  H   UNL A   1      44.254  28.382  29.959  1.00  0.00     0.167 HD
ATOM     59  C   UNL A   1      42.758  30.726  30.500  1.00  0.00     0.074 A 
ATOM     60  C   UNL A   1      41.644  31.645  30.615  1.00  0.00     0.031 C 
ATOM     61  C   UNL A   1      44.026  31.015  30.877  1.00  0.00     0.031 A 
BRANCH  48  62
ATOM     62  C   UNL A   1      48.014  26.366  30.073  1.00  0.00    -0.014 A 
ATOM     63  C   UNL A   1      48.429  25.776  31.278  1.00  0.00     0.009 A 
ATOM     64  C   UNL A   1      48.922  26.441  29.006  1.00  0.00     0.009 A 
ATOM     65  C   UNL A   1      49.736  25.306  31.421  1.00  0.00     0.001 A 
ATOM     66  C   UNL A   1      50.219  25.945  29.143  1.00  0.00     0.001 A 
ATOM     67  C   UNL A   1      50.628  25.386  30.353  1.00  0.00     0.000 A 
ENDBRANCH  48  62
BRANCH  49  68
ATOM     68  C   UNL A   1      38.527  29.283  29.048  1.00  0.00    -0.014 A 
ATOM     69  C   UNL A   1      38.044  29.798  27.836  1.00  0.00     0.009 A 
ATOM     70  C   UNL A   1      37.652  29.188  30.142  1.00  0.00     0.009 A 
ATOM     71  C   UNL A   1      36.721  30.231  27.727  1.00  0.00     0.001 A 
ATOM     72  C   UNL A   1      36.323  29.598  30.023  1.00  0.00     0.001 A 
ATOM     73  C   UNL A   1      35.860  30.127  28.820  1.00  0.00     0.000 A 
ENDBRANCH  49  68
BRANCH  61  74
ATOM     74  C   UNL A   1      44.286  32.391  31.419  1.00  0.00    -0.014 A 
ATOM     75  C   UNL A   1      44.218  32.656  32.795  1.00  0.00     0.009 A 
ATOM     76  C   UNL A   1      44.647  33.426  30.542  1.00  0.00     0.009 A 
ATOM     77  C   UNL A   1      44.479  33.940  33.279  1.00  0.00     0.001 A 
ATOM     78  C   UNL A   1      44.935  34.700  31.030  1.00  0.00     0.001 A 
ATOM     79  C   UNL A   1      44.843  34.958  32.397  1.00  0.00     0.000 A 
ENDBRANCH  61  74
ENDBRANCH  35  36
ENDBRANCH  27  30
ENDBRANCH  25  26
ENDBRANCH  24  25
ENDBRANCH  23  24
ENDBRANCH   1  23
TORSDOF 15
ENDMDL
MODEL 3
REMARK VINA RESULT:     -10.2      2.372      7.459
REMARK SMILES Cc1cccc(C[N@@H+](C)C[C@]2(C(=O)NCCCCNC(=O)c3ccc(-c4c5nc(c(-c6ccccc6)c6ccc([nH]6)c(-c6ccccc6)c6nc(c(-c7ccccc7)c7ccc4[nH]7)C=C6)C=C5)cc3)CCOC2)n1
REMARK SMILES IDX 15 1 14 2 12 3 13 4 11 6 70 7 73 8 71 9 72 10 10 11 8 12
REMARK SMILES IDX 9 13 7 15 6 16 1 17 2 18 3 19 74 20 4 21 5 22 16 23 17 24
REMARK SMILES IDX 18 25 19 26 20 27 21 29 22 30 23 31 69 32 24 33 68 34 25 35
REMARK SMILES IDX 26 36 27 37 62 38 28 39 67 40 61 41 63 42 29 43 66 44 60 45
REMARK SMILES IDX 59 46 30 48 52 49 37 50 51 51 38 52 41 53 50 54 64 55 39 56
REMARK SMILES IDX 40 57 49 59 65 60 42 61 31 62 32 63 36 64 33 65 35 66 34 67
REMARK SMILES IDX 53 68 54 69 58 70 55 71 57 72 56 73 43 74 44 75 48 76 45 77
REMARK SMILES IDX 47 78 46 79
REMARK H PARENT 14 5 8 14 19 28 63 47 41 58
REMARK Flexibility Score: inf
ROOT
ATOM      1  C   UNL A   1      37.090  22.201  25.493  1.00  0.00     0.116 C 
ENDROOT
BRANCH   1   2
ATOM      2  N   UNL A   1      36.087  21.903  26.493  1.00  0.00    -0.355 N 
ATOM      3  C   UNL A   1      34.737  21.924  26.511  1.00  0.00     0.234 C 
ATOM      4  O   UNL A   1      34.282  21.785  27.647  1.00  0.00    -0.274 OA
ATOM      5  H   UNL A   1      36.476  21.622  27.352  1.00  0.00     0.163 HD
BRANCH   3   6
ATOM      6  C   UNL A   1      33.850  22.044  25.266  1.00  0.00     0.123 C 
ATOM      7  C   UNL A   1      33.719  20.748  24.461  1.00  0.00     0.054 C 
ATOM      8  C   UNL A   1      32.403  22.297  25.757  1.00  0.00     0.183 C 
ATOM      9  C   UNL A   1      32.230  20.596  24.230  1.00  0.00     0.161 C 
ATOM     10  O   UNL A   1      31.604  21.167  25.376  1.00  0.00    -0.380 OA
BRANCH   6  11
ATOM     11  C   UNL A   1      34.248  23.263  24.359  1.00  0.00     0.281 C 
BRANCH  11  12
ATOM     12  N   UNL A   1      33.333  24.044  23.511  1.00  0.00    -0.331 N 
ATOM     13  C   UNL A   1      33.176  23.578  22.144  1.00  0.00     0.333 C 
ATOM     14  H   UNL A   1      32.461  23.838  23.996  1.00  0.00     0.348 HD
BRANCH  12  15
ATOM     15  C   UNL A   1      33.471  25.520  23.552  1.00  0.00     0.319 C 
BRANCH  15  16
ATOM     16  C   UNL A   1      32.875  26.232  24.761  1.00  0.00     0.095 A 
ATOM     17  C   UNL A   1      34.028  28.774  27.155  1.00  0.00     0.067 C 
ATOM     18  C   UNL A   1      33.119  27.814  26.451  1.00  0.00     0.038 A 
ATOM     19  C   UNL A   1      31.809  27.629  26.876  1.00  0.00     0.023 A 
ATOM     20  N   UNL A   1      33.653  27.141  25.403  1.00  0.00    -0.252 NA
ATOM     21  C   UNL A   1      31.022  26.692  26.222  1.00  0.00     0.004 A 
ATOM     22  C   UNL A   1      31.566  25.971  25.166  1.00  0.00     0.030 A 
ENDBRANCH  15  16
ENDBRANCH  12  15
ENDBRANCH  11  12
ENDBRANCH   6  11
ENDBRANCH   3   6
ENDBRANCH   1   2
BRANCH   1  23
ATOM     23  C   UNL A   1      37.210  21.048  24.497  1.00  0.00     0.023 C 
BRANCH  23  24
ATOM     24  C   UNL A   1      38.005  19.836  25.001  1.00  0.00     0.023 C 
BRANCH  24  25
ATOM     25  C   UNL A   1      39.198  20.154  25.897  1.00  0.00     0.116 C 
BRANCH  25  26
ATOM     26  N   UNL A   1      40.203  19.107  25.885  1.00  0.00    -0.352 N 
ATOM     27  C   UNL A   1      41.561  19.208  26.059  1.00  0.00     0.251 C 
ATOM     28  H   UNL A   1      39.863  18.196  25.732  1.00  0.00     0.163 HD
ATOM     29  O   UNL A   1      42.280  18.231  25.896  1.00  0.00    -0.269 OA
BRANCH  27  30
ATOM     30  C   UNL A   1      42.155  20.514  26.410  1.00  0.00     0.039 A 
ATOM     31  C   UNL A   1      42.585  21.349  25.376  1.00  0.00     0.014 A 
ATOM     32  C   UNL A   1      42.278  20.914  27.743  1.00  0.00     0.014 A 
ATOM     33  C   UNL A   1      43.086  22.615  25.677  1.00  0.00     0.010 A 
ATOM     34  C   UNL A   1      42.720  22.202  28.037  1.00  0.00     0.010 A 
ATOM     35  C   UNL A   1      43.129  23.063  27.007  1.00  0.00    -0.014 A 
BRANCH  35  36
ATOM     36  C   UNL A   1      43.595  24.431  27.339  1.00  0.00     0.031 A 
ATOM     37  C   UNL A   1      42.609  25.488  27.747  1.00  0.00     0.074 A 
ATOM     38  C   UNL A   1      44.902  24.737  27.214  1.00  0.00     0.049 A 
ATOM     39  N   UNL A   1      42.817  26.751  28.014  1.00  0.00    -0.248 NA
ATOM     40  C   UNL A   1      41.199  25.076  27.844  1.00  0.00     0.031 C 
ATOM     41  C   UNL A   1      45.954  23.810  26.792  1.00  0.00     0.029 A 
ATOM     42  N   UNL A   1      45.564  25.921  27.421  1.00  0.00    -0.354 N 
ATOM     43  C   UNL A   1      41.567  27.288  28.293  1.00  0.00     0.074 A 
ATOM     44  C   UNL A   1      40.601  26.225  28.118  1.00  0.00     0.031 C 
ATOM     45  C   UNL A   1      47.132  24.454  26.793  1.00  0.00     0.029 A 
ATOM     46  C   UNL A   1      46.914  25.845  27.177  1.00  0.00     0.049 A 
ATOM     47  H   UNL A   1      45.116  26.745  27.717  1.00  0.00     0.167 HD
ATOM     48  C   UNL A   1      41.251  28.549  28.675  1.00  0.00     0.031 A 
ATOM     49  C   UNL A   1      47.868  26.792  27.246  1.00  0.00     0.031 A 
ATOM     50  C   UNL A   1      42.213  29.603  28.859  1.00  0.00     0.049 A 
ATOM     51  C   UNL A   1      47.492  28.187  27.661  1.00  0.00     0.074 A 
ATOM     52  C   UNL A   1      41.999  30.897  29.301  1.00  0.00     0.029 A 
ATOM     53  N   UNL A   1      43.571  29.482  28.610  1.00  0.00    -0.354 N 
ATOM     54  N   UNL A   1      46.313  28.661  27.985  1.00  0.00    -0.248 NA
ATOM     55  C   UNL A   1      48.579  29.173  27.728  1.00  0.00     0.031 C 
ATOM     56  C   UNL A   1      43.222  31.575  29.273  1.00  0.00     0.029 A 
ATOM     57  C   UNL A   1      44.205  30.687  28.865  1.00  0.00     0.049 A 
ATOM     58  H   UNL A   1      44.019  28.664  28.298  1.00  0.00     0.167 HD
ATOM     59  C   UNL A   1      46.521  29.993  28.320  1.00  0.00     0.074 A 
ATOM     60  C   UNL A   1      47.940  30.247  28.173  1.00  0.00     0.031 C 
ATOM     61  C   UNL A   1      45.618  30.922  28.714  1.00  0.00     0.031 A 
BRANCH  48  62
ATOM     62  C   UNL A   1      39.799  28.856  28.910  1.00  0.00    -0.014 A 
ATOM     63  C   UNL A   1      38.978  29.328  27.874  1.00  0.00     0.009 A 
ATOM     64  C   UNL A   1      39.237  28.641  30.178  1.00  0.00     0.009 A 
ATOM     65  C   UNL A   1      37.633  29.616  28.113  1.00  0.00     0.001 A 
ATOM     66  C   UNL A   1      37.885  28.903  30.407  1.00  0.00     0.001 A 
ATOM     67  C   UNL A   1      37.087  29.399  29.377  1.00  0.00     0.000 A 
ENDBRANCH  48  62
BRANCH  49  68
ATOM     68  C   UNL A   1      49.279  26.451  26.927  1.00  0.00    -0.014 A 
ATOM     69  C   UNL A   1      49.762  26.577  25.617  1.00  0.00     0.009 A 
ATOM     70  C   UNL A   1      50.147  25.992  27.930  1.00  0.00     0.009 A 
ATOM     71  C   UNL A   1      51.080  26.229  25.311  1.00  0.00     0.001 A 
ATOM     72  C   UNL A   1      51.471  25.670  27.628  1.00  0.00     0.001 A 
ATOM     73  C   UNL A   1      51.934  25.780  26.318  1.00  0.00     0.000 A 
ENDBRANCH  49  68
BRANCH  61  74
ATOM     74  C   UNL A   1      46.140  32.290  29.049  1.00  0.00    -0.014 A 
ATOM     75  C   UNL A   1      46.188  33.307  28.083  1.00  0.00     0.009 A 
ATOM     76  C   UNL A   1      46.547  32.576  30.361  1.00  0.00     0.009 A 
ATOM     77  C   UNL A   1      46.661  34.576  28.420  1.00  0.00     0.001 A 
ATOM     78  C   UNL A   1      46.994  33.852  30.702  1.00  0.00     0.001 A 
ATOM     79  C   UNL A   1      47.058  34.849  29.729  1.00  0.00     0.000 A 
ENDBRANCH  61  74
ENDBRANCH  35  36
ENDBRANCH  27  30
ENDBRANCH  25  26
ENDBRANCH  24  25
ENDBRANCH  23  24
ENDBRANCH   1  23
TORSDOF 15
ENDMDL
