MODEL 1
REMARK VINA RESULT:     -11.8      0.000      0.000
REMARK SMILES O=C(NCCCCNC(=O)[C@@H]1[C@H](C(=O)Nc2ccccc2Cc2ccccc2)[C@H]2C=C[C@@H]1O2)c1ccc(-c2c3nc(c(-c4ccccc4)c4ccc([nH]4)c(-c4ccccc4)c4nc(c(-c5ccccc5)c5ccc2[nH]5)C=C4)C=C3)cc1
REMARK SMILES IDX 6 1 5 2 4 3 3 4 1 5 2 6 34 8 35 9 81 10 36 11 80 12 37 13
REMARK SMILES IDX 38 14 39 15 74 16 40 17 79 18 73 19 75 20 41 21 78 22 72 23
REMARK SMILES IDX 71 24 42 26 64 27 49 28 63 29 50 30 53 31 62 32 76 33 51 34
REMARK SMILES IDX 52 35 61 37 77 38 54 39 43 40 44 41 48 42 45 43 47 44 46 45
REMARK SMILES IDX 65 46 66 47 70 48 67 49 69 50 68 51 55 52 56 53 60 54 57 55
REMARK SMILES IDX 59 56 58 57 7 58 8 59 9 60 10 62 11 63 12 64 32 65 29 66
REMARK SMILES IDX 31 67 33 68 30 69 13 70 14 71 15 72 16 74 17 75 21 76 18 77
REMARK SMILES IDX 20 78 19 79 22 80 23 81 24 82 28 83 25 84 27 85 26 86
REMARK H PARENT 3 7 75 25 53 36 8 61 15 73
REMARK Flexibility Score: inf
ROOT
ATOM      1  C   UNL A   1      38.142  22.639  25.359  1.00  0.00     0.023 C 
ENDROOT
BRANCH   1   2
ATOM      2  C   UNL A   1      38.267  21.175  24.913  1.00  0.00     0.023 C 
BRANCH   2   3
ATOM      3  C   UNL A   1      38.488  20.156  26.025  1.00  0.00     0.116 C 
BRANCH   3   4
ATOM      4  N   UNL A   1      39.661  19.328  25.805  1.00  0.00    -0.352 N 
ATOM      5  O   UNL A   1      41.838  18.813  25.576  1.00  0.00    -0.269 OA
ATOM      6  C   UNL A   1      40.994  19.628  25.934  1.00  0.00     0.251 C 
ATOM      7  H   UNL A   1      39.469  18.407  25.518  1.00  0.00     0.163 HD
BRANCH   6   8
ATOM      8  C   UNL A   1      41.427  20.931  26.488  1.00  0.00     0.039 A 
ATOM      9  C   UNL A   1      41.872  21.961  25.658  1.00  0.00     0.014 A 
ATOM     10  C   UNL A   1      41.325  21.141  27.868  1.00  0.00     0.014 A 
ATOM     11  C   UNL A   1      42.314  23.160  26.213  1.00  0.00     0.010 A 
ATOM     12  C   UNL A   1      41.699  22.372  28.417  1.00  0.00     0.010 A 
ATOM     13  C   UNL A   1      42.210  23.388  27.596  1.00  0.00    -0.014 A 
BRANCH  13  14
ATOM     14  C   UNL A   1      42.541  24.726  28.154  1.00  0.00     0.031 A 
ATOM     15  C   UNL A   1      41.485  25.779  28.348  1.00  0.00     0.074 A 
ATOM     16  C   UNL A   1      43.823  24.992  28.475  1.00  0.00     0.049 A 
ATOM     17  N   UNL A   1      41.616  26.999  28.808  1.00  0.00    -0.248 NA
ATOM     18  C   UNL A   1      40.106  25.425  27.976  1.00  0.00     0.031 C 
ATOM     19  C   UNL A   1      44.943  24.061  28.319  1.00  0.00     0.029 A 
ATOM     20  N   UNL A   1      44.402  26.119  29.002  1.00  0.00    -0.354 N 
ATOM     21  C   UNL A   1      40.347  27.563  28.766  1.00  0.00     0.074 A 
ATOM     22  C   UNL A   1      39.461  26.560  28.214  1.00  0.00     0.031 C 
ATOM     23  C   UNL A   1      46.065  24.641  28.772  1.00  0.00     0.029 A 
ATOM     24  C   UNL A   1      45.759  26.004  29.186  1.00  0.00     0.049 A 
ATOM     25  H   UNL A   1      43.894  26.931  29.227  1.00  0.00     0.167 HD
ATOM     26  C   UNL A   1      39.958  28.802  29.154  1.00  0.00     0.031 A 
ATOM     27  C   UNL A   1      46.666  26.901  29.615  1.00  0.00     0.031 A 
ATOM     28  C   UNL A   1      40.843  29.801  29.699  1.00  0.00     0.049 A 
ATOM     29  C   UNL A   1      46.208  28.280  29.990  1.00  0.00     0.074 A 
ATOM     30  C   UNL A   1      40.528  31.068  30.161  1.00  0.00     0.029 A 
ATOM     31  N   UNL A   1      42.213  29.652  29.843  1.00  0.00    -0.354 N 
ATOM     32  N   UNL A   1      44.994  28.774  30.001  1.00  0.00    -0.248 NA
ATOM     33  C   UNL A   1      47.248  29.227  30.418  1.00  0.00     0.031 C 
ATOM     34  C   UNL A   1      41.716  31.710  30.523  1.00  0.00     0.029 A 
ATOM     35  C   UNL A   1      42.763  30.818  30.354  1.00  0.00     0.049 A 
ATOM     36  H   UNL A   1      42.721  28.840  29.617  1.00  0.00     0.167 HD
ATOM     37  C   UNL A   1      45.122  30.078  30.460  1.00  0.00     0.074 A 
ATOM     38  C   UNL A   1      46.527  30.289  30.741  1.00  0.00     0.031 C 
ATOM     39  C   UNL A   1      44.161  31.018  30.631  1.00  0.00     0.031 A 
BRANCH  26  40
ATOM     40  C   UNL A   1      38.509  29.172  28.989  1.00  0.00    -0.014 A 
ATOM     41  C   UNL A   1      37.609  29.108  30.064  1.00  0.00     0.009 A 
ATOM     42  C   UNL A   1      38.059  29.681  27.759  1.00  0.00     0.009 A 
ATOM     43  C   UNL A   1      36.286  29.526  29.905  1.00  0.00     0.001 A 
ATOM     44  C   UNL A   1      36.743  30.125  27.611  1.00  0.00     0.001 A 
ATOM     45  C   UNL A   1      35.856  30.042  28.683  1.00  0.00     0.000 A 
ENDBRANCH  26  40
BRANCH  27  46
ATOM     46  C   UNL A   1      48.106  26.536  29.681  1.00  0.00    -0.014 A 
ATOM     47  C   UNL A   1      48.963  26.799  28.602  1.00  0.00     0.009 A 
ATOM     48  C   UNL A   1      48.625  25.892  30.816  1.00  0.00     0.009 A 
ATOM     49  C   UNL A   1      50.299  26.391  28.644  1.00  0.00     0.001 A 
ATOM     50  C   UNL A   1      49.968  25.519  30.870  1.00  0.00     0.001 A 
ATOM     51  C   UNL A   1      50.800  25.755  29.779  1.00  0.00     0.000 A 
ENDBRANCH  27  46
BRANCH  39  52
ATOM     52  C   UNL A   1      44.592  32.347  31.186  1.00  0.00    -0.014 A 
ATOM     53  C   UNL A   1      44.961  33.408  30.344  1.00  0.00     0.009 A 
ATOM     54  C   UNL A   1      44.608  32.546  32.575  1.00  0.00     0.009 A 
ATOM     55  C   UNL A   1      45.375  34.627  30.884  1.00  0.00     0.001 A 
ATOM     56  C   UNL A   1      44.987  33.778  33.111  1.00  0.00     0.001 A 
ATOM     57  C   UNL A   1      45.381  34.813  32.266  1.00  0.00     0.000 A 
ENDBRANCH  39  52
ENDBRANCH  13  14
ENDBRANCH   6   8
ENDBRANCH   3   4
ENDBRANCH   2   3
ENDBRANCH   1   2
BRANCH   1  58
ATOM     58  C   UNL A   1      36.761  23.069  25.874  1.00  0.00     0.116 C 
BRANCH  58  59
ATOM     59  N   UNL A   1      36.032  23.846  24.894  1.00  0.00    -0.356 N 
ATOM     60  C   UNL A   1      35.381  23.239  23.852  1.00  0.00     0.227 C 
ATOM     61  H   UNL A   1      36.003  24.826  24.977  1.00  0.00     0.163 HD
ATOM     62  O   UNL A   1      35.979  23.105  22.788  1.00  0.00    -0.275 OA
BRANCH  60  63
ATOM     63  C   UNL A   1      33.992  22.700  24.099  1.00  0.00     0.127 C 
ATOM     64  C   UNL A   1      32.832  23.440  23.366  1.00  0.00     0.127 C 
ATOM     65  C   UNL A   1      33.465  22.721  25.553  1.00  0.00     0.155 C 
ATOM     66  C   UNL A   1      31.775  23.562  24.460  1.00  0.00     0.155 C 
ATOM     67  C   UNL A   1      32.360  21.711  25.668  1.00  0.00     0.004 C 
ATOM     68  O   UNL A   1      32.631  23.911  25.572  1.00  0.00    -0.365 OA
ATOM     69  C   UNL A   1      31.336  22.205  24.954  1.00  0.00     0.004 C 
BRANCH  64  70
ATOM     70  C   UNL A   1      33.054  24.736  22.572  1.00  0.00     0.231 C 
ATOM     71  O   UNL A   1      33.254  24.610  21.349  1.00  0.00    -0.274 OA
ATOM     72  N   UNL A   1      32.915  26.029  22.979  1.00  0.00    -0.325 N 
ATOM     73  H   UNL A   1      32.941  26.645  22.211  1.00  0.00     0.169 HD
BRANCH  72  74
ATOM     74  C   UNL A   1      32.744  26.739  24.190  1.00  0.00     0.044 A 
ATOM     75  C   UNL A   1      33.902  26.868  24.972  1.00  0.00     0.026 A 
ATOM     76  C   UNL A   1      31.512  27.152  24.742  1.00  0.00    -0.020 A 
ATOM     77  C   UNL A   1      33.880  27.553  26.188  1.00  0.00     0.002 A 
ATOM     78  C   UNL A   1      31.512  27.886  25.941  1.00  0.00     0.006 A 
ATOM     79  C   UNL A   1      32.690  28.098  26.653  1.00  0.00     0.000 A 
BRANCH  76  80
ATOM     80  C   UNL A   1      30.220  26.861  24.052  1.00  0.00     0.073 C 
BRANCH  80  81
ATOM     81  C   UNL A   1      29.445  27.854  23.214  1.00  0.00    -0.044 A 
ATOM     82  C   UNL A   1      30.143  28.837  22.492  1.00  0.00     0.004 A 
ATOM     83  C   UNL A   1      28.059  27.991  23.375  1.00  0.00     0.004 A 
ATOM     84  C   UNL A   1      29.478  29.956  21.990  1.00  0.00     0.000 A 
ATOM     85  C   UNL A   1      27.395  29.108  22.863  1.00  0.00     0.000 A 
ATOM     86  C   UNL A   1      28.106  30.096  22.183  1.00  0.00     0.000 A 
ENDBRANCH  80  81
ENDBRANCH  76  80
ENDBRANCH  72  74
ENDBRANCH  64  70
ENDBRANCH  60  63
ENDBRANCH  58  59
ENDBRANCH   1  58
TORSDOF 15
ENDMDL
MODEL 2
REMARK VINA RESULT:     -11.8      2.042      6.736
REMARK SMILES O=C(NCCCCNC(=O)[C@@H]1[C@H](C(=O)Nc2ccccc2Cc2ccccc2)[C@H]2C=C[C@@H]1O2)c1ccc(-c2c3nc(c(-c4ccccc4)c4ccc([nH]4)c(-c4ccccc4)c4nc(c(-c5ccccc5)c5ccc2[nH]5)C=C4)C=C3)cc1
REMARK SMILES IDX 6 1 5 2 4 3 3 4 1 5 2 6 34 8 35 9 81 10 36 11 80 12 37 13
REMARK SMILES IDX 38 14 39 15 74 16 40 17 79 18 73 19 75 20 41 21 78 22 72 23
REMARK SMILES IDX 71 24 42 26 64 27 49 28 63 29 50 30 53 31 62 32 76 33 51 34
REMARK SMILES IDX 52 35 61 37 77 38 54 39 43 40 44 41 48 42 45 43 47 44 46 45
REMARK SMILES IDX 65 46 66 47 70 48 67 49 69 50 68 51 55 52 56 53 60 54 57 55
REMARK SMILES IDX 59 56 58 57 7 58 8 59 9 60 10 62 11 63 12 64 32 65 29 66
REMARK SMILES IDX 31 67 33 68 30 69 13 70 14 71 15 72 16 74 17 75 21 76 18 77
REMARK SMILES IDX 20 78 19 79 22 80 23 81 24 82 28 83 25 84 27 85 26 86
REMARK H PARENT 3 7 75 25 53 36 8 61 15 73
REMARK Flexibility Score: inf
ROOT
ATOM      1  C   UNL A   1      31.309  27.543  26.789  1.00  0.00     0.023 C 
ENDROOT
BRANCH   1   2
ATOM      2  C   UNL A   1      32.572  28.229  26.247  1.00  0.00     0.023 C 
BRANCH   2   3
ATOM      3  C   UNL A   1      33.642  28.565  27.279  1.00  0.00     0.116 C 
BRANCH   3   4
ATOM      4  N   UNL A   1      33.612  29.959  27.687  1.00  0.00    -0.352 N 
ATOM      5  O   UNL A   1      34.309  31.865  28.655  1.00  0.00    -0.269 OA
ATOM      6  C   UNL A   1      34.582  30.732  28.274  1.00  0.00     0.251 C 
ATOM      7  H   UNL A   1      32.761  30.422  27.515  1.00  0.00     0.163 HD
BRANCH   6   8
ATOM      8  C   UNL A   1      35.954  30.208  28.465  1.00  0.00     0.039 A 
ATOM      9  C   UNL A   1      36.909  30.285  27.449  1.00  0.00     0.014 A 
ATOM     10  C   UNL A   1      36.304  29.683  29.713  1.00  0.00     0.014 A 
ATOM     11  C   UNL A   1      38.177  29.743  27.645  1.00  0.00     0.010 A 
ATOM     12  C   UNL A   1      37.600  29.206  29.933  1.00  0.00     0.010 A 
ATOM     13  C   UNL A   1      38.545  29.220  28.896  1.00  0.00    -0.014 A 
BRANCH  13  14
ATOM     14  C   UNL A   1      39.948  28.787  29.136  1.00  0.00     0.031 A 
ATOM     15  C   UNL A   1      40.954  29.703  29.775  1.00  0.00     0.074 A 
ATOM     16  C   UNL A   1      40.315  27.547  28.754  1.00  0.00     0.049 A 
ATOM     17  N   UNL A   1      42.219  29.480  30.036  1.00  0.00    -0.248 NA
ATOM     18  C   UNL A   1      40.490  31.043  30.167  1.00  0.00     0.031 C 
ATOM     19  C   UNL A   1      39.436  26.568  28.108  1.00  0.00     0.029 A 
ATOM     20  N   UNL A   1      41.518  26.895  28.853  1.00  0.00    -0.354 N 
ATOM     21  C   UNL A   1      42.705  30.650  30.606  1.00  0.00     0.074 A 
ATOM     22  C   UNL A   1      41.605  31.592  30.632  1.00  0.00     0.031 C 
ATOM     23  C   UNL A   1      40.118  25.432  27.902  1.00  0.00     0.029 A 
ATOM     24  C   UNL A   1      41.496  25.622  28.336  1.00  0.00     0.049 A 
ATOM     25  H   UNL A   1      42.319  27.300  29.256  1.00  0.00     0.167 HD
ATOM     26  C   UNL A   1      43.952  30.913  31.067  1.00  0.00     0.031 A 
ATOM     27  C   UNL A   1      42.480  24.714  28.200  1.00  0.00     0.031 A 
ATOM     28  C   UNL A   1      45.047  29.976  31.036  1.00  0.00     0.049 A 
ATOM     29  C   UNL A   1      43.862  25.056  28.676  1.00  0.00     0.074 A 
ATOM     30  C   UNL A   1      46.333  30.140  31.521  1.00  0.00     0.029 A 
ATOM     31  N   UNL A   1      44.989  28.707  30.480  1.00  0.00    -0.354 N 
ATOM     32  N   UNL A   1      44.286  26.145  29.268  1.00  0.00    -0.248 NA
ATOM     33  C   UNL A   1      44.902  24.038  28.468  1.00  0.00     0.031 C 
ATOM     34  C   UNL A   1      47.073  28.998  31.200  1.00  0.00     0.029 A 
ATOM     35  C   UNL A   1      46.228  28.093  30.578  1.00  0.00     0.049 A 
ATOM     36  H   UNL A   1      44.188  28.304  30.075  1.00  0.00     0.167 HD
ATOM     37  C   UNL A   1      45.634  25.933  29.526  1.00  0.00     0.074 A 
ATOM     38  C   UNL A   1      45.948  24.602  29.050  1.00  0.00     0.031 C 
ATOM     39  C   UNL A   1      46.531  26.769  30.103  1.00  0.00     0.031 A 
BRANCH  26  40
ATOM     40  C   UNL A   1      44.223  32.281  31.632  1.00  0.00    -0.014 A 
ATOM     41  C   UNL A   1      44.068  32.553  33.000  1.00  0.00     0.009 A 
ATOM     42  C   UNL A   1      44.731  33.289  30.795  1.00  0.00     0.009 A 
ATOM     43  C   UNL A   1      44.397  33.810  33.513  1.00  0.00     0.001 A 
ATOM     44  C   UNL A   1      45.085  34.536  31.316  1.00  0.00     0.001 A 
ATOM     45  C   UNL A   1      44.912  34.797  32.674  1.00  0.00     0.000 A 
ENDBRANCH  26  40
BRANCH  27  46
ATOM     46  C   UNL A   1      42.203  23.403  27.554  1.00  0.00    -0.014 A 
ATOM     47  C   UNL A   1      41.635  22.348  28.284  1.00  0.00     0.009 A 
ATOM     48  C   UNL A   1      42.537  23.190  26.206  1.00  0.00     0.009 A 
ATOM     49  C   UNL A   1      41.442  21.099  27.689  1.00  0.00     0.001 A 
ATOM     50  C   UNL A   1      42.308  21.953  25.604  1.00  0.00     0.001 A 
ATOM     51  C   UNL A   1      41.775  20.904  26.350  1.00  0.00     0.000 A 
ENDBRANCH  27  46
BRANCH  39  52
ATOM     52  C   UNL A   1      47.929  26.250  30.290  1.00  0.00    -0.014 A 
ATOM     53  C   UNL A   1      48.871  26.289  29.249  1.00  0.00     0.009 A 
ATOM     54  C   UNL A   1      48.317  25.734  31.537  1.00  0.00     0.009 A 
ATOM     55  C   UNL A   1      50.158  25.785  29.442  1.00  0.00     0.001 A 
ATOM     56  C   UNL A   1      49.615  25.264  31.737  1.00  0.00     0.001 A 
ATOM     57  C   UNL A   1      50.531  25.278  30.687  1.00  0.00     0.000 A 
ENDBRANCH  39  52
ENDBRANCH  13  14
ENDBRANCH   6   8
ENDBRANCH   3   4
ENDBRANCH   2   3
ENDBRANCH   1   2
BRANCH   1  58
ATOM     58  C   UNL A   1      30.890  26.249  26.076  1.00  0.00     0.116 C 
BRANCH  58  59
ATOM     59  N   UNL A   1      31.195  25.071  26.860  1.00  0.00    -0.356 N 
ATOM     60  C   UNL A   1      31.223  23.828  26.286  1.00  0.00     0.227 C 
ATOM     61  H   UNL A   1      31.385  25.165  27.821  1.00  0.00     0.163 HD
ATOM     62  O   UNL A   1      30.198  23.150  26.307  1.00  0.00    -0.275 OA
BRANCH  60  63
ATOM     63  C   UNL A   1      32.491  23.394  25.591  1.00  0.00     0.127 C 
ATOM     64  C   UNL A   1      32.569  23.693  24.062  1.00  0.00     0.127 C 
ATOM     65  C   UNL A   1      32.832  21.885  25.600  1.00  0.00     0.155 C 
ATOM     66  C   UNL A   1      33.134  22.391  23.501  1.00  0.00     0.155 C 
ATOM     67  C   UNL A   1      34.305  21.733  25.351  1.00  0.00     0.004 C 
ATOM     68  O   UNL A   1      32.377  21.448  24.292  1.00  0.00    -0.365 OA
ATOM     69  C   UNL A   1      34.499  22.092  24.072  1.00  0.00     0.004 C 
BRANCH  64  70
ATOM     70  C   UNL A   1      31.374  24.242  23.269  1.00  0.00     0.231 C 
ATOM     71  O   UNL A   1      30.413  23.468  23.108  1.00  0.00    -0.274 OA
ATOM     72  N   UNL A   1      31.138  25.514  22.840  1.00  0.00    -0.325 N 
ATOM     73  H   UNL A   1      30.211  25.612  22.523  1.00  0.00     0.169 HD
BRANCH  72  74
ATOM     74  C   UNL A   1      31.844  26.733  22.719  1.00  0.00     0.044 A 
ATOM     75  C   UNL A   1      33.242  26.610  22.694  1.00  0.00     0.026 A 
ATOM     76  C   UNL A   1      31.286  28.027  22.805  1.00  0.00    -0.020 A 
ATOM     77  C   UNL A   1      34.063  27.732  22.569  1.00  0.00     0.002 A 
ATOM     78  C   UNL A   1      32.120  29.145  22.625  1.00  0.00     0.006 A 
ATOM     79  C   UNL A   1      33.498  28.998  22.494  1.00  0.00     0.000 A 
BRANCH  76  80
ATOM     80  C   UNL A   1      29.823  28.224  23.038  1.00  0.00     0.073 C 
BRANCH  80  81
ATOM     81  C   UNL A   1      29.090  29.535  22.867  1.00  0.00    -0.044 A 
ATOM     82  C   UNL A   1      28.487  29.830  21.631  1.00  0.00     0.004 A 
ATOM     83  C   UNL A   1      29.249  30.566  23.803  1.00  0.00     0.004 A 
ATOM     84  C   UNL A   1      28.102  31.134  21.322  1.00  0.00     0.000 A 
ATOM     85  C   UNL A   1      28.854  31.869  23.493  1.00  0.00     0.000 A 
ATOM     86  C   UNL A   1      28.293  32.155  22.249  1.00  0.00     0.000 A 
ENDBRANCH  80  81
ENDBRANCH  76  80
ENDBRANCH  72  74
ENDBRANCH  64  70
ENDBRANCH  60  63
ENDBRANCH  58  59
ENDBRANCH   1  58
TORSDOF 15
ENDMDL
MODEL 3
REMARK VINA RESULT:     -11.7      3.435      8.840
REMARK SMILES O=C(NCCCCNC(=O)[C@@H]1[C@H](C(=O)Nc2ccccc2Cc2ccccc2)[C@H]2C=C[C@@H]1O2)c1ccc(-c2c3nc(c(-c4ccccc4)c4ccc([nH]4)c(-c4ccccc4)c4nc(c(-c5ccccc5)c5ccc2[nH]5)C=C4)C=C3)cc1
REMARK SMILES IDX 6 1 5 2 4 3 3 4 1 5 2 6 34 8 35 9 81 10 36 11 80 12 37 13
REMARK SMILES IDX 38 14 39 15 74 16 40 17 79 18 73 19 75 20 41 21 78 22 72 23
REMARK SMILES IDX 71 24 42 26 64 27 49 28 63 29 50 30 53 31 62 32 76 33 51 34
REMARK SMILES IDX 52 35 61 37 77 38 54 39 43 40 44 41 48 42 45 43 47 44 46 45
REMARK SMILES IDX 65 46 66 47 70 48 67 49 69 50 68 51 55 52 56 53 60 54 57 55
REMARK SMILES IDX 59 56 58 57 7 58 8 59 9 60 10 62 11 63 12 64 32 65 29 66
REMARK SMILES IDX 31 67 33 68 30 69 13 70 14 71 15 72 16 74 17 75 21 76 18 77
REMARK SMILES IDX 20 78 19 79 22 80 23 81 24 82 28 83 25 84 27 85 26 86
REMARK H PARENT 3 7 75 25 53 36 8 61 15 73
REMARK Flexibility Score: inf
ROOT
ATOM      1  C   UNL A   1      31.595  31.056  26.734  1.00  0.00     0.023 C 
ENDROOT
BRANCH   1   2
ATOM      2  C   UNL A   1      31.449  32.580  26.847  1.00  0.00     0.023 C 
BRANCH   2   3
ATOM      3  C   UNL A   1      32.738  33.358  27.081  1.00  0.00     0.116 C 
BRANCH   3   4
ATOM      4  N   UNL A   1      32.566  34.471  27.999  1.00  0.00    -0.352 N 
ATOM      5  O   UNL A   1      32.907  35.744  29.820  1.00  0.00    -0.269 OA
ATOM      6  C   UNL A   1      33.299  34.831  29.102  1.00  0.00     0.251 C 
ATOM      7  H   UNL A   1      31.804  35.060  27.797  1.00  0.00     0.163 HD
BRANCH   6   8
ATOM      8  C   UNL A   1      34.550  34.118  29.445  1.00  0.00     0.039 A 
ATOM      9  C   UNL A   1      35.754  34.415  28.803  1.00  0.00     0.014 A 
ATOM     10  C   UNL A   1      34.524  33.173  30.476  1.00  0.00     0.014 A 
ATOM     11  C   UNL A   1      36.905  33.695  29.117  1.00  0.00     0.010 A 
ATOM     12  C   UNL A   1      35.697  32.504  30.841  1.00  0.00     0.010 A 
ATOM     13  C   UNL A   1      36.896  32.750  30.156  1.00  0.00    -0.014 A 
BRANCH  13  14
ATOM     14  C   UNL A   1      38.166  32.103  30.582  1.00  0.00     0.031 A 
ATOM     15  C   UNL A   1      38.645  30.825  29.951  1.00  0.00     0.074 A 
ATOM     16  C   UNL A   1      38.885  32.678  31.565  1.00  0.00     0.049 A 
ATOM     17  N   UNL A   1      39.722  30.128  30.222  1.00  0.00    -0.248 NA
ATOM     18  C   UNL A   1      37.812  30.248  28.884  1.00  0.00     0.031 C 
ATOM     19  C   UNL A   1      38.519  33.911  32.269  1.00  0.00     0.029 A 
ATOM     20  N   UNL A   1      40.073  32.310  32.144  1.00  0.00    -0.354 N 
ATOM     21  C   UNL A   1      39.689  29.027  29.376  1.00  0.00     0.074 A 
ATOM     22  C   UNL A   1      38.474  29.133  28.596  1.00  0.00     0.031 C 
ATOM     23  C   UNL A   1      39.477  34.213  33.157  1.00  0.00     0.029 A 
ATOM     24  C   UNL A   1      40.490  33.165  33.135  1.00  0.00     0.049 A 
ATOM     25  H   UNL A   1      40.579  31.509  31.874  1.00  0.00     0.167 HD
ATOM     26  C   UNL A   1      40.591  28.022  29.259  1.00  0.00     0.031 A 
ATOM     27  C   UNL A   1      41.553  33.103  33.957  1.00  0.00     0.031 A 
ATOM     28  C   UNL A   1      41.798  27.915  30.041  1.00  0.00     0.049 A 
ATOM     29  C   UNL A   1      42.507  31.950  33.834  1.00  0.00     0.074 A 
ATOM     30  C   UNL A   1      42.792  26.955  29.959  1.00  0.00     0.029 A 
ATOM     31  N   UNL A   1      42.168  28.788  31.051  1.00  0.00    -0.354 N 
ATOM     32  N   UNL A   1      42.491  30.952  32.987  1.00  0.00    -0.248 NA
ATOM     33  C   UNL A   1      43.629  31.919  34.783  1.00  0.00     0.031 C 
ATOM     34  C   UNL A   1      43.731  27.209  30.964  1.00  0.00     0.029 A 
ATOM     35  C   UNL A   1      43.358  28.367  31.625  1.00  0.00     0.049 A 
ATOM     36  H   UNL A   1      41.661  29.587  31.322  1.00  0.00     0.167 HD
ATOM     37  C   UNL A   1      43.612  30.189  33.282  1.00  0.00     0.074 A 
ATOM     38  C   UNL A   1      44.299  30.855  34.368  1.00  0.00     0.031 C 
ATOM     39  C   UNL A   1      44.034  29.037  32.705  1.00  0.00     0.031 A 
BRANCH  26  40
ATOM     40  C   UNL A   1      40.308  26.930  28.263  1.00  0.00    -0.014 A 
ATOM     41  C   UNL A   1      40.853  26.959  26.970  1.00  0.00     0.009 A 
ATOM     42  C   UNL A   1      39.559  25.809  28.657  1.00  0.00     0.009 A 
ATOM     43  C   UNL A   1      40.637  25.899  26.087  1.00  0.00     0.001 A 
ATOM     44  C   UNL A   1      39.368  24.737  27.782  1.00  0.00     0.001 A 
ATOM     45  C   UNL A   1      39.903  24.786  26.495  1.00  0.00     0.000 A 
ENDBRANCH  26  40
BRANCH  27  46
ATOM     46  C   UNL A   1      41.758  34.149  34.995  1.00  0.00    -0.014 A 
ATOM     47  C   UNL A   1      41.246  33.984  36.291  1.00  0.00     0.009 A 
ATOM     48  C   UNL A   1      42.442  35.335  34.684  1.00  0.00     0.009 A 
ATOM     49  C   UNL A   1      41.383  35.000  37.240  1.00  0.00     0.001 A 
ATOM     50  C   UNL A   1      42.610  36.332  35.645  1.00  0.00     0.001 A 
ATOM     51  C   UNL A   1      42.067  36.171  36.918  1.00  0.00     0.000 A 
ENDBRANCH  27  46
BRANCH  39  52
ATOM     52  C   UNL A   1      45.320  28.448  33.212  1.00  0.00    -0.014 A 
ATOM     53  C   UNL A   1      46.561  28.820  32.671  1.00  0.00     0.009 A 
ATOM     54  C   UNL A   1      45.291  27.520  34.266  1.00  0.00     0.009 A 
ATOM     55  C   UNL A   1      47.741  28.245  33.148  1.00  0.00     0.001 A 
ATOM     56  C   UNL A   1      46.474  26.975  34.764  1.00  0.00     0.001 A 
ATOM     57  C   UNL A   1      47.697  27.329  34.197  1.00  0.00     0.000 A 
ENDBRANCH  39  52
ENDBRANCH  13  14
ENDBRANCH   6   8
ENDBRANCH   3   4
ENDBRANCH   2   3
ENDBRANCH   1   2
BRANCH   1  58
ATOM     58  C   UNL A   1      33.033  30.522  26.680  1.00  0.00     0.116 C 
BRANCH  58  59
ATOM     59  N   UNL A   1      33.381  30.023  25.366  1.00  0.00    -0.356 N 
ATOM     60  C   UNL A   1      33.118  28.727  25.010  1.00  0.00     0.227 C 
ATOM     61  H   UNL A   1      33.812  30.626  24.718  1.00  0.00     0.163 HD
ATOM     62  O   UNL A   1      33.996  27.885  25.179  1.00  0.00    -0.275 OA
BRANCH  60  63
ATOM     63  C   UNL A   1      31.735  28.395  24.502  1.00  0.00     0.127 C 
ATOM     64  C   UNL A   1      30.836  27.559  25.464  1.00  0.00     0.127 C 
ATOM     65  C   UNL A   1      31.631  27.548  23.212  1.00  0.00     0.155 C 
ATOM     66  C   UNL A   1      30.221  26.526  24.524  1.00  0.00     0.155 C 
ATOM     67  C   UNL A   1      30.275  27.773  22.609  1.00  0.00     0.004 C 
ATOM     68  O   UNL A   1      31.385  26.212  23.727  1.00  0.00    -0.365 OA
ATOM     69  C   UNL A   1      29.401  27.186  23.442  1.00  0.00     0.004 C 
BRANCH  64  70
ATOM     70  C   UNL A   1      31.368  26.963  26.776  1.00  0.00     0.231 C 
ATOM     71  O   UNL A   1      31.516  27.756  27.725  1.00  0.00    -0.274 OA
ATOM     72  N   UNL A   1      31.561  25.657  27.113  1.00  0.00    -0.325 N 
ATOM     73  H   UNL A   1      31.732  25.563  28.078  1.00  0.00     0.169 HD
BRANCH  72  74
ATOM     74  C   UNL A   1      31.586  24.397  26.471  1.00  0.00     0.044 A 
ATOM     75  C   UNL A   1      30.465  23.587  26.708  1.00  0.00     0.026 A 
ATOM     76  C   UNL A   1      32.687  23.837  25.787  1.00  0.00    -0.020 A 
ATOM     77  C   UNL A   1      30.354  22.321  26.128  1.00  0.00     0.002 A 
ATOM     78  C   UNL A   1      32.541  22.584  25.166  1.00  0.00     0.006 A 
ATOM     79  C   UNL A   1      31.377  21.837  25.324  1.00  0.00     0.000 A 
BRANCH  76  80
ATOM     80  C   UNL A   1      33.983  24.571  25.677  1.00  0.00     0.073 C 
BRANCH  80  81
ATOM     81  C   UNL A   1      35.280  23.967  25.187  1.00  0.00    -0.044 A 
ATOM     82  C   UNL A   1      35.453  23.733  23.812  1.00  0.00     0.004 A 
ATOM     83  C   UNL A   1      36.176  23.377  26.090  1.00  0.00     0.004 A 
ATOM     84  C   UNL A   1      36.465  22.887  23.356  1.00  0.00     0.000 A 
ATOM     85  C   UNL A   1      37.193  22.539  25.629  1.00  0.00     0.000 A 
ATOM     86  C   UNL A   1      37.329  22.283  24.266  1.00  0.00     0.000 A 
ENDBRANCH  80  81
ENDBRANCH  76  80
ENDBRANCH  72  74
ENDBRANCH  64  70
ENDBRANCH  60  63
ENDBRANCH  58  59
ENDBRANCH   1  58
TORSDOF 15
ENDMDL
