MODEL 1
REMARK VINA RESULT:     -11.2      0.000      0.000
REMARK SMILES CC[C@@H]1CCCC[N@H+]1Cc1c(C(=O)NCCCCNC(=O)c2ccc(-c3c4nc(c(-c5ccccc5)c5ccc([nH]5)c(-c5ccccc5)c5nc(c(-c6ccccc6)c6ccc3[nH]6)C=C5)C=C4)cc2)oc2ccccc12
REMARK SMILES IDX 16 1 15 2 14 3 12 4 13 5 11 7 10 8 76 9 70 10 71 11 75 12
REMARK SMILES IDX 72 13 74 14 73 15 9 16 8 17 3 18 4 19 5 20 7 21 6 23 2 24
REMARK SMILES IDX 1 25 17 26 18 27 19 28 20 29 21 31 22 32 23 33 69 34 24 35
REMARK SMILES IDX 68 36 25 37 26 38 27 39 62 40 28 41 67 42 61 43 63 44 29 45
REMARK SMILES IDX 66 46 60 47 59 48 30 50 52 51 37 52 51 53 38 54 41 55 50 56
REMARK SMILES IDX 64 57 39 58 40 59 49 61 65 62 42 63 31 64 32 65 36 66 33 67
REMARK SMILES IDX 35 68 34 69 53 70 54 71 58 72 55 73 57 74 56 75 43 76 44 77
REMARK SMILES IDX 48 78 45 79 47 80 46 81
REMARK H PARENT 14 6 8 22 19 30 63 49 41 60
REMARK Flexibility Score: inf
ROOT
ATOM      1  C   UNL A   1      34.764  24.272  25.446  1.00  0.00     0.023 C 
ENDROOT
BRANCH   1   2
ATOM      2  C   UNL A   1      33.466  24.345  24.641  1.00  0.00     0.116 C 
BRANCH   2   3
ATOM      3  N   UNL A   1      33.668  24.946  23.333  1.00  0.00    -0.349 N 
ATOM      4  C   UNL A   1      33.619  26.255  22.898  1.00  0.00     0.287 C 
ATOM      5  O   UNL A   1      33.823  26.413  21.691  1.00  0.00    -0.266 OA
ATOM      6  H   UNL A   1      33.878  24.297  22.623  1.00  0.00     0.163 HD
BRANCH   4   7
ATOM      7  C   UNL A   1      33.333  27.360  23.802  1.00  0.00     0.201 A 
ATOM      8  C   UNL A   1      32.314  28.325  23.812  1.00  0.00     0.066 A 
ATOM      9  C   UNL A   1      32.515  29.080  25.028  1.00  0.00     0.030 A 
ATOM     10  O   UNL A   1      34.174  27.587  24.851  1.00  0.00    -0.450 OA
ATOM     11  C   UNL A   1      33.708  28.629  25.564  1.00  0.00     0.135 A 
ATOM     12  C   UNL A   1      31.856  30.109  25.729  1.00  0.00     0.012 A 
ATOM     13  C   UNL A   1      34.339  29.163  26.686  1.00  0.00     0.048 A 
ATOM     14  C   UNL A   1      32.464  30.686  26.855  1.00  0.00     0.001 A 
ATOM     15  C   UNL A   1      33.696  30.228  27.316  1.00  0.00     0.004 A 
BRANCH   8  16
ATOM     16  C   UNL A   1      31.224  28.492  22.779  1.00  0.00     0.304 C 
BRANCH  16  17
ATOM     17  N   UNL A   1      29.837  28.502  23.318  1.00  0.00    -0.329 N 
ATOM     18  C   UNL A   1      28.906  29.468  22.700  1.00  0.00     0.184 C 
ATOM     19  C   UNL A   1      27.484  29.382  23.301  1.00  0.00     0.065 C 
ATOM     20  C   UNL A   1      26.940  27.964  23.274  1.00  0.00     0.012 C 
ATOM     21  C   UNL A   1      29.298  27.132  23.404  1.00  0.00     0.262 C 
ATOM     22  H   UNL A   1      29.922  28.870  24.266  1.00  0.00     0.348 HD
ATOM     23  C   UNL A   1      27.902  27.057  24.021  1.00  0.00     0.062 C 
BRANCH  18  24
ATOM     24  C   UNL A   1      29.384  30.944  22.763  1.00  0.00     0.061 C 
ATOM     25  C   UNL A   1      28.433  31.929  23.430  1.00  0.00     0.010 C 
ENDBRANCH  18  24
ENDBRANCH  16  17
ENDBRANCH   8  16
ENDBRANCH   4   7
ENDBRANCH   2   3
ENDBRANCH   1   2
BRANCH   1  26
ATOM     26  C   UNL A   1      35.716  23.152  25.012  1.00  0.00     0.023 C 
BRANCH  26  27
ATOM     27  C   UNL A   1      37.174  23.565  24.825  1.00  0.00     0.116 C 
BRANCH  27  28
ATOM     28  N   UNL A   1      38.125  22.593  25.343  1.00  0.00    -0.352 N 
ATOM     29  C   UNL A   1      39.171  22.794  26.212  1.00  0.00     0.251 C 
ATOM     30  H   UNL A   1      38.002  21.669  25.030  1.00  0.00     0.163 HD
ATOM     31  O   UNL A   1      39.945  21.879  26.475  1.00  0.00    -0.269 OA
BRANCH  29  32
ATOM     32  C   UNL A   1      39.381  24.132  26.801  1.00  0.00     0.039 A 
ATOM     33  C   UNL A   1      38.861  24.398  28.070  1.00  0.00     0.014 A 
ATOM     34  C   UNL A   1      40.113  25.106  26.119  1.00  0.00     0.014 A 
ATOM     35  C   UNL A   1      39.138  25.618  28.687  1.00  0.00     0.010 A 
ATOM     36  C   UNL A   1      40.445  26.295  26.763  1.00  0.00     0.010 A 
ATOM     37  C   UNL A   1      39.966  26.561  28.054  1.00  0.00    -0.014 A 
BRANCH  37  38
ATOM     38  C   UNL A   1      40.345  27.827  28.728  1.00  0.00     0.031 A 
ATOM     39  C   UNL A   1      41.690  27.957  29.388  1.00  0.00     0.074 A 
ATOM     40  C   UNL A   1      39.455  28.835  28.806  1.00  0.00     0.049 A 
ATOM     41  N   UNL A   1      42.170  28.950  30.093  1.00  0.00    -0.248 NA
ATOM     42  C   UNL A   1      42.605  26.812  29.261  1.00  0.00     0.031 C 
ATOM     43  C   UNL A   1      38.103  28.821  28.242  1.00  0.00     0.029 A 
ATOM     44  N   UNL A   1      39.552  30.068  29.403  1.00  0.00    -0.354 N 
ATOM     45  C   UNL A   1      43.435  28.545  30.501  1.00  0.00     0.074 A 
ATOM     46  C   UNL A   1      43.627  27.198  30.010  1.00  0.00     0.031 C 
ATOM     47  C   UNL A   1      37.504  29.994  28.507  1.00  0.00     0.029 A 
ATOM     48  C   UNL A   1      38.412  30.826  29.289  1.00  0.00     0.049 A 
ATOM     49  H   UNL A   1      40.362  30.379  29.869  1.00  0.00     0.167 HD
ATOM     50  C   UNL A   1      44.364  29.239  31.200  1.00  0.00     0.031 A 
ATOM     51  C   UNL A   1      38.124  32.050  29.771  1.00  0.00     0.031 A 
ATOM     52  C   UNL A   1      44.178  30.581  31.685  1.00  0.00     0.049 A 
ATOM     53  C   UNL A   1      39.168  32.794  30.558  1.00  0.00     0.074 A 
ATOM     54  C   UNL A   1      45.073  31.381  32.373  1.00  0.00     0.029 A 
ATOM     55  N   UNL A   1      43.016  31.321  31.530  1.00  0.00    -0.354 N 
ATOM     56  N   UNL A   1      40.380  32.418  30.885  1.00  0.00    -0.248 NA
ATOM     57  C   UNL A   1      38.805  34.139  31.031  1.00  0.00     0.031 C 
ATOM     58  C   UNL A   1      44.438  32.591  32.672  1.00  0.00     0.029 A 
ATOM     59  C   UNL A   1      43.166  32.562  32.122  1.00  0.00     0.049 A 
ATOM     60  H   UNL A   1      42.205  31.009  31.068  1.00  0.00     0.167 HD
ATOM     61  C   UNL A   1      40.934  33.487  31.577  1.00  0.00     0.074 A 
ATOM     62  C   UNL A   1      39.932  34.533  31.607  1.00  0.00     0.031 C 
ATOM     63  C   UNL A   1      42.163  33.593  32.138  1.00  0.00     0.031 A 
BRANCH  50  64
ATOM     64  C   UNL A   1      45.672  28.554  31.479  1.00  0.00    -0.014 A 
ATOM     65  C   UNL A   1      45.841  27.758  32.624  1.00  0.00     0.009 A 
ATOM     66  C   UNL A   1      46.735  28.673  30.570  1.00  0.00     0.009 A 
ATOM     67  C   UNL A   1      47.060  27.123  32.870  1.00  0.00     0.001 A 
ATOM     68  C   UNL A   1      47.943  28.013  30.806  1.00  0.00     0.001 A 
ATOM     69  C   UNL A   1      48.108  27.247  31.959  1.00  0.00     0.000 A 
ENDBRANCH  50  64
BRANCH  51  70
ATOM     70  C   UNL A   1      36.789  32.656  29.523  1.00  0.00    -0.014 A 
ATOM     71  C   UNL A   1      35.793  32.621  30.511  1.00  0.00     0.009 A 
ATOM     72  C   UNL A   1      36.499  33.257  28.288  1.00  0.00     0.009 A 
ATOM     73  C   UNL A   1      34.524  33.145  30.256  1.00  0.00     0.001 A 
ATOM     74  C   UNL A   1      35.239  33.808  28.047  1.00  0.00     0.001 A 
ATOM     75  C   UNL A   1      34.249  33.742  29.026  1.00  0.00     0.000 A 
ENDBRANCH  51  70
BRANCH  63  76
ATOM     76  C   UNL A   1      42.506  34.900  32.797  1.00  0.00    -0.014 A 
ATOM     77  C   UNL A   1      43.268  35.874  32.133  1.00  0.00     0.009 A 
ATOM     78  C   UNL A   1      42.022  35.174  34.085  1.00  0.00     0.009 A 
ATOM     79  C   UNL A   1      43.564  37.085  32.761  1.00  0.00     0.001 A 
ATOM     80  C   UNL A   1      42.297  36.396  34.699  1.00  0.00     0.001 A 
ATOM     81  C   UNL A   1      43.075  37.347  34.041  1.00  0.00     0.000 A 
ENDBRANCH  63  76
ENDBRANCH  37  38
ENDBRANCH  29  32
ENDBRANCH  27  28
ENDBRANCH  26  27
ENDBRANCH   1  26
TORSDOF 14
ENDMDL
MODEL 2
REMARK VINA RESULT:     -11.1      2.993      8.514
REMARK SMILES CC[C@@H]1CCCC[N@H+]1Cc1c(C(=O)NCCCCNC(=O)c2ccc(-c3c4nc(c(-c5ccccc5)c5ccc([nH]5)c(-c5ccccc5)c5nc(c(-c6ccccc6)c6ccc3[nH]6)C=C5)C=C4)cc2)oc2ccccc12
REMARK SMILES IDX 16 1 15 2 14 3 12 4 13 5 11 7 10 8 76 9 70 10 71 11 75 12
REMARK SMILES IDX 72 13 74 14 73 15 9 16 8 17 3 18 4 19 5 20 7 21 6 23 2 24
REMARK SMILES IDX 1 25 17 26 18 27 19 28 20 29 21 31 22 32 23 33 69 34 24 35
REMARK SMILES IDX 68 36 25 37 26 38 27 39 62 40 28 41 67 42 61 43 63 44 29 45
REMARK SMILES IDX 66 46 60 47 59 48 30 50 52 51 37 52 51 53 38 54 41 55 50 56
REMARK SMILES IDX 64 57 39 58 40 59 49 61 65 62 42 63 31 64 32 65 36 66 33 67
REMARK SMILES IDX 35 68 34 69 53 70 54 71 58 72 55 73 57 74 56 75 43 76 44 77
REMARK SMILES IDX 48 78 45 79 47 80 46 81
REMARK H PARENT 14 6 8 22 19 30 63 49 41 60
REMARK Flexibility Score: inf
ROOT
ATOM      1  C   UNL A   1      33.604  26.115  25.063  1.00  0.00     0.023 C 
ENDROOT
BRANCH   1   2
ATOM      2  C   UNL A   1      32.577  25.019  24.776  1.00  0.00     0.116 C 
BRANCH   2   3
ATOM      3  N   UNL A   1      32.154  24.336  25.986  1.00  0.00    -0.349 N 
ATOM      4  C   UNL A   1      32.735  23.332  26.735  1.00  0.00     0.287 C 
ATOM      5  O   UNL A   1      32.080  22.963  27.713  1.00  0.00    -0.266 OA
ATOM      6  H   UNL A   1      31.289  24.646  26.339  1.00  0.00     0.163 HD
BRANCH   4   7
ATOM      7  C   UNL A   1      34.021  22.749  26.380  1.00  0.00     0.201 A 
ATOM      8  C   UNL A   1      34.380  21.465  25.942  1.00  0.00     0.066 A 
ATOM      9  C   UNL A   1      35.794  21.541  25.652  1.00  0.00     0.030 A 
ATOM     10  O   UNL A   1      35.143  23.516  26.482  1.00  0.00    -0.450 OA
ATOM     11  C   UNL A   1      36.204  22.792  26.081  1.00  0.00     0.135 A 
ATOM     12  C   UNL A   1      36.787  20.703  25.108  1.00  0.00     0.012 A 
ATOM     13  C   UNL A   1      37.521  23.248  26.090  1.00  0.00     0.048 A 
ATOM     14  C   UNL A   1      38.129  21.117  25.113  1.00  0.00     0.001 A 
ATOM     15  C   UNL A   1      38.490  22.366  25.612  1.00  0.00     0.004 A 
BRANCH   8  16
ATOM     16  C   UNL A   1      33.457  20.280  25.778  1.00  0.00     0.304 C 
BRANCH  16  17
ATOM     17  N   UNL A   1      33.385  19.718  24.402  1.00  0.00    -0.329 N 
ATOM     18  C   UNL A   1      33.465  18.247  24.295  1.00  0.00     0.184 C 
ATOM     19  C   UNL A   1      33.350  17.757  22.833  1.00  0.00     0.065 C 
ATOM     20  C   UNL A   1      32.118  18.315  22.142  1.00  0.00     0.012 C 
ATOM     21  C   UNL A   1      32.259  20.306  23.654  1.00  0.00     0.262 C 
ATOM     22  H   UNL A   1      34.253  20.009  23.950  1.00  0.00     0.348 HD
ATOM     23  C   UNL A   1      32.168  19.832  22.205  1.00  0.00     0.062 C 
BRANCH  18  24
ATOM     24  C   UNL A   1      34.743  17.630  24.926  1.00  0.00     0.061 C 
ATOM     25  C   UNL A   1      34.743  16.117  25.099  1.00  0.00     0.010 C 
ENDBRANCH  18  24
ENDBRANCH  16  17
ENDBRANCH   8  16
ENDBRANCH   4   7
ENDBRANCH   2   3
ENDBRANCH   1   2
BRANCH   1  26
ATOM     26  C   UNL A   1      33.050  27.314  25.840  1.00  0.00     0.023 C 
BRANCH  26  27
ATOM     27  C   UNL A   1      34.040  28.005  26.775  1.00  0.00     0.116 C 
BRANCH  27  28
ATOM     28  N   UNL A   1      33.661  29.367  27.118  1.00  0.00    -0.352 N 
ATOM     29  C   UNL A   1      34.398  30.324  27.774  1.00  0.00     0.251 C 
ATOM     30  H   UNL A   1      32.757  29.640  26.843  1.00  0.00     0.163 HD
ATOM     31  O   UNL A   1      33.891  31.401  28.075  1.00  0.00    -0.269 OA
BRANCH  29  32
ATOM     32  C   UNL A   1      35.796  30.034  28.151  1.00  0.00     0.039 A 
ATOM     33  C   UNL A   1      36.061  29.565  29.441  1.00  0.00     0.014 A 
ATOM     34  C   UNL A   1      36.833  30.194  27.230  1.00  0.00     0.014 A 
ATOM     35  C   UNL A   1      37.360  29.186  29.783  1.00  0.00     0.010 A 
ATOM     36  C   UNL A   1      38.114  29.752  27.550  1.00  0.00     0.010 A 
ATOM     37  C   UNL A   1      38.389  29.240  28.827  1.00  0.00    -0.014 A 
BRANCH  37  38
ATOM     38  C   UNL A   1      39.757  28.759  29.142  1.00  0.00     0.031 A 
ATOM     39  C   UNL A   1      40.741  29.673  29.819  1.00  0.00     0.074 A 
ATOM     40  C   UNL A   1      40.137  27.525  28.758  1.00  0.00     0.049 A 
ATOM     41  N   UNL A   1      42.002  29.463  30.102  1.00  0.00    -0.248 NA
ATOM     42  C   UNL A   1      40.251  31.006  30.205  1.00  0.00     0.031 C 
ATOM     43  C   UNL A   1      39.291  26.555  28.059  1.00  0.00     0.029 A 
ATOM     44  N   UNL A   1      41.340  26.878  28.893  1.00  0.00    -0.354 N 
ATOM     45  C   UNL A   1      42.456  30.638  30.687  1.00  0.00     0.074 A 
ATOM     46  C   UNL A   1      41.354  31.573  30.672  1.00  0.00     0.031 C 
ATOM     47  C   UNL A   1      39.996  25.433  27.841  1.00  0.00     0.029 A 
ATOM     48  C   UNL A   1      41.352  25.616  28.349  1.00  0.00     0.049 A 
ATOM     49  H   UNL A   1      42.121  27.280  29.338  1.00  0.00     0.167 HD
ATOM     50  C   UNL A   1      43.675  30.907  31.214  1.00  0.00     0.031 A 
ATOM     51  C   UNL A   1      42.345  24.712  28.258  1.00  0.00     0.031 A 
ATOM     52  C   UNL A   1      44.772  29.977  31.236  1.00  0.00     0.049 A 
ATOM     53  C   UNL A   1      43.694  25.042  28.836  1.00  0.00     0.074 A 
ATOM     54  C   UNL A   1      46.034  30.145  31.778  1.00  0.00     0.029 A 
ATOM     55  N   UNL A   1      44.735  28.702  30.693  1.00  0.00    -0.354 N 
ATOM     56  N   UNL A   1      44.089  26.137  29.438  1.00  0.00    -0.248 NA
ATOM     57  C   UNL A   1      44.729  24.003  28.734  1.00  0.00     0.031 C 
ATOM     58  C   UNL A   1      46.776  28.986  31.526  1.00  0.00     0.029 A 
ATOM     59  C   UNL A   1      45.957  28.078  30.874  1.00  0.00     0.049 A 
ATOM     60  H   UNL A   1      43.956  28.300  30.245  1.00  0.00     0.167 HD
ATOM     61  C   UNL A   1      45.408  25.910  29.809  1.00  0.00     0.074 A 
ATOM     62  C   UNL A   1      45.739  24.566  29.381  1.00  0.00     0.031 C 
ATOM     63  C   UNL A   1      46.268  26.739  30.448  1.00  0.00     0.031 A 
BRANCH  50  64
ATOM     64  C   UNL A   1      43.881  32.269  31.814  1.00  0.00    -0.014 A 
ATOM     65  C   UNL A   1      44.341  33.341  31.032  1.00  0.00     0.009 A 
ATOM     66  C   UNL A   1      43.577  32.495  33.165  1.00  0.00     0.009 A 
ATOM     67  C   UNL A   1      44.526  34.603  31.600  1.00  0.00     0.001 A 
ATOM     68  C   UNL A   1      43.736  33.766  33.723  1.00  0.00     0.001 A 
ATOM     69  C   UNL A   1      44.218  34.815  32.943  1.00  0.00     0.000 A 
ENDBRANCH  50  64
BRANCH  51  70
ATOM     70  C   UNL A   1      42.106  23.404  27.594  1.00  0.00    -0.014 A 
ATOM     71  C   UNL A   1      41.536  22.335  28.305  1.00  0.00     0.009 A 
ATOM     72  C   UNL A   1      42.465  23.211  26.251  1.00  0.00     0.009 A 
ATOM     73  C   UNL A   1      41.361  21.092  27.692  1.00  0.00     0.001 A 
ATOM     74  C   UNL A   1      42.261  21.976  25.633  1.00  0.00     0.001 A 
ATOM     75  C   UNL A   1      41.720  20.914  26.357  1.00  0.00     0.000 A 
ENDBRANCH  51  70
BRANCH  63  76
ATOM     76  C   UNL A   1      47.638  26.203  30.757  1.00  0.00    -0.014 A 
ATOM     77  C   UNL A   1      48.656  26.201  29.792  1.00  0.00     0.009 A 
ATOM     78  C   UNL A   1      47.922  25.734  32.050  1.00  0.00     0.009 A 
ATOM     79  C   UNL A   1      49.924  25.707  30.107  1.00  0.00     0.001 A 
ATOM     80  C   UNL A   1      49.197  25.268  32.369  1.00  0.00     0.001 A 
ATOM     81  C   UNL A   1      50.195  25.247  31.396  1.00  0.00     0.000 A 
ENDBRANCH  63  76
ENDBRANCH  37  38
ENDBRANCH  29  32
ENDBRANCH  27  28
ENDBRANCH  26  27
ENDBRANCH   1  26
TORSDOF 14
ENDMDL
MODEL 3
REMARK VINA RESULT:     -11.1      1.856      6.922
REMARK SMILES CC[C@@H]1CCCC[N@H+]1Cc1c(C(=O)NCCCCNC(=O)c2ccc(-c3c4nc(c(-c5ccccc5)c5ccc([nH]5)c(-c5ccccc5)c5nc(c(-c6ccccc6)c6ccc3[nH]6)C=C5)C=C4)cc2)oc2ccccc12
REMARK SMILES IDX 16 1 15 2 14 3 12 4 13 5 11 7 10 8 76 9 70 10 71 11 75 12
REMARK SMILES IDX 72 13 74 14 73 15 9 16 8 17 3 18 4 19 5 20 7 21 6 23 2 24
REMARK SMILES IDX 1 25 17 26 18 27 19 28 20 29 21 31 22 32 23 33 69 34 24 35
REMARK SMILES IDX 68 36 25 37 26 38 27 39 62 40 28 41 67 42 61 43 63 44 29 45
REMARK SMILES IDX 66 46 60 47 59 48 30 50 52 51 37 52 51 53 38 54 41 55 50 56
REMARK SMILES IDX 64 57 39 58 40 59 49 61 65 62 42 63 31 64 32 65 36 66 33 67
REMARK SMILES IDX 35 68 34 69 53 70 54 71 58 72 55 73 57 74 56 75 43 76 44 77
REMARK SMILES IDX 48 78 45 79 47 80 46 81
REMARK H PARENT 14 6 8 22 19 30 63 49 41 60
REMARK Flexibility Score: inf
ROOT
ATOM      1  C   UNL A   1      31.804  28.979  26.118  1.00  0.00     0.023 C 
ENDROOT
BRANCH   1   2
ATOM      2  C   UNL A   1      32.529  27.744  26.654  1.00  0.00     0.116 C 
BRANCH   2   3
ATOM      3  N   UNL A   1      31.620  26.636  26.891  1.00  0.00    -0.349 N 
ATOM      4  C   UNL A   1      31.679  25.300  26.553  1.00  0.00     0.287 C 
ATOM      5  O   UNL A   1      30.704  24.628  26.900  1.00  0.00    -0.266 OA
ATOM      6  H   UNL A   1      30.806  26.886  27.386  1.00  0.00     0.163 HD
BRANCH   4   7
ATOM      7  C   UNL A   1      32.809  24.736  25.828  1.00  0.00     0.201 A 
ATOM      8  C   UNL A   1      33.056  24.572  24.456  1.00  0.00     0.066 A 
ATOM      9  C   UNL A   1      34.400  24.049  24.369  1.00  0.00     0.030 A 
ATOM     10  O   UNL A   1      33.859  24.230  26.534  1.00  0.00    -0.450 OA
ATOM     11  C   UNL A   1      34.793  23.791  25.671  1.00  0.00     0.135 A 
ATOM     12  C   UNL A   1      35.326  23.733  23.355  1.00  0.00     0.012 A 
ATOM     13  C   UNL A   1      35.987  23.176  26.044  1.00  0.00     0.048 A 
ATOM     14  C   UNL A   1      36.533  23.097  23.686  1.00  0.00     0.001 A 
ATOM     15  C   UNL A   1      36.850  22.810  25.012  1.00  0.00     0.004 A 
BRANCH   8  16
ATOM     16  C   UNL A   1      32.114  24.915  23.325  1.00  0.00     0.304 C 
BRANCH  16  17
ATOM     17  N   UNL A   1      31.520  26.278  23.388  1.00  0.00    -0.329 N 
ATOM     18  C   UNL A   1      31.979  27.235  22.360  1.00  0.00     0.184 C 
ATOM     19  C   UNL A   1      31.283  28.611  22.486  1.00  0.00     0.065 C 
ATOM     20  C   UNL A   1      29.771  28.482  22.513  1.00  0.00     0.012 C 
ATOM     21  C   UNL A   1      30.052  26.205  23.515  1.00  0.00     0.262 C 
ATOM     22  H   UNL A   1      31.892  26.692  24.242  1.00  0.00     0.348 HD
ATOM     23  C   UNL A   1      29.379  27.568  23.661  1.00  0.00     0.062 C 
BRANCH  18  24
ATOM     24  C   UNL A   1      33.516  27.456  22.336  1.00  0.00     0.061 C 
ATOM     25  C   UNL A   1      34.031  28.674  23.091  1.00  0.00     0.010 C 
ENDBRANCH  18  24
ENDBRANCH  16  17
ENDBRANCH   8  16
ENDBRANCH   4   7
ENDBRANCH   2   3
ENDBRANCH   1   2
BRANCH   1  26
ATOM     26  C   UNL A   1      31.773  30.166  27.088  1.00  0.00     0.023 C 
BRANCH  26  27
ATOM     27  C   UNL A   1      32.819  31.250  26.832  1.00  0.00     0.116 C 
BRANCH  27  28
ATOM     28  N   UNL A   1      32.380  32.582  27.219  1.00  0.00    -0.352 N 
ATOM     29  C   UNL A   1      33.011  33.492  28.032  1.00  0.00     0.251 C 
ATOM     30  H   UNL A   1      31.515  32.870  26.848  1.00  0.00     0.163 HD
ATOM     31  O   UNL A   1      32.455  34.542  28.341  1.00  0.00    -0.269 OA
BRANCH  29  32
ATOM     32  C   UNL A   1      34.353  33.182  28.567  1.00  0.00     0.039 A 
ATOM     33  C   UNL A   1      34.452  32.460  29.759  1.00  0.00     0.014 A 
ATOM     34  C   UNL A   1      35.505  33.573  27.880  1.00  0.00     0.014 A 
ATOM     35  C   UNL A   1      35.707  32.066  30.225  1.00  0.00     0.010 A 
ATOM     36  C   UNL A   1      36.749  33.122  28.310  1.00  0.00     0.010 A 
ATOM     37  C   UNL A   1      36.863  32.361  29.483  1.00  0.00    -0.014 A 
BRANCH  37  38
ATOM     38  C   UNL A   1      38.198  31.876  29.914  1.00  0.00     0.031 A 
ATOM     39  C   UNL A   1      38.714  30.551  29.426  1.00  0.00     0.074 A 
ATOM     40  C   UNL A   1      38.916  32.596  30.797  1.00  0.00     0.049 A 
ATOM     41  N   UNL A   1      39.815  29.924  29.753  1.00  0.00    -0.248 NA
ATOM     42  C   UNL A   1      37.869  29.824  28.464  1.00  0.00     0.031 C 
ATOM     43  C   UNL A   1      38.512  33.879  31.378  1.00  0.00     0.029 A 
ATOM     44  N   UNL A   1      40.137  32.344  31.371  1.00  0.00    -0.354 N 
ATOM     45  C   UNL A   1      39.789  28.727  29.047  1.00  0.00     0.074 A 
ATOM     46  C   UNL A   1      38.542  28.692  28.316  1.00  0.00     0.031 C 
ATOM     47  C   UNL A   1      39.474  34.307  32.211  1.00  0.00     0.029 A 
ATOM     48  C   UNL A   1      40.543  33.315  32.254  1.00  0.00     0.049 A 
ATOM     49  H   UNL A   1      40.674  31.543  31.168  1.00  0.00     0.167 HD
ATOM     50  C   UNL A   1      40.731  27.755  28.992  1.00  0.00     0.031 A 
ATOM     51  C   UNL A   1      41.645  33.393  33.022  1.00  0.00     0.031 A 
ATOM     52  C   UNL A   1      41.975  27.789  29.712  1.00  0.00     0.049 A 
ATOM     53  C   UNL A   1      42.668  32.292  32.955  1.00  0.00     0.074 A 
ATOM     54  C   UNL A   1      43.007  26.868  29.695  1.00  0.00     0.029 A 
ATOM     55  N   UNL A   1      42.355  28.801  30.581  1.00  0.00    -0.354 N 
ATOM     56  N   UNL A   1      42.654  31.195  32.238  1.00  0.00    -0.248 NA
ATOM     57  C   UNL A   1      43.866  32.449  33.794  1.00  0.00     0.031 C 
ATOM     58  C   UNL A   1      43.996  27.302  30.584  1.00  0.00     0.029 A 
ATOM     59  C   UNL A   1      43.600  28.519  31.115  1.00  0.00     0.049 A 
ATOM     60  H   UNL A   1      41.820  29.600  30.786  1.00  0.00     0.167 HD
ATOM     61  C   UNL A   1      43.850  30.545  32.518  1.00  0.00     0.074 A 
ATOM     62  C   UNL A   1      44.572  31.380  33.455  1.00  0.00     0.031 C 
ATOM     63  C   UNL A   1      44.308  29.363  32.041  1.00  0.00     0.031 A 
BRANCH  50  64
ATOM     64  C   UNL A   1      40.446  26.569  28.114  1.00  0.00    -0.014 A 
ATOM     65  C   UNL A   1      39.630  25.517  28.562  1.00  0.00     0.009 A 
ATOM     66  C   UNL A   1      40.967  26.518  26.812  1.00  0.00     0.009 A 
ATOM     67  C   UNL A   1      39.370  24.422  27.736  1.00  0.00     0.001 A 
ATOM     68  C   UNL A   1      40.681  25.434  25.978  1.00  0.00     0.001 A 
ATOM     69  C   UNL A   1      39.891  24.383  26.444  1.00  0.00     0.000 A 
ENDBRANCH  50  64
BRANCH  51  70
ATOM     70  C   UNL A   1      41.847  34.558  33.924  1.00  0.00    -0.014 A 
ATOM     71  C   UNL A   1      41.398  34.518  35.254  1.00  0.00     0.009 A 
ATOM     72  C   UNL A   1      42.473  35.722  33.454  1.00  0.00     0.009 A 
ATOM     73  C   UNL A   1      41.543  35.633  36.083  1.00  0.00     0.001 A 
ATOM     74  C   UNL A   1      42.644  36.824  34.295  1.00  0.00     0.001 A 
ATOM     75  C   UNL A   1      42.169  36.783  35.604  1.00  0.00     0.000 A 
ENDBRANCH  51  70
BRANCH  63  76
ATOM     76  C   UNL A   1      45.671  28.921  32.495  1.00  0.00    -0.014 A 
ATOM     77  C   UNL A   1      46.832  29.323  31.816  1.00  0.00     0.009 A 
ATOM     78  C   UNL A   1      45.794  28.127  33.646  1.00  0.00     0.009 A 
ATOM     79  C   UNL A   1      48.088  28.909  32.264  1.00  0.00     0.001 A 
ATOM     80  C   UNL A   1      47.052  27.738  34.107  1.00  0.00     0.001 A 
ATOM     81  C   UNL A   1      48.197  28.122  33.411  1.00  0.00     0.000 A 
ENDBRANCH  63  76
ENDBRANCH  37  38
ENDBRANCH  29  32
ENDBRANCH  27  28
ENDBRANCH  26  27
ENDBRANCH   1  26
TORSDOF 14
ENDMDL
