MODEL 1
REMARK VINA RESULT:     -11.8      0.000      0.000
REMARK SMILES O=C(NCCCCNC(=O)C1CN(C(=O)c2c(F)cc(Br)cc2F)C1)c1ccc(-c2c3nc(c(-c4ccccc4)c4ccc([nH]4)c(-c4ccccc4)c4nc(c(-c5ccccc5)c5ccc2[nH]5)C=C4)C=C3)cc1
REMARK SMILES IDX 5 1 4 2 3 3 1 4 2 5 26 7 27 8 73 9 28 10 72 11 29 12 30 13
REMARK SMILES IDX 31 14 66 15 32 16 71 17 65 18 67 19 33 20 70 21 64 22 63 23
REMARK SMILES IDX 34 25 56 26 41 27 55 28 42 29 45 30 54 31 68 32 43 33 44 34
REMARK SMILES IDX 53 36 69 37 46 38 35 39 36 40 40 41 37 42 39 43 38 44 57 45
REMARK SMILES IDX 58 46 62 47 59 48 61 49 60 50 47 51 48 52 52 53 49 54 51 55
REMARK SMILES IDX 50 56 6 57 7 58 8 59 9 60 10 62 11 63 12 64 25 65 13 66
REMARK SMILES IDX 14 67 15 68 16 69 17 70 23 71 18 72 19 73 22 74 24 75 20 76
REMARK SMILES IDX 21 77
REMARK H PARENT 3 6 67 24 45 35 8 61
REMARK Flexibility Score: inf
ROOT
ATOM      1  C   UNL A   1      31.303  32.184  26.512  1.00  0.00     0.023 C 
ENDROOT
BRANCH   1   2
ATOM      2  C   UNL A   1      32.516  32.819  27.180  1.00  0.00     0.116 C 
BRANCH   2   3
ATOM      3  N   UNL A   1      32.278  34.183  27.625  1.00  0.00    -0.352 N 
ATOM      4  O   UNL A   1      32.583  36.027  28.894  1.00  0.00    -0.269 OA
ATOM      5  C   UNL A   1      32.978  34.919  28.550  1.00  0.00     0.251 C 
ATOM      6  H   UNL A   1      31.512  34.641  27.208  1.00  0.00     0.163 HD
BRANCH   5   7
ATOM      7  C   UNL A   1      34.201  34.349  29.155  1.00  0.00     0.039 A 
ATOM      8  C   UNL A   1      35.452  34.581  28.580  1.00  0.00     0.014 A 
ATOM      9  C   UNL A   1      34.085  33.563  30.305  1.00  0.00     0.014 A 
ATOM     10  C   UNL A   1      36.571  33.921  29.077  1.00  0.00     0.010 A 
ATOM     11  C   UNL A   1      35.222  32.961  30.848  1.00  0.00     0.010 A 
ATOM     12  C   UNL A   1      36.468  33.113  30.221  1.00  0.00    -0.014 A 
BRANCH  12  13
ATOM     13  C   UNL A   1      37.692  32.485  30.777  1.00  0.00     0.031 A 
ATOM     14  C   UNL A   1      38.327  32.997  32.038  1.00  0.00     0.074 A 
ATOM     15  C   UNL A   1      38.212  31.419  30.140  1.00  0.00     0.049 A 
ATOM     16  N   UNL A   1      39.381  32.542  32.670  1.00  0.00    -0.248 NA
ATOM     17  C   UNL A   1      37.705  34.169  32.675  1.00  0.00     0.031 C 
ATOM     18  C   UNL A   1      37.683  30.834  28.905  1.00  0.00     0.029 A 
ATOM     19  N   UNL A   1      39.284  30.625  30.453  1.00  0.00    -0.354 N 
ATOM     20  C   UNL A   1      39.559  33.380  33.764  1.00  0.00     0.074 A 
ATOM     21  C   UNL A   1      38.518  34.383  33.701  1.00  0.00     0.031 C 
ATOM     22  C   UNL A   1      38.401  29.746  28.593  1.00  0.00     0.029 A 
ATOM     23  C   UNL A   1      39.474  29.592  29.568  1.00  0.00     0.049 A 
ATOM     24  H   UNL A   1      39.861  30.780  31.235  1.00  0.00     0.167 HD
ATOM     25  C   UNL A   1      40.504  33.313  34.733  1.00  0.00     0.031 A 
ATOM     26  C   UNL A   1      40.415  28.632  29.535  1.00  0.00     0.031 A 
ATOM     27  C   UNL A   1      41.540  32.315  34.792  1.00  0.00     0.049 A 
ATOM     28  C   UNL A   1      41.466  28.604  30.603  1.00  0.00     0.074 A 
ATOM     29  C   UNL A   1      42.528  32.152  35.749  1.00  0.00     0.029 A 
ATOM     30  N   UNL A   1      41.724  31.311  33.854  1.00  0.00    -0.354 N 
ATOM     31  N   UNL A   1      41.605  29.388  31.645  1.00  0.00    -0.248 NA
ATOM     32  C   UNL A   1      42.492  27.558  30.491  1.00  0.00     0.031 C 
ATOM     33  C   UNL A   1      43.337  31.077  35.366  1.00  0.00     0.029 A 
ATOM     34  C   UNL A   1      42.823  30.540  34.196  1.00  0.00     0.049 A 
ATOM     35  H   UNL A   1      41.158  31.168  33.063  1.00  0.00     0.167 HD
ATOM     36  C   UNL A   1      42.726  28.925  32.318  1.00  0.00     0.074 A 
ATOM     37  C   UNL A   1      43.215  27.778  31.580  1.00  0.00     0.031 C 
ATOM     38  C   UNL A   1      43.301  29.409  33.444  1.00  0.00     0.031 A 
BRANCH  25  39
ATOM     39  C   UNL A   1      40.477  34.371  35.802  1.00  0.00    -0.014 A 
ATOM     40  C   UNL A   1      41.186  35.573  35.654  1.00  0.00     0.009 A 
ATOM     41  C   UNL A   1      39.689  34.183  36.948  1.00  0.00     0.009 A 
ATOM     42  C   UNL A   1      41.130  36.554  36.647  1.00  0.00     0.001 A 
ATOM     43  C   UNL A   1      39.616  35.175  37.929  1.00  0.00     0.001 A 
ATOM     44  C   UNL A   1      40.341  36.355  37.781  1.00  0.00     0.000 A 
ENDBRANCH  25  39
BRANCH  26  45
ATOM     45  C   UNL A   1      40.406  27.629  28.441  1.00  0.00    -0.014 A 
ATOM     46  C   UNL A   1      41.086  27.876  27.241  1.00  0.00     0.009 A 
ATOM     47  C   UNL A   1      39.730  26.408  28.603  1.00  0.00     0.009 A 
ATOM     48  C   UNL A   1      41.077  26.926  26.217  1.00  0.00     0.001 A 
ATOM     49  C   UNL A   1      39.748  25.449  27.590  1.00  0.00     0.001 A 
ATOM     50  C   UNL A   1      40.415  25.713  26.395  1.00  0.00     0.000 A 
ENDBRANCH  26  45
BRANCH  38  51
ATOM     51  C   UNL A   1      44.511  28.682  33.953  1.00  0.00    -0.014 A 
ATOM     52  C   UNL A   1      44.386  27.604  34.844  1.00  0.00     0.009 A 
ATOM     53  C   UNL A   1      45.789  29.068  33.523  1.00  0.00     0.009 A 
ATOM     54  C   UNL A   1      45.523  26.949  35.321  1.00  0.00     0.001 A 
ATOM     55  C   UNL A   1      46.922  28.396  33.981  1.00  0.00     0.001 A 
ATOM     56  C   UNL A   1      46.789  27.344  34.887  1.00  0.00     0.000 A 
ENDBRANCH  38  51
ENDBRANCH  12  13
ENDBRANCH   5   7
ENDBRANCH   2   3
ENDBRANCH   1   2
BRANCH   1  57
ATOM     57  C   UNL A   1      31.478  30.722  26.093  1.00  0.00     0.023 C 
BRANCH  57  58
ATOM     58  C   UNL A   1      32.911  30.201  26.167  1.00  0.00     0.116 C 
BRANCH  58  59
ATOM     59  N   UNL A   1      33.317  29.571  24.926  1.00  0.00    -0.356 N 
ATOM     60  C   UNL A   1      33.680  28.276  24.648  1.00  0.00     0.226 C 
ATOM     61  H   UNL A   1      33.335  30.175  24.149  1.00  0.00     0.163 HD
ATOM     62  O   UNL A   1      34.022  28.061  23.475  1.00  0.00    -0.275 OA
BRANCH  60  63
ATOM     63  C   UNL A   1      33.641  27.161  25.693  1.00  0.00     0.117 C 
ATOM     64  C   UNL A   1      32.364  26.809  26.461  1.00  0.00     0.135 C 
ATOM     65  C   UNL A   1      33.743  25.697  25.245  1.00  0.00     0.135 C 
ATOM     66  N   UNL A   1      32.643  25.421  26.143  1.00  0.00    -0.337 N 
ATOM     67  C   UNL A   1      31.950  24.301  26.508  1.00  0.00     0.259 C 
ATOM     68  O   UNL A   1      30.936  24.334  27.199  1.00  0.00    -0.269 OA
BRANCH  67  69
ATOM     69  C   UNL A   1      32.448  23.005  26.031  1.00  0.00     0.111 A 
ATOM     70  C   UNL A   1      33.482  22.345  26.690  1.00  0.00     0.140 A 
ATOM     71  C   UNL A   1      31.836  22.390  24.942  1.00  0.00     0.140 A 
ATOM     72  F   UNL A   1      34.065  22.886  27.769  1.00  0.00    -0.206 F 
ATOM     73  C   UNL A   1      33.929  21.101  26.252  1.00  0.00     0.056 A 
ATOM     74  C   UNL A   1      32.266  21.141  24.495  1.00  0.00     0.056 A 
ATOM     75  F   UNL A   1      30.843  22.997  24.277  1.00  0.00    -0.206 F 
ATOM     76  C   UNL A   1      33.316  20.504  25.153  1.00  0.00     0.023 A 
ATOM     77  Br  UNL A   1      33.911  18.813  24.553  1.00  0.00    -0.051 Br
ENDBRANCH  67  69
ENDBRANCH  60  63
ENDBRANCH  58  59
ENDBRANCH  57  58
ENDBRANCH   1  57
TORSDOF 12
ENDMDL
MODEL 2
REMARK VINA RESULT:     -11.8      0.481      5.963
REMARK SMILES O=C(NCCCCNC(=O)C1CN(C(=O)c2c(F)cc(Br)cc2F)C1)c1ccc(-c2c3nc(c(-c4ccccc4)c4ccc([nH]4)c(-c4ccccc4)c4nc(c(-c5ccccc5)c5ccc2[nH]5)C=C4)C=C3)cc1
REMARK SMILES IDX 5 1 4 2 3 3 1 4 2 5 26 7 27 8 73 9 28 10 72 11 29 12 30 13
REMARK SMILES IDX 31 14 66 15 32 16 71 17 65 18 67 19 33 20 70 21 64 22 63 23
REMARK SMILES IDX 34 25 56 26 41 27 55 28 42 29 45 30 54 31 68 32 43 33 44 34
REMARK SMILES IDX 53 36 69 37 46 38 35 39 36 40 40 41 37 42 39 43 38 44 57 45
REMARK SMILES IDX 58 46 62 47 59 48 61 49 60 50 47 51 48 52 52 53 49 54 51 55
REMARK SMILES IDX 50 56 6 57 7 58 8 59 9 60 10 62 11 63 12 64 25 65 13 66
REMARK SMILES IDX 14 67 15 68 16 69 17 70 23 71 18 72 19 73 22 74 24 75 20 76
REMARK SMILES IDX 21 77
REMARK H PARENT 3 6 67 24 45 35 8 61
REMARK Flexibility Score: inf
ROOT
ATOM      1  C   UNL A   1      31.531  31.938  26.728  1.00  0.00     0.023 C 
ENDROOT
BRANCH   1   2
ATOM      2  C   UNL A   1      32.780  32.743  27.064  1.00  0.00     0.116 C 
BRANCH   2   3
ATOM      3  N   UNL A   1      32.485  34.049  27.633  1.00  0.00    -0.352 N 
ATOM      4  O   UNL A   1      32.693  35.766  29.085  1.00  0.00    -0.269 OA
ATOM      5  C   UNL A   1      33.134  34.709  28.648  1.00  0.00     0.251 C 
ATOM      6  H   UNL A   1      31.718  34.524  27.238  1.00  0.00     0.163 HD
BRANCH   5   7
ATOM      7  C   UNL A   1      34.356  34.118  29.233  1.00  0.00     0.039 A 
ATOM      8  C   UNL A   1      35.615  34.437  28.720  1.00  0.00     0.014 A 
ATOM      9  C   UNL A   1      34.232  33.225  30.301  1.00  0.00     0.014 A 
ATOM     10  C   UNL A   1      36.739  33.764  29.187  1.00  0.00     0.010 A 
ATOM     11  C   UNL A   1      35.371  32.604  30.819  1.00  0.00     0.010 A 
ATOM     12  C   UNL A   1      36.629  32.849  30.247  1.00  0.00    -0.014 A 
BRANCH  12  13
ATOM     13  C   UNL A   1      37.855  32.204  30.778  1.00  0.00     0.031 A 
ATOM     14  C   UNL A   1      38.429  30.973  30.137  1.00  0.00     0.074 A 
ATOM     15  C   UNL A   1      38.467  32.766  31.837  1.00  0.00     0.049 A 
ATOM     16  N   UNL A   1      39.509  30.307  30.461  1.00  0.00    -0.248 NA
ATOM     17  C   UNL A   1      37.702  30.414  28.986  1.00  0.00     0.031 C 
ATOM     18  C   UNL A   1      38.001  33.961  32.545  1.00  0.00     0.029 A 
ATOM     19  N   UNL A   1      39.622  32.422  32.490  1.00  0.00    -0.354 N 
ATOM     20  C   UNL A   1      39.581  29.243  29.570  1.00  0.00     0.074 A 
ATOM     21  C   UNL A   1      38.426  29.340  28.704  1.00  0.00     0.031 C 
ATOM     22  C   UNL A   1      38.887  34.278  33.500  1.00  0.00     0.029 A 
ATOM     23  C   UNL A   1      39.948  33.279  33.511  1.00  0.00     0.049 A 
ATOM     24  H   UNL A   1      40.165  31.636  32.250  1.00  0.00     0.167 HD
ATOM     25  C   UNL A   1      40.528  28.278  29.483  1.00  0.00     0.031 A 
ATOM     26  C   UNL A   1      40.980  33.259  34.373  1.00  0.00     0.031 A 
ATOM     27  C   UNL A   1      41.675  28.182  30.347  1.00  0.00     0.049 A 
ATOM     28  C   UNL A   1      41.994  32.160  34.272  1.00  0.00     0.074 A 
ATOM     29  C   UNL A   1      42.702  27.253  30.320  1.00  0.00     0.029 A 
ATOM     30  N   UNL A   1      41.948  29.046  31.397  1.00  0.00    -0.354 N 
ATOM     31  N   UNL A   1      42.061  31.176  33.407  1.00  0.00    -0.248 NA
ATOM     32  C   UNL A   1      43.075  32.166  35.267  1.00  0.00     0.031 C 
ATOM     33  C   UNL A   1      43.571  27.528  31.381  1.00  0.00     0.029 A 
ATOM     34  C   UNL A   1      43.112  28.657  32.039  1.00  0.00     0.049 A 
ATOM     35  H   UNL A   1      41.395  29.820  31.648  1.00  0.00     0.167 HD
ATOM     36  C   UNL A   1      43.195  30.454  33.746  1.00  0.00     0.074 A 
ATOM     37  C   UNL A   1      43.798  31.125  34.879  1.00  0.00     0.031 C 
ATOM     38  C   UNL A   1      43.691  29.332  33.171  1.00  0.00     0.031 A 
BRANCH  25  39
ATOM     39  C   UNL A   1      40.348  27.224  28.424  1.00  0.00    -0.014 A 
ATOM     40  C   UNL A   1      40.937  27.357  27.157  1.00  0.00     0.009 A 
ATOM     41  C   UNL A   1      39.624  26.058  28.719  1.00  0.00     0.009 A 
ATOM     42  C   UNL A   1      40.778  26.356  26.195  1.00  0.00     0.001 A 
ATOM     43  C   UNL A   1      39.486  25.049  27.763  1.00  0.00     0.001 A 
ATOM     44  C   UNL A   1      40.057  25.202  26.501  1.00  0.00     0.000 A 
ENDBRANCH  25  39
BRANCH  26  45
ATOM     45  C   UNL A   1      41.092  34.312  35.413  1.00  0.00    -0.014 A 
ATOM     46  C   UNL A   1      41.843  35.472  35.176  1.00  0.00     0.009 A 
ATOM     47  C   UNL A   1      40.427  34.169  36.642  1.00  0.00     0.009 A 
ATOM     48  C   UNL A   1      41.939  36.462  36.157  1.00  0.00     0.001 A 
ATOM     49  C   UNL A   1      40.502  35.173  37.608  1.00  0.00     0.001 A 
ATOM     50  C   UNL A   1      41.264  36.314  37.368  1.00  0.00     0.000 A 
ENDBRANCH  26  45
BRANCH  38  51
ATOM     51  C   UNL A   1      44.959  28.777  33.752  1.00  0.00    -0.014 A 
ATOM     52  C   UNL A   1      44.926  27.815  34.774  1.00  0.00     0.009 A 
ATOM     53  C   UNL A   1      46.199  29.210  33.261  1.00  0.00     0.009 A 
ATOM     54  C   UNL A   1      46.115  27.323  35.315  1.00  0.00     0.001 A 
ATOM     55  C   UNL A   1      47.385  28.697  33.785  1.00  0.00     0.001 A 
ATOM     56  C   UNL A   1      47.343  27.761  34.818  1.00  0.00     0.000 A 
ENDBRANCH  38  51
ENDBRANCH  12  13
ENDBRANCH   5   7
ENDBRANCH   2   3
ENDBRANCH   1   2
BRANCH   1  57
ATOM     57  C   UNL A   1      31.764  30.448  26.467  1.00  0.00     0.023 C 
BRANCH  57  58
ATOM     58  C   UNL A   1      33.228  30.049  26.291  1.00  0.00     0.116 C 
BRANCH  58  59
ATOM     59  N   UNL A   1      33.454  29.389  25.019  1.00  0.00    -0.356 N 
ATOM     60  C   UNL A   1      33.659  28.067  24.713  1.00  0.00     0.226 C 
ATOM     61  H   UNL A   1      33.459  29.993  24.242  1.00  0.00     0.163 HD
ATOM     62  O   UNL A   1      33.869  27.826  23.515  1.00  0.00    -0.275 OA
BRANCH  60  63
ATOM     63  C   UNL A   1      33.607  26.955  25.761  1.00  0.00     0.117 C 
ATOM     64  C   UNL A   1      32.322  26.610  26.519  1.00  0.00     0.135 C 
ATOM     65  C   UNL A   1      33.708  25.489  25.319  1.00  0.00     0.135 C 
ATOM     66  N   UNL A   1      32.599  25.220  26.207  1.00  0.00    -0.337 N 
ATOM     67  C   UNL A   1      31.899  24.103  26.570  1.00  0.00     0.259 C 
ATOM     68  O   UNL A   1      30.879  24.142  27.251  1.00  0.00    -0.269 OA
BRANCH  67  69
ATOM     69  C   UNL A   1      32.396  22.805  26.101  1.00  0.00     0.111 A 
ATOM     70  C   UNL A   1      33.311  22.072  26.851  1.00  0.00     0.140 A 
ATOM     71  C   UNL A   1      31.898  22.261  24.919  1.00  0.00     0.140 A 
ATOM     72  F   UNL A   1      33.779  22.542  28.015  1.00  0.00    -0.206 F 
ATOM     73  C   UNL A   1      33.756  20.825  26.416  1.00  0.00     0.056 A 
ATOM     74  C   UNL A   1      32.325  21.011  24.474  1.00  0.00     0.056 A 
ATOM     75  F   UNL A   1      31.021  22.939  24.165  1.00  0.00    -0.206 F 
ATOM     76  C   UNL A   1      33.258  20.300  25.226  1.00  0.00     0.023 A 
ATOM     77  Br  UNL A   1      33.850  18.607  24.630  1.00  0.00    -0.051 Br
ENDBRANCH  67  69
ENDBRANCH  60  63
ENDBRANCH  58  59
ENDBRANCH  57  58
ENDBRANCH   1  57
TORSDOF 12
ENDMDL
MODEL 3
REMARK VINA RESULT:     -11.7      4.497      9.533
REMARK SMILES O=C(NCCCCNC(=O)C1CN(C(=O)c2c(F)cc(Br)cc2F)C1)c1ccc(-c2c3nc(c(-c4ccccc4)c4ccc([nH]4)c(-c4ccccc4)c4nc(c(-c5ccccc5)c5ccc2[nH]5)C=C4)C=C3)cc1
REMARK SMILES IDX 5 1 4 2 3 3 1 4 2 5 26 7 27 8 73 9 28 10 72 11 29 12 30 13
REMARK SMILES IDX 31 14 66 15 32 16 71 17 65 18 67 19 33 20 70 21 64 22 63 23
REMARK SMILES IDX 34 25 56 26 41 27 55 28 42 29 45 30 54 31 68 32 43 33 44 34
REMARK SMILES IDX 53 36 69 37 46 38 35 39 36 40 40 41 37 42 39 43 38 44 57 45
REMARK SMILES IDX 58 46 62 47 59 48 61 49 60 50 47 51 48 52 52 53 49 54 51 55
REMARK SMILES IDX 50 56 6 57 7 58 8 59 9 60 10 62 11 63 12 64 25 65 13 66
REMARK SMILES IDX 14 67 15 68 16 69 17 70 23 71 18 72 19 73 22 74 24 75 20 76
REMARK SMILES IDX 21 77
REMARK H PARENT 3 6 67 24 45 35 8 61
REMARK Flexibility Score: inf
ROOT
ATOM      1  C   UNL A   1      37.853  19.692  24.928  1.00  0.00     0.023 C 
ENDROOT
BRANCH   1   2
ATOM      2  C   UNL A   1      39.046  20.180  25.739  1.00  0.00     0.116 C 
BRANCH   2   3
ATOM      3  N   UNL A   1      40.162  19.247  25.737  1.00  0.00    -0.352 N 
ATOM      4  O   UNL A   1      42.320  18.603  25.921  1.00  0.00    -0.269 OA
ATOM      5  C   UNL A   1      41.473  19.475  26.080  1.00  0.00     0.251 C 
ATOM      6  H   UNL A   1      39.951  18.328  25.451  1.00  0.00     0.163 HD
BRANCH   5   7
ATOM      7  C   UNL A   1      41.863  20.797  26.615  1.00  0.00     0.039 A 
ATOM      8  C   UNL A   1      41.780  21.062  27.983  1.00  0.00     0.014 A 
ATOM      9  C   UNL A   1      42.305  21.783  25.728  1.00  0.00     0.014 A 
ATOM     10  C   UNL A   1      42.014  22.351  28.450  1.00  0.00     0.010 A 
ATOM     11  C   UNL A   1      42.610  23.058  26.209  1.00  0.00     0.010 A 
ATOM     12  C   UNL A   1      42.440  23.358  27.569  1.00  0.00    -0.014 A 
BRANCH  12  13
ATOM     13  C   UNL A   1      42.758  24.704  28.107  1.00  0.00     0.031 A 
ATOM     14  C   UNL A   1      44.170  25.099  28.433  1.00  0.00     0.074 A 
ATOM     15  C   UNL A   1      41.752  25.583  28.272  1.00  0.00     0.049 A 
ATOM     16  N   UNL A   1      44.618  26.245  28.883  1.00  0.00    -0.248 NA
ATOM     17  C   UNL A   1      45.215  24.083  28.232  1.00  0.00     0.031 C 
ATOM     18  C   UNL A   1      40.340  25.311  27.992  1.00  0.00     0.029 A 
ATOM     19  N   UNL A   1      41.763  26.887  28.692  1.00  0.00    -0.354 N 
ATOM     20  C   UNL A   1      45.990  26.084  29.035  1.00  0.00     0.074 A 
ATOM     21  C   UNL A   1      46.299  24.723  28.650  1.00  0.00     0.031 C 
ATOM     22  C   UNL A   1      39.628  26.427  28.200  1.00  0.00     0.029 A 
ATOM     23  C   UNL A   1      40.521  27.473  28.684  1.00  0.00     0.049 A 
ATOM     24  H   UNL A   1      42.580  27.357  28.972  1.00  0.00     0.167 HD
ATOM     25  C   UNL A   1      46.905  26.990  29.455  1.00  0.00     0.031 A 
ATOM     26  C   UNL A   1      40.138  28.713  29.039  1.00  0.00     0.031 A 
ATOM     27  C   UNL A   1      46.595  28.342  29.840  1.00  0.00     0.049 A 
ATOM     28  C   UNL A   1      41.169  29.683  29.530  1.00  0.00     0.074 A 
ATOM     29  C   UNL A   1      47.458  29.341  30.256  1.00  0.00     0.029 A 
ATOM     30  N   UNL A   1      45.319  28.885  29.858  1.00  0.00    -0.354 N 
ATOM     31  N   UNL A   1      42.465  29.521  29.645  1.00  0.00    -0.248 NA
ATOM     32  C   UNL A   1      40.684  31.006  29.944  1.00  0.00     0.031 C 
ATOM     33  C   UNL A   1      46.700  30.474  30.569  1.00  0.00     0.029 A 
ATOM     34  C   UNL A   1      45.369  30.196  30.301  1.00  0.00     0.049 A 
ATOM     35  H   UNL A   1      44.499  28.408  29.596  1.00  0.00     0.167 HD
ATOM     36  C   UNL A   1      42.953  30.725  30.132  1.00  0.00     0.074 A 
ATOM     37  C   UNL A   1      41.817  31.614  30.269  1.00  0.00     0.031 C 
ATOM     38  C   UNL A   1      44.227  31.062  30.441  1.00  0.00     0.031 A 
BRANCH  25  39
ATOM     39  C   UNL A   1      48.337  26.538  29.546  1.00  0.00    -0.014 A 
ATOM     40  C   UNL A   1      49.221  26.699  28.468  1.00  0.00     0.009 A 
ATOM     41  C   UNL A   1      48.820  25.993  30.746  1.00  0.00     0.009 A 
ATOM     42  C   UNL A   1      50.553  26.294  28.580  1.00  0.00     0.001 A 
ATOM     43  C   UNL A   1      50.158  25.611  30.863  1.00  0.00     0.001 A 
ATOM     44  C   UNL A   1      51.021  25.755  29.779  1.00  0.00     0.000 A 
ENDBRANCH  25  39
BRANCH  26  45
ATOM     45  C   UNL A   1      38.706  29.093  28.951  1.00  0.00    -0.014 A 
ATOM     46  C   UNL A   1      37.868  28.982  30.070  1.00  0.00     0.009 A 
ATOM     47  C   UNL A   1      38.176  29.592  27.749  1.00  0.00     0.009 A 
ATOM     48  C   UNL A   1      36.522  29.347  29.982  1.00  0.00     0.001 A 
ATOM     49  C   UNL A   1      36.839  29.983  27.673  1.00  0.00     0.001 A 
ATOM     50  C   UNL A   1      36.012  29.852  28.787  1.00  0.00     0.000 A 
ENDBRANCH  26  45
BRANCH  38  51
ATOM     51  C   UNL A   1      44.456  32.459  30.939  1.00  0.00    -0.014 A 
ATOM     52  C   UNL A   1      44.427  32.752  32.312  1.00  0.00     0.009 A 
ATOM     53  C   UNL A   1      44.720  33.491  30.026  1.00  0.00     0.009 A 
ATOM     54  C   UNL A   1      44.625  34.061  32.757  1.00  0.00     0.001 A 
ATOM     55  C   UNL A   1      44.943  34.792  30.475  1.00  0.00     0.001 A 
ATOM     56  C   UNL A   1      44.885  35.078  31.839  1.00  0.00     0.000 A 
ENDBRANCH  38  51
ENDBRANCH  12  13
ENDBRANCH   5   7
ENDBRANCH   2   3
ENDBRANCH   1   2
BRANCH   1  57
ATOM     57  C   UNL A   1      36.637  20.621  24.931  1.00  0.00     0.023 C 
BRANCH  57  58
ATOM     58  C   UNL A   1      36.802  21.892  25.762  1.00  0.00     0.116 C 
BRANCH  58  59
ATOM     59  N   UNL A   1      35.597  22.207  26.504  1.00  0.00    -0.356 N 
ATOM     60  C   UNL A   1      34.711  23.249  26.384  1.00  0.00     0.226 C 
ATOM     61  H   UNL A   1      35.376  21.564  27.215  1.00  0.00     0.163 HD
ATOM     62  O   UNL A   1      33.788  23.259  27.213  1.00  0.00    -0.275 OA
BRANCH  60  63
ATOM     63  C   UNL A   1      34.824  24.313  25.292  1.00  0.00     0.117 C 
ATOM     64  C   UNL A   1      34.763  23.962  23.803  1.00  0.00     0.135 C 
ATOM     65  C   UNL A   1      33.675  25.307  25.078  1.00  0.00     0.135 C 
ATOM     66  N   UNL A   1      33.812  25.050  23.662  1.00  0.00    -0.337 N 
ATOM     67  C   UNL A   1      33.200  25.513  22.531  1.00  0.00     0.259 C 
ATOM     68  O   UNL A   1      33.392  25.032  21.418  1.00  0.00    -0.269 OA
BRANCH  67  69
ATOM     69  C   UNL A   1      32.259  26.630  22.673  1.00  0.00     0.111 A 
ATOM     70  C   UNL A   1      30.912  26.406  22.939  1.00  0.00     0.140 A 
ATOM     71  C   UNL A   1      32.728  27.940  22.608  1.00  0.00     0.140 A 
ATOM     72  F   UNL A   1      30.432  25.160  23.053  1.00  0.00    -0.206 F 
ATOM     73  C   UNL A   1      30.029  27.470  23.105  1.00  0.00     0.056 A 
ATOM     74  C   UNL A   1      31.860  29.017  22.780  1.00  0.00     0.056 A 
ATOM     75  F   UNL A   1      34.018  28.197  22.346  1.00  0.00    -0.206 F 
ATOM     76  C   UNL A   1      30.511  28.775  23.025  1.00  0.00     0.023 A 
ATOM     77  Br  UNL A   1      29.322  30.227  23.254  1.00  0.00    -0.051 Br
ENDBRANCH  67  69
ENDBRANCH  60  63
ENDBRANCH  58  59
ENDBRANCH  57  58
ENDBRANCH   1  57
TORSDOF 12
ENDMDL
