MODEL 1
REMARK VINA RESULT:     -11.4      0.000      0.000
REMARK SMILES CCOc1ccc(NC(=O)[C@@H]2[C@@H](C(=O)NCCCCNC(=O)c3ccc(-c4c5nc(c(-c6ccccc6)c6ccc([nH]6)c(-c6ccccc6)c6nc(c(-c7ccccc7)c7ccc4[nH]7)C=C6)C=C5)cc3)[C@H]3C=C[C@@H]2C3)cc1
REMARK SMILES IDX 16 1 15 2 13 3 14 4 12 6 11 7 74 8 71 9 73 10 75 11 72 12
REMARK SMILES IDX 9 13 8 14 10 16 7 17 4 18 5 19 77 20 6 21 76 22 3 23 2 24
REMARK SMILES IDX 1 25 17 26 18 27 19 28 20 29 21 30 22 32 23 33 24 34 70 35
REMARK SMILES IDX 25 36 69 37 26 38 27 39 28 40 63 41 29 42 68 43 62 44 64 45
REMARK SMILES IDX 30 46 67 47 61 48 60 49 31 51 53 52 38 53 52 54 39 55 42 56
REMARK SMILES IDX 51 57 65 58 40 59 41 60 50 62 66 63 43 64 32 65 33 66 37 67
REMARK SMILES IDX 34 68 36 69 35 70 54 71 55 72 59 73 56 74 58 75 57 76 44 77
REMARK SMILES IDX 45 78 49 79 46 80 48 81 47 82
REMARK H PARENT 15 5 8 15 20 31 64 50 42 61
REMARK Flexibility Score: inf
ROOT
ATOM      1  C   UNL A   1      36.855  22.253  24.530  1.00  0.00     0.116 C 
ENDROOT
BRANCH   1   2
ATOM      2  N   UNL A   1      36.047  23.185  25.280  1.00  0.00    -0.356 N 
ATOM      3  C   UNL A   1      34.787  23.638  25.065  1.00  0.00     0.224 C 
ATOM      4  O   UNL A   1      34.312  24.340  25.962  1.00  0.00    -0.275 OA
ATOM      5  H   UNL A   1      36.485  23.554  26.081  1.00  0.00     0.163 HD
BRANCH   3   6
ATOM      6  C   UNL A   1      33.977  23.202  23.847  1.00  0.00     0.098 C 
ATOM      7  C   UNL A   1      32.828  24.163  23.325  1.00  0.00     0.099 C 
ATOM      8  C   UNL A   1      31.599  23.207  23.335  1.00  0.00     0.025 C 
ATOM      9  C   UNL A   1      33.187  21.896  24.170  1.00  0.00     0.025 C 
ATOM     10  C   UNL A   1      31.236  22.965  24.778  1.00  0.00    -0.027 C 
ATOM     11  C   UNL A   1      32.219  21.852  22.997  1.00  0.00     0.017 C 
ATOM     12  C   UNL A   1      32.181  22.160  25.277  1.00  0.00    -0.027 C 
BRANCH   7  13
ATOM     13  C   UNL A   1      33.105  24.711  21.922  1.00  0.00     0.228 C 
ATOM     14  N   UNL A   1      33.135  26.039  21.616  1.00  0.00    -0.326 N 
ATOM     15  H   UNL A   1      33.495  26.232  20.720  1.00  0.00     0.169 HD
ATOM     16  O   UNL A   1      33.309  23.953  20.966  1.00  0.00    -0.274 OA
BRANCH  14  17
ATOM     17  C   UNL A   1      32.754  27.180  22.330  1.00  0.00     0.041 A 
ATOM     18  C   UNL A   1      31.809  29.031  24.195  1.00  0.00     0.119 A 
ATOM     19  C   UNL A   1      33.155  29.028  23.832  1.00  0.00     0.048 A 
ATOM     20  C   UNL A   1      30.912  28.218  23.511  1.00  0.00     0.048 A 
ATOM     21  C   UNL A   1      33.630  28.108  22.890  1.00  0.00     0.030 A 
ATOM     22  C   UNL A   1      31.383  27.306  22.569  1.00  0.00     0.030 A 
BRANCH  18  23
ATOM     23  O   UNL A   1      31.431  29.889  25.188  1.00  0.00    -0.494 OA
BRANCH  23  24
ATOM     24  C   UNL A   1      31.830  29.488  26.508  1.00  0.00     0.226 C 
ATOM     25  C   UNL A   1      32.752  30.521  27.138  1.00  0.00     0.049 C 
ENDBRANCH  23  24
ENDBRANCH  18  23
ENDBRANCH  14  17
ENDBRANCH   7  13
ENDBRANCH   3   6
ENDBRANCH   1   2
BRANCH   1  26
ATOM     26  C   UNL A   1      36.625  20.820  24.996  1.00  0.00     0.023 C 
BRANCH  26  27
ATOM     27  C   UNL A   1      37.862  19.923  24.892  1.00  0.00     0.023 C 
BRANCH  27  28
ATOM     28  C   UNL A   1      39.031  20.328  25.783  1.00  0.00     0.116 C 
BRANCH  28  29
ATOM     29  N   UNL A   1      40.100  19.341  25.799  1.00  0.00    -0.352 N 
ATOM     30  C   UNL A   1      41.427  19.517  26.104  1.00  0.00     0.251 C 
ATOM     31  H   UNL A   1      39.836  18.423  25.559  1.00  0.00     0.163 HD
ATOM     32  O   UNL A   1      42.231  18.605  25.936  1.00  0.00    -0.269 OA
BRANCH  30  33
ATOM     33  C   UNL A   1      41.890  20.828  26.605  1.00  0.00     0.039 A 
ATOM     34  C   UNL A   1      42.215  21.826  25.685  1.00  0.00     0.014 A 
ATOM     35  C   UNL A   1      41.971  21.077  27.978  1.00  0.00     0.014 A 
ATOM     36  C   UNL A   1      42.557  23.099  26.142  1.00  0.00     0.010 A 
ATOM     37  C   UNL A   1      42.235  22.366  28.429  1.00  0.00     0.010 A 
ATOM     38  C   UNL A   1      42.532  23.390  27.517  1.00  0.00    -0.014 A 
BRANCH  38  39
ATOM     39  C   UNL A   1      42.809  24.758  28.020  1.00  0.00     0.031 A 
ATOM     40  C   UNL A   1      44.211  25.164  28.377  1.00  0.00     0.074 A 
ATOM     41  C   UNL A   1      41.789  25.617  28.213  1.00  0.00     0.049 A 
ATOM     42  N   UNL A   1      44.644  26.300  28.863  1.00  0.00    -0.248 NA
ATOM     43  C   UNL A   1      45.262  24.151  28.187  1.00  0.00     0.031 C 
ATOM     44  C   UNL A   1      40.379  25.338  27.936  1.00  0.00     0.029 A 
ATOM     45  N   UNL A   1      41.786  26.905  28.688  1.00  0.00    -0.354 N 
ATOM     46  C   UNL A   1      46.011  26.132  29.051  1.00  0.00     0.074 A 
ATOM     47  C   UNL A   1      46.323  24.768  28.683  1.00  0.00     0.031 C 
ATOM     48  C   UNL A   1      39.654  26.435  28.203  1.00  0.00     0.029 A 
ATOM     49  C   UNL A   1      40.539  27.478  28.713  1.00  0.00     0.049 A 
ATOM     50  H   UNL A   1      42.601  27.373  28.983  1.00  0.00     0.167 HD
ATOM     51  C   UNL A   1      46.929  27.035  29.473  1.00  0.00     0.031 A 
ATOM     52  C   UNL A   1      40.150  28.706  29.102  1.00  0.00     0.031 A 
ATOM     53  C   UNL A   1      46.618  28.390  29.843  1.00  0.00     0.049 A 
ATOM     54  C   UNL A   1      41.179  29.677  29.609  1.00  0.00     0.074 A 
ATOM     55  C   UNL A   1      47.482  29.399  30.232  1.00  0.00     0.029 A 
ATOM     56  N   UNL A   1      45.338  28.923  29.880  1.00  0.00    -0.354 N 
ATOM     57  N   UNL A   1      42.478  29.528  29.713  1.00  0.00    -0.248 NA
ATOM     58  C   UNL A   1      40.685  30.992  30.045  1.00  0.00     0.031 C 
ATOM     59  C   UNL A   1      46.719  30.524  30.562  1.00  0.00     0.029 A 
ATOM     60  C   UNL A   1      45.386  30.236  30.318  1.00  0.00     0.049 A 
ATOM     61  H   UNL A   1      44.517  28.439  29.633  1.00  0.00     0.167 HD
ATOM     62  C   UNL A   1      42.960  30.738  30.194  1.00  0.00     0.074 A 
ATOM     63  C   UNL A   1      41.815  31.613  30.350  1.00  0.00     0.031 C 
ATOM     64  C   UNL A   1      44.238  31.094  30.476  1.00  0.00     0.031 A 
BRANCH  51  65
ATOM     65  C   UNL A   1      48.355  26.564  29.571  1.00  0.00    -0.014 A 
ATOM     66  C   UNL A   1      48.852  25.975  30.746  1.00  0.00     0.009 A 
ATOM     67  C   UNL A   1      49.217  26.714  28.475  1.00  0.00     0.009 A 
ATOM     68  C   UNL A   1      50.193  25.600  30.839  1.00  0.00     0.001 A 
ATOM     69  C   UNL A   1      50.550  26.305  28.557  1.00  0.00     0.001 A 
ATOM     70  C   UNL A   1      51.041  25.763  29.744  1.00  0.00     0.000 A 
ENDBRANCH  51  65
BRANCH  52  71
ATOM     71  C   UNL A   1      38.723  29.105  28.990  1.00  0.00    -0.014 A 
ATOM     72  C   UNL A   1      37.875  29.007  30.104  1.00  0.00     0.009 A 
ATOM     73  C   UNL A   1      38.200  29.590  27.781  1.00  0.00     0.009 A 
ATOM     74  C   UNL A   1      36.529  29.365  30.005  1.00  0.00     0.001 A 
ATOM     75  C   UNL A   1      36.860  29.974  27.692  1.00  0.00     0.001 A 
ATOM     76  C   UNL A   1      36.024  29.853  28.801  1.00  0.00     0.000 A 
ENDBRANCH  52  71
BRANCH  64  77
ATOM     77  C   UNL A   1      44.471  32.503  30.945  1.00  0.00    -0.014 A 
ATOM     78  C   UNL A   1      44.688  33.552  30.037  1.00  0.00     0.009 A 
ATOM     79  C   UNL A   1      44.435  32.792  32.318  1.00  0.00     0.009 A 
ATOM     80  C   UNL A   1      44.901  34.853  30.499  1.00  0.00     0.001 A 
ATOM     81  C   UNL A   1      44.616  34.097  32.775  1.00  0.00     0.001 A 
ATOM     82  C   UNL A   1      44.859  35.125  31.866  1.00  0.00     0.000 A 
ENDBRANCH  64  77
ENDBRANCH  38  39
ENDBRANCH  30  33
ENDBRANCH  28  29
ENDBRANCH  27  28
ENDBRANCH  26  27
ENDBRANCH   1  26
TORSDOF 15
ENDMDL
MODEL 2
REMARK VINA RESULT:     -11.3      1.605      2.299
REMARK SMILES CCOc1ccc(NC(=O)[C@@H]2[C@@H](C(=O)NCCCCNC(=O)c3ccc(-c4c5nc(c(-c6ccccc6)c6ccc([nH]6)c(-c6ccccc6)c6nc(c(-c7ccccc7)c7ccc4[nH]7)C=C6)C=C5)cc3)[C@H]3C=C[C@@H]2C3)cc1
REMARK SMILES IDX 16 1 15 2 13 3 14 4 12 6 11 7 74 8 71 9 73 10 75 11 72 12
REMARK SMILES IDX 9 13 8 14 10 16 7 17 4 18 5 19 77 20 6 21 76 22 3 23 2 24
REMARK SMILES IDX 1 25 17 26 18 27 19 28 20 29 21 30 22 32 23 33 24 34 70 35
REMARK SMILES IDX 25 36 69 37 26 38 27 39 28 40 63 41 29 42 68 43 62 44 64 45
REMARK SMILES IDX 30 46 67 47 61 48 60 49 31 51 53 52 38 53 52 54 39 55 42 56
REMARK SMILES IDX 51 57 65 58 40 59 41 60 50 62 66 63 43 64 32 65 33 66 37 67
REMARK SMILES IDX 34 68 36 69 35 70 54 71 55 72 59 73 56 74 58 75 57 76 44 77
REMARK SMILES IDX 45 78 49 79 46 80 48 81 47 82
REMARK H PARENT 15 5 8 15 20 31 64 50 42 61
REMARK Flexibility Score: inf
ROOT
ATOM      1  C   UNL A   1      36.043  21.081  25.756  1.00  0.00     0.116 C 
ENDROOT
BRANCH   1   2
ATOM      2  N   UNL A   1      34.712  20.745  25.310  1.00  0.00    -0.356 N 
ATOM      3  C   UNL A   1      33.609  21.518  25.150  1.00  0.00     0.224 C 
ATOM      4  O   UNL A   1      32.640  20.964  24.623  1.00  0.00    -0.275 OA
ATOM      5  H   UNL A   1      34.583  19.795  25.084  1.00  0.00     0.163 HD
BRANCH   3   6
ATOM      6  C   UNL A   1      33.619  23.006  25.491  1.00  0.00     0.098 C 
ATOM      7  C   UNL A   1      32.309  23.853  25.199  1.00  0.00     0.099 C 
ATOM      8  C   UNL A   1      32.876  24.996  24.306  1.00  0.00     0.025 C 
ATOM      9  C   UNL A   1      34.686  23.746  24.626  1.00  0.00     0.025 C 
ATOM     10  C   UNL A   1      33.216  24.388  22.968  1.00  0.00    -0.027 C 
ATOM     11  C   UNL A   1      34.286  25.196  24.861  1.00  0.00     0.017 C 
ATOM     12  C   UNL A   1      34.317  23.650  23.156  1.00  0.00    -0.027 C 
BRANCH   7  13
ATOM     13  C   UNL A   1      31.661  24.401  26.473  1.00  0.00     0.228 C 
ATOM     14  N   UNL A   1      30.740  25.406  26.487  1.00  0.00    -0.326 N 
ATOM     15  H   UNL A   1      30.294  25.524  27.356  1.00  0.00     0.169 HD
ATOM     16  O   UNL A   1      31.959  23.955  27.588  1.00  0.00    -0.274 OA
BRANCH  14  17
ATOM     17  C   UNL A   1      30.307  26.301  25.502  1.00  0.00     0.041 A 
ATOM     18  C   UNL A   1      30.014  27.966  23.280  1.00  0.00     0.119 A 
ATOM     19  C   UNL A   1      29.156  26.881  23.460  1.00  0.00     0.048 A 
ATOM     20  C   UNL A   1      30.909  28.308  24.288  1.00  0.00     0.048 A 
ATOM     21  C   UNL A   1      29.294  26.050  24.578  1.00  0.00     0.030 A 
ATOM     22  C   UNL A   1      31.043  27.485  25.404  1.00  0.00     0.030 A 
BRANCH  18  23
ATOM     23  O   UNL A   1      29.888  28.678  22.122  1.00  0.00    -0.494 OA
BRANCH  23  24
ATOM     24  C   UNL A   1      29.561  30.065  22.306  1.00  0.00     0.226 C 
ATOM     25  C   UNL A   1      28.070  30.249  22.542  1.00  0.00     0.049 C 
ENDBRANCH  23  24
ENDBRANCH  18  23
ENDBRANCH  14  17
ENDBRANCH   7  13
ENDBRANCH   3   6
ENDBRANCH   1   2
BRANCH   1  26
ATOM     26  C   UNL A   1      37.075  20.822  24.664  1.00  0.00     0.023 C 
BRANCH  26  27
ATOM     27  C   UNL A   1      38.060  19.696  24.990  1.00  0.00     0.023 C 
BRANCH  27  28
ATOM     28  C   UNL A   1      39.235  20.101  25.872  1.00  0.00     0.116 C 
BRANCH  28  29
ATOM     29  N   UNL A   1      40.286  19.094  25.914  1.00  0.00    -0.352 N 
ATOM     30  C   UNL A   1      41.626  19.261  26.159  1.00  0.00     0.251 C 
ATOM     31  H   UNL A   1      39.996  18.169  25.743  1.00  0.00     0.163 HD
ATOM     32  O   UNL A   1      42.406  18.324  26.021  1.00  0.00    -0.269 OA
BRANCH  30  33
ATOM     33  C   UNL A   1      42.132  20.591  26.558  1.00  0.00     0.039 A 
ATOM     34  C   UNL A   1      42.579  21.468  25.568  1.00  0.00     0.014 A 
ATOM     35  C   UNL A   1      42.134  20.979  27.901  1.00  0.00     0.014 A 
ATOM     36  C   UNL A   1      42.965  22.763  25.918  1.00  0.00     0.010 A 
ATOM     37  C   UNL A   1      42.443  22.292  28.237  1.00  0.00     0.010 A 
ATOM     38  C   UNL A   1      42.863  23.198  27.250  1.00  0.00    -0.014 A 
BRANCH  38  39
ATOM     39  C   UNL A   1      43.187  24.595  27.632  1.00  0.00     0.031 A 
ATOM     40  C   UNL A   1      44.618  25.047  27.706  1.00  0.00     0.074 A 
ATOM     41  C   UNL A   1      42.195  25.440  27.971  1.00  0.00     0.049 A 
ATOM     42  N   UNL A   1      45.099  26.215  28.052  1.00  0.00    -0.248 NA
ATOM     43  C   UNL A   1      45.646  24.048  27.371  1.00  0.00     0.031 C 
ATOM     44  C   UNL A   1      40.767  25.118  27.971  1.00  0.00     0.029 A 
ATOM     45  N   UNL A   1      42.240  26.750  28.380  1.00  0.00    -0.354 N 
ATOM     46  C   UNL A   1      46.481  26.084  27.993  1.00  0.00     0.074 A 
ATOM     47  C   UNL A   1      46.761  24.711  27.635  1.00  0.00     0.031 C 
ATOM     48  C   UNL A   1      40.070  26.212  28.318  1.00  0.00     0.029 A 
ATOM     49  C   UNL A   1      41.002  27.297  28.609  1.00  0.00     0.049 A 
ATOM     50  H   UNL A   1      43.081  27.250  28.498  1.00  0.00     0.167 HD
ATOM     51  C   UNL A   1      47.434  27.027  28.196  1.00  0.00     0.031 A 
ATOM     52  C   UNL A   1      40.655  28.535  29.006  1.00  0.00     0.031 A 
ATOM     53  C   UNL A   1      47.156  28.391  28.556  1.00  0.00     0.049 A 
ATOM     54  C   UNL A   1      41.730  29.551  29.270  1.00  0.00     0.074 A 
ATOM     55  C   UNL A   1      48.046  29.436  28.733  1.00  0.00     0.029 A 
ATOM     56  N   UNL A   1      45.889  28.898  28.805  1.00  0.00    -0.354 N 
ATOM     57  N   UNL A   1      43.030  29.435  29.140  1.00  0.00    -0.248 NA
ATOM     58  C   UNL A   1      41.286  30.876  29.730  1.00  0.00     0.031 C 
ATOM     59  C   UNL A   1      47.323  30.560  29.148  1.00  0.00     0.029 A 
ATOM     60  C   UNL A   1      45.977  30.233  29.167  1.00  0.00     0.049 A 
ATOM     61  H   UNL A   1      45.052  28.386  28.735  1.00  0.00     0.167 HD
ATOM     62  C   UNL A   1      43.556  30.677  29.469  1.00  0.00     0.074 A 
ATOM     63  C   UNL A   1      42.434  31.534  29.794  1.00  0.00     0.031 C 
ATOM     64  C   UNL A   1      44.853  31.073  29.494  1.00  0.00     0.031 A 
BRANCH  51  65
ATOM     65  C   UNL A   1      48.867  26.591  28.052  1.00  0.00    -0.014 A 
ATOM     66  C   UNL A   1      49.620  26.170  29.161  1.00  0.00     0.009 A 
ATOM     67  C   UNL A   1      49.477  26.603  26.788  1.00  0.00     0.009 A 
ATOM     68  C   UNL A   1      50.966  25.828  29.016  1.00  0.00     0.001 A 
ATOM     69  C   UNL A   1      50.813  26.226  26.640  1.00  0.00     0.001 A 
ATOM     70  C   UNL A   1      51.560  25.854  27.756  1.00  0.00     0.000 A 
ENDBRANCH  51  65
BRANCH  52  71
ATOM     71  C   UNL A   1      39.220  28.898  29.142  1.00  0.00    -0.014 A 
ATOM     72  C   UNL A   1      38.559  28.711  30.365  1.00  0.00     0.009 A 
ATOM     73  C   UNL A   1      38.505  29.436  28.060  1.00  0.00     0.009 A 
ATOM     74  C   UNL A   1      37.207  29.035  30.498  1.00  0.00     0.001 A 
ATOM     75  C   UNL A   1      37.161  29.786  28.204  1.00  0.00     0.001 A 
ATOM     76  C   UNL A   1      36.511  29.577  29.419  1.00  0.00     0.000 A 
ENDBRANCH  52  71
BRANCH  64  77
ATOM     77  C   UNL A   1      45.125  32.509  29.848  1.00  0.00    -0.014 A 
ATOM     78  C   UNL A   1      45.241  33.499  28.860  1.00  0.00     0.009 A 
ATOM     79  C   UNL A   1      45.233  32.882  31.197  1.00  0.00     0.009 A 
ATOM     80  C   UNL A   1      45.493  34.826  29.215  1.00  0.00     0.001 A 
ATOM     81  C   UNL A   1      45.453  34.213  31.552  1.00  0.00     0.001 A 
ATOM     82  C   UNL A   1      45.593  35.182  30.560  1.00  0.00     0.000 A 
ENDBRANCH  64  77
ENDBRANCH  38  39
ENDBRANCH  30  33
ENDBRANCH  28  29
ENDBRANCH  27  28
ENDBRANCH  26  27
ENDBRANCH   1  26
TORSDOF 15
ENDMDL
MODEL 3
REMARK VINA RESULT:     -11.3      3.844      9.397
REMARK SMILES CCOc1ccc(NC(=O)[C@@H]2[C@@H](C(=O)NCCCCNC(=O)c3ccc(-c4c5nc(c(-c6ccccc6)c6ccc([nH]6)c(-c6ccccc6)c6nc(c(-c7ccccc7)c7ccc4[nH]7)C=C6)C=C5)cc3)[C@H]3C=C[C@@H]2C3)cc1
REMARK SMILES IDX 16 1 15 2 13 3 14 4 12 6 11 7 74 8 71 9 73 10 75 11 72 12
REMARK SMILES IDX 9 13 8 14 10 16 7 17 4 18 5 19 77 20 6 21 76 22 3 23 2 24
REMARK SMILES IDX 1 25 17 26 18 27 19 28 20 29 21 30 22 32 23 33 24 34 70 35
REMARK SMILES IDX 25 36 69 37 26 38 27 39 28 40 63 41 29 42 68 43 62 44 64 45
REMARK SMILES IDX 30 46 67 47 61 48 60 49 31 51 53 52 38 53 52 54 39 55 42 56
REMARK SMILES IDX 51 57 65 58 40 59 41 60 50 62 66 63 43 64 32 65 33 66 37 67
REMARK SMILES IDX 34 68 36 69 35 70 54 71 55 72 59 73 56 74 58 75 57 76 44 77
REMARK SMILES IDX 45 78 49 79 46 80 48 81 47 82
REMARK H PARENT 15 5 8 15 20 31 64 50 42 61
REMARK Flexibility Score: inf
ROOT
ATOM      1  C   UNL A   1      31.895  29.786  27.273  1.00  0.00     0.116 C 
ENDROOT
BRANCH   1   2
ATOM      2  N   UNL A   1      33.098  29.026  27.030  1.00  0.00    -0.356 N 
ATOM      3  C   UNL A   1      33.294  27.870  26.349  1.00  0.00     0.224 C 
ATOM      4  O   UNL A   1      34.472  27.529  26.203  1.00  0.00    -0.275 OA
ATOM      5  H   UNL A   1      33.913  29.412  27.426  1.00  0.00     0.163 HD
BRANCH   3   6
ATOM      6  C   UNL A   1      32.134  27.114  25.705  1.00  0.00     0.098 C 
ATOM      7  C   UNL A   1      32.274  25.545  25.514  1.00  0.00     0.099 C 
ATOM      8  C   UNL A   1      32.009  25.397  23.987  1.00  0.00     0.025 C 
ATOM      9  C   UNL A   1      31.925  27.604  24.239  1.00  0.00     0.025 C 
ATOM     10  C   UNL A   1      33.214  25.954  23.271  1.00  0.00    -0.027 C 
ATOM     11  C   UNL A   1      31.006  26.515  23.704  1.00  0.00     0.017 C 
ATOM     12  C   UNL A   1      33.155  27.284  23.406  1.00  0.00    -0.027 C 
BRANCH   7  13
ATOM     13  C   UNL A   1      31.256  24.754  26.342  1.00  0.00     0.228 C 
ATOM     14  N   UNL A   1      31.471  23.492  26.807  1.00  0.00    -0.326 N 
ATOM     15  H   UNL A   1      30.801  23.190  27.462  1.00  0.00     0.169 HD
ATOM     16  O   UNL A   1      30.151  25.232  26.627  1.00  0.00    -0.274 OA
BRANCH  14  17
ATOM     17  C   UNL A   1      32.461  22.542  26.533  1.00  0.00     0.041 A 
ATOM     18  C   UNL A   1      34.584  21.044  25.509  1.00  0.00     0.119 A 
ATOM     19  C   UNL A   1      34.647  21.553  26.805  1.00  0.00     0.048 A 
ATOM     20  C   UNL A   1      33.399  21.150  24.788  1.00  0.00     0.048 A 
ATOM     21  C   UNL A   1      33.580  22.295  27.326  1.00  0.00     0.030 A 
ATOM     22  C   UNL A   1      32.335  21.884  25.306  1.00  0.00     0.030 A 
BRANCH  18  23
ATOM     23  O   UNL A   1      35.695  20.412  25.029  1.00  0.00    -0.494 OA
BRANCH  23  24
ATOM     24  C   UNL A   1      36.872  21.233  24.973  1.00  0.00     0.226 C 
ATOM     25  C   UNL A   1      36.753  22.286  23.882  1.00  0.00     0.049 C 
ENDBRANCH  23  24
ENDBRANCH  18  23
ENDBRANCH  14  17
ENDBRANCH   7  13
ENDBRANCH   3   6
ENDBRANCH   1   2
BRANCH   1  26
ATOM     26  C   UNL A   1      31.588  30.724  26.111  1.00  0.00     0.023 C 
BRANCH  26  27
ATOM     27  C   UNL A   1      31.396  32.186  26.523  1.00  0.00     0.023 C 
BRANCH  27  28
ATOM     28  C   UNL A   1      32.568  32.803  27.279  1.00  0.00     0.116 C 
BRANCH  28  29
ATOM     29  N   UNL A   1      32.330  34.186  27.664  1.00  0.00    -0.352 N 
ATOM     30  C   UNL A   1      33.000  34.948  28.589  1.00  0.00     0.251 C 
ATOM     31  H   UNL A   1      31.588  34.636  27.199  1.00  0.00     0.163 HD
ATOM     32  O   UNL A   1      32.585  36.060  28.897  1.00  0.00    -0.269 OA
BRANCH  30  33
ATOM     33  C   UNL A   1      34.210  34.404  29.239  1.00  0.00     0.039 A 
ATOM     34  C   UNL A   1      34.074  33.692  30.432  1.00  0.00     0.014 A 
ATOM     35  C   UNL A   1      35.469  34.570  28.654  1.00  0.00     0.014 A 
ATOM     36  C   UNL A   1      35.193  33.087  31.005  1.00  0.00     0.010 A 
ATOM     37  C   UNL A   1      36.567  33.902  29.184  1.00  0.00     0.010 A 
ATOM     38  C   UNL A   1      36.442  33.154  30.365  1.00  0.00    -0.014 A 
BRANCH  38  39
ATOM     39  C   UNL A   1      37.627  32.448  30.911  1.00  0.00     0.031 A 
ATOM     40  C   UNL A   1      38.308  32.957  32.150  1.00  0.00     0.074 A 
ATOM     41  C   UNL A   1      38.128  31.382  30.257  1.00  0.00     0.049 A 
ATOM     42  N   UNL A   1      39.373  32.496  32.757  1.00  0.00    -0.248 NA
ATOM     43  C   UNL A   1      37.730  34.157  32.776  1.00  0.00     0.031 C 
ATOM     44  C   UNL A   1      37.581  30.805  29.027  1.00  0.00     0.029 A 
ATOM     45  N   UNL A   1      39.213  30.591  30.540  1.00  0.00    -0.354 N 
ATOM     46  C   UNL A   1      39.601  33.359  33.822  1.00  0.00     0.074 A 
ATOM     47  C   UNL A   1      38.600  34.401  33.744  1.00  0.00     0.031 C 
ATOM     48  C   UNL A   1      38.306  29.728  28.688  1.00  0.00     0.029 A 
ATOM     49  C   UNL A   1      39.394  29.565  29.647  1.00  0.00     0.049 A 
ATOM     50  H   UNL A   1      39.806  30.745  31.312  1.00  0.00     0.167 HD
ATOM     51  C   UNL A   1      40.544  33.281  34.792  1.00  0.00     0.031 A 
ATOM     52  C   UNL A   1      40.330  28.599  29.604  1.00  0.00     0.031 A 
ATOM     53  C   UNL A   1      41.541  32.248  34.868  1.00  0.00     0.049 A 
ATOM     54  C   UNL A   1      41.394  28.559  30.664  1.00  0.00     0.074 A 
ATOM     55  C   UNL A   1      42.508  32.050  35.839  1.00  0.00     0.029 A 
ATOM     56  N   UNL A   1      41.707  31.242  33.927  1.00  0.00    -0.354 N 
ATOM     57  N   UNL A   1      41.555  29.339  31.706  1.00  0.00    -0.248 NA
ATOM     58  C   UNL A   1      42.404  27.497  30.544  1.00  0.00     0.031 C 
ATOM     59  C   UNL A   1      43.296  30.960  35.453  1.00  0.00     0.029 A 
ATOM     60  C   UNL A   1      42.781  30.441  34.277  1.00  0.00     0.049 A 
ATOM     61  H   UNL A   1      41.145  31.117  33.129  1.00  0.00     0.167 HD
ATOM     62  C   UNL A   1      42.661  28.843  32.384  1.00  0.00     0.074 A 
ATOM     63  C   UNL A   1      43.124  27.689  31.640  1.00  0.00     0.031 C 
ATOM     64  C   UNL A   1      43.237  29.299  33.524  1.00  0.00     0.031 A 
BRANCH  51  65
ATOM     65  C   UNL A   1      40.542  34.367  35.835  1.00  0.00    -0.014 A 
ATOM     66  C   UNL A   1      39.769  34.259  37.003  1.00  0.00     0.009 A 
ATOM     67  C   UNL A   1      41.323  35.517  35.647  1.00  0.00     0.009 A 
ATOM     68  C   UNL A   1      39.733  35.303  37.929  1.00  0.00     0.001 A 
ATOM     69  C   UNL A   1      41.314  36.545  36.592  1.00  0.00     0.001 A 
ATOM     70  C   UNL A   1      40.508  36.444  37.724  1.00  0.00     0.000 A 
ENDBRANCH  51  65
BRANCH  52  71
ATOM     71  C   UNL A   1      40.282  27.563  28.540  1.00  0.00    -0.014 A 
ATOM     72  C   UNL A   1      39.580  26.367  28.752  1.00  0.00     0.009 A 
ATOM     73  C   UNL A   1      40.928  27.761  27.309  1.00  0.00     0.009 A 
ATOM     74  C   UNL A   1      39.541  25.382  27.763  1.00  0.00     0.001 A 
ATOM     75  C   UNL A   1      40.865  26.786  26.312  1.00  0.00     0.001 A 
ATOM     76  C   UNL A   1      40.180  25.594  26.542  1.00  0.00     0.000 A 
ENDBRANCH  52  71
BRANCH  64  77
ATOM     77  C   UNL A   1      44.410  28.525  34.057  1.00  0.00    -0.014 A 
ATOM     78  C   UNL A   1      45.729  28.862  33.713  1.00  0.00     0.009 A 
ATOM     79  C   UNL A   1      44.193  27.462  34.948  1.00  0.00     0.009 A 
ATOM     80  C   UNL A   1      46.802  28.127  34.223  1.00  0.00     0.001 A 
ATOM     81  C   UNL A   1      45.267  26.750  35.481  1.00  0.00     0.001 A 
ATOM     82  C   UNL A   1      46.570  27.077  35.110  1.00  0.00     0.000 A 
ENDBRANCH  64  77
ENDBRANCH  38  39
ENDBRANCH  30  33
ENDBRANCH  28  29
ENDBRANCH  27  28
ENDBRANCH  26  27
ENDBRANCH   1  26
TORSDOF 15
ENDMDL
