MODEL 1
REMARK VINA RESULT:     -10.5      0.000      0.000
REMARK SMILES CSc1ccc(C[NH+]2CCC(CC(=O)NCCCCNC(=O)c3ccc(-c4c5nc(c(-c6ccccc6)c6ccc([nH]6)c(-c6ccccc6)c6nc(c(-c7ccccc7)c7ccc4[nH]7)C=C6)C=C5)cc3)CC2)cc1
REMARK SMILES IDX 16 1 15 2 13 3 14 4 12 6 11 7 8 8 9 9 72 10 10 12 71 13 7 14
REMARK SMILES IDX 6 15 3 16 4 17 74 18 5 19 73 20 2 21 1 22 17 23 18 24 19 25
REMARK SMILES IDX 20 26 21 27 22 29 23 30 24 31 70 32 25 33 69 34 26 35 27 36
REMARK SMILES IDX 28 37 63 38 29 39 68 40 62 41 64 42 30 43 67 44 61 45 60 46
REMARK SMILES IDX 31 48 53 49 38 50 52 51 39 52 42 53 51 54 65 55 40 56 41 57
REMARK SMILES IDX 50 59 66 60 43 61 32 62 33 63 37 64 34 65 36 66 35 67 54 68
REMARK SMILES IDX 55 69 59 70 56 71 58 72 57 73 44 74 45 75 49 76 46 77 48 78
REMARK SMILES IDX 47 79
REMARK H PARENT 15 5 8 11 20 28 64 47 42 58
REMARK Flexibility Score: inf
ROOT
ATOM      1  C   UNL A   1      37.940  23.593  26.101  1.00  0.00     0.116 C 
ENDROOT
BRANCH   1   2
ATOM      2  N   UNL A   1      37.718  23.567  24.664  1.00  0.00    -0.356 N 
ATOM      3  C   UNL A   1      36.678  23.076  23.925  1.00  0.00     0.220 C 
ATOM      4  O   UNL A   1      36.756  23.156  22.698  1.00  0.00    -0.275 OA
ATOM      5  H   UNL A   1      38.441  23.972  24.132  1.00  0.00     0.163 HD
BRANCH   3   6
ATOM      6  C   UNL A   1      35.464  22.427  24.585  1.00  0.00     0.104 C 
BRANCH   6   7
ATOM      7  C   UNL A   1      34.716  23.370  25.551  1.00  0.00     0.009 C 
ATOM      8  N   UNL A   1      32.332  25.083  25.870  1.00  0.00    -0.331 N 
ATOM      9  C   UNL A   1      33.630  25.699  25.610  1.00  0.00     0.262 C 
ATOM     10  C   UNL A   1      32.496  23.883  26.696  1.00  0.00     0.262 C 
ATOM     11  H   UNL A   1      31.927  24.768  24.988  1.00  0.00     0.348 HD
ATOM     12  C   UNL A   1      34.553  24.736  24.908  1.00  0.00     0.066 C 
ATOM     13  C   UNL A   1      33.340  22.827  25.958  1.00  0.00     0.066 C 
BRANCH   8  14
ATOM     14  C   UNL A   1      31.360  26.061  26.397  1.00  0.00     0.299 C 
BRANCH  14  15
ATOM     15  C   UNL A   1      30.843  27.069  25.390  1.00  0.00     0.006 A 
ATOM     16  C   UNL A   1      30.182  28.845  23.292  1.00  0.00     0.007 A 
ATOM     17  C   UNL A   1      30.977  29.265  24.362  1.00  0.00     0.015 A 
ATOM     18  C   UNL A   1      29.680  27.538  23.305  1.00  0.00     0.015 A 
ATOM     19  C   UNL A   1      31.298  28.390  25.404  1.00  0.00     0.011 A 
ATOM     20  C   UNL A   1      30.001  26.659  24.344  1.00  0.00     0.011 A 
BRANCH  16  21
ATOM     21  S   UNL A   1      29.761  29.859  21.879  1.00  0.00    -0.130 SA
ATOM     22  C   UNL A   1      28.095  30.450  22.279  1.00  0.00     0.091 C 
ENDBRANCH  16  21
ENDBRANCH  14  15
ENDBRANCH   8  14
ENDBRANCH   6   7
ENDBRANCH   3   6
ENDBRANCH   1   2
BRANCH   1  23
ATOM     23  C   UNL A   1      39.269  22.933  26.495  1.00  0.00     0.023 C 
BRANCH  23  24
ATOM     24  C   UNL A   1      39.462  21.500  26.042  1.00  0.00     0.023 C 
BRANCH  24  25
ATOM     25  C   UNL A   1      40.435  20.712  26.889  1.00  0.00     0.116 C 
BRANCH  25  26
ATOM     26  N   UNL A   1      41.492  20.061  26.123  1.00  0.00    -0.352 N 
ATOM     27  C   UNL A   1      42.720  20.568  25.759  1.00  0.00     0.251 C 
ATOM     28  H   UNL A   1      41.302  19.141  25.827  1.00  0.00     0.163 HD
ATOM     29  O   UNL A   1      43.479  19.936  25.041  1.00  0.00    -0.269 OA
BRANCH  27  30
ATOM     30  C   UNL A   1      43.073  21.926  26.218  1.00  0.00     0.039 A 
ATOM     31  C   UNL A   1      43.003  22.988  25.315  1.00  0.00     0.014 A 
ATOM     32  C   UNL A   1      43.348  22.152  27.567  1.00  0.00     0.014 A 
ATOM     33  C   UNL A   1      43.118  24.294  25.791  1.00  0.00     0.010 A 
ATOM     34  C   UNL A   1      43.338  23.449  28.053  1.00  0.00     0.010 A 
ATOM     35  C   UNL A   1      43.236  24.534  27.169  1.00  0.00    -0.014 A 
BRANCH  35  36
ATOM     36  C   UNL A   1      43.286  25.908  27.723  1.00  0.00     0.031 A 
ATOM     37  C   UNL A   1      44.618  26.515  28.070  1.00  0.00     0.074 A 
ATOM     38  C   UNL A   1      42.145  26.569  27.994  1.00  0.00     0.049 A 
ATOM     39  N   UNL A   1      44.879  27.661  28.644  1.00  0.00    -0.248 NA
ATOM     40  C   UNL A   1      45.813  25.706  27.773  1.00  0.00     0.031 C 
ATOM     41  C   UNL A   1      40.789  26.065  27.759  1.00  0.00     0.029 A 
ATOM     42  N   UNL A   1      41.945  27.814  28.535  1.00  0.00    -0.354 N 
ATOM     43  C   UNL A   1      46.257  27.687  28.813  1.00  0.00     0.074 A 
ATOM     44  C   UNL A   1      46.771  26.424  28.337  1.00  0.00     0.031 C 
ATOM     45  C   UNL A   1      39.902  27.011  28.106  1.00  0.00     0.029 A 
ATOM     46  C   UNL A   1      40.622  28.169  28.626  1.00  0.00     0.049 A 
ATOM     47  H   UNL A   1      42.681  28.398  28.828  1.00  0.00     0.167 HD
ATOM     48  C   UNL A   1      47.033  28.684  29.297  1.00  0.00     0.031 A 
ATOM     49  C   UNL A   1      40.056  29.305  29.073  1.00  0.00     0.031 A 
ATOM     50  C   UNL A   1      46.525  29.958  29.722  1.00  0.00     0.049 A 
ATOM     51  C   UNL A   1      40.938  30.412  29.578  1.00  0.00     0.074 A 
ATOM     52  C   UNL A   1      47.230  31.073  30.138  1.00  0.00     0.029 A 
ATOM     53  N   UNL A   1      45.179  30.287  29.779  1.00  0.00    -0.354 N 
ATOM     54  N   UNL A   1      42.246  30.454  29.657  1.00  0.00    -0.248 NA
ATOM     55  C   UNL A   1      40.265  31.632  30.045  1.00  0.00     0.031 C 
ATOM     56  C   UNL A   1      46.307  32.065  30.486  1.00  0.00     0.029 A 
ATOM     57  C   UNL A   1      45.031  31.580  30.245  1.00  0.00     0.049 A 
ATOM     58  H   UNL A   1      44.440  29.688  29.527  1.00  0.00     0.167 HD
ATOM     59  C   UNL A   1      42.554  31.713  30.157  1.00  0.00     0.074 A 
ATOM     60  C   UNL A   1      41.296  32.405  30.351  1.00  0.00     0.031 C 
ATOM     61  C   UNL A   1      43.769  32.249  30.428  1.00  0.00     0.031 A 
BRANCH  48  62
ATOM     62  C   UNL A   1      48.509  28.423  29.388  1.00  0.00    -0.014 A 
ATOM     63  C   UNL A   1      49.369  28.707  28.314  1.00  0.00     0.009 A 
ATOM     64  C   UNL A   1      49.048  27.879  30.563  1.00  0.00     0.009 A 
ATOM     65  C   UNL A   1      50.729  28.403  28.397  1.00  0.00     0.001 A 
ATOM     66  C   UNL A   1      50.414  27.606  30.656  1.00  0.00     0.001 A 
ATOM     67  C   UNL A   1      51.251  27.857  29.569  1.00  0.00     0.000 A 
ENDBRANCH  48  62
BRANCH  49  68
ATOM     68  C   UNL A   1      38.581  29.475  29.016  1.00  0.00    -0.014 A 
ATOM     69  C   UNL A   1      37.963  29.839  27.809  1.00  0.00     0.009 A 
ATOM     70  C   UNL A   1      37.785  29.273  30.153  1.00  0.00     0.009 A 
ATOM     71  C   UNL A   1      36.579  30.017  27.748  1.00  0.00     0.001 A 
ATOM     72  C   UNL A   1      36.399  29.427  30.082  1.00  0.00     0.001 A 
ATOM     73  C   UNL A   1      35.798  29.807  28.883  1.00  0.00     0.000 A 
ENDBRANCH  49  68
BRANCH  61  74
ATOM     74  C   UNL A   1      43.796  33.662  30.933  1.00  0.00    -0.014 A 
ATOM     75  C   UNL A   1      43.796  33.943  32.307  1.00  0.00     0.009 A 
ATOM     76  C   UNL A   1      43.870  34.723  30.017  1.00  0.00     0.009 A 
ATOM     77  C   UNL A   1      43.842  35.265  32.754  1.00  0.00     0.001 A 
ATOM     78  C   UNL A   1      43.942  36.041  30.468  1.00  0.00     0.001 A 
ATOM     79  C   UNL A   1      43.920  36.311  31.834  1.00  0.00     0.000 A 
ENDBRANCH  61  74
ENDBRANCH  35  36
ENDBRANCH  27  30
ENDBRANCH  25  26
ENDBRANCH  24  25
ENDBRANCH  23  24
ENDBRANCH   1  23
TORSDOF 15
ENDMDL
MODEL 2
REMARK VINA RESULT:     -10.4      1.871      2.407
REMARK SMILES CSc1ccc(C[NH+]2CCC(CC(=O)NCCCCNC(=O)c3ccc(-c4c5nc(c(-c6ccccc6)c6ccc([nH]6)c(-c6ccccc6)c6nc(c(-c7ccccc7)c7ccc4[nH]7)C=C6)C=C5)cc3)CC2)cc1
REMARK SMILES IDX 16 1 15 2 13 3 14 4 12 6 11 7 8 8 9 9 72 10 10 12 71 13 7 14
REMARK SMILES IDX 6 15 3 16 4 17 74 18 5 19 73 20 2 21 1 22 17 23 18 24 19 25
REMARK SMILES IDX 20 26 21 27 22 29 23 30 24 31 70 32 25 33 69 34 26 35 27 36
REMARK SMILES IDX 28 37 63 38 29 39 68 40 62 41 64 42 30 43 67 44 61 45 60 46
REMARK SMILES IDX 31 48 53 49 38 50 52 51 39 52 42 53 51 54 65 55 40 56 41 57
REMARK SMILES IDX 50 59 66 60 43 61 32 62 33 63 37 64 34 65 36 66 35 67 54 68
REMARK SMILES IDX 55 69 59 70 56 71 58 72 57 73 44 74 45 75 49 76 46 77 48 78
REMARK SMILES IDX 47 79
REMARK H PARENT 15 5 8 11 20 28 64 47 42 58
REMARK Flexibility Score: inf
ROOT
ATOM      1  C   UNL A   1      35.790  21.288  25.535  1.00  0.00     0.116 C 
ENDROOT
BRANCH   1   2
ATOM      2  N   UNL A   1      34.951  20.111  25.372  1.00  0.00    -0.356 N 
ATOM      3  C   UNL A   1      33.802  19.920  24.656  1.00  0.00     0.220 C 
ATOM      4  O   UNL A   1      33.265  18.812  24.714  1.00  0.00    -0.275 OA
ATOM      5  H   UNL A   1      35.265  19.315  25.860  1.00  0.00     0.163 HD
BRANCH   3   6
ATOM      6  C   UNL A   1      33.181  21.041  23.826  1.00  0.00     0.104 C 
BRANCH   6   7
ATOM      7  C   UNL A   1      32.928  22.332  24.633  1.00  0.00     0.009 C 
ATOM      8  N   UNL A   1      30.935  24.415  25.268  1.00  0.00    -0.331 N 
ATOM      9  C   UNL A   1      32.015  24.715  24.333  1.00  0.00     0.262 C 
ATOM     10  C   UNL A   1      31.406  23.502  26.312  1.00  0.00     0.262 C 
ATOM     11  H   UNL A   1      30.190  23.922  24.774  1.00  0.00     0.348 HD
ATOM     12  C   UNL A   1      32.537  23.455  23.690  1.00  0.00     0.066 C 
ATOM     13  C   UNL A   1      31.840  22.156  25.701  1.00  0.00     0.066 C 
BRANCH   8  14
ATOM     14  C   UNL A   1      30.295  25.646  25.775  1.00  0.00     0.299 C 
BRANCH  14  15
ATOM     15  C   UNL A   1      30.089  26.741  24.746  1.00  0.00     0.006 A 
ATOM     16  C   UNL A   1      29.496  28.963  23.103  1.00  0.00     0.007 A 
ATOM     17  C   UNL A   1      28.680  27.828  23.095  1.00  0.00     0.015 A 
ATOM     18  C   UNL A   1      30.641  28.957  23.909  1.00  0.00     0.015 A 
ATOM     19  C   UNL A   1      28.976  26.725  23.901  1.00  0.00     0.011 A 
ATOM     20  C   UNL A   1      30.939  27.857  24.718  1.00  0.00     0.011 A 
BRANCH  16  21
ATOM     21  S   UNL A   1      29.178  30.450  22.161  1.00  0.00    -0.130 SA
ATOM     22  C   UNL A   1      28.279  31.497  23.335  1.00  0.00     0.091 C 
ENDBRANCH  16  21
ENDBRANCH  14  15
ENDBRANCH   8  14
ENDBRANCH   6   7
ENDBRANCH   3   6
ENDBRANCH   1   2
BRANCH   1  23
ATOM     23  C   UNL A   1      37.095  21.186  24.733  1.00  0.00     0.023 C 
BRANCH  23  24
ATOM     24  C   UNL A   1      37.956  19.970  25.012  1.00  0.00     0.023 C 
BRANCH  24  25
ATOM     25  C   UNL A   1      39.250  20.284  25.728  1.00  0.00     0.116 C 
BRANCH  25  26
ATOM     26  N   UNL A   1      40.170  19.154  25.804  1.00  0.00    -0.352 N 
ATOM     27  C   UNL A   1      41.517  19.167  26.091  1.00  0.00     0.251 C 
ATOM     28  H   UNL A   1      39.778  18.268  25.628  1.00  0.00     0.163 HD
ATOM     29  O   UNL A   1      42.187  18.148  26.040  1.00  0.00    -0.269 OA
BRANCH  27  30
ATOM     30  C   UNL A   1      42.146  20.465  26.411  1.00  0.00     0.039 A 
ATOM     31  C   UNL A   1      42.545  21.302  25.367  1.00  0.00     0.014 A 
ATOM     32  C   UNL A   1      42.217  20.892  27.737  1.00  0.00     0.014 A 
ATOM     33  C   UNL A   1      42.930  22.611  25.655  1.00  0.00     0.010 A 
ATOM     34  C   UNL A   1      42.481  22.225  28.007  1.00  0.00     0.010 A 
ATOM     35  C   UNL A   1      42.853  23.095  26.971  1.00  0.00    -0.014 A 
BRANCH  35  36
ATOM     36  C   UNL A   1      43.182  24.500  27.307  1.00  0.00     0.031 A 
ATOM     37  C   UNL A   1      44.614  24.959  27.241  1.00  0.00     0.074 A 
ATOM     38  C   UNL A   1      42.221  25.331  27.754  1.00  0.00     0.049 A 
ATOM     39  N   UNL A   1      45.128  26.113  27.577  1.00  0.00    -0.248 NA
ATOM     40  C   UNL A   1      45.604  23.973  26.777  1.00  0.00     0.031 C 
ATOM     41  C   UNL A   1      40.806  24.990  27.920  1.00  0.00     0.029 A 
ATOM     42  N   UNL A   1      42.294  26.641  28.155  1.00  0.00    -0.354 N 
ATOM     43  C   UNL A   1      46.499  25.975  27.407  1.00  0.00     0.074 A 
ATOM     44  C   UNL A   1      46.743  24.611  26.995  1.00  0.00     0.031 C 
ATOM     45  C   UNL A   1      40.137  26.076  28.340  1.00  0.00     0.029 A 
ATOM     46  C   UNL A   1      41.080  27.176  28.512  1.00  0.00     0.049 A 
ATOM     47  H   UNL A   1      43.136  27.150  28.183  1.00  0.00     0.167 HD
ATOM     48  C   UNL A   1      47.470  26.905  27.553  1.00  0.00     0.031 A 
ATOM     49  C   UNL A   1      40.766  28.418  28.926  1.00  0.00     0.031 A 
ATOM     50  C   UNL A   1      47.220  28.272  27.914  1.00  0.00     0.049 A 
ATOM     51  C   UNL A   1      41.856  29.444  29.052  1.00  0.00     0.074 A 
ATOM     52  C   UNL A   1      48.118  29.321  27.996  1.00  0.00     0.029 A 
ATOM     53  N   UNL A   1      45.974  28.780  28.247  1.00  0.00    -0.354 N 
ATOM     54  N   UNL A   1      43.139  29.321  28.810  1.00  0.00    -0.248 NA
ATOM     55  C   UNL A   1      41.452  30.784  29.500  1.00  0.00     0.031 C 
ATOM     56  C   UNL A   1      47.420  30.457  28.419  1.00  0.00     0.029 A 
ATOM     57  C   UNL A   1      46.081  30.123  28.558  1.00  0.00     0.049 A 
ATOM     58  H   UNL A   1      45.137  28.261  28.262  1.00  0.00     0.167 HD
ATOM     59  C   UNL A   1      43.690  30.573  29.049  1.00  0.00     0.074 A 
ATOM     60  C   UNL A   1      42.600  31.442  29.444  1.00  0.00     0.031 C 
ATOM     61  C   UNL A   1      44.982  30.969  28.947  1.00  0.00     0.031 A 
BRANCH  48  62
ATOM     62  C   UNL A   1      48.886  26.461  27.322  1.00  0.00    -0.014 A 
ATOM     63  C   UNL A   1      49.700  26.032  28.384  1.00  0.00     0.009 A 
ATOM     64  C   UNL A   1      49.416  26.476  26.023  1.00  0.00     0.009 A 
ATOM     65  C   UNL A   1      51.031  25.679  28.156  1.00  0.00     0.001 A 
ATOM     66  C   UNL A   1      50.738  26.090  25.794  1.00  0.00     0.001 A 
ATOM     67  C   UNL A   1      51.548  25.705  26.861  1.00  0.00     0.000 A 
ENDBRANCH  48  62
BRANCH  49  68
ATOM     68  C   UNL A   1      39.351  28.774  29.202  1.00  0.00    -0.014 A 
ATOM     69  C   UNL A   1      38.539  29.274  28.171  1.00  0.00     0.009 A 
ATOM     70  C   UNL A   1      38.801  28.616  30.482  1.00  0.00     0.009 A 
ATOM     71  C   UNL A   1      37.211  29.627  28.423  1.00  0.00     0.001 A 
ATOM     72  C   UNL A   1      37.466  28.948  30.725  1.00  0.00     0.001 A 
ATOM     73  C   UNL A   1      36.675  29.460  29.697  1.00  0.00     0.000 A 
ENDBRANCH  49  68
BRANCH  61  74
ATOM     74  C   UNL A   1      45.282  32.410  29.237  1.00  0.00    -0.014 A 
ATOM     75  C   UNL A   1      45.653  32.831  30.522  1.00  0.00     0.009 A 
ATOM     76  C   UNL A   1      45.235  33.350  28.195  1.00  0.00     0.009 A 
ATOM     77  C   UNL A   1      45.947  34.174  30.764  1.00  0.00     0.001 A 
ATOM     78  C   UNL A   1      45.553  34.687  28.436  1.00  0.00     0.001 A 
ATOM     79  C   UNL A   1      45.901  35.098  29.721  1.00  0.00     0.000 A 
ENDBRANCH  61  74
ENDBRANCH  35  36
ENDBRANCH  27  30
ENDBRANCH  25  26
ENDBRANCH  24  25
ENDBRANCH  23  24
ENDBRANCH   1  23
TORSDOF 15
ENDMDL
MODEL 3
REMARK VINA RESULT:     -10.4      4.355      7.515
REMARK SMILES CSc1ccc(C[NH+]2CCC(CC(=O)NCCCCNC(=O)c3ccc(-c4c5nc(c(-c6ccccc6)c6ccc([nH]6)c(-c6ccccc6)c6nc(c(-c7ccccc7)c7ccc4[nH]7)C=C6)C=C5)cc3)CC2)cc1
REMARK SMILES IDX 16 1 15 2 13 3 14 4 12 6 11 7 8 8 9 9 72 10 10 12 71 13 7 14
REMARK SMILES IDX 6 15 3 16 4 17 74 18 5 19 73 20 2 21 1 22 17 23 18 24 19 25
REMARK SMILES IDX 20 26 21 27 22 29 23 30 24 31 70 32 25 33 69 34 26 35 27 36
REMARK SMILES IDX 28 37 63 38 29 39 68 40 62 41 64 42 30 43 67 44 61 45 60 46
REMARK SMILES IDX 31 48 53 49 38 50 52 51 39 52 42 53 51 54 65 55 40 56 41 57
REMARK SMILES IDX 50 59 66 60 43 61 32 62 33 63 37 64 34 65 36 66 35 67 54 68
REMARK SMILES IDX 55 69 59 70 56 71 58 72 57 73 44 74 45 75 49 76 46 77 48 78
REMARK SMILES IDX 47 79
REMARK H PARENT 15 5 8 11 20 28 64 47 42 58
REMARK Flexibility Score: inf
ROOT
ATOM      1  C   UNL A   1      45.505  22.896  25.560  1.00  0.00     0.116 C 
ENDROOT
BRANCH   1   2
ATOM      2  N   UNL A   1      46.740  23.649  25.710  1.00  0.00    -0.356 N 
ATOM      3  C   UNL A   1      47.037  24.952  25.422  1.00  0.00     0.220 C 
ATOM      4  O   UNL A   1      48.192  25.336  25.620  1.00  0.00    -0.275 OA
ATOM      5  H   UNL A   1      47.491  23.132  26.083  1.00  0.00     0.163 HD
BRANCH   3   6
ATOM      6  C   UNL A   1      45.990  25.904  24.852  1.00  0.00     0.104 C 
BRANCH   6   7
ATOM      7  C   UNL A   1      45.328  26.797  25.923  1.00  0.00     0.009 C 
ATOM      8  N   UNL A   1      44.402  29.534  26.530  1.00  0.00    -0.331 N 
ATOM      9  C   UNL A   1      45.656  29.055  27.106  1.00  0.00     0.262 C 
ATOM     10  C   UNL A   1      43.439  28.435  26.426  1.00  0.00     0.262 C 
ATOM     11  H   UNL A   1      44.571  29.856  25.577  1.00  0.00     0.348 HD
ATOM     12  C   UNL A   1      46.249  27.954  26.264  1.00  0.00     0.066 C 
ATOM     13  C   UNL A   1      43.965  27.341  25.477  1.00  0.00     0.066 C 
BRANCH   8  14
ATOM     14  C   UNL A   1      43.896  30.725  27.241  1.00  0.00     0.299 C 
BRANCH  14  15
ATOM     15  C   UNL A   1      44.605  32.025  26.915  1.00  0.00     0.006 A 
ATOM     16  C   UNL A   1      45.677  34.616  26.554  1.00  0.00     0.007 A 
ATOM     17  C   UNL A   1      44.669  34.135  25.714  1.00  0.00     0.015 A 
ATOM     18  C   UNL A   1      46.178  33.769  27.550  1.00  0.00     0.015 A 
ATOM     19  C   UNL A   1      44.143  32.851  25.886  1.00  0.00     0.011 A 
ATOM     20  C   UNL A   1      45.653  32.486  27.727  1.00  0.00     0.011 A 
BRANCH  16  21
ATOM     21  S   UNL A   1      46.378  36.260  26.463  1.00  0.00    -0.130 SA
ATOM     22  C   UNL A   1      48.137  35.942  26.169  1.00  0.00     0.091 C 
ENDBRANCH  16  21
ENDBRANCH  14  15
ENDBRANCH   8  14
ENDBRANCH   6   7
ENDBRANCH   3   6
ENDBRANCH   1   2
BRANCH   1  23
ATOM     23  C   UNL A   1      45.332  22.342  24.139  1.00  0.00     0.023 C 
BRANCH  23  24
ATOM     24  C   UNL A   1      44.953  20.877  24.036  1.00  0.00     0.023 C 
BRANCH  24  25
ATOM     25  C   UNL A   1      44.578  20.245  25.356  1.00  0.00     0.116 C 
BRANCH  25  26
ATOM     26  N   UNL A   1      43.314  19.517  25.323  1.00  0.00    -0.352 N 
ATOM     27  C   UNL A   1      42.098  19.892  25.849  1.00  0.00     0.251 C 
ATOM     28  H   UNL A   1      43.334  18.644  24.867  1.00  0.00     0.163 HD
ATOM     29  O   UNL A   1      41.135  19.143  25.819  1.00  0.00    -0.269 OA
BRANCH  27  30
ATOM     30  C   UNL A   1      42.003  21.214  26.500  1.00  0.00     0.039 A 
ATOM     31  C   UNL A   1      42.146  21.300  27.886  1.00  0.00     0.014 A 
ATOM     32  C   UNL A   1      41.899  22.366  25.719  1.00  0.00     0.014 A 
ATOM     33  C   UNL A   1      42.279  22.555  28.479  1.00  0.00     0.010 A 
ATOM     34  C   UNL A   1      42.154  23.600  26.295  1.00  0.00     0.010 A 
ATOM     35  C   UNL A   1      42.333  23.710  27.682  1.00  0.00    -0.014 A 
BRANCH  35  36
ATOM     36  C   UNL A   1      42.548  25.055  28.266  1.00  0.00     0.031 A 
ATOM     37  C   UNL A   1      43.913  25.427  28.778  1.00  0.00     0.074 A 
ATOM     38  C   UNL A   1      41.510  25.899  28.417  1.00  0.00     0.049 A 
ATOM     39  N   UNL A   1      44.293  26.511  29.403  1.00  0.00    -0.248 NA
ATOM     40  C   UNL A   1      44.980  24.427  28.605  1.00  0.00     0.031 C 
ATOM     41  C   UNL A   1      40.127  25.634  28.014  1.00  0.00     0.029 A 
ATOM     42  N   UNL A   1      41.461  27.160  28.956  1.00  0.00    -0.354 N 
ATOM     43  C   UNL A   1      45.626  26.303  29.732  1.00  0.00     0.074 A 
ATOM     44  C   UNL A   1      45.972  24.971  29.293  1.00  0.00     0.031 C 
ATOM     45  C   UNL A   1      39.377  26.716  28.276  1.00  0.00     0.029 A 
ATOM     46  C   UNL A   1      40.215  27.735  28.900  1.00  0.00     0.049 A 
ATOM     47  H   UNL A   1      42.245  27.610  29.346  1.00  0.00     0.167 HD
ATOM     48  C   UNL A   1      46.496  27.153  30.324  1.00  0.00     0.031 A 
ATOM     49  C   UNL A   1      39.800  28.950  29.302  1.00  0.00     0.031 A 
ATOM     50  C   UNL A   1      46.163  28.494  30.715  1.00  0.00     0.049 A 
ATOM     51  C   UNL A   1      40.789  29.890  29.930  1.00  0.00     0.074 A 
ATOM     52  C   UNL A   1      46.991  29.473  31.233  1.00  0.00     0.029 A 
ATOM     53  N   UNL A   1      44.895  29.046  30.621  1.00  0.00    -0.354 N 
ATOM     54  N   UNL A   1      42.067  29.709  30.162  1.00  0.00    -0.248 NA
ATOM     55  C   UNL A   1      40.280  31.206  30.341  1.00  0.00     0.031 C 
ATOM     56  C   UNL A   1      46.214  30.607  31.492  1.00  0.00     0.029 A 
ATOM     57  C   UNL A   1      44.912  30.346  31.094  1.00  0.00     0.049 A 
ATOM     58  H   UNL A   1      44.101  28.582  30.272  1.00  0.00     0.167 HD
ATOM     59  C   UNL A   1      42.521  30.897  30.721  1.00  0.00     0.074 A 
ATOM     60  C   UNL A   1      41.384  31.793  30.782  1.00  0.00     0.031 C 
ATOM     61  C   UNL A   1      43.768  31.219  31.143  1.00  0.00     0.031 A 
BRANCH  48  62
ATOM     62  C   UNL A   1      47.886  26.644  30.581  1.00  0.00    -0.014 A 
ATOM     63  C   UNL A   1      48.231  26.048  31.805  1.00  0.00     0.009 A 
ATOM     64  C   UNL A   1      48.866  26.768  29.586  1.00  0.00     0.009 A 
ATOM     65  C   UNL A   1      49.543  25.634  32.045  1.00  0.00     0.001 A 
ATOM     66  C   UNL A   1      50.169  26.323  29.816  1.00  0.00     0.001 A 
ATOM     67  C   UNL A   1      50.509  25.769  31.049  1.00  0.00     0.000 A 
ENDBRANCH  48  62
BRANCH  49  68
ATOM     68  C   UNL A   1      38.392  29.368  29.078  1.00  0.00    -0.014 A 
ATOM     69  C   UNL A   1      37.472  29.331  30.139  1.00  0.00     0.009 A 
ATOM     70  C   UNL A   1      37.959  29.808  27.819  1.00  0.00     0.009 A 
ATOM     71  C   UNL A   1      36.142  29.707  29.936  1.00  0.00     0.001 A 
ATOM     72  C   UNL A   1      36.634  30.206  27.626  1.00  0.00     0.001 A 
ATOM     73  C   UNL A   1      35.725  30.147  28.682  1.00  0.00     0.000 A 
ENDBRANCH  49  68
BRANCH  61  74
ATOM     74  C   UNL A   1      43.973  32.606  31.677  1.00  0.00    -0.014 A 
ATOM     75  C   UNL A   1      44.289  33.674  30.825  1.00  0.00     0.009 A 
ATOM     76  C   UNL A   1      43.800  32.853  33.049  1.00  0.00     0.009 A 
ATOM     77  C   UNL A   1      44.456  34.960  31.341  1.00  0.00     0.001 A 
ATOM     78  C   UNL A   1      43.942  34.144  33.557  1.00  0.00     0.001 A 
ATOM     79  C   UNL A   1      44.277  35.194  32.705  1.00  0.00     0.000 A 
ENDBRANCH  61  74
ENDBRANCH  35  36
ENDBRANCH  27  30
ENDBRANCH  25  26
ENDBRANCH  24  25
ENDBRANCH  23  24
ENDBRANCH   1  23
TORSDOF 15
ENDMDL
