MODEL 1
REMARK VINA RESULT:     -12.1      0.000      0.000
REMARK SMILES COc1ccc(NC(=O)c2nn(C)cc2C(=O)NCCCCNC(=O)c2ccc(-c3c4nc(c(-c5ccccc5)c5ccc([nH]5)c(-c5ccccc5)c5nc(c(-c6ccccc6)c6ccc3[nH]6)C=C5)C=C4)cc2)c(C)c1
REMARK SMILES IDX 20 1 19 2 18 3 16 4 17 5 15 7 10 8 11 9 12 10 14 11 13 12
REMARK SMILES IDX 8 13 7 14 9 16 6 17 3 18 4 19 76 20 5 21 74 22 75 23 2 24
REMARK SMILES IDX 1 25 21 26 22 27 23 28 24 29 25 31 26 32 27 33 73 34 28 35
REMARK SMILES IDX 72 36 29 37 30 38 31 39 66 40 32 41 71 42 65 43 67 44 33 45
REMARK SMILES IDX 70 46 64 47 63 48 34 50 56 51 41 52 55 53 42 54 45 55 54 56
REMARK SMILES IDX 68 57 43 58 44 59 53 61 69 62 46 63 35 64 36 65 40 66 37 67
REMARK SMILES IDX 39 68 38 69 57 70 58 71 62 72 59 73 61 74 60 75 47 76 48 77
REMARK SMILES IDX 52 78 49 79 51 80 50 81
REMARK H PARENT 18 6 7 15 23 30 67 49 45 60
REMARK Flexibility Score: inf
ROOT
ATOM      1  C   UNL A   1      37.674  23.569  26.082  1.00  0.00     0.023 C 
ENDROOT
BRANCH   1   2
ATOM      2  C   UNL A   1      36.167  23.536  25.814  1.00  0.00     0.116 C 
BRANCH   2   3
ATOM      3  N   UNL A   1      35.366  23.074  26.934  1.00  0.00    -0.352 N 
ATOM      4  C   UNL A   1      34.119  22.490  27.046  1.00  0.00     0.255 C 
ATOM      5  O   UNL A   1      33.767  22.162  28.168  1.00  0.00    -0.269 OA
ATOM      6  H   UNL A   1      35.808  23.206  27.804  1.00  0.00     0.163 HD
BRANCH   4   7
ATOM      7  C   UNL A   1      33.237  22.320  25.897  1.00  0.00     0.090 A 
ATOM      8  C   UNL A   1      31.892  22.832  25.782  1.00  0.00     0.163 A 
ATOM      9  N   UNL A   1      31.368  22.559  24.569  1.00  0.00    -0.167 NA
ATOM     10  N   UNL A   1      32.325  21.877  23.941  1.00  0.00    -0.274 N 
ATOM     11  C   UNL A   1      33.416  21.629  24.715  1.00  0.00     0.123 A 
ATOM     12  C   UNL A   1      32.161  21.540  22.547  1.00  0.00     0.173 C 
BRANCH   8  13
ATOM     13  C   UNL A   1      31.094  23.587  26.759  1.00  0.00     0.277 C 
ATOM     14  N   UNL A   1      31.138  24.967  26.814  1.00  0.00    -0.320 N 
ATOM     15  H   UNL A   1      30.615  25.350  27.555  1.00  0.00     0.170 HD
ATOM     16  O   UNL A   1      30.365  23.012  27.573  1.00  0.00    -0.267 OA
BRANCH  14  17
ATOM     17  C   UNL A   1      31.783  25.931  26.020  1.00  0.00     0.044 A 
ATOM     18  C   UNL A   1      32.964  28.106  24.658  1.00  0.00     0.119 A 
ATOM     19  C   UNL A   1      33.715  27.344  25.541  1.00  0.00     0.048 A 
ATOM     20  C   UNL A   1      31.658  27.708  24.374  1.00  0.00     0.052 A 
ATOM     21  C   UNL A   1      33.130  26.262  26.202  1.00  0.00     0.030 A 
ATOM     22  C   UNL A   1      31.060  26.604  25.017  1.00  0.00    -0.024 A 
ATOM     23  C   UNL A   1      29.688  26.211  24.537  1.00  0.00     0.047 C 
BRANCH  18  24
ATOM     24  O   UNL A   1      33.384  29.232  24.009  1.00  0.00    -0.497 OA
ATOM     25  C   UNL A   1      33.626  29.111  22.614  1.00  0.00     0.278 C 
ENDBRANCH  18  24
ENDBRANCH  14  17
ENDBRANCH   8  13
ENDBRANCH   4   7
ENDBRANCH   2   3
ENDBRANCH   1   2
BRANCH   1  26
ATOM     26  C   UNL A   1      38.397  22.231  25.934  1.00  0.00     0.023 C 
BRANCH  26  27
ATOM     27  C   UNL A   1      39.833  22.216  26.432  1.00  0.00     0.116 C 
BRANCH  27  28
ATOM     28  N   UNL A   1      40.648  21.100  25.956  1.00  0.00    -0.352 N 
ATOM     29  C   UNL A   1      42.017  20.896  26.033  1.00  0.00     0.251 C 
ATOM     30  H   UNL A   1      40.144  20.380  25.511  1.00  0.00     0.163 HD
ATOM     31  O   UNL A   1      42.509  19.906  25.499  1.00  0.00    -0.269 OA
BRANCH  29  32
ATOM     32  C   UNL A   1      42.861  21.751  26.912  1.00  0.00     0.039 A 
ATOM     33  C   UNL A   1      42.555  21.744  28.281  1.00  0.00     0.014 A 
ATOM     34  C   UNL A   1      43.606  22.789  26.377  1.00  0.00     0.014 A 
ATOM     35  C   UNL A   1      42.658  22.927  28.998  1.00  0.00     0.010 A 
ATOM     36  C   UNL A   1      43.548  24.001  27.015  1.00  0.00     0.010 A 
ATOM     37  C   UNL A   1      43.004  24.075  28.299  1.00  0.00    -0.014 A 
BRANCH  37  38
ATOM     38  C   UNL A   1      42.848  25.424  28.800  1.00  0.00     0.031 A 
ATOM     39  C   UNL A   1      41.681  26.190  28.341  1.00  0.00     0.074 A 
ATOM     40  C   UNL A   1      43.675  25.868  29.772  1.00  0.00     0.049 A 
ATOM     41  N   UNL A   1      41.580  27.466  28.427  1.00  0.00    -0.248 NA
ATOM     42  C   UNL A   1      40.545  25.567  27.663  1.00  0.00     0.031 C 
ATOM     43  C   UNL A   1      43.503  27.028  30.639  1.00  0.00     0.029 A 
ATOM     44  N   UNL A   1      44.973  25.436  30.033  1.00  0.00    -0.354 N 
ATOM     45  C   UNL A   1      40.278  27.788  28.130  1.00  0.00     0.074 A 
ATOM     46  C   UNL A   1      39.719  26.606  27.529  1.00  0.00     0.031 C 
ATOM     47  C   UNL A   1      44.699  27.375  31.146  1.00  0.00     0.029 A 
ATOM     48  C   UNL A   1      45.702  26.546  30.497  1.00  0.00     0.049 A 
ATOM     49  H   UNL A   1      45.318  24.521  29.916  1.00  0.00     0.167 HD
ATOM     50  C   UNL A   1      39.788  28.972  28.585  1.00  0.00     0.031 A 
ATOM     51  C   UNL A   1      46.740  27.040  29.755  1.00  0.00     0.031 A 
ATOM     52  C   UNL A   1      40.864  29.795  29.136  1.00  0.00     0.049 A 
ATOM     53  C   UNL A   1      46.458  28.422  29.205  1.00  0.00     0.074 A 
ATOM     54  C   UNL A   1      41.274  30.056  30.432  1.00  0.00     0.029 A 
ATOM     55  N   UNL A   1      41.911  30.178  28.302  1.00  0.00    -0.354 N 
ATOM     56  N   UNL A   1      45.257  28.912  29.046  1.00  0.00    -0.248 NA
ATOM     57  C   UNL A   1      47.499  29.369  28.814  1.00  0.00     0.031 C 
ATOM     58  C   UNL A   1      42.626  30.495  30.375  1.00  0.00     0.029 A 
ATOM     59  C   UNL A   1      43.013  30.550  29.046  1.00  0.00     0.049 A 
ATOM     60  H   UNL A   1      41.870  30.184  27.318  1.00  0.00     0.167 HD
ATOM     61  C   UNL A   1      45.342  30.201  28.592  1.00  0.00     0.074 A 
ATOM     62  C   UNL A   1      46.768  30.437  28.447  1.00  0.00     0.031 C 
ATOM     63  C   UNL A   1      44.239  30.980  28.384  1.00  0.00     0.031 A 
BRANCH  50  64
ATOM     64  C   UNL A   1      38.322  29.280  28.776  1.00  0.00    -0.014 A 
ATOM     65  C   UNL A   1      37.570  29.720  27.671  1.00  0.00     0.009 A 
ATOM     66  C   UNL A   1      37.643  29.267  30.009  1.00  0.00     0.009 A 
ATOM     67  C   UNL A   1      36.242  30.152  27.797  1.00  0.00     0.001 A 
ATOM     68  C   UNL A   1      36.312  29.685  30.142  1.00  0.00     0.001 A 
ATOM     69  C   UNL A   1      35.614  30.138  29.036  1.00  0.00     0.000 A 
ENDBRANCH  50  64
BRANCH  51  70
ATOM     70  C   UNL A   1      47.517  25.963  29.070  1.00  0.00    -0.014 A 
ATOM     71  C   UNL A   1      47.245  25.735  27.705  1.00  0.00     0.009 A 
ATOM     72  C   UNL A   1      48.754  25.543  29.582  1.00  0.00     0.009 A 
ATOM     73  C   UNL A   1      48.239  25.256  26.846  1.00  0.00     0.001 A 
ATOM     74  C   UNL A   1      49.744  25.056  28.717  1.00  0.00     0.001 A 
ATOM     75  C   UNL A   1      49.504  24.960  27.346  1.00  0.00     0.000 A 
ENDBRANCH  51  70
BRANCH  63  76
ATOM     76  C   UNL A   1      44.207  32.275  27.606  1.00  0.00    -0.014 A 
ATOM     77  C   UNL A   1      44.352  32.364  26.216  1.00  0.00     0.009 A 
ATOM     78  C   UNL A   1      43.862  33.471  28.279  1.00  0.00     0.009 A 
ATOM     79  C   UNL A   1      44.211  33.585  25.543  1.00  0.00     0.001 A 
ATOM     80  C   UNL A   1      43.664  34.678  27.608  1.00  0.00     0.001 A 
ATOM     81  C   UNL A   1      43.853  34.738  26.237  1.00  0.00     0.000 A 
ENDBRANCH  63  76
ENDBRANCH  37  38
ENDBRANCH  29  32
ENDBRANCH  27  28
ENDBRANCH  26  27
ENDBRANCH   1  26
TORSDOF 14
ENDMDL
MODEL 2
REMARK VINA RESULT:     -11.8      3.142      8.207
REMARK SMILES COc1ccc(NC(=O)c2nn(C)cc2C(=O)NCCCCNC(=O)c2ccc(-c3c4nc(c(-c5ccccc5)c5ccc([nH]5)c(-c5ccccc5)c5nc(c(-c6ccccc6)c6ccc3[nH]6)C=C5)C=C4)cc2)c(C)c1
REMARK SMILES IDX 20 1 19 2 18 3 16 4 17 5 15 7 10 8 11 9 12 10 14 11 13 12
REMARK SMILES IDX 8 13 7 14 9 16 6 17 3 18 4 19 76 20 5 21 74 22 75 23 2 24
REMARK SMILES IDX 1 25 21 26 22 27 23 28 24 29 25 31 26 32 27 33 73 34 28 35
REMARK SMILES IDX 72 36 29 37 30 38 31 39 66 40 32 41 71 42 65 43 67 44 33 45
REMARK SMILES IDX 70 46 64 47 63 48 34 50 56 51 41 52 55 53 42 54 45 55 54 56
REMARK SMILES IDX 68 57 43 58 44 59 53 61 69 62 46 63 35 64 36 65 40 66 37 67
REMARK SMILES IDX 39 68 38 69 57 70 58 71 62 72 59 73 61 74 60 75 47 76 48 77
REMARK SMILES IDX 52 78 49 79 51 80 50 81
REMARK H PARENT 18 6 7 15 23 30 67 49 45 60
REMARK Flexibility Score: inf
ROOT
ATOM      1  C   UNL A   1      33.939  29.005  27.347  1.00  0.00     0.023 C 
ENDROOT
BRANCH   1   2
ATOM      2  C   UNL A   1      33.347  28.335  26.105  1.00  0.00     0.116 C 
BRANCH   2   3
ATOM      3  N   UNL A   1      34.100  28.556  24.883  1.00  0.00    -0.352 N 
ATOM      4  C   UNL A   1      33.759  28.641  23.547  1.00  0.00     0.255 C 
ATOM      5  O   UNL A   1      34.660  28.906  22.767  1.00  0.00    -0.269 OA
ATOM      6  H   UNL A   1      35.065  28.670  25.041  1.00  0.00     0.163 HD
BRANCH   4   7
ATOM      7  C   UNL A   1      32.404  28.375  23.075  1.00  0.00     0.090 A 
ATOM      8  C   UNL A   1      31.993  27.235  22.291  1.00  0.00     0.163 A 
ATOM      9  N   UNL A   1      30.662  27.250  22.071  1.00  0.00    -0.167 NA
ATOM     10  N   UNL A   1      30.240  28.365  22.665  1.00  0.00    -0.274 N 
ATOM     11  C   UNL A   1      31.244  29.114  23.195  1.00  0.00     0.123 A 
ATOM     12  C   UNL A   1      28.824  28.633  22.754  1.00  0.00     0.173 C 
BRANCH   8  13
ATOM     13  C   UNL A   1      32.799  26.125  21.764  1.00  0.00     0.277 C 
ATOM     14  N   UNL A   1      33.182  25.067  22.565  1.00  0.00    -0.320 N 
ATOM     15  H   UNL A   1      33.777  24.425  22.115  1.00  0.00     0.170 HD
ATOM     16  O   UNL A   1      33.171  26.105  20.586  1.00  0.00    -0.267 OA
BRANCH  14  17
ATOM     17  C   UNL A   1      32.890  24.728  23.898  1.00  0.00     0.044 A 
ATOM     18  C   UNL A   1      32.473  23.747  26.514  1.00  0.00     0.119 A 
ATOM     19  C   UNL A   1      33.533  24.601  26.249  1.00  0.00     0.048 A 
ATOM     20  C   UNL A   1      31.560  23.477  25.494  1.00  0.00     0.052 A 
ATOM     21  C   UNL A   1      33.728  25.094  24.958  1.00  0.00     0.030 A 
ATOM     22  C   UNL A   1      31.730  23.986  24.190  1.00  0.00    -0.024 A 
ATOM     23  C   UNL A   1      30.615  23.717  23.214  1.00  0.00     0.047 C 
BRANCH  18  24
ATOM     24  O   UNL A   1      32.213  23.131  27.705  1.00  0.00    -0.497 OA
ATOM     25  C   UNL A   1      33.081  22.069  28.076  1.00  0.00     0.278 C 
ENDBRANCH  18  24
ENDBRANCH  14  17
ENDBRANCH   8  13
ENDBRANCH   4   7
ENDBRANCH   2   3
ENDBRANCH   1   2
BRANCH   1  26
ATOM     26  C   UNL A   1      33.440  30.421  27.631  1.00  0.00     0.023 C 
BRANCH  26  27
ATOM     27  C   UNL A   1      34.451  31.526  27.367  1.00  0.00     0.116 C 
BRANCH  27  28
ATOM     28  N   UNL A   1      35.100  32.075  28.555  1.00  0.00    -0.352 N 
ATOM     29  C   UNL A   1      36.005  31.493  29.430  1.00  0.00     0.251 C 
ATOM     30  H   UNL A   1      34.856  33.005  28.768  1.00  0.00     0.163 HD
ATOM     31  O   UNL A   1      36.377  32.121  30.417  1.00  0.00    -0.269 OA
BRANCH  29  32
ATOM     32  C   UNL A   1      36.672  30.208  29.083  1.00  0.00     0.039 A 
ATOM     33  C   UNL A   1      36.788  29.260  30.110  1.00  0.00     0.014 A 
ATOM     34  C   UNL A   1      37.486  30.117  27.966  1.00  0.00     0.014 A 
ATOM     35  C   UNL A   1      37.940  28.491  30.188  1.00  0.00     0.010 A 
ATOM     36  C   UNL A   1      38.700  29.501  28.119  1.00  0.00     0.010 A 
ATOM     37  C   UNL A   1      38.948  28.749  29.269  1.00  0.00    -0.014 A 
BRANCH  37  38
ATOM     38  C   UNL A   1      40.314  28.285  29.392  1.00  0.00     0.031 A 
ATOM     39  C   UNL A   1      40.644  26.979  28.806  1.00  0.00     0.074 A 
ATOM     40  C   UNL A   1      41.253  29.119  29.890  1.00  0.00     0.049 A 
ATOM     41  N   UNL A   1      41.690  26.299  29.108  1.00  0.00    -0.248 NA
ATOM     42  C   UNL A   1      39.758  26.287  27.870  1.00  0.00     0.031 C 
ATOM     43  C   UNL A   1      42.704  28.996  29.800  1.00  0.00     0.029 A 
ATOM     44  N   UNL A   1      41.054  30.176  30.775  1.00  0.00    -0.354 N 
ATOM     45  C   UNL A   1      41.781  25.274  28.197  1.00  0.00     0.074 A 
ATOM     46  C   UNL A   1      40.497  25.225  27.547  1.00  0.00     0.031 C 
ATOM     47  C   UNL A   1      43.265  29.750  30.761  1.00  0.00     0.029 A 
ATOM     48  C   UNL A   1      42.191  30.257  31.599  1.00  0.00     0.049 A 
ATOM     49  H   UNL A   1      40.263  30.761  30.815  1.00  0.00     0.167 HD
ATOM     50  C   UNL A   1      42.996  24.701  27.994  1.00  0.00     0.031 A 
ATOM     51  C   UNL A   1      42.081  30.006  32.940  1.00  0.00     0.031 A 
ATOM     52  C   UNL A   1      43.958  25.169  28.992  1.00  0.00     0.049 A 
ATOM     53  C   UNL A   1      42.810  28.747  33.358  1.00  0.00     0.074 A 
ATOM     54  C   UNL A   1      44.970  26.112  28.948  1.00  0.00     0.029 A 
ATOM     55  N   UNL A   1      43.704  24.919  30.338  1.00  0.00    -0.354 N 
ATOM     56  N   UNL A   1      43.117  27.776  32.539  1.00  0.00    -0.248 NA
ATOM     57  C   UNL A   1      43.274  28.491  34.719  1.00  0.00     0.031 C 
ATOM     58  C   UNL A   1      45.243  26.512  30.286  1.00  0.00     0.029 A 
ATOM     59  C   UNL A   1      44.437  25.773  31.137  1.00  0.00     0.049 A 
ATOM     60  H   UNL A   1      43.089  24.227  30.673  1.00  0.00     0.167 HD
ATOM     61  C   UNL A   1      43.827  26.815  33.209  1.00  0.00     0.074 A 
ATOM     62  C   UNL A   1      43.887  27.302  34.576  1.00  0.00     0.031 C 
ATOM     63  C   UNL A   1      44.325  25.704  32.590  1.00  0.00     0.031 A 
BRANCH  50  64
ATOM     64  C   UNL A   1      43.389  23.933  26.754  1.00  0.00    -0.014 A 
ATOM     65  C   UNL A   1      43.264  22.532  26.755  1.00  0.00     0.009 A 
ATOM     66  C   UNL A   1      43.980  24.492  25.606  1.00  0.00     0.009 A 
ATOM     67  C   UNL A   1      43.731  21.741  25.695  1.00  0.00     0.001 A 
ATOM     68  C   UNL A   1      44.439  23.710  24.537  1.00  0.00     0.001 A 
ATOM     69  C   UNL A   1      44.323  22.331  24.586  1.00  0.00     0.000 A 
ENDBRANCH  50  64
BRANCH  51  70
ATOM     70  C   UNL A   1      40.797  30.509  33.513  1.00  0.00    -0.014 A 
ATOM     71  C   UNL A   1      40.556  31.897  33.446  1.00  0.00     0.009 A 
ATOM     72  C   UNL A   1      39.698  29.648  33.660  1.00  0.00     0.009 A 
ATOM     73  C   UNL A   1      39.251  32.395  33.359  1.00  0.00     0.001 A 
ATOM     74  C   UNL A   1      38.393  30.155  33.581  1.00  0.00     0.001 A 
ATOM     75  C   UNL A   1      38.171  31.517  33.381  1.00  0.00     0.000 A 
ENDBRANCH  51  70
BRANCH  63  76
ATOM     76  C   UNL A   1      44.838  24.462  33.281  1.00  0.00    -0.014 A 
ATOM     77  C   UNL A   1      46.148  24.304  33.750  1.00  0.00     0.009 A 
ATOM     78  C   UNL A   1      43.922  23.439  33.619  1.00  0.00     0.009 A 
ATOM     79  C   UNL A   1      46.533  23.167  34.472  1.00  0.00     0.001 A 
ATOM     80  C   UNL A   1      44.285  22.332  34.387  1.00  0.00     0.001 A 
ATOM     81  C   UNL A   1      45.599  22.189  34.803  1.00  0.00     0.000 A 
ENDBRANCH  63  76
ENDBRANCH  37  38
ENDBRANCH  29  32
ENDBRANCH  27  28
ENDBRANCH  26  27
ENDBRANCH   1  26
TORSDOF 14
ENDMDL
MODEL 3
REMARK VINA RESULT:     -11.7      3.920      9.003
REMARK SMILES COc1ccc(NC(=O)c2nn(C)cc2C(=O)NCCCCNC(=O)c2ccc(-c3c4nc(c(-c5ccccc5)c5ccc([nH]5)c(-c5ccccc5)c5nc(c(-c6ccccc6)c6ccc3[nH]6)C=C5)C=C4)cc2)c(C)c1
REMARK SMILES IDX 20 1 19 2 18 3 16 4 17 5 15 7 10 8 11 9 12 10 14 11 13 12
REMARK SMILES IDX 8 13 7 14 9 16 6 17 3 18 4 19 76 20 5 21 74 22 75 23 2 24
REMARK SMILES IDX 1 25 21 26 22 27 23 28 24 29 25 31 26 32 27 33 73 34 28 35
REMARK SMILES IDX 72 36 29 37 30 38 31 39 66 40 32 41 71 42 65 43 67 44 33 45
REMARK SMILES IDX 70 46 64 47 63 48 34 50 56 51 41 52 55 53 42 54 45 55 54 56
REMARK SMILES IDX 68 57 43 58 44 59 53 61 69 62 46 63 35 64 36 65 40 66 37 67
REMARK SMILES IDX 39 68 38 69 57 70 58 71 62 72 59 73 61 74 60 75 47 76 48 77
REMARK SMILES IDX 52 78 49 79 51 80 50 81
REMARK H PARENT 18 6 7 15 23 30 67 49 45 60
REMARK Flexibility Score: inf
ROOT
ATOM      1  C   UNL A   1      33.351  30.217  27.397  1.00  0.00     0.023 C 
ENDROOT
BRANCH   1   2
ATOM      2  C   UNL A   1      32.635  29.845  26.096  1.00  0.00     0.116 C 
BRANCH   2   3
ATOM      3  N   UNL A   1      33.519  29.601  24.970  1.00  0.00    -0.352 N 
ATOM      4  C   UNL A   1      33.340  29.072  23.707  1.00  0.00     0.255 C 
ATOM      5  O   UNL A   1      34.314  29.071  22.970  1.00  0.00    -0.269 OA
ATOM      6  H   UNL A   1      34.449  29.871  25.145  1.00  0.00     0.163 HD
BRANCH   4   7
ATOM      7  C   UNL A   1      32.071  28.492  23.282  1.00  0.00     0.090 A 
ATOM      8  C   UNL A   1      31.905  27.225  22.609  1.00  0.00     0.163 A 
ATOM      9  N   UNL A   1      30.600  26.946  22.411  1.00  0.00    -0.167 NA
ATOM     10  N   UNL A   1      29.955  27.999  22.911  1.00  0.00    -0.274 N 
ATOM     11  C   UNL A   1      30.782  28.984  23.356  1.00  0.00     0.123 A 
ATOM     12  C   UNL A   1      28.515  27.977  22.999  1.00  0.00     0.173 C 
BRANCH   8  13
ATOM     13  C   UNL A   1      32.924  26.261  22.170  1.00  0.00     0.277 C 
ATOM     14  N   UNL A   1      33.191  25.114  22.891  1.00  0.00    -0.320 N 
ATOM     15  H   UNL A   1      33.941  24.587  22.533  1.00  0.00     0.170 HD
ATOM     16  O   UNL A   1      33.586  26.450  21.144  1.00  0.00    -0.267 OA
BRANCH  14  17
ATOM     17  C   UNL A   1      32.601  24.551  24.037  1.00  0.00     0.044 A 
ATOM     18  C   UNL A   1      31.173  23.673  26.310  1.00  0.00     0.119 A 
ATOM     19  C   UNL A   1      30.953  23.080  25.075  1.00  0.00     0.048 A 
ATOM     20  C   UNL A   1      32.186  24.624  26.425  1.00  0.00     0.052 A 
ATOM     21  C   UNL A   1      31.671  23.508  23.957  1.00  0.00     0.030 A 
ATOM     22  C   UNL A   1      32.935  25.052  25.309  1.00  0.00    -0.024 A 
ATOM     23  C   UNL A   1      34.074  25.996  25.588  1.00  0.00     0.047 C 
BRANCH  18  24
ATOM     24  O   UNL A   1      30.489  23.409  27.462  1.00  0.00    -0.497 OA
ATOM     25  C   UNL A   1      29.269  22.691  27.330  1.00  0.00     0.278 C 
ENDBRANCH  18  24
ENDBRANCH  14  17
ENDBRANCH   8  13
ENDBRANCH   4   7
ENDBRANCH   2   3
ENDBRANCH   1   2
BRANCH   1  26
ATOM     26  C   UNL A   1      34.871  30.335  27.300  1.00  0.00     0.023 C 
BRANCH  26  27
ATOM     27  C   UNL A   1      35.463  31.582  27.937  1.00  0.00     0.116 C 
BRANCH  27  28
ATOM     28  N   UNL A   1      34.491  32.571  28.397  1.00  0.00    -0.352 N 
ATOM     29  C   UNL A   1      34.538  33.435  29.481  1.00  0.00     0.251 C 
ATOM     30  H   UNL A   1      33.674  32.633  27.851  1.00  0.00     0.163 HD
ATOM     31  O   UNL A   1      33.568  34.145  29.727  1.00  0.00    -0.269 OA
BRANCH  29  32
ATOM     32  C   UNL A   1      35.812  33.649  30.221  1.00  0.00     0.039 A 
ATOM     33  C   UNL A   1      36.878  34.200  29.496  1.00  0.00     0.014 A 
ATOM     34  C   UNL A   1      36.058  32.973  31.405  1.00  0.00     0.014 A 
ATOM     35  C   UNL A   1      38.166  33.748  29.748  1.00  0.00     0.010 A 
ATOM     36  C   UNL A   1      37.288  32.387  31.551  1.00  0.00     0.010 A 
ATOM     37  C   UNL A   1      38.318  32.723  30.672  1.00  0.00    -0.014 A 
BRANCH  37  38
ATOM     38  C   UNL A   1      39.514  31.922  30.823  1.00  0.00     0.031 A 
ATOM     39  C   UNL A   1      39.589  30.663  30.069  1.00  0.00     0.074 A 
ATOM     40  C   UNL A   1      40.563  32.422  31.512  1.00  0.00     0.049 A 
ATOM     41  N   UNL A   1      40.406  29.711  30.340  1.00  0.00    -0.248 NA
ATOM     42  C   UNL A   1      38.673  30.342  28.974  1.00  0.00     0.031 C 
ATOM     43  C   UNL A   1      41.945  31.956  31.512  1.00  0.00     0.029 A 
ATOM     44  N   UNL A   1      40.523  33.371  32.532  1.00  0.00    -0.354 N 
ATOM     45  C   UNL A   1      40.352  28.824  29.292  1.00  0.00     0.074 A 
ATOM     46  C   UNL A   1      39.173  29.181  28.548  1.00  0.00     0.031 C 
ATOM     47  C   UNL A   1      42.560  32.413  32.617  1.00  0.00     0.029 A 
ATOM     48  C   UNL A   1      41.549  33.057  33.441  1.00  0.00     0.049 A 
ATOM     49  H   UNL A   1      39.893  34.124  32.602  1.00  0.00     0.167 HD
ATOM     50  C   UNL A   1      41.413  27.998  29.094  1.00  0.00     0.031 A 
ATOM     51  C   UNL A   1      41.238  32.668  34.715  1.00  0.00     0.031 A 
ATOM     52  C   UNL A   1      42.342  28.077  30.220  1.00  0.00     0.049 A 
ATOM     53  C   UNL A   1      41.599  31.223  34.987  1.00  0.00     0.074 A 
ATOM     54  C   UNL A   1      43.547  28.736  30.398  1.00  0.00     0.029 A 
ATOM     55  N   UNL A   1      41.891  27.723  31.489  1.00  0.00    -0.354 N 
ATOM     56  N   UNL A   1      41.757  30.322  34.054  1.00  0.00    -0.248 NA
ATOM     57  C   UNL A   1      41.838  30.684  36.324  1.00  0.00     0.031 C 
ATOM     58  C   UNL A   1      43.758  28.876  31.797  1.00  0.00     0.029 A 
ATOM     59  C   UNL A   1      42.713  28.256  32.462  1.00  0.00     0.049 A 
ATOM     60  H   UNL A   1      41.097  27.169  31.667  1.00  0.00     0.167 HD
ATOM     61  C   UNL A   1      42.142  29.136  34.619  1.00  0.00     0.074 A 
ATOM     62  C   UNL A   1      42.165  29.409  36.046  1.00  0.00     0.031 C 
ATOM     63  C   UNL A   1      42.429  28.027  33.875  1.00  0.00     0.031 A 
BRANCH  50  64
ATOM     64  C   UNL A   1      41.747  27.326  27.783  1.00  0.00    -0.014 A 
ATOM     65  C   UNL A   1      42.108  25.966  27.789  1.00  0.00     0.009 A 
ATOM     66  C   UNL A   1      41.834  27.974  26.537  1.00  0.00     0.009 A 
ATOM     67  C   UNL A   1      42.559  25.309  26.636  1.00  0.00     0.001 A 
ATOM     68  C   UNL A   1      42.272  27.322  25.376  1.00  0.00     0.001 A 
ATOM     69  C   UNL A   1      42.645  25.989  25.428  1.00  0.00     0.000 A 
ENDBRANCH  50  64
BRANCH  51  70
ATOM     70  C   UNL A   1      40.053  33.395  35.262  1.00  0.00    -0.014 A 
ATOM     71  C   UNL A   1      38.827  32.699  35.304  1.00  0.00     0.009 A 
ATOM     72  C   UNL A   1      40.225  34.492  36.119  1.00  0.00     0.009 A 
ATOM     73  C   UNL A   1      37.872  32.986  36.285  1.00  0.00     0.001 A 
ATOM     74  C   UNL A   1      39.261  34.781  37.095  1.00  0.00     0.001 A 
ATOM     75  C   UNL A   1      38.111  33.998  37.210  1.00  0.00     0.000 A 
ENDBRANCH  51  70
BRANCH  63  76
ATOM     76  C   UNL A   1      42.556  26.617  34.403  1.00  0.00    -0.014 A 
ATOM     77  C   UNL A   1      41.582  25.974  35.177  1.00  0.00     0.009 A 
ATOM     78  C   UNL A   1      43.648  25.823  33.980  1.00  0.00     0.009 A 
ATOM     79  C   UNL A   1      41.716  24.630  35.551  1.00  0.00     0.001 A 
ATOM     80  C   UNL A   1      43.758  24.469  34.301  1.00  0.00     0.001 A 
ATOM     81  C   UNL A   1      42.796  23.875  35.101  1.00  0.00     0.000 A 
ENDBRANCH  63  76
ENDBRANCH  37  38
ENDBRANCH  29  32
ENDBRANCH  27  28
ENDBRANCH  26  27
ENDBRANCH   1  26
TORSDOF 14
ENDMDL
