MODEL 1
REMARK VINA RESULT:     -10.1      0.000      0.000
REMARK SMILES CC(=O)N[C@@H](C(=O)N(CC(=O)NCCCCNC(=O)c1ccc(-c2c3nc(c(-c4ccccc4)c4ccc([nH]4)c(-c4ccccc4)c4nc(c(-c5ccccc5)c5ccc2[nH]5)C=C4)C=C3)cc1)C(C)(C)C)C(C)C
REMARK SMILES IDX 13 1 12 2 10 3 11 4 9 6 8 7 6 8 7 9 5 10 4 11 1 12 2 13 3 14
REMARK SMILES IDX 72 16 73 17 74 18 68 19 69 20 70 21 71 22 14 23 15 24 16 25
REMARK SMILES IDX 17 26 18 27 19 29 20 30 21 31 67 32 22 33 66 34 23 35 24 36
REMARK SMILES IDX 25 37 60 38 26 39 65 40 59 41 61 42 27 43 64 44 58 45 57 46
REMARK SMILES IDX 28 48 50 49 35 50 49 51 36 52 39 53 48 54 62 55 37 56 38 57
REMARK SMILES IDX 47 59 63 60 40 61 29 62 30 63 34 64 31 65 33 66 32 67 51 68
REMARK SMILES IDX 52 69 56 70 53 71 55 72 54 73 41 74 42 75 46 76 43 77 45 78
REMARK SMILES IDX 44 79
REMARK H PARENT 12 5 4 15 17 28 61 47 39 58
REMARK Flexibility Score: inf
ROOT
ATOM      1  C   UNL A   1      33.212  29.217  26.801  1.00  0.00     0.116 C 
ENDROOT
BRANCH   1   2
ATOM      2  N   UNL A   1      33.854  29.224  25.511  1.00  0.00    -0.355 N 
ATOM      3  C   UNL A   1      33.871  28.225  24.578  1.00  0.00     0.239 C 
ATOM      4  O   UNL A   1      34.139  28.539  23.414  1.00  0.00    -0.273 OA
ATOM      5  H   UNL A   1      34.338  30.048  25.271  1.00  0.00     0.163 HD
BRANCH   3   6
ATOM      6  C   UNL A   1      33.440  26.776  24.912  1.00  0.00     0.220 C 
BRANCH   6   7
ATOM      7  N   UNL A   1      32.859  25.964  23.829  1.00  0.00    -0.327 N 
BRANCH   7   8
ATOM      8  C   UNL A   1      33.639  25.131  22.999  1.00  0.00     0.246 C 
ATOM      9  O   UNL A   1      33.875  25.470  21.834  1.00  0.00    -0.272 OA
BRANCH   8  10
ATOM     10  C   UNL A   1      34.198  23.726  23.509  1.00  0.00     0.174 C 
BRANCH  10  11
ATOM     11  N   UNL A   1      33.463  23.206  24.673  1.00  0.00    -0.344 N 
ATOM     12  C   UNL A   1      32.481  21.193  23.625  1.00  0.00     0.114 C 
ATOM     13  C   UNL A   1      32.687  22.096  24.809  1.00  0.00     0.217 C 
ATOM     14  O   UNL A   1      32.180  21.864  25.904  1.00  0.00    -0.275 OA
ATOM     15  H   UNL A   1      33.543  23.753  25.487  1.00  0.00     0.164 HD
ENDBRANCH  10  11
BRANCH  10  16
ATOM     16  C   UNL A   1      35.700  23.869  23.937  1.00  0.00     0.015 C 
ATOM     17  C   UNL A   1      35.922  23.761  25.455  1.00  0.00     0.010 C 
ATOM     18  C   UNL A   1      36.599  22.838  23.246  1.00  0.00     0.010 C 
ENDBRANCH  10  16
ENDBRANCH   8  10
ENDBRANCH   7   8
BRANCH   7  19
ATOM     19  C   UNL A   1      31.369  26.118  23.548  1.00  0.00     0.035 C 
ATOM     20  C   UNL A   1      31.085  27.095  22.391  1.00  0.00     0.034 C 
ATOM     21  C   UNL A   1      30.750  24.740  23.220  1.00  0.00     0.034 C 
ATOM     22  C   UNL A   1      30.549  26.658  24.754  1.00  0.00     0.034 C 
ENDBRANCH   7  19
ENDBRANCH   6   7
ENDBRANCH   3   6
ENDBRANCH   1   2
BRANCH   1  23
ATOM     23  C   UNL A   1      31.807  29.792  26.839  1.00  0.00     0.023 C 
BRANCH  23  24
ATOM     24  C   UNL A   1      31.725  31.281  26.562  1.00  0.00     0.023 C 
BRANCH  24  25
ATOM     25  C   UNL A   1      32.887  32.081  27.128  1.00  0.00     0.116 C 
BRANCH  25  26
ATOM     26  N   UNL A   1      32.513  33.435  27.523  1.00  0.00    -0.352 N 
ATOM     27  C   UNL A   1      33.142  34.270  28.414  1.00  0.00     0.251 C 
ATOM     28  H   UNL A   1      31.704  33.797  27.095  1.00  0.00     0.163 HD
ATOM     29  O   UNL A   1      32.637  35.337  28.747  1.00  0.00    -0.269 OA
BRANCH  27  30
ATOM     30  C   UNL A   1      34.424  33.837  28.997  1.00  0.00     0.039 A 
ATOM     31  C   UNL A   1      34.417  32.971  30.090  1.00  0.00     0.014 A 
ATOM     32  C   UNL A   1      35.624  34.212  28.386  1.00  0.00     0.014 A 
ATOM     33  C   UNL A   1      35.618  32.409  30.521  1.00  0.00     0.010 A 
ATOM     34  C   UNL A   1      36.800  33.575  28.752  1.00  0.00     0.010 A 
ATOM     35  C   UNL A   1      36.810  32.671  29.826  1.00  0.00    -0.014 A 
BRANCH  35  36
ATOM     36  C   UNL A   1      38.087  32.021  30.205  1.00  0.00     0.031 A 
ATOM     37  C   UNL A   1      39.032  32.728  31.136  1.00  0.00     0.074 A 
ATOM     38  C   UNL A   1      38.431  30.842  29.654  1.00  0.00     0.049 A 
ATOM     39  N   UNL A   1      40.229  32.372  31.525  1.00  0.00    -0.248 NA
ATOM     40  C   UNL A   1      38.586  34.025  31.675  1.00  0.00     0.031 C 
ATOM     41  C   UNL A   1      37.626  30.080  28.696  1.00  0.00     0.029 A 
ATOM     42  N   UNL A   1      39.561  30.080  29.816  1.00  0.00    -0.354 N 
ATOM     43  C   UNL A   1      40.685  33.409  32.329  1.00  0.00     0.074 A 
ATOM     44  C   UNL A   1      39.663  34.431  32.328  1.00  0.00     0.031 C 
ATOM     45  C   UNL A   1      38.272  28.944  28.384  1.00  0.00     0.029 A 
ATOM     46  C   UNL A   1      39.551  28.917  29.084  1.00  0.00     0.049 A 
ATOM     47  H   UNL A   1      40.307  30.340  30.402  1.00  0.00     0.167 HD
ATOM     48  C   UNL A   1      41.842  33.494  33.026  1.00  0.00     0.031 A 
ATOM     49  C   UNL A   1      40.471  27.940  28.988  1.00  0.00     0.031 A 
ATOM     50  C   UNL A   1      42.846  32.467  33.048  1.00  0.00     0.049 A 
ATOM     51  C   UNL A   1      41.745  28.053  29.779  1.00  0.00     0.074 A 
ATOM     52  C   UNL A   1      44.023  32.427  33.773  1.00  0.00     0.029 A 
ATOM     53  N   UNL A   1      42.787  31.296  32.310  1.00  0.00    -0.354 N 
ATOM     54  N   UNL A   1      42.131  29.008  30.590  1.00  0.00    -0.248 NA
ATOM     55  C   UNL A   1      42.703  26.947  29.650  1.00  0.00     0.031 C 
ATOM     56  C   UNL A   1      44.698  31.247  33.442  1.00  0.00     0.029 A 
ATOM     57  C   UNL A   1      43.917  30.532  32.548  1.00  0.00     0.049 A 
ATOM     58  H   UNL A   1      42.051  31.043  31.706  1.00  0.00     0.167 HD
ATOM     59  C   UNL A   1      43.364  28.606  31.087  1.00  0.00     0.074 A 
ATOM     60  C   UNL A   1      43.653  27.314  30.498  1.00  0.00     0.031 C 
ATOM     61  C   UNL A   1      44.184  29.249  31.954  1.00  0.00     0.031 A 
BRANCH  48  62
ATOM     62  C   UNL A   1      42.073  34.746  33.824  1.00  0.00    -0.014 A 
ATOM     63  C   UNL A   1      41.645  34.847  35.158  1.00  0.00     0.009 A 
ATOM     64  C   UNL A   1      42.742  35.833  33.240  1.00  0.00     0.009 A 
ATOM     65  C   UNL A   1      41.846  36.025  35.878  1.00  0.00     0.001 A 
ATOM     66  C   UNL A   1      42.969  36.999  33.974  1.00  0.00     0.001 A 
ATOM     67  C   UNL A   1      42.513  37.098  35.287  1.00  0.00     0.000 A 
ENDBRANCH  48  62
BRANCH  49  68
ATOM     68  C   UNL A   1      40.215  26.753  28.131  1.00  0.00    -0.014 A 
ATOM     69  C   UNL A   1      40.754  26.683  26.838  1.00  0.00     0.009 A 
ATOM     70  C   UNL A   1      39.429  25.689  28.597  1.00  0.00     0.009 A 
ATOM     71  C   UNL A   1      40.489  25.584  26.017  1.00  0.00     0.001 A 
ATOM     72  C   UNL A   1      39.187  24.578  27.784  1.00  0.00     0.001 A 
ATOM     73  C   UNL A   1      39.709  24.531  26.493  1.00  0.00     0.000 A 
ENDBRANCH  49  68
BRANCH  61  74
ATOM     74  C   UNL A   1      45.453  28.548  32.345  1.00  0.00    -0.014 A 
ATOM     75  C   UNL A   1      46.646  28.758  31.637  1.00  0.00     0.009 A 
ATOM     76  C   UNL A   1      45.461  27.703  33.465  1.00  0.00     0.009 A 
ATOM     77  C   UNL A   1      47.819  28.109  32.028  1.00  0.00     0.001 A 
ATOM     78  C   UNL A   1      46.641  27.077  33.869  1.00  0.00     0.001 A 
ATOM     79  C   UNL A   1      47.816  27.274  33.146  1.00  0.00     0.000 A 
ENDBRANCH  61  74
ENDBRANCH  35  36
ENDBRANCH  27  30
ENDBRANCH  25  26
ENDBRANCH  24  25
ENDBRANCH  23  24
ENDBRANCH   1  23
TORSDOF 17
ENDMDL
MODEL 2
REMARK VINA RESULT:     -10.0      0.494      5.982
REMARK SMILES CC(=O)N[C@@H](C(=O)N(CC(=O)NCCCCNC(=O)c1ccc(-c2c3nc(c(-c4ccccc4)c4ccc([nH]4)c(-c4ccccc4)c4nc(c(-c5ccccc5)c5ccc2[nH]5)C=C4)C=C3)cc1)C(C)(C)C)C(C)C
REMARK SMILES IDX 13 1 12 2 10 3 11 4 9 6 8 7 6 8 7 9 5 10 4 11 1 12 2 13 3 14
REMARK SMILES IDX 72 16 73 17 74 18 68 19 69 20 70 21 71 22 14 23 15 24 16 25
REMARK SMILES IDX 17 26 18 27 19 29 20 30 21 31 67 32 22 33 66 34 23 35 24 36
REMARK SMILES IDX 25 37 60 38 26 39 65 40 59 41 61 42 27 43 64 44 58 45 57 46
REMARK SMILES IDX 28 48 50 49 35 50 49 51 36 52 39 53 48 54 62 55 37 56 38 57
REMARK SMILES IDX 47 59 63 60 40 61 29 62 30 63 34 64 31 65 33 66 32 67 51 68
REMARK SMILES IDX 52 69 56 70 53 71 55 72 54 73 41 74 42 75 46 76 43 77 45 78
REMARK SMILES IDX 44 79
REMARK H PARENT 12 5 4 15 17 28 61 47 39 58
REMARK Flexibility Score: inf
ROOT
ATOM      1  C   UNL A   1      33.670  28.981  26.936  1.00  0.00     0.116 C 
ENDROOT
BRANCH   1   2
ATOM      2  N   UNL A   1      34.160  28.982  25.582  1.00  0.00    -0.355 N 
ATOM      3  C   UNL A   1      33.943  28.044  24.611  1.00  0.00     0.239 C 
ATOM      4  O   UNL A   1      34.119  28.389  23.439  1.00  0.00    -0.273 OA
ATOM      5  H   UNL A   1      34.718  29.751  25.323  1.00  0.00     0.163 HD
BRANCH   3   6
ATOM      6  C   UNL A   1      33.364  26.645  24.930  1.00  0.00     0.220 C 
BRANCH   6   7
ATOM      7  N   UNL A   1      32.814  25.856  23.814  1.00  0.00    -0.327 N 
BRANCH   7   8
ATOM      8  C   UNL A   1      33.618  25.042  22.987  1.00  0.00     0.246 C 
ATOM      9  O   UNL A   1      33.859  25.392  21.826  1.00  0.00    -0.272 OA
BRANCH   8  10
ATOM     10  C   UNL A   1      34.198  23.645  23.495  1.00  0.00     0.174 C 
BRANCH  10  11
ATOM     11  N   UNL A   1      33.488  23.126  24.675  1.00  0.00    -0.344 N 
ATOM     12  C   UNL A   1      32.592  21.044  23.685  1.00  0.00     0.114 C 
ATOM     13  C   UNL A   1      32.762  21.987  24.843  1.00  0.00     0.217 C 
ATOM     14  O   UNL A   1      32.268  21.763  25.946  1.00  0.00    -0.275 OA
ATOM     15  H   UNL A   1      33.547  23.697  25.474  1.00  0.00     0.164 HD
ENDBRANCH  10  11
BRANCH  10  16
ATOM     16  C   UNL A   1      35.706  23.803  23.895  1.00  0.00     0.015 C 
ATOM     17  C   UNL A   1      35.950  23.760  25.413  1.00  0.00     0.010 C 
ATOM     18  C   UNL A   1      36.594  22.743  23.235  1.00  0.00     0.010 C 
ENDBRANCH  10  16
ENDBRANCH   8  10
ENDBRANCH   7   8
BRANCH   7  19
ATOM     19  C   UNL A   1      31.332  26.015  23.497  1.00  0.00     0.035 C 
ATOM     20  C   UNL A   1      31.082  26.969  22.313  1.00  0.00     0.034 C 
ATOM     21  C   UNL A   1      30.710  24.634  23.185  1.00  0.00     0.034 C 
ATOM     22  C   UNL A   1      30.489  26.587  24.672  1.00  0.00     0.034 C 
ENDBRANCH   7  19
ENDBRANCH   6   7
ENDBRANCH   3   6
ENDBRANCH   1   2
BRANCH   1  23
ATOM     23  C   UNL A   1      32.250  29.488  27.122  1.00  0.00     0.023 C 
BRANCH  23  24
ATOM     24  C   UNL A   1      32.051  30.953  26.780  1.00  0.00     0.023 C 
BRANCH  24  25
ATOM     25  C   UNL A   1      33.152  31.863  27.297  1.00  0.00     0.116 C 
BRANCH  25  26
ATOM     26  N   UNL A   1      32.677  33.199  27.641  1.00  0.00    -0.352 N 
ATOM     27  C   UNL A   1      33.228  34.104  28.516  1.00  0.00     0.251 C 
ATOM     28  H   UNL A   1      31.853  33.490  27.188  1.00  0.00     0.163 HD
ATOM     29  O   UNL A   1      32.643  35.142  28.805  1.00  0.00    -0.269 OA
BRANCH  27  30
ATOM     30  C   UNL A   1      34.526  33.781  29.134  1.00  0.00     0.039 A 
ATOM     31  C   UNL A   1      34.556  32.975  30.272  1.00  0.00     0.014 A 
ATOM     32  C   UNL A   1      35.709  34.194  28.516  1.00  0.00     0.014 A 
ATOM     33  C   UNL A   1      35.783  32.511  30.745  1.00  0.00     0.010 A 
ATOM     34  C   UNL A   1      36.917  33.650  28.928  1.00  0.00     0.010 A 
ATOM     35  C   UNL A   1      36.966  32.807  30.048  1.00  0.00    -0.014 A 
BRANCH  35  36
ATOM     36  C   UNL A   1      38.275  32.257  30.475  1.00  0.00     0.031 A 
ATOM     37  C   UNL A   1      38.763  30.961  29.889  1.00  0.00     0.074 A 
ATOM     38  C   UNL A   1      38.982  32.875  31.441  1.00  0.00     0.049 A 
ATOM     39  N   UNL A   1      39.834  30.272  30.187  1.00  0.00    -0.248 NA
ATOM     40  C   UNL A   1      37.916  30.341  28.856  1.00  0.00     0.031 C 
ATOM     41  C   UNL A   1      38.591  34.110  32.127  1.00  0.00     0.029 A 
ATOM     42  N   UNL A   1      40.179  32.539  32.021  1.00  0.00    -0.354 N 
ATOM     43  C   UNL A   1      39.774  29.130  29.399  1.00  0.00     0.074 A 
ATOM     44  C   UNL A   1      38.538  29.191  28.652  1.00  0.00     0.031 C 
ATOM     45  C   UNL A   1      39.548  34.444  33.008  1.00  0.00     0.029 A 
ATOM     46  C   UNL A   1      40.596  33.431  32.980  1.00  0.00     0.049 A 
ATOM     47  H   UNL A   1      40.692  31.737  31.773  1.00  0.00     0.167 HD
ATOM     48  C   UNL A   1      40.679  28.130  29.287  1.00  0.00     0.031 A 
ATOM     49  C   UNL A   1      41.699  33.428  33.751  1.00  0.00     0.031 A 
ATOM     50  C   UNL A   1      41.921  28.083  30.009  1.00  0.00     0.049 A 
ATOM     51  C   UNL A   1      42.694  32.311  33.602  1.00  0.00     0.074 A 
ATOM     52  C   UNL A   1      42.935  27.148  29.919  1.00  0.00     0.029 A 
ATOM     53  N   UNL A   1      42.314  29.016  30.955  1.00  0.00    -0.354 N 
ATOM     54  N   UNL A   1      42.657  31.273  32.801  1.00  0.00    -0.248 NA
ATOM     55  C   UNL A   1      43.888  32.371  34.456  1.00  0.00     0.031 C 
ATOM     56  C   UNL A   1      43.928  27.494  30.842  1.00  0.00     0.029 A 
ATOM     57  C   UNL A   1      43.551  28.670  31.470  1.00  0.00     0.049 A 
ATOM     58  H   UNL A   1      41.792  29.808  31.221  1.00  0.00     0.167 HD
ATOM     59  C   UNL A   1      43.833  30.572  33.036  1.00  0.00     0.074 A 
ATOM     60  C   UNL A   1      44.568  31.311  34.043  1.00  0.00     0.031 C 
ATOM     61  C   UNL A   1      44.266  29.420  32.468  1.00  0.00     0.031 A 
BRANCH  48  62
ATOM     62  C   UNL A   1      40.351  27.008  28.342  1.00  0.00    -0.014 A 
ATOM     63  C   UNL A   1      40.859  26.989  27.033  1.00  0.00     0.009 A 
ATOM     64  C   UNL A   1      39.537  25.949  28.771  1.00  0.00     0.009 A 
ATOM     65  C   UNL A   1      40.527  25.953  26.160  1.00  0.00     0.001 A 
ATOM     66  C   UNL A   1      39.232  24.898  27.905  1.00  0.00     0.001 A 
ATOM     67  C   UNL A   1      39.717  24.905  26.598  1.00  0.00     0.000 A 
ENDBRANCH  48  62
BRANCH  49  68
ATOM     68  C   UNL A   1      41.939  34.532  34.716  1.00  0.00    -0.014 A 
ATOM     69  C   UNL A   1      42.577  35.710  34.301  1.00  0.00     0.009 A 
ATOM     70  C   UNL A   1      41.537  34.413  36.055  1.00  0.00     0.009 A 
ATOM     71  C   UNL A   1      42.834  36.737  35.212  1.00  0.00     0.001 A 
ATOM     72  C   UNL A   1      41.771  35.453  36.959  1.00  0.00     0.001 A 
ATOM     73  C   UNL A   1      42.426  36.609  36.540  1.00  0.00     0.000 A 
ENDBRANCH  49  68
BRANCH  61  74
ATOM     74  C   UNL A   1      45.611  28.908  32.897  1.00  0.00    -0.014 A 
ATOM     75  C   UNL A   1      45.739  28.002  33.961  1.00  0.00     0.009 A 
ATOM     76  C   UNL A   1      46.759  29.306  32.195  1.00  0.00     0.009 A 
ATOM     77  C   UNL A   1      46.998  27.526  34.332  1.00  0.00     0.001 A 
ATOM     78  C   UNL A   1      48.013  28.807  32.551  1.00  0.00     0.001 A 
ATOM     79  C   UNL A   1      48.132  27.925  33.624  1.00  0.00     0.000 A 
ENDBRANCH  61  74
ENDBRANCH  35  36
ENDBRANCH  27  30
ENDBRANCH  25  26
ENDBRANCH  24  25
ENDBRANCH  23  24
ENDBRANCH   1  23
TORSDOF 17
ENDMDL
MODEL 3
REMARK VINA RESULT:      -9.9      2.003      3.274
REMARK SMILES CC(=O)N[C@@H](C(=O)N(CC(=O)NCCCCNC(=O)c1ccc(-c2c3nc(c(-c4ccccc4)c4ccc([nH]4)c(-c4ccccc4)c4nc(c(-c5ccccc5)c5ccc2[nH]5)C=C4)C=C3)cc1)C(C)(C)C)C(C)C
REMARK SMILES IDX 13 1 12 2 10 3 11 4 9 6 8 7 6 8 7 9 5 10 4 11 1 12 2 13 3 14
REMARK SMILES IDX 72 16 73 17 74 18 68 19 69 20 70 21 71 22 14 23 15 24 16 25
REMARK SMILES IDX 17 26 18 27 19 29 20 30 21 31 67 32 22 33 66 34 23 35 24 36
REMARK SMILES IDX 25 37 60 38 26 39 65 40 59 41 61 42 27 43 64 44 58 45 57 46
REMARK SMILES IDX 28 48 50 49 35 50 49 51 36 52 39 53 48 54 62 55 37 56 38 57
REMARK SMILES IDX 47 59 63 60 40 61 29 62 30 63 34 64 31 65 33 66 32 67 51 68
REMARK SMILES IDX 52 69 56 70 53 71 55 72 54 73 41 74 42 75 46 76 43 77 45 78
REMARK SMILES IDX 44 79
REMARK H PARENT 12 5 4 15 17 28 61 47 39 58
REMARK Flexibility Score: inf
ROOT
ATOM      1  C   UNL A   1      31.863  29.495  26.939  1.00  0.00     0.116 C 
ENDROOT
BRANCH   1   2
ATOM      2  N   UNL A   1      33.005  28.619  26.880  1.00  0.00    -0.355 N 
ATOM      3  C   UNL A   1      33.031  27.296  26.534  1.00  0.00     0.239 C 
ATOM      4  O   UNL A   1      34.115  26.822  26.183  1.00  0.00    -0.273 OA
ATOM      5  H   UNL A   1      33.873  29.020  27.117  1.00  0.00     0.163 HD
BRANCH   3   6
ATOM      6  C   UNL A   1      31.743  26.442  26.442  1.00  0.00     0.220 C 
BRANCH   6   7
ATOM      7  N   UNL A   1      31.292  26.018  25.106  1.00  0.00    -0.327 N 
BRANCH   7   8
ATOM      8  C   UNL A   1      30.698  26.906  24.184  1.00  0.00     0.246 C 
ATOM      9  O   UNL A   1      29.504  26.778  23.888  1.00  0.00    -0.272 OA
BRANCH   8  10
ATOM     10  C   UNL A   1      31.538  28.060  23.470  1.00  0.00     0.174 C 
BRANCH  10  11
ATOM     11  N   UNL A   1      30.852  28.624  22.296  1.00  0.00    -0.344 N 
ATOM     12  C   UNL A   1      29.439  30.290  23.455  1.00  0.00     0.114 C 
ATOM     13  C   UNL A   1      29.919  29.610  22.203  1.00  0.00     0.217 C 
ATOM     14  O   UNL A   1      29.498  29.918  21.090  1.00  0.00    -0.275 OA
ATOM     15  H   UNL A   1      31.109  28.219  21.437  1.00  0.00     0.164 HD
ENDBRANCH  10  11
BRANCH  10  16
ATOM     16  C   UNL A   1      32.914  27.494  22.975  1.00  0.00     0.015 C 
ATOM     17  C   UNL A   1      32.808  26.649  21.694  1.00  0.00     0.010 C 
ATOM     18  C   UNL A   1      33.943  28.604  22.734  1.00  0.00     0.010 C 
ENDBRANCH  10  16
ENDBRANCH   8  10
ENDBRANCH   7   8
BRANCH   7  19
ATOM     19  C   UNL A   1      31.393  24.537  24.761  1.00  0.00     0.035 C 
ATOM     20  C   UNL A   1      32.852  24.068  24.597  1.00  0.00     0.034 C 
ATOM     21  C   UNL A   1      30.702  23.693  25.857  1.00  0.00     0.034 C 
ATOM     22  C   UNL A   1      30.683  24.145  23.434  1.00  0.00     0.034 C 
ENDBRANCH   7  19
ENDBRANCH   6   7
ENDBRANCH   3   6
ENDBRANCH   1   2
BRANCH   1  23
ATOM     23  C   UNL A   1      31.947  30.743  26.078  1.00  0.00     0.023 C 
BRANCH  23  24
ATOM     24  C   UNL A   1      31.538  32.024  26.779  1.00  0.00     0.023 C 
BRANCH  24  25
ATOM     25  C   UNL A   1      32.698  32.792  27.391  1.00  0.00     0.116 C 
BRANCH  25  26
ATOM     26  N   UNL A   1      32.374  34.185  27.681  1.00  0.00    -0.352 N 
ATOM     27  C   UNL A   1      32.970  35.031  28.583  1.00  0.00     0.251 C 
ATOM     28  H   UNL A   1      31.631  34.568  27.162  1.00  0.00     0.163 HD
ATOM     29  O   UNL A   1      32.504  36.141  28.814  1.00  0.00    -0.269 OA
BRANCH  27  30
ATOM     30  C   UNL A   1      34.166  34.559  29.304  1.00  0.00     0.039 A 
ATOM     31  C   UNL A   1      34.014  33.954  30.552  1.00  0.00     0.014 A 
ATOM     32  C   UNL A   1      35.418  34.625  28.686  1.00  0.00     0.014 A 
ATOM     33  C   UNL A   1      35.114  33.336  31.147  1.00  0.00     0.010 A 
ATOM     34  C   UNL A   1      36.483  33.925  29.232  1.00  0.00     0.010 A 
ATOM     35  C   UNL A   1      36.343  33.277  30.470  1.00  0.00    -0.014 A 
BRANCH  35  36
ATOM     36  C   UNL A   1      37.505  32.553  31.036  1.00  0.00     0.031 A 
ATOM     37  C   UNL A   1      38.110  33.017  32.332  1.00  0.00     0.074 A 
ATOM     38  C   UNL A   1      38.064  31.536  30.351  1.00  0.00     0.049 A 
ATOM     39  N   UNL A   1      39.174  32.576  32.951  1.00  0.00    -0.248 NA
ATOM     40  C   UNL A   1      37.451  34.150  33.003  1.00  0.00     0.031 C 
ATOM     41  C   UNL A   1      37.603  31.025  29.058  1.00  0.00     0.029 A 
ATOM     42  N   UNL A   1      39.151  30.754  30.648  1.00  0.00    -0.354 N 
ATOM     43  C   UNL A   1      39.324  33.392  34.065  1.00  0.00     0.074 A 
ATOM     44  C   UNL A   1      38.278  34.388  34.008  1.00  0.00     0.031 C 
ATOM     45  C   UNL A   1      38.382  29.994  28.690  1.00  0.00     0.029 A 
ATOM     46  C   UNL A   1      39.418  29.798  29.698  1.00  0.00     0.049 A 
ATOM     47  H   UNL A   1      39.689  30.867  31.464  1.00  0.00     0.167 HD
ATOM     48  C   UNL A   1      40.237  33.307  35.061  1.00  0.00     0.031 A 
ATOM     49  C   UNL A   1      40.390  28.869  29.646  1.00  0.00     0.031 A 
ATOM     50  C   UNL A   1      41.260  32.301  35.131  1.00  0.00     0.049 A 
ATOM     51  C   UNL A   1      41.387  28.789  30.769  1.00  0.00     0.074 A 
ATOM     52  C   UNL A   1      42.192  32.088  36.130  1.00  0.00     0.029 A 
ATOM     53  N   UNL A   1      41.482  31.338  34.160  1.00  0.00    -0.354 N 
ATOM     54  N   UNL A   1      41.473  29.524  31.851  1.00  0.00    -0.248 NA
ATOM     55  C   UNL A   1      42.413  27.742  30.667  1.00  0.00     0.031 C 
ATOM     56  C   UNL A   1      43.006  31.018  35.744  1.00  0.00     0.029 A 
ATOM     57  C   UNL A   1      42.549  30.537  34.527  1.00  0.00     0.049 A 
ATOM     58  H   UNL A   1      40.959  31.237  33.331  1.00  0.00     0.167 HD
ATOM     59  C   UNL A   1      42.545  29.013  32.571  1.00  0.00     0.074 A 
ATOM     60  C   UNL A   1      43.067  27.896  31.810  1.00  0.00     0.031 C 
ATOM     61  C   UNL A   1      43.051  29.430  33.757  1.00  0.00     0.031 A 
BRANCH  48  62
ATOM     62  C   UNL A   1      40.158  34.334  36.155  1.00  0.00    -0.014 A 
ATOM     63  C   UNL A   1      40.894  35.529  36.083  1.00  0.00     0.009 A 
ATOM     64  C   UNL A   1      39.328  34.113  37.263  1.00  0.00     0.009 A 
ATOM     65  C   UNL A   1      40.829  36.463  37.118  1.00  0.00     0.001 A 
ATOM     66  C   UNL A   1      39.240  35.063  38.282  1.00  0.00     0.001 A 
ATOM     67  C   UNL A   1      39.998  36.231  38.214  1.00  0.00     0.000 A 
ENDBRANCH  48  62
BRANCH  49  68
ATOM     68  C   UNL A   1      40.457  27.919  28.505  1.00  0.00    -0.014 A 
ATOM     69  C   UNL A   1      39.806  26.679  28.576  1.00  0.00     0.009 A 
ATOM     70  C   UNL A   1      41.173  28.244  27.344  1.00  0.00     0.009 A 
ATOM     71  C   UNL A   1      39.893  25.771  27.519  1.00  0.00     0.001 A 
ATOM     72  C   UNL A   1      41.236  27.345  26.276  1.00  0.00     0.001 A 
ATOM     73  C   UNL A   1      40.605  26.106  26.368  1.00  0.00     0.000 A 
ENDBRANCH  49  68
BRANCH  61  74
ATOM     74  C   UNL A   1      44.207  28.653  34.320  1.00  0.00    -0.014 A 
ATOM     75  C   UNL A   1      45.532  29.027  34.053  1.00  0.00     0.009 A 
ATOM     76  C   UNL A   1      43.960  27.561  35.167  1.00  0.00     0.009 A 
ATOM     77  C   UNL A   1      46.591  28.300  34.601  1.00  0.00     0.001 A 
ATOM     78  C   UNL A   1      45.021  26.855  35.735  1.00  0.00     0.001 A 
ATOM     79  C   UNL A   1      46.335  27.219  35.444  1.00  0.00     0.000 A 
ENDBRANCH  61  74
ENDBRANCH  35  36
ENDBRANCH  27  30
ENDBRANCH  25  26
ENDBRANCH  24  25
ENDBRANCH  23  24
ENDBRANCH   1  23
TORSDOF 17
ENDMDL
