MODEL 1
REMARK VINA RESULT:     -13.0      0.000      0.000
REMARK SMILES O=C(N/N=C/c1ccccc1O)C(=O)Nc1cccc(C(=O)NCCCCNC(=O)c2ccc(-c3c4nc(c(-c5ccccc5)c5ccc([nH]5)c(-c5ccccc5)c5nc(c(-c6ccccc6)c6ccc3[nH]6)C=C5)C=C4)cc2)c1
REMARK SMILES IDX 24 1 23 2 21 3 22 4 20 6 16 7 17 8 79 9 18 10 19 11 15 12
REMARK SMILES IDX 13 13 14 14 2 16 1 17 3 18 4 20 5 21 6 22 7 23 11 24 8 25
REMARK SMILES IDX 10 26 9 27 12 28 25 30 26 31 27 32 28 33 29 34 30 36 31 37
REMARK SMILES IDX 32 38 78 39 33 40 77 41 34 42 35 43 36 44 71 45 37 46 76 47
REMARK SMILES IDX 70 48 72 49 38 50 75 51 69 52 68 53 39 55 61 56 46 57 60 58
REMARK SMILES IDX 47 59 50 60 59 61 73 62 48 63 49 64 58 66 74 67 51 68 40 69
REMARK SMILES IDX 41 70 45 71 42 72 44 73 43 74 62 75 63 76 67 77 64 78 66 79
REMARK SMILES IDX 65 80 52 81 53 82 57 83 54 84 56 85 55 86
REMARK H PARENT 23 5 15 15 3 19 12 29 28 35 72 54 50 65
REMARK Flexibility Score: inf
ROOT
ATOM      1  C   UNL A   1      35.264  20.682  25.036  1.00  0.00     0.116 C 
ENDROOT
BRANCH   1   2
ATOM      2  N   UNL A   1      34.229  19.717  25.350  1.00  0.00    -0.352 N 
ATOM      3  C   UNL A   1      32.871  19.782  25.175  1.00  0.00     0.251 C 
ATOM      4  O   UNL A   1      32.189  18.768  25.346  1.00  0.00    -0.269 OA
ATOM      5  H   UNL A   1      34.553  18.880  25.754  1.00  0.00     0.163 HD
BRANCH   3   6
ATOM      6  C   UNL A   1      32.139  21.027  24.824  1.00  0.00     0.041 A 
ATOM      7  C   UNL A   1      30.714  23.753  25.531  1.00  0.00     0.042 A 
ATOM      8  C   UNL A   1      30.853  24.306  23.789  1.00  0.00     0.026 A 
ATOM      9  C   UNL A   1      31.267  22.096  26.034  1.00  0.00     0.040 A 
ATOM     10  C   UNL A   1      31.557  23.157  22.550  1.00  0.00     0.003 A 
ATOM     11  C   UNL A   1      32.234  21.557  23.077  1.00  0.00     0.014 A 
BRANCH   7  12
ATOM     12  N   UNL A   1      30.793  24.786  26.465  1.00  0.00    -0.318 N 
ATOM     13  C   UNL A   1      31.853  25.676  26.606  1.00  0.00     0.315 C 
ATOM     14  O   UNL A   1      31.680  26.653  27.338  1.00  0.00    -0.263 OA
ATOM     15  H   UNL A   1      30.032  24.895  27.079  1.00  0.00     0.170 HD
BRANCH  13  16
ATOM     16  C   UNL A   1      33.213  25.573  25.868  1.00  0.00     0.329 C 
ATOM     17  O   UNL A   1      33.845  24.520  25.931  1.00  0.00    -0.262 OA
ATOM     18  N   UNL A   1      33.789  26.699  25.266  1.00  0.00    -0.239 N 
ATOM     19  H   UNL A   1      34.534  27.195  25.678  1.00  0.00     0.194 HD
BRANCH  18  20
ATOM     20  N   UNL A   1      33.239  27.066  24.056  1.00  0.00    -0.180 NA
ATOM     21  C   UNL A   1      32.281  28.050  24.132  1.00  0.00     0.145 C 
BRANCH  21  22
ATOM     22  C   UNL A   1      30.408  28.505  23.225  1.00  0.00     0.036 A 
ATOM     23  C   UNL A   1      29.055  27.833  23.473  1.00  0.00     0.013 A 
ATOM     24  C   UNL A   1      29.921  29.567  22.236  1.00  0.00     0.124 A 
ATOM     25  C   UNL A   1      27.722  28.262  23.207  1.00  0.00     0.001 A 
ATOM     26  C   UNL A   1      28.585  30.043  21.998  1.00  0.00     0.047 A 
ATOM     27  C   UNL A   1      27.488  29.427  22.540  1.00  0.00     0.004 A 
BRANCH  24  28
ATOM     28  O   UNL A   1      30.667  30.120  21.191  1.00  0.00    -0.507 OA
ATOM     29  H   UNL A   1      31.458  29.704  20.909  1.00  0.00     0.293 HD
ENDBRANCH  24  28
ENDBRANCH  21  22
ENDBRANCH  18  20
ENDBRANCH  13  16
ENDBRANCH   7  12
ENDBRANCH   3   6
ENDBRANCH   1   2
BRANCH   1  30
ATOM     30  C   UNL A   1      36.653  20.051  24.987  1.00  0.00     0.023 C 
BRANCH  30  31
ATOM     31  C   UNL A   1      37.795  21.048  24.799  1.00  0.00     0.023 C 
BRANCH  31  32
ATOM     32  C   UNL A   1      38.882  20.993  25.867  1.00  0.00     0.116 C 
BRANCH  32  33
ATOM     33  N   UNL A   1      39.767  19.841  25.760  1.00  0.00    -0.352 N 
ATOM     34  C   UNL A   1      41.111  19.796  26.056  1.00  0.00     0.251 C 
ATOM     35  H   UNL A   1      39.359  19.002  25.443  1.00  0.00     0.163 HD
ATOM     36  O   UNL A   1      41.786  18.795  25.855  1.00  0.00    -0.269 OA
BRANCH  34  37
ATOM     37  C   UNL A   1      41.738  21.023  26.583  1.00  0.00     0.039 A 
ATOM     38  C   UNL A   1      42.293  21.938  25.687  1.00  0.00     0.014 A 
ATOM     39  C   UNL A   1      41.652  21.312  27.947  1.00  0.00     0.014 A 
ATOM     40  C   UNL A   1      42.683  23.195  26.150  1.00  0.00     0.010 A 
ATOM     41  C   UNL A   1      41.985  22.585  28.393  1.00  0.00     0.010 A 
ATOM     42  C   UNL A   1      42.485  23.542  27.496  1.00  0.00    -0.014 A 
BRANCH  42  43
ATOM     43  C   UNL A   1      42.764  24.908  27.997  1.00  0.00     0.031 A 
ATOM     44  C   UNL A   1      44.145  25.259  28.469  1.00  0.00     0.074 A 
ATOM     45  C   UNL A   1      41.755  25.789  28.136  1.00  0.00     0.049 A 
ATOM     46  N   UNL A   1      44.558  26.336  29.085  1.00  0.00    -0.248 NA
ATOM     47  C   UNL A   1      45.192  24.248  28.248  1.00  0.00     0.031 C 
ATOM     48  C   UNL A   1      40.360  25.553  27.755  1.00  0.00     0.029 A 
ATOM     49  N   UNL A   1      41.746  27.057  28.661  1.00  0.00    -0.354 N 
ATOM     50  C   UNL A   1      45.900  26.118  29.358  1.00  0.00     0.074 A 
ATOM     51  C   UNL A   1      46.226  24.797  28.867  1.00  0.00     0.031 C 
ATOM     52  C   UNL A   1      39.635  26.645  28.048  1.00  0.00     0.029 A 
ATOM     53  C   UNL A   1      40.502  27.638  28.672  1.00  0.00     0.049 A 
ATOM     54  H   UNL A   1      42.554  27.507  28.997  1.00  0.00     0.167 HD
ATOM     55  C   UNL A   1      46.787  26.948  29.957  1.00  0.00     0.031 A 
ATOM     56  C   UNL A   1      40.102  28.833  29.146  1.00  0.00     0.031 A 
ATOM     57  C   UNL A   1      46.471  28.271  30.419  1.00  0.00     0.049 A 
ATOM     58  C   UNL A   1      41.108  29.747  29.783  1.00  0.00     0.074 A 
ATOM     59  C   UNL A   1      47.314  29.214  30.979  1.00  0.00     0.029 A 
ATOM     60  N   UNL A   1      45.208  28.841  30.366  1.00  0.00    -0.354 N 
ATOM     61  N   UNL A   1      42.387  29.548  29.989  1.00  0.00    -0.248 NA
ATOM     62  C   UNL A   1      40.618  31.053  30.248  1.00  0.00     0.031 C 
ATOM     63  C   UNL A   1      46.556  30.347  31.293  1.00  0.00     0.029 A 
ATOM     64  C   UNL A   1      45.248  30.120  30.894  1.00  0.00     0.049 A 
ATOM     65  H   UNL A   1      44.404  28.402  30.008  1.00  0.00     0.167 HD
ATOM     66  C   UNL A   1      42.861  30.711  30.581  1.00  0.00     0.074 A 
ATOM     67  C   UNL A   1      41.734  31.613  30.697  1.00  0.00     0.031 C 
ATOM     68  C   UNL A   1      44.117  31.006  30.990  1.00  0.00     0.031 A 
BRANCH  55  69
ATOM     69  C   UNL A   1      48.183  26.433  30.152  1.00  0.00    -0.014 A 
ATOM     70  C   UNL A   1      49.168  26.612  29.168  1.00  0.00     0.009 A 
ATOM     71  C   UNL A   1      48.522  25.773  31.344  1.00  0.00     0.009 A 
ATOM     72  C   UNL A   1      50.454  26.104  29.356  1.00  0.00     0.001 A 
ATOM     73  C   UNL A   1      49.816  25.289  31.540  1.00  0.00     0.001 A 
ATOM     74  C   UNL A   1      50.777  25.446  30.543  1.00  0.00     0.000 A 
ENDBRANCH  55  69
BRANCH  56  75
ATOM     75  C   UNL A   1      38.680  29.241  29.022  1.00  0.00    -0.014 A 
ATOM     76  C   UNL A   1      37.809  29.108  30.114  1.00  0.00     0.009 A 
ATOM     77  C   UNL A   1      38.187  29.767  27.819  1.00  0.00     0.009 A 
ATOM     78  C   UNL A   1      36.467  29.477  29.997  1.00  0.00     0.001 A 
ATOM     79  C   UNL A   1      36.849  30.156  27.711  1.00  0.00     0.001 A 
ATOM     80  C   UNL A   1      35.989  30.004  28.798  1.00  0.00     0.000 A 
ENDBRANCH  56  75
BRANCH  68  81
ATOM     81  C   UNL A   1      44.352  32.372  31.562  1.00  0.00    -0.014 A 
ATOM     82  C   UNL A   1      44.237  32.612  32.940  1.00  0.00     0.009 A 
ATOM     83  C   UNL A   1      44.749  33.419  30.715  1.00  0.00     0.009 A 
ATOM     84  C   UNL A   1      44.498  33.882  33.455  1.00  0.00     0.001 A 
ATOM     85  C   UNL A   1      45.029  34.681  31.237  1.00  0.00     0.001 A 
ATOM     86  C   UNL A   1      44.898  34.913  32.606  1.00  0.00     0.000 A 
ENDBRANCH  68  81
ENDBRANCH  42  43
ENDBRANCH  34  37
ENDBRANCH  32  33
ENDBRANCH  31  32
ENDBRANCH  30  31
ENDBRANCH   1  30
TORSDOF 16
ENDMDL
MODEL 2
REMARK VINA RESULT:     -13.0      0.647      5.742
REMARK SMILES O=C(N/N=C/c1ccccc1O)C(=O)Nc1cccc(C(=O)NCCCCNC(=O)c2ccc(-c3c4nc(c(-c5ccccc5)c5ccc([nH]5)c(-c5ccccc5)c5nc(c(-c6ccccc6)c6ccc3[nH]6)C=C5)C=C4)cc2)c1
REMARK SMILES IDX 24 1 23 2 21 3 22 4 20 6 16 7 17 8 79 9 18 10 19 11 15 12
REMARK SMILES IDX 13 13 14 14 2 16 1 17 3 18 4 20 5 21 6 22 7 23 11 24 8 25
REMARK SMILES IDX 10 26 9 27 12 28 25 30 26 31 27 32 28 33 29 34 30 36 31 37
REMARK SMILES IDX 32 38 78 39 33 40 77 41 34 42 35 43 36 44 71 45 37 46 76 47
REMARK SMILES IDX 70 48 72 49 38 50 75 51 69 52 68 53 39 55 61 56 46 57 60 58
REMARK SMILES IDX 47 59 50 60 59 61 73 62 48 63 49 64 58 66 74 67 51 68 40 69
REMARK SMILES IDX 41 70 45 71 42 72 44 73 43 74 62 75 63 76 67 77 64 78 66 79
REMARK SMILES IDX 65 80 52 81 53 82 57 83 54 84 56 85 55 86
REMARK H PARENT 23 5 15 15 3 19 12 29 28 35 72 54 50 65
REMARK Flexibility Score: inf
ROOT
ATOM      1  C   UNL A   1      35.303  20.853  24.832  1.00  0.00     0.116 C 
ENDROOT
BRANCH   1   2
ATOM      2  N   UNL A   1      34.317  19.875  25.249  1.00  0.00    -0.352 N 
ATOM      3  C   UNL A   1      32.949  19.906  25.179  1.00  0.00     0.251 C 
ATOM      4  O   UNL A   1      32.306  18.882  25.426  1.00  0.00    -0.269 OA
ATOM      5  H   UNL A   1      34.691  19.054  25.645  1.00  0.00     0.163 HD
BRANCH   3   6
ATOM      6  C   UNL A   1      32.163  21.127  24.858  1.00  0.00     0.041 A 
ATOM      7  C   UNL A   1      30.717  23.828  25.614  1.00  0.00     0.042 A 
ATOM      8  C   UNL A   1      30.727  24.354  23.858  1.00  0.00     0.026 A 
ATOM      9  C   UNL A   1      31.346  22.195  26.105  1.00  0.00     0.040 A 
ATOM     10  C   UNL A   1      31.377  23.200  22.594  1.00  0.00     0.003 A 
ATOM     11  C   UNL A   1      32.129  21.628  23.100  1.00  0.00     0.014 A 
BRANCH   7  12
ATOM     12  N   UNL A   1      30.832  24.879  26.524  1.00  0.00    -0.318 N 
ATOM     13  C   UNL A   1      31.902  25.763  26.616  1.00  0.00     0.315 C 
ATOM     14  O   UNL A   1      31.758  26.756  27.333  1.00  0.00    -0.263 OA
ATOM     15  H   UNL A   1      30.090  25.007  27.158  1.00  0.00     0.170 HD
BRANCH  13  16
ATOM     16  C   UNL A   1      33.239  25.635  25.842  1.00  0.00     0.329 C 
ATOM     17  O   UNL A   1      33.876  24.585  25.925  1.00  0.00    -0.262 OA
ATOM     18  N   UNL A   1      33.793  26.738  25.179  1.00  0.00    -0.239 N 
ATOM     19  H   UNL A   1      34.549  27.250  25.549  1.00  0.00     0.194 HD
BRANCH  18  20
ATOM     20  N   UNL A   1      33.206  27.057  23.974  1.00  0.00    -0.180 NA
ATOM     21  C   UNL A   1      32.263  28.056  24.038  1.00  0.00     0.145 C 
BRANCH  21  22
ATOM     22  C   UNL A   1      30.364  28.495  23.176  1.00  0.00     0.036 A 
ATOM     23  C   UNL A   1      29.029  27.794  23.438  1.00  0.00     0.013 A 
ATOM     24  C   UNL A   1      29.839  29.567  22.218  1.00  0.00     0.124 A 
ATOM     25  C   UNL A   1      27.683  28.204  23.205  1.00  0.00     0.001 A 
ATOM     26  C   UNL A   1      28.491  30.023  22.016  1.00  0.00     0.047 A 
ATOM     27  C   UNL A   1      27.416  29.378  22.566  1.00  0.00     0.004 A 
BRANCH  24  28
ATOM     28  O   UNL A   1      30.555  30.152  21.170  1.00  0.00    -0.507 OA
ATOM     29  H   UNL A   1      31.428  29.868  20.982  1.00  0.00     0.293 HD
ENDBRANCH  24  28
ENDBRANCH  21  22
ENDBRANCH  18  20
ENDBRANCH  13  16
ENDBRANCH   7  12
ENDBRANCH   3   6
ENDBRANCH   1   2
BRANCH   1  30
ATOM     30  C   UNL A   1      36.733  20.343  24.987  1.00  0.00     0.023 C 
BRANCH  30  31
ATOM     31  C   UNL A   1      37.800  21.434  24.962  1.00  0.00     0.023 C 
BRANCH  31  32
ATOM     32  C   UNL A   1      38.920  21.265  25.983  1.00  0.00     0.116 C 
BRANCH  32  33
ATOM     33  N   UNL A   1      39.727  20.068  25.793  1.00  0.00    -0.352 N 
ATOM     34  C   UNL A   1      41.077  19.931  26.030  1.00  0.00     0.251 C 
ATOM     35  H   UNL A   1      39.257  19.270  25.459  1.00  0.00     0.163 HD
ATOM     36  O   UNL A   1      41.681  18.900  25.760  1.00  0.00    -0.269 OA
BRANCH  34  37
ATOM     37  C   UNL A   1      41.799  21.093  26.580  1.00  0.00     0.039 A 
ATOM     38  C   UNL A   1      42.280  22.068  25.704  1.00  0.00     0.014 A 
ATOM     39  C   UNL A   1      41.874  21.268  27.964  1.00  0.00     0.014 A 
ATOM     40  C   UNL A   1      42.760  23.272  26.219  1.00  0.00     0.010 A 
ATOM     41  C   UNL A   1      42.296  22.491  28.471  1.00  0.00     0.010 A 
ATOM     42  C   UNL A   1      42.724  23.509  27.603  1.00  0.00    -0.014 A 
BRANCH  42  43
ATOM     43  C   UNL A   1      43.102  24.821  28.178  1.00  0.00     0.031 A 
ATOM     44  C   UNL A   1      42.044  25.851  28.440  1.00  0.00     0.074 A 
ATOM     45  C   UNL A   1      44.403  25.123  28.354  1.00  0.00     0.049 A 
ATOM     46  N   UNL A   1      42.181  27.105  28.788  1.00  0.00    -0.248 NA
ATOM     47  C   UNL A   1      40.648  25.423  28.253  1.00  0.00     0.031 C 
ATOM     48  C   UNL A   1      45.530  24.223  28.095  1.00  0.00     0.029 A 
ATOM     49  N   UNL A   1      44.998  26.288  28.771  1.00  0.00    -0.354 N 
ATOM     50  C   UNL A   1      40.894  27.624  28.824  1.00  0.00     0.074 A 
ATOM     51  C   UNL A   1      39.994  26.560  28.436  1.00  0.00     0.031 C 
ATOM     52  C   UNL A   1      46.677  24.865  28.371  1.00  0.00     0.029 A 
ATOM     53  C   UNL A   1      46.370  26.230  28.785  1.00  0.00     0.049 A 
ATOM     54  H   UNL A   1      44.489  27.088  29.035  1.00  0.00     0.167 HD
ATOM     55  C   UNL A   1      40.496  28.874  29.159  1.00  0.00     0.031 A 
ATOM     56  C   UNL A   1      47.279  27.175  29.085  1.00  0.00     0.031 A 
ATOM     57  C   UNL A   1      41.387  29.923  29.572  1.00  0.00     0.049 A 
ATOM     58  C   UNL A   1      46.813  28.548  29.478  1.00  0.00     0.074 A 
ATOM     59  C   UNL A   1      41.076  31.203  29.994  1.00  0.00     0.029 A 
ATOM     60  N   UNL A   1      42.768  29.807  29.620  1.00  0.00    -0.354 N 
ATOM     61  N   UNL A   1      45.589  29.010  29.558  1.00  0.00    -0.248 NA
ATOM     62  C   UNL A   1      47.852  29.526  29.830  1.00  0.00     0.031 C 
ATOM     63  C   UNL A   1      42.272  31.874  30.271  1.00  0.00     0.029 A 
ATOM     64  C   UNL A   1      43.324  30.998  30.055  1.00  0.00     0.049 A 
ATOM     65  H   UNL A   1      43.277  29.000  29.379  1.00  0.00     0.167 HD
ATOM     66  C   UNL A   1      45.709  30.323  29.994  1.00  0.00     0.074 A 
ATOM     67  C   UNL A   1      47.123  30.582  30.166  1.00  0.00     0.031 C 
ATOM     68  C   UNL A   1      44.733  31.231  30.231  1.00  0.00     0.031 A 
BRANCH  55  69
ATOM     69  C   UNL A   1      39.027  29.170  29.079  1.00  0.00    -0.014 A 
ATOM     70  C   UNL A   1      38.434  29.593  27.880  1.00  0.00     0.009 A 
ATOM     71  C   UNL A   1      38.222  29.008  30.218  1.00  0.00     0.009 A 
ATOM     72  C   UNL A   1      37.071  29.887  27.832  1.00  0.00     0.001 A 
ATOM     73  C   UNL A   1      36.853  29.278  30.160  1.00  0.00     0.001 A 
ATOM     74  C   UNL A   1      36.282  29.726  28.970  1.00  0.00     0.000 A 
ENDBRANCH  55  69
BRANCH  56  75
ATOM     75  C   UNL A   1      48.728  26.852  29.038  1.00  0.00    -0.014 A 
ATOM     76  C   UNL A   1      49.358  26.268  30.147  1.00  0.00     0.009 A 
ATOM     77  C   UNL A   1      49.485  27.120  27.887  1.00  0.00     0.009 A 
ATOM     78  C   UNL A   1      50.723  25.975  30.112  1.00  0.00     0.001 A 
ATOM     79  C   UNL A   1      50.846  26.807  27.847  1.00  0.00     0.001 A 
ATOM     80  C   UNL A   1      51.465  26.241  28.962  1.00  0.00     0.000 A 
ENDBRANCH  56  75
BRANCH  68  81
ATOM     81  C   UNL A   1      45.156  32.576  30.743  1.00  0.00    -0.014 A 
ATOM     82  C   UNL A   1      45.312  32.813  32.117  1.00  0.00     0.009 A 
ATOM     83  C   UNL A   1      45.456  33.601  29.832  1.00  0.00     0.009 A 
ATOM     84  C   UNL A   1      45.745  34.060  32.569  1.00  0.00     0.001 A 
ATOM     85  C   UNL A   1      45.907  34.840  30.287  1.00  0.00     0.001 A 
ATOM     86  C   UNL A   1      46.046  35.070  31.656  1.00  0.00     0.000 A 
ENDBRANCH  68  81
ENDBRANCH  42  43
ENDBRANCH  34  37
ENDBRANCH  32  33
ENDBRANCH  31  32
ENDBRANCH  30  31
ENDBRANCH   1  30
TORSDOF 16
ENDMDL
MODEL 3
REMARK VINA RESULT:     -12.9      3.289      8.379
REMARK SMILES O=C(N/N=C/c1ccccc1O)C(=O)Nc1cccc(C(=O)NCCCCNC(=O)c2ccc(-c3c4nc(c(-c5ccccc5)c5ccc([nH]5)c(-c5ccccc5)c5nc(c(-c6ccccc6)c6ccc3[nH]6)C=C5)C=C4)cc2)c1
REMARK SMILES IDX 24 1 23 2 21 3 22 4 20 6 16 7 17 8 79 9 18 10 19 11 15 12
REMARK SMILES IDX 13 13 14 14 2 16 1 17 3 18 4 20 5 21 6 22 7 23 11 24 8 25
REMARK SMILES IDX 10 26 9 27 12 28 25 30 26 31 27 32 28 33 29 34 30 36 31 37
REMARK SMILES IDX 32 38 78 39 33 40 77 41 34 42 35 43 36 44 71 45 37 46 76 47
REMARK SMILES IDX 70 48 72 49 38 50 75 51 69 52 68 53 39 55 61 56 46 57 60 58
REMARK SMILES IDX 47 59 50 60 59 61 73 62 48 63 49 64 58 66 74 67 51 68 40 69
REMARK SMILES IDX 41 70 45 71 42 72 44 73 43 74 62 75 63 76 67 77 64 78 66 79
REMARK SMILES IDX 65 80 52 81 53 82 57 83 54 84 56 85 55 86
REMARK H PARENT 23 5 15 15 3 19 12 29 28 35 72 54 50 65
REMARK Flexibility Score: inf
ROOT
ATOM      1  C   UNL A   1      35.060  29.518  27.656  1.00  0.00     0.116 C 
ENDROOT
BRANCH   1   2
ATOM      2  N   UNL A   1      33.660  29.180  27.827  1.00  0.00    -0.352 N 
ATOM      3  C   UNL A   1      32.862  28.313  27.126  1.00  0.00     0.251 C 
ATOM      4  O   UNL A   1      31.739  28.039  27.558  1.00  0.00    -0.269 OA
ATOM      5  H   UNL A   1      33.210  29.647  28.568  1.00  0.00     0.163 HD
BRANCH   3   6
ATOM      6  C   UNL A   1      33.249  27.697  25.829  1.00  0.00     0.041 A 
ATOM      7  C   UNL A   1      33.880  25.236  23.956  1.00  0.00     0.042 A 
ATOM      8  C   UNL A   1      33.652  26.281  22.467  1.00  0.00     0.026 A 
ATOM      9  C   UNL A   1      33.770  25.950  25.624  1.00  0.00     0.040 A 
ATOM     10  C   UNL A   1      33.315  28.067  22.683  1.00  0.00     0.003 A 
ATOM     11  C   UNL A   1      33.069  28.750  24.346  1.00  0.00     0.014 A 
BRANCH   7  12
ATOM     12  N   UNL A   1      33.501  23.905  23.781  1.00  0.00    -0.318 N 
ATOM     13  C   UNL A   1      32.221  23.393  23.963  1.00  0.00     0.315 C 
ATOM     14  O   UNL A   1      32.010  22.242  23.572  1.00  0.00    -0.263 OA
ATOM     15  H   UNL A   1      34.203  23.272  23.506  1.00  0.00     0.170 HD
BRANCH  13  16
ATOM     16  C   UNL A   1      31.021  24.172  24.559  1.00  0.00     0.329 C 
ATOM     17  O   UNL A   1      30.869  24.186  25.780  1.00  0.00    -0.262 OA
ATOM     18  N   UNL A   1      30.039  24.724  23.726  1.00  0.00    -0.239 N 
ATOM     19  H   UNL A   1      29.156  24.304  23.602  1.00  0.00     0.194 HD
BRANCH  18  20
ATOM     20  N   UNL A   1      30.394  25.896  23.093  1.00  0.00    -0.180 NA
ATOM     21  C   UNL A   1      29.919  27.041  23.688  1.00  0.00     0.145 C 
BRANCH  21  22
ATOM     22  C   UNL A   1      29.111  28.917  23.084  1.00  0.00     0.036 A 
ATOM     23  C   UNL A   1      27.732  29.496  23.411  1.00  0.00     0.013 A 
ATOM     24  C   UNL A   1      29.650  30.120  22.305  1.00  0.00     0.124 A 
ATOM     25  C   UNL A   1      27.231  30.830  23.367  1.00  0.00     0.001 A 
ATOM     26  C   UNL A   1      29.183  31.479  22.296  1.00  0.00     0.047 A 
ATOM     27  C   UNL A   1      28.002  31.846  22.887  1.00  0.00     0.004 A 
BRANCH  24  28
ATOM     28  O   UNL A   1      30.569  30.072  21.254  1.00  0.00    -0.507 OA
ATOM     29  H   UNL A   1      31.041  29.281  21.080  1.00  0.00     0.293 HD
ENDBRANCH  24  28
ENDBRANCH  21  22
ENDBRANCH  18  20
ENDBRANCH  13  16
ENDBRANCH   7  12
ENDBRANCH   3   6
ENDBRANCH   1   2
BRANCH   1  30
ATOM     30  C   UNL A   1      35.364  30.959  28.055  1.00  0.00     0.023 C 
BRANCH  30  31
ATOM     31  C   UNL A   1      34.166  31.902  27.983  1.00  0.00     0.023 C 
BRANCH  31  32
ATOM     32  C   UNL A   1      34.508  33.387  28.046  1.00  0.00     0.116 C 
BRANCH  32  33
ATOM     33  N   UNL A   1      33.682  34.152  28.969  1.00  0.00    -0.352 N 
ATOM     34  C   UNL A   1      33.869  34.297  30.326  1.00  0.00     0.251 C 
ATOM     35  H   UNL A   1      32.906  34.618  28.581  1.00  0.00     0.163 HD
ATOM     36  O   UNL A   1      33.068  34.899  31.030  1.00  0.00    -0.269 OA
BRANCH  34  37
ATOM     37  C   UNL A   1      35.052  33.656  30.928  1.00  0.00     0.039 A 
ATOM     38  C   UNL A   1      34.879  32.506  31.701  1.00  0.00     0.014 A 
ATOM     39  C   UNL A   1      36.329  34.125  30.611  1.00  0.00     0.014 A 
ATOM     40  C   UNL A   1      35.998  31.767  32.085  1.00  0.00     0.010 A 
ATOM     41  C   UNL A   1      37.437  33.355  30.943  1.00  0.00     0.010 A 
ATOM     42  C   UNL A   1      37.279  32.161  31.665  1.00  0.00    -0.014 A 
BRANCH  42  43
ATOM     43  C   UNL A   1      38.477  31.334  31.941  1.00  0.00     0.031 A 
ATOM     44  C   UNL A   1      39.368  31.678  33.098  1.00  0.00     0.074 A 
ATOM     45  C   UNL A   1      38.824  30.353  31.085  1.00  0.00     0.049 A 
ATOM     46  N   UNL A   1      40.537  31.185  33.415  1.00  0.00    -0.248 NA
ATOM     47  C   UNL A   1      38.894  32.742  33.998  1.00  0.00     0.031 C 
ATOM     48  C   UNL A   1      38.064  29.949  29.899  1.00  0.00     0.029 A 
ATOM     49  N   UNL A   1      39.922  29.530  31.072  1.00  0.00    -0.354 N 
ATOM     50  C   UNL A   1      40.956  31.903  34.526  1.00  0.00     0.074 A 
ATOM     51  C   UNL A   1      39.931  32.883  34.812  1.00  0.00     0.031 C 
ATOM     52  C   UNL A   1      38.714  28.949  29.282  1.00  0.00     0.029 A 
ATOM     53  C   UNL A   1      39.951  28.669  30.002  1.00  0.00     0.049 A 
ATOM     54  H   UNL A   1      40.622  29.554  31.764  1.00  0.00     0.167 HD
ATOM     55  C   UNL A   1      42.091  31.754  35.251  1.00  0.00     0.031 A 
ATOM     56  C   UNL A   1      40.878  27.765  29.636  1.00  0.00     0.031 A 
ATOM     57  C   UNL A   1      43.095  30.763  34.984  1.00  0.00     0.049 A 
ATOM     58  C   UNL A   1      42.117  27.599  30.470  1.00  0.00     0.074 A 
ATOM     59  C   UNL A   1      44.248  30.488  35.699  1.00  0.00     0.029 A 
ATOM     60  N   UNL A   1      43.062  29.876  33.919  1.00  0.00    -0.354 N 
ATOM     61  N   UNL A   1      42.475  28.251  31.549  1.00  0.00    -0.248 NA
ATOM     62  C   UNL A   1      43.074  26.571  30.039  1.00  0.00     0.031 C 
ATOM     63  C   UNL A   1      44.928  29.453  35.049  1.00  0.00     0.029 A 
ATOM     64  C   UNL A   1      44.180  29.061  33.951  1.00  0.00     0.049 A 
ATOM     65  H   UNL A   1      42.351  29.833  33.240  1.00  0.00     0.167 HD
ATOM     66  C   UNL A   1      43.685  27.694  31.943  1.00  0.00     0.074 A 
ATOM     67  C   UNL A   1      43.996  26.649  30.990  1.00  0.00     0.031 C 
ATOM     68  C   UNL A   1      44.466  28.019  33.000  1.00  0.00     0.031 A 
BRANCH  55  69
ATOM     69  C   UNL A   1      42.300  32.700  36.396  1.00  0.00    -0.014 A 
ATOM     70  C   UNL A   1      41.727  32.456  37.654  1.00  0.00     0.009 A 
ATOM     71  C   UNL A   1      43.094  33.844  36.219  1.00  0.00     0.009 A 
ATOM     72  C   UNL A   1      41.912  33.360  38.701  1.00  0.00     0.001 A 
ATOM     73  C   UNL A   1      43.299  34.733  37.275  1.00  0.00     0.001 A 
ATOM     74  C   UNL A   1      42.700  34.495  38.511  1.00  0.00     0.000 A 
ENDBRANCH  55  69
BRANCH  56  75
ATOM     75  C   UNL A   1      40.664  26.933  28.425  1.00  0.00    -0.014 A 
ATOM     76  C   UNL A   1      41.217  27.320  27.195  1.00  0.00     0.009 A 
ATOM     77  C   UNL A   1      39.913  25.750  28.493  1.00  0.00     0.009 A 
ATOM     78  C   UNL A   1      41.005  26.547  26.051  1.00  0.00     0.001 A 
ATOM     79  C   UNL A   1      39.721  24.968  27.351  1.00  0.00     0.001 A 
ATOM     80  C   UNL A   1      40.262  25.370  26.130  1.00  0.00     0.000 A 
ENDBRANCH  56  75
BRANCH  68  81
ATOM     81  C   UNL A   1      45.712  27.210  33.209  1.00  0.00    -0.014 A 
ATOM     82  C   UNL A   1      45.699  26.049  33.996  1.00  0.00     0.009 A 
ATOM     83  C   UNL A   1      46.898  27.587  32.561  1.00  0.00     0.009 A 
ATOM     84  C   UNL A   1      46.861  25.289  34.144  1.00  0.00     0.001 A 
ATOM     85  C   UNL A   1      48.051  26.815  32.696  1.00  0.00     0.001 A 
ATOM     86  C   UNL A   1      48.033  25.669  33.491  1.00  0.00     0.000 A 
ENDBRANCH  68  81
ENDBRANCH  42  43
ENDBRANCH  34  37
ENDBRANCH  32  33
ENDBRANCH  31  32
ENDBRANCH  30  31
ENDBRANCH   1  30
TORSDOF 16
ENDMDL
