MODEL 1
REMARK VINA RESULT:     -14.7      0.000      0.000
REMARK SMILES C[C@]12C(=O)N(c3ccc(C(=O)NCCCCNC(=O)c4ccc(-c5c6nc(c(-c7ccccc7)c7ccc([nH]7)c(-c7ccccc7)c7nc(c(-c8ccccc8)c8ccc5[nH]8)C=C7)C=C6)cc4)cc3)C(=O)[C@H]1[C@H]1c3ccccc3[C@@H]2c2ccccc21
REMARK SMILES IDX 15 1 14 2 13 3 12 4 10 5 11 6 9 8 6 9 7 10 69 11 8 12 68 13
REMARK SMILES IDX 5 14 1 15 2 16 3 17 72 18 80 19 4 20 70 21 73 22 79 23 81 24
REMARK SMILES IDX 71 25 74 26 86 27 78 28 82 29 75 30 85 31 77 32 83 33 76 34
REMARK SMILES IDX 84 35 16 36 17 37 18 38 19 40 20 41 21 42 67 43 22 44 66 45
REMARK SMILES IDX 23 46 24 47 25 48 60 49 26 50 65 51 59 52 61 53 27 54 64 55
REMARK SMILES IDX 58 56 57 57 28 59 50 60 35 61 49 62 36 63 39 64 48 65 62 66
REMARK SMILES IDX 37 67 38 68 47 70 63 71 40 72 29 73 30 74 34 75 31 76 33 77
REMARK SMILES IDX 32 78 51 79 52 80 56 81 53 82 55 83 54 84 41 85 42 86 46 87
REMARK SMILES IDX 43 88 45 89 44 90
REMARK H PARENT 12 7 17 39 61 58 39 69
REMARK Flexibility Score: inf
ROOT
ATOM      1  C   UNL A   1      35.975  19.968  24.999  1.00  0.00     0.023 C 
ENDROOT
BRANCH   1   2
ATOM      2  C   UNL A   1      35.966  18.516  24.545  1.00  0.00     0.023 C 
BRANCH   2   3
ATOM      3  C   UNL A   1      34.685  17.746  24.828  1.00  0.00     0.116 C 
BRANCH   3   4
ATOM      4  N   UNL A   1      33.931  17.418  23.632  1.00  0.00    -0.352 N 
ATOM      5  C   UNL A   1      32.937  18.120  22.998  1.00  0.00     0.251 C 
ATOM      6  O   UNL A   1      32.366  17.622  22.031  1.00  0.00    -0.269 OA
ATOM      7  H   UNL A   1      34.169  16.560  23.211  1.00  0.00     0.163 HD
BRANCH   5   8
ATOM      8  C   UNL A   1      32.519  19.452  23.489  1.00  0.00     0.039 A 
ATOM      9  C   UNL A   1      31.742  21.964  24.522  1.00  0.00     0.052 A 
ATOM     10  C   UNL A   1      31.951  20.862  25.369  1.00  0.00     0.027 A 
ATOM     11  C   UNL A   1      31.927  21.779  23.144  1.00  0.00     0.027 A 
ATOM     12  C   UNL A   1      32.343  19.619  24.861  1.00  0.00     0.016 A 
ATOM     13  C   UNL A   1      32.259  20.522  22.630  1.00  0.00     0.016 A 
BRANCH   9  14
ATOM     14  N   UNL A   1      31.131  23.156  24.990  1.00  0.00    -0.250 N 
ATOM     15  C   UNL A   1      29.663  26.145  25.176  1.00  0.00     0.024 C 
ATOM     16  C   UNL A   1      31.026  25.449  24.995  1.00  0.00     0.071 C 
ATOM     17  C   UNL A   1      30.789  24.201  24.189  1.00  0.00     0.241 C 
ATOM     18  C   UNL A   1      31.589  24.993  26.420  1.00  0.00     0.107 C 
ATOM     19  C   UNL A   1      32.065  26.294  24.182  1.00  0.00     0.066 C 
ATOM     20  O   UNL A   1      30.361  24.204  23.048  1.00  0.00    -0.273 OA
ATOM     21  C   UNL A   1      31.045  23.556  26.304  1.00  0.00     0.238 C 
ATOM     22  C   UNL A   1      32.897  25.881  26.637  1.00  0.00     0.063 C 
ATOM     23  C   UNL A   1      33.399  25.536  24.243  1.00  0.00    -0.036 A 
ATOM     24  C   UNL A   1      32.243  27.576  24.975  1.00  0.00    -0.036 A 
ATOM     25  O   UNL A   1      30.658  22.891  27.258  1.00  0.00    -0.274 OA
ATOM     26  C   UNL A   1      33.887  25.363  25.563  1.00  0.00    -0.036 A 
ATOM     27  C   UNL A   1      32.640  27.350  26.314  1.00  0.00    -0.036 A 
ATOM     28  C   UNL A   1      34.040  24.924  23.175  1.00  0.00     0.005 A 
ATOM     29  C   UNL A   1      32.079  28.861  24.477  1.00  0.00     0.005 A 
ATOM     30  C   UNL A   1      35.013  24.589  25.817  1.00  0.00     0.004 A 
ATOM     31  C   UNL A   1      32.879  28.425  27.158  1.00  0.00     0.004 A 
ATOM     32  C   UNL A   1      35.168  24.139  23.433  1.00  0.00     0.000 A 
ATOM     33  C   UNL A   1      32.318  29.937  25.328  1.00  0.00     0.000 A 
ATOM     34  C   UNL A   1      35.652  23.976  24.740  1.00  0.00     0.000 A 
ATOM     35  C   UNL A   1      32.712  29.721  26.658  1.00  0.00     0.000 A 
ENDBRANCH   9  14
ENDBRANCH   5   8
ENDBRANCH   3   4
ENDBRANCH   2   3
ENDBRANCH   1   2
BRANCH   1  36
ATOM     36  C   UNL A   1      37.334  20.653  25.003  1.00  0.00     0.116 C 
BRANCH  36  37
ATOM     37  N   UNL A   1      38.462  19.748  25.196  1.00  0.00    -0.352 N 
ATOM     38  C   UNL A   1      39.677  19.973  25.801  1.00  0.00     0.251 C 
ATOM     39  H   UNL A   1      38.333  18.839  24.840  1.00  0.00     0.163 HD
ATOM     40  O   UNL A   1      40.528  19.090  25.833  1.00  0.00    -0.269 OA
BRANCH  38  41
ATOM     41  C   UNL A   1      39.975  21.309  26.352  1.00  0.00     0.039 A 
ATOM     42  C   UNL A   1      39.242  22.424  25.945  1.00  0.00     0.014 A 
ATOM     43  C   UNL A   1      41.066  21.456  27.213  1.00  0.00     0.014 A 
ATOM     44  C   UNL A   1      39.735  23.694  26.211  1.00  0.00     0.010 A 
ATOM     45  C   UNL A   1      41.498  22.736  27.566  1.00  0.00     0.010 A 
ATOM     46  C   UNL A   1      40.881  23.865  27.007  1.00  0.00    -0.014 A 
BRANCH  46  47
ATOM     47  C   UNL A   1      41.426  25.232  27.211  1.00  0.00     0.031 A 
ATOM     48  C   UNL A   1      40.736  26.211  28.125  1.00  0.00     0.074 A 
ATOM     49  C   UNL A   1      42.591  25.565  26.627  1.00  0.00     0.049 A 
ATOM     50  N   UNL A   1      41.104  27.424  28.455  1.00  0.00    -0.248 NA
ATOM     51  C   UNL A   1      39.473  25.781  28.748  1.00  0.00     0.031 C 
ATOM     52  C   UNL A   1      43.365  24.697  25.738  1.00  0.00     0.029 A 
ATOM     53  N   UNL A   1      43.348  26.705  26.722  1.00  0.00    -0.354 N 
ATOM     54  C   UNL A   1      40.109  27.908  29.296  1.00  0.00     0.074 A 
ATOM     55  C   UNL A   1      39.110  26.870  29.411  1.00  0.00     0.031 C 
ATOM     56  C   UNL A   1      44.518  25.305  25.427  1.00  0.00     0.029 A 
ATOM     57  C   UNL A   1      44.534  26.632  26.035  1.00  0.00     0.049 A 
ATOM     58  H   UNL A   1      43.069  27.498  27.234  1.00  0.00     0.167 HD
ATOM     59  C   UNL A   1      40.040  29.108  29.923  1.00  0.00     0.031 A 
ATOM     60  C   UNL A   1      45.526  27.530  25.895  1.00  0.00     0.031 A 
ATOM     61  C   UNL A   1      41.046  30.131  29.828  1.00  0.00     0.049 A 
ATOM     62  C   UNL A   1      45.411  28.863  26.572  1.00  0.00     0.074 A 
ATOM     63  C   UNL A   1      41.077  31.364  30.457  1.00  0.00     0.029 A 
ATOM     64  N   UNL A   1      42.195  30.043  29.059  1.00  0.00    -0.354 N 
ATOM     65  N   UNL A   1      44.466  29.301  27.367  1.00  0.00    -0.248 NA
ATOM     66  C   UNL A   1      46.492  29.829  26.328  1.00  0.00     0.031 C 
ATOM     67  C   UNL A   1      42.218  32.045  30.025  1.00  0.00     0.029 A 
ATOM     68  C   UNL A   1      42.928  31.213  29.174  1.00  0.00     0.049 A 
ATOM     69  H   UNL A   1      42.453  29.266  28.513  1.00  0.00     0.167 HD
ATOM     70  C   UNL A   1      44.837  30.591  27.721  1.00  0.00     0.074 A 
ATOM     71  C   UNL A   1      46.105  30.856  27.073  1.00  0.00     0.031 C 
ATOM     72  C   UNL A   1      44.180  31.473  28.511  1.00  0.00     0.031 A 
BRANCH  59  73
ATOM     73  C   UNL A   1      38.823  29.398  30.759  1.00  0.00    -0.014 A 
ATOM     74  C   UNL A   1      37.721  30.045  30.176  1.00  0.00     0.009 A 
ATOM     75  C   UNL A   1      38.794  29.113  32.132  1.00  0.00     0.009 A 
ATOM     76  C   UNL A   1      36.618  30.406  30.952  1.00  0.00     0.001 A 
ATOM     77  C   UNL A   1      37.678  29.453  32.900  1.00  0.00     0.001 A 
ATOM     78  C   UNL A   1      36.595  30.106  32.312  1.00  0.00     0.000 A 
ENDBRANCH  59  73
BRANCH  60  79
ATOM     79  C   UNL A   1      46.712  27.170  25.077  1.00  0.00    -0.014 A 
ATOM     80  C   UNL A   1      47.715  26.340  25.605  1.00  0.00     0.009 A 
ATOM     81  C   UNL A   1      46.889  27.722  23.800  1.00  0.00     0.009 A 
ATOM     82  C   UNL A   1      48.887  26.099  24.888  1.00  0.00     0.001 A 
ATOM     83  C   UNL A   1      48.051  27.455  23.072  1.00  0.00     0.001 A 
ATOM     84  C   UNL A   1      49.053  26.655  23.621  1.00  0.00     0.000 A 
ENDBRANCH  60  79
BRANCH  72  85
ATOM     85  C   UNL A   1      44.808  32.821  28.724  1.00  0.00    -0.014 A 
ATOM     86  C   UNL A   1      45.654  33.032  29.825  1.00  0.00     0.009 A 
ATOM     87  C   UNL A   1      44.485  33.904  27.893  1.00  0.00     0.009 A 
ATOM     88  C   UNL A   1      46.153  34.305  30.099  1.00  0.00     0.001 A 
ATOM     89  C   UNL A   1      45.009  35.172  28.156  1.00  0.00     0.001 A 
ATOM     90  C   UNL A   1      45.834  35.373  29.263  1.00  0.00     0.000 A 
ENDBRANCH  72  85
ENDBRANCH  46  47
ENDBRANCH  38  41
ENDBRANCH  36  37
ENDBRANCH   1  36
TORSDOF 12
ENDMDL
MODEL 2
REMARK VINA RESULT:     -14.6      2.369      7.882
REMARK SMILES C[C@]12C(=O)N(c3ccc(C(=O)NCCCCNC(=O)c4ccc(-c5c6nc(c(-c7ccccc7)c7ccc([nH]7)c(-c7ccccc7)c7nc(c(-c8ccccc8)c8ccc5[nH]8)C=C7)C=C6)cc4)cc3)C(=O)[C@H]1[C@H]1c3ccccc3[C@@H]2c2ccccc21
REMARK SMILES IDX 15 1 14 2 13 3 12 4 10 5 11 6 9 8 6 9 7 10 69 11 8 12 68 13
REMARK SMILES IDX 5 14 1 15 2 16 3 17 72 18 80 19 4 20 70 21 73 22 79 23 81 24
REMARK SMILES IDX 71 25 74 26 86 27 78 28 82 29 75 30 85 31 77 32 83 33 76 34
REMARK SMILES IDX 84 35 16 36 17 37 18 38 19 40 20 41 21 42 67 43 22 44 66 45
REMARK SMILES IDX 23 46 24 47 25 48 60 49 26 50 65 51 59 52 61 53 27 54 64 55
REMARK SMILES IDX 58 56 57 57 28 59 50 60 35 61 49 62 36 63 39 64 48 65 62 66
REMARK SMILES IDX 37 67 38 68 47 70 63 71 40 72 29 73 30 74 34 75 31 76 33 77
REMARK SMILES IDX 32 78 51 79 52 80 56 81 53 82 55 83 54 84 41 85 42 86 46 87
REMARK SMILES IDX 43 88 45 89 44 90
REMARK H PARENT 12 7 17 39 61 58 39 69
REMARK Flexibility Score: inf
ROOT
ATOM      1  C   UNL A   1      32.875  29.933  27.250  1.00  0.00     0.023 C 
ENDROOT
BRANCH   1   2
ATOM      2  C   UNL A   1      31.962  30.841  26.440  1.00  0.00     0.023 C 
BRANCH   2   3
ATOM      3  C   UNL A   1      31.115  30.149  25.383  1.00  0.00     0.116 C 
BRANCH   3   4
ATOM      4  N   UNL A   1      31.802  29.976  24.116  1.00  0.00    -0.352 N 
ATOM      5  C   UNL A   1      32.464  28.882  23.616  1.00  0.00     0.251 C 
ATOM      6  O   UNL A   1      33.053  28.969  22.542  1.00  0.00    -0.269 OA
ATOM      7  H   UNL A   1      31.791  30.763  23.524  1.00  0.00     0.163 HD
BRANCH   5   8
ATOM      8  C   UNL A   1      32.510  27.613  24.375  1.00  0.00     0.039 A 
ATOM      9  C   UNL A   1      32.678  25.223  25.873  1.00  0.00     0.052 A 
ATOM     10  C   UNL A   1      33.727  26.159  25.875  1.00  0.00     0.027 A 
ATOM     11  C   UNL A   1      31.544  25.509  25.101  1.00  0.00     0.027 A 
ATOM     12  C   UNL A   1      33.643  27.346  25.140  1.00  0.00     0.016 A 
ATOM     13  C   UNL A   1      31.484  26.666  24.318  1.00  0.00     0.016 A 
BRANCH   9  14
ATOM     14  N   UNL A   1      32.839  23.926  26.424  1.00  0.00    -0.250 N 
ATOM     15  C   UNL A   1      34.120  21.078  27.596  1.00  0.00     0.024 C 
ATOM     16  C   UNL A   1      33.766  21.830  26.298  1.00  0.00     0.071 C 
ATOM     17  C   UNL A   1      34.036  23.290  26.538  1.00  0.00     0.241 C 
ATOM     18  C   UNL A   1      32.203  21.680  26.000  1.00  0.00     0.107 C 
ATOM     19  C   UNL A   1      34.652  21.425  25.071  1.00  0.00     0.066 C 
ATOM     20  O   UNL A   1      35.140  23.742  26.789  1.00  0.00    -0.273 OA
ATOM     21  C   UNL A   1      31.830  23.020  26.662  1.00  0.00     0.238 C 
ATOM     22  C   UNL A   1      32.132  20.822  24.656  1.00  0.00     0.063 C 
ATOM     23  C   UNL A   1      34.061  22.133  23.843  1.00  0.00    -0.036 A 
ATOM     24  C   UNL A   1      34.418  19.937  24.884  1.00  0.00    -0.036 A 
ATOM     25  O   UNL A   1      30.774  23.224  27.250  1.00  0.00    -0.274 OA
ATOM     26  C   UNL A   1      32.718  21.766  23.575  1.00  0.00    -0.036 A 
ATOM     27  C   UNL A   1      33.053  19.607  24.714  1.00  0.00    -0.036 A 
ATOM     28  C   UNL A   1      34.666  23.148  23.116  1.00  0.00     0.005 A 
ATOM     29  C   UNL A   1      35.407  18.965  24.843  1.00  0.00     0.005 A 
ATOM     30  C   UNL A   1      31.982  22.403  22.583  1.00  0.00     0.004 A 
ATOM     31  C   UNL A   1      32.680  18.289  24.496  1.00  0.00     0.004 A 
ATOM     32  C   UNL A   1      33.922  23.794  22.123  1.00  0.00     0.000 A 
ATOM     33  C   UNL A   1      35.027  17.643  24.626  1.00  0.00     0.000 A 
ATOM     34  C   UNL A   1      32.596  23.423  21.856  1.00  0.00     0.000 A 
ATOM     35  C   UNL A   1      33.675  17.307  24.456  1.00  0.00     0.000 A 
ENDBRANCH   9  14
ENDBRANCH   5   8
ENDBRANCH   3   4
ENDBRANCH   2   3
ENDBRANCH   1   2
BRANCH   1  36
ATOM     36  C   UNL A   1      34.284  30.457  27.493  1.00  0.00     0.116 C 
BRANCH  36  37
ATOM     37  N   UNL A   1      34.450  31.167  28.757  1.00  0.00    -0.352 N 
ATOM     38  C   UNL A   1      35.500  31.148  29.645  1.00  0.00     0.251 C 
ATOM     39  H   UNL A   1      33.696  31.748  29.011  1.00  0.00     0.163 HD
ATOM     40  O   UNL A   1      35.442  31.789  30.689  1.00  0.00    -0.269 OA
BRANCH  38  41
ATOM     41  C   UNL A   1      36.671  30.294  29.364  1.00  0.00     0.039 A 
ATOM     42  C   UNL A   1      37.266  29.549  30.382  1.00  0.00     0.014 A 
ATOM     43  C   UNL A   1      37.232  30.319  28.085  1.00  0.00     0.014 A 
ATOM     44  C   UNL A   1      38.535  29.022  30.184  1.00  0.00     0.010 A 
ATOM     45  C   UNL A   1      38.462  29.697  27.860  1.00  0.00     0.010 A 
ATOM     46  C   UNL A   1      39.158  29.109  28.927  1.00  0.00    -0.014 A 
BRANCH  46  47
ATOM     47  C   UNL A   1      40.545  28.602  28.767  1.00  0.00     0.031 A 
ATOM     48  C   UNL A   1      40.805  27.173  28.366  1.00  0.00     0.074 A 
ATOM     49  C   UNL A   1      41.574  29.456  28.911  1.00  0.00     0.049 A 
ATOM     50  N   UNL A   1      41.950  26.582  28.133  1.00  0.00    -0.248 NA
ATOM     51  C   UNL A   1      39.636  26.291  28.207  1.00  0.00     0.031 C 
ATOM     52  C   UNL A   1      41.449  30.868  29.277  1.00  0.00     0.029 A 
ATOM     53  N   UNL A   1      42.922  29.275  28.732  1.00  0.00    -0.354 N 
ATOM     54  C   UNL A   1      41.643  25.261  27.829  1.00  0.00     0.074 A 
ATOM     55  C   UNL A   1      40.207  25.128  27.928  1.00  0.00     0.031 C 
ATOM     56  C   UNL A   1      42.659  31.443  29.225  1.00  0.00     0.029 A 
ATOM     57  C   UNL A   1      43.653  30.426  28.893  1.00  0.00     0.049 A 
ATOM     58  H   UNL A   1      43.326  28.406  28.508  1.00  0.00     0.167 HD
ATOM     59  C   UNL A   1      42.483  24.252  27.491  1.00  0.00     0.031 A 
ATOM     60  C   UNL A   1      44.977  30.647  28.796  1.00  0.00     0.031 A 
ATOM     61  C   UNL A   1      43.909  24.391  27.369  1.00  0.00     0.049 A 
ATOM     62  C   UNL A   1      45.889  29.507  28.452  1.00  0.00     0.074 A 
ATOM     63  C   UNL A   1      44.835  23.433  26.996  1.00  0.00     0.029 A 
ATOM     64  N   UNL A   1      44.615  25.558  27.616  1.00  0.00    -0.354 N 
ATOM     65  N   UNL A   1      45.580  28.267  28.164  1.00  0.00    -0.248 NA
ATOM     66  C   UNL A   1      47.330  29.793  28.427  1.00  0.00     0.031 C 
ATOM     67  C   UNL A   1      46.108  24.004  27.072  1.00  0.00     0.029 A 
ATOM     68  C   UNL A   1      45.970  25.334  27.432  1.00  0.00     0.049 A 
ATOM     69  H   UNL A   1      44.214  26.417  27.881  1.00  0.00     0.167 HD
ATOM     70  C   UNL A   1      46.785  27.623  27.921  1.00  0.00     0.074 A 
ATOM     71  C   UNL A   1      47.829  28.616  28.073  1.00  0.00     0.031 C 
ATOM     72  C   UNL A   1      47.002  26.324  27.603  1.00  0.00     0.031 A 
BRANCH  59  73
ATOM     73  C   UNL A   1      41.888  22.893  27.244  1.00  0.00    -0.014 A 
ATOM     74  C   UNL A   1      41.361  22.588  25.978  1.00  0.00     0.009 A 
ATOM     75  C   UNL A   1      41.771  21.948  28.274  1.00  0.00     0.009 A 
ATOM     76  C   UNL A   1      40.722  21.367  25.751  1.00  0.00     0.001 A 
ATOM     77  C   UNL A   1      41.154  20.717  28.035  1.00  0.00     0.001 A 
ATOM     78  C   UNL A   1      40.624  20.431  26.778  1.00  0.00     0.000 A 
ENDBRANCH  59  73
BRANCH  60  79
ATOM     79  C   UNL A   1      45.496  32.019  29.027  1.00  0.00    -0.014 A 
ATOM     80  C   UNL A   1      45.518  32.956  27.981  1.00  0.00     0.009 A 
ATOM     81  C   UNL A   1      46.048  32.371  30.266  1.00  0.00     0.009 A 
ATOM     82  C   UNL A   1      46.115  34.204  28.159  1.00  0.00     0.001 A 
ATOM     83  C   UNL A   1      46.620  33.632  30.451  1.00  0.00     0.001 A 
ATOM     84  C   UNL A   1      46.665  34.542  29.394  1.00  0.00     0.000 A 
ENDBRANCH  60  79
BRANCH  72  85
ATOM     85  C   UNL A   1      48.423  25.884  27.401  1.00  0.00    -0.014 A 
ATOM     86  C   UNL A   1      49.187  25.462  28.502  1.00  0.00     0.009 A 
ATOM     87  C   UNL A   1      49.034  25.979  26.142  1.00  0.00     0.009 A 
ATOM     88  C   UNL A   1      50.540  25.157  28.348  1.00  0.00     0.001 A 
ATOM     89  C   UNL A   1      50.382  25.648  25.988  1.00  0.00     0.001 A 
ATOM     90  C   UNL A   1      51.135  25.247  27.091  1.00  0.00     0.000 A 
ENDBRANCH  72  85
ENDBRANCH  46  47
ENDBRANCH  38  41
ENDBRANCH  36  37
ENDBRANCH   1  36
TORSDOF 12
ENDMDL
MODEL 3
REMARK VINA RESULT:     -14.6      2.251      6.232
REMARK SMILES C[C@]12C(=O)N(c3ccc(C(=O)NCCCCNC(=O)c4ccc(-c5c6nc(c(-c7ccccc7)c7ccc([nH]7)c(-c7ccccc7)c7nc(c(-c8ccccc8)c8ccc5[nH]8)C=C7)C=C6)cc4)cc3)C(=O)[C@H]1[C@H]1c3ccccc3[C@@H]2c2ccccc21
REMARK SMILES IDX 15 1 14 2 13 3 12 4 10 5 11 6 9 8 6 9 7 10 69 11 8 12 68 13
REMARK SMILES IDX 5 14 1 15 2 16 3 17 72 18 80 19 4 20 70 21 73 22 79 23 81 24
REMARK SMILES IDX 71 25 74 26 86 27 78 28 82 29 75 30 85 31 77 32 83 33 76 34
REMARK SMILES IDX 84 35 16 36 17 37 18 38 19 40 20 41 21 42 67 43 22 44 66 45
REMARK SMILES IDX 23 46 24 47 25 48 60 49 26 50 65 51 59 52 61 53 27 54 64 55
REMARK SMILES IDX 58 56 57 57 28 59 50 60 35 61 49 62 36 63 39 64 48 65 62 66
REMARK SMILES IDX 37 67 38 68 47 70 63 71 40 72 29 73 30 74 34 75 31 76 33 77
REMARK SMILES IDX 32 78 51 79 52 80 56 81 53 82 55 83 54 84 41 85 42 86 46 87
REMARK SMILES IDX 43 88 45 89 44 90
REMARK H PARENT 12 7 17 39 61 58 39 69
REMARK Flexibility Score: inf
ROOT
ATOM      1  C   UNL A   1      38.141  19.998  24.595  1.00  0.00     0.023 C 
ENDROOT
BRANCH   1   2
ATOM      2  C   UNL A   1      37.037  21.028  24.787  1.00  0.00     0.023 C 
BRANCH   2   3
ATOM      3  C   UNL A   1      35.640  20.462  24.998  1.00  0.00     0.116 C 
BRANCH   3   4
ATOM      4  N   UNL A   1      35.076  20.786  26.296  1.00  0.00    -0.352 N 
ATOM      5  C   UNL A   1      34.384  21.900  26.702  1.00  0.00     0.251 C 
ATOM      6  O   UNL A   1      34.058  22.014  27.880  1.00  0.00    -0.269 OA
ATOM      7  H   UNL A   1      35.210  20.103  26.992  1.00  0.00     0.163 HD
BRANCH   5   8
ATOM      8  C   UNL A   1      34.061  22.981  25.744  1.00  0.00     0.039 A 
ATOM      9  C   UNL A   1      33.538  25.082  23.929  1.00  0.00     0.052 A 
ATOM     10  C   UNL A   1      34.688  25.088  24.738  1.00  0.00     0.027 A 
ATOM     11  C   UNL A   1      32.654  24.001  24.053  1.00  0.00     0.027 A 
ATOM     12  C   UNL A   1      34.953  24.046  25.632  1.00  0.00     0.016 A 
ATOM     13  C   UNL A   1      32.886  22.990  24.989  1.00  0.00     0.016 A 
BRANCH   9  14
ATOM     14  N   UNL A   1      33.143  26.227  23.191  1.00  0.00    -0.250 N 
ATOM     15  C   UNL A   1      32.620  29.360  22.172  1.00  0.00     0.024 C 
ATOM     16  C   UNL A   1      32.097  28.269  23.127  1.00  0.00     0.071 C 
ATOM     17  C   UNL A   1      33.290  27.505  23.632  1.00  0.00     0.241 C 
ATOM     18  C   UNL A   1      31.183  27.238  22.317  1.00  0.00     0.107 C 
ATOM     19  C   UNL A   1      31.380  28.835  24.401  1.00  0.00     0.066 C 
ATOM     20  O   UNL A   1      34.183  28.005  24.295  1.00  0.00    -0.273 OA
ATOM     21  C   UNL A   1      32.324  26.231  22.085  1.00  0.00     0.238 C 
ATOM     22  C   UNL A   1      29.720  27.439  22.923  1.00  0.00     0.063 C 
ATOM     23  C   UNL A   1      30.781  27.632  25.144  1.00  0.00    -0.036 A 
ATOM     24  C   UNL A   1      30.218  29.656  23.871  1.00  0.00    -0.036 A 
ATOM     25  O   UNL A   1      32.423  25.526  21.087  1.00  0.00    -0.274 OA
ATOM     26  C   UNL A   1      29.836  26.908  24.374  1.00  0.00    -0.036 A 
ATOM     27  C   UNL A   1      29.352  28.916  23.031  1.00  0.00    -0.036 A 
ATOM     28  C   UNL A   1      31.185  27.155  26.383  1.00  0.00     0.005 A 
ATOM     29  C   UNL A   1      29.966  30.985  24.176  1.00  0.00     0.005 A 
ATOM     30  C   UNL A   1      29.291  25.717  24.838  1.00  0.00     0.004 A 
ATOM     31  C   UNL A   1      28.222  29.518  22.497  1.00  0.00     0.004 A 
ATOM     32  C   UNL A   1      30.642  25.952  26.846  1.00  0.00     0.000 A 
ATOM     33  C   UNL A   1      28.832  31.586  23.636  1.00  0.00     0.000 A 
ATOM     34  C   UNL A   1      29.702  25.242  26.083  1.00  0.00     0.000 A 
ATOM     35  C   UNL A   1      27.968  30.859  22.801  1.00  0.00     0.000 A 
ENDBRANCH   9  14
ENDBRANCH   5   8
ENDBRANCH   3   4
ENDBRANCH   2   3
ENDBRANCH   1   2
BRANCH   1  36
ATOM     36  C   UNL A   1      38.724  19.408  25.871  1.00  0.00     0.116 C 
BRANCH  36  37
ATOM     37  N   UNL A   1      40.075  18.878  25.724  1.00  0.00    -0.352 N 
ATOM     38  C   UNL A   1      41.285  19.455  26.032  1.00  0.00     0.251 C 
ATOM     39  H   UNL A   1      40.128  17.969  25.348  1.00  0.00     0.163 HD
ATOM     40  O   UNL A   1      42.334  18.863  25.798  1.00  0.00    -0.269 OA
BRANCH  38  41
ATOM     41  C   UNL A   1      41.315  20.823  26.586  1.00  0.00     0.039 A 
ATOM     42  C   UNL A   1      41.222  21.930  25.745  1.00  0.00     0.014 A 
ATOM     43  C   UNL A   1      41.535  20.991  27.956  1.00  0.00     0.014 A 
ATOM     44  C   UNL A   1      41.576  23.183  26.229  1.00  0.00     0.010 A 
ATOM     45  C   UNL A   1      41.788  22.268  28.461  1.00  0.00     0.010 A 
ATOM     46  C   UNL A   1      41.884  23.363  27.589  1.00  0.00    -0.014 A 
BRANCH  46  47
ATOM     47  C   UNL A   1      42.330  24.698  28.061  1.00  0.00     0.031 A 
ATOM     48  C   UNL A   1      43.795  25.046  28.124  1.00  0.00     0.074 A 
ATOM     49  C   UNL A   1      41.406  25.628  28.364  1.00  0.00     0.049 A 
ATOM     50  N   UNL A   1      44.355  26.181  28.464  1.00  0.00    -0.248 NA
ATOM     51  C   UNL A   1      44.758  23.991  27.765  1.00  0.00     0.031 C 
ATOM     52  C   UNL A   1      39.958  25.419  28.321  1.00  0.00     0.029 A 
ATOM     53  N   UNL A   1      41.543  26.943  28.729  1.00  0.00    -0.354 N 
ATOM     54  C   UNL A   1      45.726  25.968  28.386  1.00  0.00     0.074 A 
ATOM     55  C   UNL A   1      45.918  24.591  27.990  1.00  0.00     0.031 C 
ATOM     56  C   UNL A   1      39.340  26.580  28.576  1.00  0.00     0.029 A 
ATOM     57  C   UNL A   1      40.345  27.597  28.870  1.00  0.00     0.049 A 
ATOM     58  H   UNL A   1      42.415  27.376  28.874  1.00  0.00     0.167 HD
ATOM     59  C   UNL A   1      46.733  26.845  28.617  1.00  0.00     0.031 A 
ATOM     60  C   UNL A   1      40.073  28.872  29.208  1.00  0.00     0.031 A 
ATOM     61  C   UNL A   1      46.541  28.221  28.988  1.00  0.00     0.049 A 
ATOM     62  C   UNL A   1      41.205  29.814  29.490  1.00  0.00     0.074 A 
ATOM     63  C   UNL A   1      47.503  29.192  29.207  1.00  0.00     0.029 A 
ATOM     64  N   UNL A   1      45.310  28.822  29.194  1.00  0.00    -0.354 N 
ATOM     65  N   UNL A   1      42.494  29.596  29.407  1.00  0.00    -0.248 NA
ATOM     66  C   UNL A   1      40.847  31.173  29.921  1.00  0.00     0.031 C 
ATOM     67  C   UNL A   1      46.856  30.366  29.601  1.00  0.00     0.029 A 
ATOM     68  C   UNL A   1      45.488  30.143  29.568  1.00  0.00     0.049 A 
ATOM     69  H   UNL A   1      44.438  28.376  29.090  1.00  0.00     0.167 HD
ATOM     70  C   UNL A   1      43.104  30.789  29.771  1.00  0.00     0.074 A 
ATOM     71  C   UNL A   1      42.043  31.733  30.054  1.00  0.00     0.031 C 
ATOM     72  C   UNL A   1      44.426  31.069  29.864  1.00  0.00     0.031 A 
BRANCH  59  73
ATOM     73  C   UNL A   1      48.146  26.343  28.495  1.00  0.00    -0.014 A 
ATOM     74  C   UNL A   1      48.784  26.367  27.244  1.00  0.00     0.009 A 
ATOM     75  C   UNL A   1      48.816  25.771  29.588  1.00  0.00     0.009 A 
ATOM     76  C   UNL A   1      50.061  25.823  27.088  1.00  0.00     0.001 A 
ATOM     77  C   UNL A   1      50.103  25.252  29.433  1.00  0.00     0.001 A 
ATOM     78  C   UNL A   1      50.721  25.270  28.183  1.00  0.00     0.000 A 
ENDBRANCH  59  73
BRANCH  60  79
ATOM     79  C   UNL A   1      38.656  29.309  29.285  1.00  0.00    -0.014 A 
ATOM     80  C   UNL A   1      38.031  29.891  28.170  1.00  0.00     0.009 A 
ATOM     81  C   UNL A   1      37.951  29.226  30.493  1.00  0.00     0.009 A 
ATOM     82  C   UNL A   1      36.741  30.414  28.272  1.00  0.00     0.001 A 
ATOM     83  C   UNL A   1      36.650  29.725  30.586  1.00  0.00     0.001 A 
ATOM     84  C   UNL A   1      36.051  30.330  29.480  1.00  0.00     0.000 A 
ENDBRANCH  60  79
BRANCH  72  85
ATOM     85  C   UNL A   1      44.816  32.454  30.295  1.00  0.00    -0.014 A 
ATOM     86  C   UNL A   1      44.986  33.464  29.334  1.00  0.00     0.009 A 
ATOM     87  C   UNL A   1      45.110  32.733  31.638  1.00  0.00     0.009 A 
ATOM     88  C   UNL A   1      45.457  34.722  29.707  1.00  0.00     0.001 A 
ATOM     89  C   UNL A   1      45.556  34.003  32.011  1.00  0.00     0.001 A 
ATOM     90  C   UNL A   1      45.738  34.993  31.045  1.00  0.00     0.000 A 
ENDBRANCH  72  85
ENDBRANCH  46  47
ENDBRANCH  38  41
ENDBRANCH  36  37
ENDBRANCH   1  36
TORSDOF 12
ENDMDL
