MODEL 1
REMARK VINA RESULT:     -10.5      0.000      0.000
REMARK SMILES [NH3+][C@]1(C(=O)NCCCCNC(=O)c2ccc(-c3c4nc(c(-c5ccccc5)c5ccc([nH]5)c(-c5ccccc5)c5nc(c(-c6ccccc6)c6ccc3[nH]6)C=C5)C=C4)cc2)CC[C@@H]([NH+]2CCC(C(F)(F)F)CC2)C1
REMARK SMILES IDX 7 1 6 2 5 3 3 4 4 5 2 7 61 8 74 9 62 10 63 11 1 12 64 16
REMARK SMILES IDX 65 17 73 18 66 20 72 21 67 22 68 23 69 24 70 25 71 26 8 27
REMARK SMILES IDX 9 28 10 29 11 30 12 32 13 33 14 34 60 35 15 36 59 37 16 38
REMARK SMILES IDX 17 39 18 40 53 41 19 42 58 43 52 44 54 45 20 46 57 47 51 48
REMARK SMILES IDX 50 49 21 51 43 52 28 53 42 54 29 55 32 56 41 57 55 58 30 59
REMARK SMILES IDX 31 60 40 62 56 63 33 64 22 65 23 66 27 67 24 68 26 69 25 70
REMARK SMILES IDX 44 71 45 72 49 73 46 74 48 75 47 76 34 77 35 78 39 79 36 80
REMARK SMILES IDX 38 81 37 82
REMARK H PARENT 5 6 1 13 1 14 1 15 64 19 10 31 54 50 32 61
REMARK Flexibility Score: inf
ROOT
ATOM      1  C   UNL A   1      35.898  21.010  25.086  1.00  0.00     0.023 C 
ENDROOT
BRANCH   1   2
ATOM      2  C   UNL A   1      34.430  20.753  25.413  1.00  0.00     0.116 C 
BRANCH   2   3
ATOM      3  N   UNL A   1      34.065  21.199  26.745  1.00  0.00    -0.351 N 
ATOM      4  C   UNL A   1      33.114  22.086  27.168  1.00  0.00     0.281 C 
ATOM      5  O   UNL A   1      32.982  22.223  28.387  1.00  0.00    -0.268 OA
ATOM      6  H   UNL A   1      34.593  20.791  27.470  1.00  0.00     0.163 HD
BRANCH   4   7
ATOM      7  C   UNL A   1      32.225  22.852  26.148  1.00  0.00     0.179 C 
ATOM      8  C   UNL A   1      31.074  23.595  26.848  1.00  0.00     0.085 C 
ATOM      9  C   UNL A   1      33.008  23.982  25.449  1.00  0.00     0.144 C 
ATOM     10  C   UNL A   1      30.735  24.738  25.900  1.00  0.00     0.072 C 
ATOM     11  C   UNL A   1      32.093  25.223  25.374  1.00  0.00     0.191 C 
BRANCH   7  12
ATOM     12  N   UNL A   1      31.615  21.901  25.188  1.00  0.00    -0.345 N 
ATOM     13  H   UNL A   1      31.294  21.072  25.689  1.00  0.00     0.345 HD
ATOM     14  H   UNL A   1      32.308  21.629  24.490  1.00  0.00     0.345 HD
ATOM     15  H   UNL A   1      30.823  22.346  24.724  1.00  0.00     0.345 HD
ENDBRANCH   7  12
BRANCH  11  16
ATOM     16  N   UNL A   1      32.609  26.448  26.029  1.00  0.00    -0.332 N 
ATOM     17  C   UNL A   1      33.768  27.067  25.381  1.00  0.00     0.263 C 
ATOM     18  C   UNL A   1      31.542  27.423  26.296  1.00  0.00     0.263 C 
ATOM     19  H   UNL A   1      32.969  26.116  26.924  1.00  0.00     0.348 HD
ATOM     20  C   UNL A   1      34.331  28.208  26.228  1.00  0.00     0.074 C 
ATOM     21  C   UNL A   1      32.043  28.578  27.164  1.00  0.00     0.074 C 
ATOM     22  C   UNL A   1      33.264  29.257  26.534  1.00  0.00     0.106 C 
BRANCH  22  23
ATOM     23  C   UNL A   1      33.815  30.343  27.437  1.00  0.00     0.392 C 
ATOM     24  F   UNL A   1      34.771  31.058  26.804  1.00  0.00    -0.171 F 
ATOM     25  F   UNL A   1      32.841  31.207  27.800  1.00  0.00    -0.171 F 
ATOM     26  F   UNL A   1      34.358  29.838  28.565  1.00  0.00    -0.171 F 
ENDBRANCH  22  23
ENDBRANCH  11  16
ENDBRANCH   4   7
ENDBRANCH   2   3
ENDBRANCH   1   2
BRANCH   1  27
ATOM     27  C   UNL A   1      36.212  22.405  24.545  1.00  0.00     0.023 C 
BRANCH  27  28
ATOM     28  C   UNL A   1      37.259  23.196  25.323  1.00  0.00     0.116 C 
BRANCH  28  29
ATOM     29  N   UNL A   1      38.485  22.450  25.569  1.00  0.00    -0.352 N 
ATOM     30  C   UNL A   1      39.643  22.857  26.186  1.00  0.00     0.251 C 
ATOM     31  H   UNL A   1      38.484  21.520  25.246  1.00  0.00     0.163 HD
ATOM     32  O   UNL A   1      40.620  22.116  26.219  1.00  0.00    -0.269 OA
BRANCH  30  33
ATOM     33  C   UNL A   1      39.723  24.211  26.775  1.00  0.00     0.039 A 
ATOM     34  C   UNL A   1      39.174  24.427  28.041  1.00  0.00     0.014 A 
ATOM     35  C   UNL A   1      40.373  25.248  26.101  1.00  0.00     0.014 A 
ATOM     36  C   UNL A   1      39.358  25.658  28.673  1.00  0.00     0.010 A 
ATOM     37  C   UNL A   1      40.613  26.451  26.759  1.00  0.00     0.010 A 
ATOM     38  C   UNL A   1      40.123  26.662  28.058  1.00  0.00    -0.014 A 
BRANCH  38  39
ATOM     39  C   UNL A   1      40.464  27.918  28.770  1.00  0.00     0.031 A 
ATOM     40  C   UNL A   1      41.772  28.054  29.494  1.00  0.00     0.074 A 
ATOM     41  C   UNL A   1      39.550  28.907  28.841  1.00  0.00     0.049 A 
ATOM     42  N   UNL A   1      42.203  29.037  30.242  1.00  0.00    -0.248 NA
ATOM     43  C   UNL A   1      42.711  26.925  29.384  1.00  0.00     0.031 C 
ATOM     44  C   UNL A   1      38.222  28.883  28.222  1.00  0.00     0.029 A 
ATOM     45  N   UNL A   1      39.594  30.121  29.480  1.00  0.00    -0.354 N 
ATOM     46  C   UNL A   1      43.448  28.639  30.708  1.00  0.00     0.074 A 
ATOM     47  C   UNL A   1      43.690  27.310  30.190  1.00  0.00     0.031 C 
ATOM     48  C   UNL A   1      37.586  30.032  28.501  1.00  0.00     0.029 A 
ATOM     49  C   UNL A   1      38.442  30.856  29.347  1.00  0.00     0.049 A 
ATOM     50  H   UNL A   1      40.377  30.434  29.987  1.00  0.00     0.167 HD
ATOM     51  C   UNL A   1      44.319  29.324  31.488  1.00  0.00     0.031 A 
ATOM     52  C   UNL A   1      38.103  32.055  29.859  1.00  0.00     0.031 A 
ATOM     53  C   UNL A   1      44.089  30.652  31.990  1.00  0.00     0.049 A 
ATOM     54  C   UNL A   1      39.085  32.791  30.726  1.00  0.00     0.074 A 
ATOM     55  C   UNL A   1      44.945  31.456  32.722  1.00  0.00     0.029 A 
ATOM     56  N   UNL A   1      42.916  31.369  31.818  1.00  0.00    -0.354 N 
ATOM     57  N   UNL A   1      40.292  32.433  31.091  1.00  0.00    -0.248 NA
ATOM     58  C   UNL A   1      38.660  34.098  31.245  1.00  0.00     0.031 C 
ATOM     59  C   UNL A   1      44.271  32.641  33.035  1.00  0.00     0.029 A 
ATOM     60  C   UNL A   1      43.014  32.594  32.456  1.00  0.00     0.049 A 
ATOM     61  H   UNL A   1      42.129  31.054  31.316  1.00  0.00     0.167 HD
ATOM     62  C   UNL A   1      40.778  33.478  31.865  1.00  0.00     0.074 A 
ATOM     63  C   UNL A   1      39.742  34.491  31.902  1.00  0.00     0.031 C 
ATOM     64  C   UNL A   1      41.974  33.588  32.490  1.00  0.00     0.031 A 
BRANCH  51  65
ATOM     65  C   UNL A   1      45.606  28.641  31.854  1.00  0.00    -0.014 A 
ATOM     66  C   UNL A   1      45.705  27.845  33.006  1.00  0.00     0.009 A 
ATOM     67  C   UNL A   1      46.722  28.759  31.011  1.00  0.00     0.009 A 
ATOM     68  C   UNL A   1      46.906  27.208  33.323  1.00  0.00     0.001 A 
ATOM     69  C   UNL A   1      47.913  28.099  31.317  1.00  0.00     0.001 A 
ATOM     70  C   UNL A   1      48.006  27.331  32.477  1.00  0.00     0.000 A 
ENDBRANCH  51  65
BRANCH  52  71
ATOM     71  C   UNL A   1      36.768  32.638  29.566  1.00  0.00    -0.014 A 
ATOM     72  C   UNL A   1      36.570  33.416  28.415  1.00  0.00     0.009 A 
ATOM     73  C   UNL A   1      35.690  32.426  30.438  1.00  0.00     0.009 A 
ATOM     74  C   UNL A   1      35.323  33.990  28.157  1.00  0.00     0.001 A 
ATOM     75  C   UNL A   1      34.437  32.979  30.164  1.00  0.00     0.001 A 
ATOM     76  C   UNL A   1      34.257  33.768  29.028  1.00  0.00     0.000 A 
ENDBRANCH  52  71
BRANCH  64  77
ATOM     77  C   UNL A   1      42.237  34.856  33.250  1.00  0.00    -0.014 A 
ATOM     78  C   UNL A   1      43.002  35.891  32.691  1.00  0.00     0.009 A 
ATOM     79  C   UNL A   1      41.675  35.033  34.524  1.00  0.00     0.009 A 
ATOM     80  C   UNL A   1      43.221  37.070  33.407  1.00  0.00     0.001 A 
ATOM     81  C   UNL A   1      41.875  36.223  35.225  1.00  0.00     0.001 A 
ATOM     82  C   UNL A   1      42.653  37.237  34.670  1.00  0.00     0.000 A 
ENDBRANCH  64  77
ENDBRANCH  38  39
ENDBRANCH  30  33
ENDBRANCH  28  29
ENDBRANCH  27  28
ENDBRANCH   1  27
TORSDOF 14
ENDMDL
MODEL 2
REMARK VINA RESULT:     -10.4      3.375      8.150
REMARK SMILES [NH3+][C@]1(C(=O)NCCCCNC(=O)c2ccc(-c3c4nc(c(-c5ccccc5)c5ccc([nH]5)c(-c5ccccc5)c5nc(c(-c6ccccc6)c6ccc3[nH]6)C=C5)C=C4)cc2)CC[C@@H]([NH+]2CCC(C(F)(F)F)CC2)C1
REMARK SMILES IDX 7 1 6 2 5 3 3 4 4 5 2 7 61 8 74 9 62 10 63 11 1 12 64 16
REMARK SMILES IDX 65 17 73 18 66 20 72 21 67 22 68 23 69 24 70 25 71 26 8 27
REMARK SMILES IDX 9 28 10 29 11 30 12 32 13 33 14 34 60 35 15 36 59 37 16 38
REMARK SMILES IDX 17 39 18 40 53 41 19 42 58 43 52 44 54 45 20 46 57 47 51 48
REMARK SMILES IDX 50 49 21 51 43 52 28 53 42 54 29 55 32 56 41 57 55 58 30 59
REMARK SMILES IDX 31 60 40 62 56 63 33 64 22 65 23 66 27 67 24 68 26 69 25 70
REMARK SMILES IDX 44 71 45 72 49 73 46 74 48 75 47 76 34 77 35 78 39 79 36 80
REMARK SMILES IDX 38 81 37 82
REMARK H PARENT 5 6 1 13 1 14 1 15 64 19 10 31 54 50 32 61
REMARK Flexibility Score: inf
ROOT
ATOM      1  C   UNL A   1      32.316  29.592  25.051  1.00  0.00     0.023 C 
ENDROOT
BRANCH   1   2
ATOM      2  C   UNL A   1      31.214  28.582  24.747  1.00  0.00     0.116 C 
BRANCH   2   3
ATOM      3  N   UNL A   1      31.394  27.922  23.467  1.00  0.00    -0.351 N 
ATOM      4  C   UNL A   1      31.243  26.613  23.099  1.00  0.00     0.281 C 
ATOM      5  O   UNL A   1      31.405  26.348  21.906  1.00  0.00    -0.268 OA
ATOM      6  H   UNL A   1      31.674  28.520  22.736  1.00  0.00     0.163 HD
BRANCH   4   7
ATOM      7  C   UNL A   1      30.851  25.530  24.143  1.00  0.00     0.179 C 
ATOM      8  C   UNL A   1      30.775  24.132  23.505  1.00  0.00     0.085 C 
ATOM      9  C   UNL A   1      31.935  25.370  25.229  1.00  0.00     0.144 C 
ATOM     10  C   UNL A   1      31.031  23.177  24.664  1.00  0.00     0.072 C 
ATOM     11  C   UNL A   1      32.123  23.861  25.497  1.00  0.00     0.191 C 
BRANCH   7  12
ATOM     12  N   UNL A   1      29.514  25.829  24.710  1.00  0.00    -0.345 N 
ATOM     13  H   UNL A   1      29.071  24.960  25.011  1.00  0.00     0.345 HD
ATOM     14  H   UNL A   1      28.935  26.277  23.999  1.00  0.00     0.345 HD
ATOM     15  H   UNL A   1      29.615  26.455  25.509  1.00  0.00     0.345 HD
ENDBRANCH   7  12
BRANCH  11  16
ATOM     16  N   UNL A   1      33.490  23.331  25.281  1.00  0.00    -0.332 N 
ATOM     17  C   UNL A   1      34.488  23.740  26.272  1.00  0.00     0.263 C 
ATOM     18  C   UNL A   1      33.492  21.877  25.066  1.00  0.00     0.263 C 
ATOM     19  H   UNL A   1      33.795  23.781  24.417  1.00  0.00     0.348 HD
ATOM     20  C   UNL A   1      35.891  23.295  25.862  1.00  0.00     0.074 C 
ATOM     21  C   UNL A   1      34.868  21.378  24.626  1.00  0.00     0.074 C 
ATOM     22  C   UNL A   1      35.953  21.787  25.628  1.00  0.00     0.106 C 
BRANCH  22  23
ATOM     23  C   UNL A   1      37.329  21.369  25.148  1.00  0.00     0.392 C 
ATOM     24  F   UNL A   1      37.490  21.655  23.837  1.00  0.00    -0.171 F 
ATOM     25  F   UNL A   1      38.296  22.030  25.825  1.00  0.00    -0.171 F 
ATOM     26  F   UNL A   1      37.543  20.047  25.311  1.00  0.00    -0.171 F 
ENDBRANCH  22  23
ENDBRANCH  11  16
ENDBRANCH   4   7
ENDBRANCH   2   3
ENDBRANCH   1   2
BRANCH   1  27
ATOM     27  C   UNL A   1      33.526  29.033  25.799  1.00  0.00     0.023 C 
BRANCH  27  28
ATOM     28  C   UNL A   1      33.453  29.103  27.321  1.00  0.00     0.116 C 
BRANCH  28  29
ATOM     29  N   UNL A   1      33.591  30.453  27.847  1.00  0.00    -0.352 N 
ATOM     30  C   UNL A   1      34.673  31.046  28.453  1.00  0.00     0.251 C 
ATOM     31  H   UNL A   1      32.794  31.025  27.756  1.00  0.00     0.163 HD
ATOM     32  O   UNL A   1      34.577  32.174  28.926  1.00  0.00    -0.269 OA
BRANCH  30  33
ATOM     33  C   UNL A   1      35.944  30.301  28.574  1.00  0.00     0.039 A 
ATOM     34  C   UNL A   1      36.813  30.274  27.480  1.00  0.00     0.014 A 
ATOM     35  C   UNL A   1      36.295  29.671  29.770  1.00  0.00     0.014 A 
ATOM     36  C   UNL A   1      38.076  29.695  27.616  1.00  0.00     0.010 A 
ATOM     37  C   UNL A   1      37.579  29.154  29.924  1.00  0.00     0.010 A 
ATOM     38  C   UNL A   1      38.487  29.176  28.854  1.00  0.00    -0.014 A 
BRANCH  38  39
ATOM     39  C   UNL A   1      39.876  28.697  29.068  1.00  0.00     0.031 A 
ATOM     40  C   UNL A   1      40.935  29.632  29.576  1.00  0.00     0.074 A 
ATOM     41  C   UNL A   1      40.203  27.438  28.715  1.00  0.00     0.049 A 
ATOM     42  N   UNL A   1      42.216  29.416  29.738  1.00  0.00    -0.248 NA
ATOM     43  C   UNL A   1      40.505  30.996  29.925  1.00  0.00     0.031 C 
ATOM     44  C   UNL A   1      39.279  26.443  28.163  1.00  0.00     0.029 A 
ATOM     45  N   UNL A   1      41.409  26.783  28.751  1.00  0.00    -0.354 N 
ATOM     46  C   UNL A   1      42.747  30.619  30.186  1.00  0.00     0.074 A 
ATOM     47  C   UNL A   1      41.659  31.571  30.234  1.00  0.00     0.031 C 
ATOM     48  C   UNL A   1      39.948  25.303  27.928  1.00  0.00     0.029 A 
ATOM     49  C   UNL A   1      41.352  25.497  28.274  1.00  0.00     0.049 A 
ATOM     50  H   UNL A   1      42.236  27.198  29.087  1.00  0.00     0.167 HD
ATOM     51  C   UNL A   1      44.024  30.902  30.536  1.00  0.00     0.031 A 
ATOM     52  C   UNL A   1      42.323  24.577  28.116  1.00  0.00     0.031 A 
ATOM     53  C   UNL A   1      45.105  29.954  30.505  1.00  0.00     0.049 A 
ATOM     54  C   UNL A   1      43.733  24.919  28.508  1.00  0.00     0.074 A 
ATOM     55  C   UNL A   1      46.415  30.126  30.916  1.00  0.00     0.029 A 
ATOM     56  N   UNL A   1      45.002  28.655  30.031  1.00  0.00    -0.354 N 
ATOM     57  N   UNL A   1      44.202  26.038  29.005  1.00  0.00    -0.248 NA
ATOM     58  C   UNL A   1      44.744  23.869  28.322  1.00  0.00     0.031 C 
ATOM     59  C   UNL A   1      47.118  28.948  30.644  1.00  0.00     0.029 A 
ATOM     60  C   UNL A   1      46.233  28.026  30.110  1.00  0.00     0.049 A 
ATOM     61  H   UNL A   1      44.176  28.242  29.689  1.00  0.00     0.167 HD
ATOM     62  C   UNL A   1      45.557  25.820  29.210  1.00  0.00     0.074 A 
ATOM     63  C   UNL A   1      45.832  24.457  28.800  1.00  0.00     0.031 C 
ATOM     64  C   UNL A   1      46.492  26.673  29.693  1.00  0.00     0.031 A 
BRANCH  51  65
ATOM     65  C   UNL A   1      44.326  32.305  30.980  1.00  0.00    -0.014 A 
ATOM     66  C   UNL A   1      44.665  33.304  30.052  1.00  0.00     0.009 A 
ATOM     67  C   UNL A   1      44.226  32.644  32.338  1.00  0.00     0.009 A 
ATOM     68  C   UNL A   1      44.929  34.606  30.482  1.00  0.00     0.001 A 
ATOM     69  C   UNL A   1      44.465  33.953  32.760  1.00  0.00     0.001 A 
ATOM     70  C   UNL A   1      44.825  34.929  31.834  1.00  0.00     0.000 A 
ENDBRANCH  51  65
BRANCH  52  71
ATOM     71  C   UNL A   1      41.996  23.239  27.560  1.00  0.00    -0.014 A 
ATOM     72  C   UNL A   1      42.205  22.964  26.200  1.00  0.00     0.009 A 
ATOM     73  C   UNL A   1      41.467  22.234  28.384  1.00  0.00     0.009 A 
ATOM     74  C   UNL A   1      41.868  21.715  25.672  1.00  0.00     0.001 A 
ATOM     75  C   UNL A   1      41.156  20.978  27.859  1.00  0.00     0.001 A 
ATOM     76  C   UNL A   1      41.347  20.723  26.502  1.00  0.00     0.000 A 
ENDBRANCH  52  71
BRANCH  64  77
ATOM     77  C   UNL A   1      47.894  26.152  29.826  1.00  0.00    -0.014 A 
ATOM     78  C   UNL A   1      48.776  26.157  28.735  1.00  0.00     0.009 A 
ATOM     79  C   UNL A   1      48.351  25.691  31.071  1.00  0.00     0.009 A 
ATOM     80  C   UNL A   1      50.082  25.685  28.882  1.00  0.00     0.001 A 
ATOM     81  C   UNL A   1      49.664  25.244  31.220  1.00  0.00     0.001 A 
ATOM     82  C   UNL A   1      50.525  25.234  30.125  1.00  0.00     0.000 A 
ENDBRANCH  64  77
ENDBRANCH  38  39
ENDBRANCH  30  33
ENDBRANCH  28  29
ENDBRANCH  27  28
ENDBRANCH   1  27
TORSDOF 14
ENDMDL
MODEL 3
REMARK VINA RESULT:     -10.4      3.921      5.715
REMARK SMILES [NH3+][C@]1(C(=O)NCCCCNC(=O)c2ccc(-c3c4nc(c(-c5ccccc5)c5ccc([nH]5)c(-c5ccccc5)c5nc(c(-c6ccccc6)c6ccc3[nH]6)C=C5)C=C4)cc2)CC[C@@H]([NH+]2CCC(C(F)(F)F)CC2)C1
REMARK SMILES IDX 7 1 6 2 5 3 3 4 4 5 2 7 61 8 74 9 62 10 63 11 1 12 64 16
REMARK SMILES IDX 65 17 73 18 66 20 72 21 67 22 68 23 69 24 70 25 71 26 8 27
REMARK SMILES IDX 9 28 10 29 11 30 12 32 13 33 14 34 60 35 15 36 59 37 16 38
REMARK SMILES IDX 17 39 18 40 53 41 19 42 58 43 52 44 54 45 20 46 57 47 51 48
REMARK SMILES IDX 50 49 21 51 43 52 28 53 42 54 29 55 32 56 41 57 55 58 30 59
REMARK SMILES IDX 31 60 40 62 56 63 33 64 22 65 23 66 27 67 24 68 26 69 25 70
REMARK SMILES IDX 44 71 45 72 49 73 46 74 48 75 47 76 34 77 35 78 39 79 36 80
REMARK SMILES IDX 38 81 37 82
REMARK H PARENT 5 6 1 13 1 14 1 15 64 19 10 31 54 50 32 61
REMARK Flexibility Score: inf
ROOT
ATOM      1  C   UNL A   1      36.255  21.233  25.206  1.00  0.00     0.023 C 
ENDROOT
BRANCH   1   2
ATOM      2  C   UNL A   1      36.057  22.333  24.168  1.00  0.00     0.116 C 
BRANCH   2   3
ATOM      3  N   UNL A   1      35.806  23.631  24.765  1.00  0.00    -0.351 N 
ATOM      4  C   UNL A   1      34.686  24.416  24.775  1.00  0.00     0.281 C 
ATOM      5  O   UNL A   1      34.744  25.461  25.429  1.00  0.00    -0.268 OA
ATOM      6  H   UNL A   1      36.576  24.014  25.248  1.00  0.00     0.163 HD
BRANCH   4   7
ATOM      7  C   UNL A   1      33.398  23.981  24.021  1.00  0.00     0.179 C 
ATOM      8  C   UNL A   1      33.726  23.379  22.643  1.00  0.00     0.085 C 
ATOM      9  C   UNL A   1      32.674  22.833  24.751  1.00  0.00     0.144 C 
ATOM     10  C   UNL A   1      32.546  22.464  22.344  1.00  0.00     0.072 C 
ATOM     11  C   UNL A   1      32.210  21.810  23.692  1.00  0.00     0.191 C 
BRANCH   7  12
ATOM     12  N   UNL A   1      32.522  25.155  23.790  1.00  0.00    -0.345 N 
ATOM     13  H   UNL A   1      31.638  25.021  24.281  1.00  0.00     0.345 HD
ATOM     14  H   UNL A   1      32.344  25.256  22.790  1.00  0.00     0.345 HD
ATOM     15  H   UNL A   1      32.982  25.997  24.140  1.00  0.00     0.345 HD
ENDBRANCH   7  12
BRANCH  11  16
ATOM     16  N   UNL A   1      32.726  20.430  23.855  1.00  0.00    -0.332 N 
ATOM     17  C   UNL A   1      32.706  19.909  25.224  1.00  0.00     0.263 C 
ATOM     18  C   UNL A   1      32.114  19.494  22.902  1.00  0.00     0.263 C 
ATOM     19  H   UNL A   1      33.718  20.509  23.631  1.00  0.00     0.348 HD
ATOM     20  C   UNL A   1      33.421  18.561  25.314  1.00  0.00     0.074 C 
ATOM     21  C   UNL A   1      32.808  18.132  22.929  1.00  0.00     0.074 C 
ATOM     22  C   UNL A   1      32.822  17.545  24.344  1.00  0.00     0.106 C 
BRANCH  22  23
ATOM     23  C   UNL A   1      33.588  16.237  24.388  1.00  0.00     0.392 C 
ATOM     24  F   UNL A   1      32.752  15.195  24.588  1.00  0.00    -0.171 F 
ATOM     25  F   UNL A   1      34.233  16.018  23.220  1.00  0.00    -0.171 F 
ATOM     26  F   UNL A   1      34.509  16.222  25.375  1.00  0.00    -0.171 F 
ENDBRANCH  22  23
ENDBRANCH  11  16
ENDBRANCH   4   7
ENDBRANCH   2   3
ENDBRANCH   1   2
BRANCH   1  27
ATOM     27  C   UNL A   1      37.445  20.308  24.959  1.00  0.00     0.023 C 
BRANCH  27  28
ATOM     28  C   UNL A   1      38.736  20.682  25.681  1.00  0.00     0.116 C 
BRANCH  28  29
ATOM     29  N   UNL A   1      39.732  19.620  25.675  1.00  0.00    -0.352 N 
ATOM     30  C   UNL A   1      41.059  19.670  26.029  1.00  0.00     0.251 C 
ATOM     31  H   UNL A   1      39.409  18.741  25.374  1.00  0.00     0.163 HD
ATOM     32  O   UNL A   1      41.780  18.690  25.867  1.00  0.00    -0.269 OA
BRANCH  30  33
ATOM     33  C   UNL A   1      41.629  20.924  26.566  1.00  0.00     0.039 A 
ATOM     34  C   UNL A   1      42.198  21.838  25.676  1.00  0.00     0.014 A 
ATOM     35  C   UNL A   1      41.563  21.215  27.931  1.00  0.00     0.014 A 
ATOM     36  C   UNL A   1      42.617  23.086  26.142  1.00  0.00     0.010 A 
ATOM     37  C   UNL A   1      41.919  22.483  28.382  1.00  0.00     0.010 A 
ATOM     38  C   UNL A   1      42.434  23.436  27.489  1.00  0.00    -0.014 A 
BRANCH  38  39
ATOM     39  C   UNL A   1      42.726  24.807  27.977  1.00  0.00     0.031 A 
ATOM     40  C   UNL A   1      44.112  25.180  28.417  1.00  0.00     0.074 A 
ATOM     41  C   UNL A   1      41.717  25.692  28.109  1.00  0.00     0.049 A 
ATOM     42  N   UNL A   1      44.534  26.298  28.954  1.00  0.00    -0.248 NA
ATOM     43  C   UNL A   1      45.157  24.156  28.259  1.00  0.00     0.031 C 
ATOM     44  C   UNL A   1      40.316  25.440  27.762  1.00  0.00     0.029 A 
ATOM     45  N   UNL A   1      41.712  26.979  28.587  1.00  0.00    -0.354 N 
ATOM     46  C   UNL A   1      45.884  26.104  29.215  1.00  0.00     0.074 A 
ATOM     47  C   UNL A   1      46.203  24.750  28.815  1.00  0.00     0.031 C 
ATOM     48  C   UNL A   1      39.593  26.541  28.025  1.00  0.00     0.029 A 
ATOM     49  C   UNL A   1      40.468  27.560  28.594  1.00  0.00     0.049 A 
ATOM     50  H   UNL A   1      42.525  27.440  28.896  1.00  0.00     0.167 HD
ATOM     51  C   UNL A   1      46.780  26.978  29.732  1.00  0.00     0.031 A 
ATOM     52  C   UNL A   1      40.070  28.773  29.023  1.00  0.00     0.031 A 
ATOM     53  C   UNL A   1      46.469  28.329  30.116  1.00  0.00     0.049 A 
ATOM     54  C   UNL A   1      41.083  29.721  29.597  1.00  0.00     0.074 A 
ATOM     55  C   UNL A   1      47.327  29.313  30.575  1.00  0.00     0.029 A 
ATOM     56  N   UNL A   1      45.200  28.884  30.091  1.00  0.00    -0.354 N 
ATOM     57  N   UNL A   1      42.373  29.549  29.762  1.00  0.00    -0.248 NA
ATOM     58  C   UNL A   1      40.588  31.032  30.036  1.00  0.00     0.031 C 
ATOM     59  C   UNL A   1      46.569  30.449  30.875  1.00  0.00     0.029 A 
ATOM     60  C   UNL A   1      45.246  30.188  30.556  1.00  0.00     0.049 A 
ATOM     61  H   UNL A   1      44.385  28.421  29.787  1.00  0.00     0.167 HD
ATOM     62  C   UNL A   1      42.844  30.735  30.306  1.00  0.00     0.074 A 
ATOM     63  C   UNL A   1      41.708  31.626  30.426  1.00  0.00     0.031 C 
ATOM     64  C   UNL A   1      44.107  31.059  30.675  1.00  0.00     0.031 A 
BRANCH  51  65
ATOM     65  C   UNL A   1      48.190  26.495  29.920  1.00  0.00    -0.014 A 
ATOM     66  C   UNL A   1      49.166  26.696  28.930  1.00  0.00     0.009 A 
ATOM     67  C   UNL A   1      48.559  25.871  31.122  1.00  0.00     0.009 A 
ATOM     68  C   UNL A   1      50.474  26.252  29.129  1.00  0.00     0.001 A 
ATOM     69  C   UNL A   1      49.874  25.453  31.327  1.00  0.00     0.001 A 
ATOM     70  C   UNL A   1      50.828  25.635  30.328  1.00  0.00     0.000 A 
ENDBRANCH  51  65
BRANCH  52  71
ATOM     71  C   UNL A   1      38.639  29.162  28.925  1.00  0.00    -0.014 A 
ATOM     72  C   UNL A   1      38.125  29.688  27.730  1.00  0.00     0.009 A 
ATOM     73  C   UNL A   1      37.784  29.018  30.028  1.00  0.00     0.009 A 
ATOM     74  C   UNL A   1      36.788  30.084  27.650  1.00  0.00     0.001 A 
ATOM     75  C   UNL A   1      36.441  29.389  29.937  1.00  0.00     0.001 A 
ATOM     76  C   UNL A   1      35.946  29.931  28.751  1.00  0.00     0.000 A 
ENDBRANCH  52  71
BRANCH  64  77
ATOM     77  C   UNL A   1      44.331  32.439  31.223  1.00  0.00    -0.014 A 
ATOM     78  C   UNL A   1      44.609  33.520  30.373  1.00  0.00     0.009 A 
ATOM     79  C   UNL A   1      44.217  32.667  32.603  1.00  0.00     0.009 A 
ATOM     80  C   UNL A   1      44.796  34.800  30.899  1.00  0.00     0.001 A 
ATOM     81  C   UNL A   1      44.380  33.952  33.123  1.00  0.00     0.001 A 
ATOM     82  C   UNL A   1      44.677  35.015  32.272  1.00  0.00     0.000 A 
ENDBRANCH  64  77
ENDBRANCH  38  39
ENDBRANCH  30  33
ENDBRANCH  28  29
ENDBRANCH  27  28
ENDBRANCH   1  27
TORSDOF 14
ENDMDL
