MODEL 1
REMARK VINA RESULT:     -13.0      0.000      0.000
REMARK SMILES O=C(NCCCCNC(=O)[C@H]1CC=CC[C@@H]1C(=O)Nc1nn(Cc2ccccc2F)cc1Br)c1ccc(-c2c3nc(c(-c4ccccc4)c4ccc([nH]4)c(-c4ccccc4)c4nc(c(-c5ccccc5)c5ccc2[nH]5)C=C4)C=C3)cc1
REMARK SMILES IDX 6 1 5 2 4 3 3 4 1 5 2 6 34 8 35 9 81 10 36 11 80 12 37 13
REMARK SMILES IDX 38 14 39 15 74 16 40 17 79 18 73 19 75 20 41 21 78 22 72 23
REMARK SMILES IDX 71 24 42 26 64 27 49 28 63 29 50 30 53 31 62 32 76 33 51 34
REMARK SMILES IDX 52 35 61 37 77 38 54 39 43 40 44 41 48 42 45 43 47 44 46 45
REMARK SMILES IDX 65 46 66 47 70 48 67 49 69 50 68 51 55 52 56 53 60 54 57 55
REMARK SMILES IDX 59 56 58 57 7 58 8 59 9 60 10 62 11 63 12 64 16 65 13 66
REMARK SMILES IDX 15 67 14 68 17 69 18 70 19 71 20 73 21 74 32 75 22 76 31 77
REMARK SMILES IDX 33 78 23 79 24 80 25 81 29 82 26 83 28 84 30 85 27 86
REMARK H PARENT 3 7 75 25 53 36 8 61 19 72
REMARK Flexibility Score: inf
ROOT
ATOM      1  C   UNL A   1      30.802  26.419  25.877  1.00  0.00     0.023 C 
ENDROOT
BRANCH   1   2
ATOM      2  C   UNL A   1      31.303  27.239  27.060  1.00  0.00     0.023 C 
BRANCH   2   3
ATOM      3  C   UNL A   1      32.359  28.305  26.733  1.00  0.00     0.116 C 
BRANCH   3   4
ATOM      4  N   UNL A   1      31.929  29.687  26.868  1.00  0.00    -0.352 N 
ATOM      5  O   UNL A   1      31.932  31.908  26.928  1.00  0.00    -0.269 OA
ATOM      6  C   UNL A   1      32.582  30.869  27.084  1.00  0.00     0.251 C 
ATOM      7  H   UNL A   1      30.954  29.796  26.785  1.00  0.00     0.163 HD
BRANCH   6   8
ATOM      8  C   UNL A   1      33.979  30.972  27.574  1.00  0.00     0.039 A 
ATOM      9  C   UNL A   1      34.740  29.897  28.021  1.00  0.00     0.014 A 
ATOM     10  C   UNL A   1      34.535  32.265  27.626  1.00  0.00     0.014 A 
ATOM     11  C   UNL A   1      35.961  30.105  28.637  1.00  0.00     0.010 A 
ATOM     12  C   UNL A   1      35.784  32.480  28.195  1.00  0.00     0.010 A 
ATOM     13  C   UNL A   1      36.473  31.398  28.733  1.00  0.00    -0.014 A 
BRANCH  13  14
ATOM     14  C   UNL A   1      37.852  31.513  29.185  1.00  0.00     0.031 A 
ATOM     15  C   UNL A   1      38.591  30.221  29.136  1.00  0.00     0.074 A 
ATOM     16  C   UNL A   1      38.445  32.678  29.503  1.00  0.00     0.049 A 
ATOM     17  N   UNL A   1      39.110  29.563  30.119  1.00  0.00    -0.248 NA
ATOM     18  C   UNL A   1      38.614  29.502  27.850  1.00  0.00     0.031 C 
ATOM     19  C   UNL A   1      37.902  34.025  29.333  1.00  0.00     0.029 A 
ATOM     20  N   UNL A   1      39.720  32.904  29.929  1.00  0.00    -0.354 N 
ATOM     21  C   UNL A   1      39.708  28.443  29.545  1.00  0.00     0.074 A 
ATOM     22  C   UNL A   1      39.214  28.364  28.194  1.00  0.00     0.031 C 
ATOM     23  C   UNL A   1      38.914  34.918  29.408  1.00  0.00     0.029 A 
ATOM     24  C   UNL A   1      40.141  34.214  29.746  1.00  0.00     0.049 A 
ATOM     25  H   UNL A   1      40.288  32.206  30.327  1.00  0.00     0.167 HD
ATOM     26  C   UNL A   1      40.791  27.851  30.118  1.00  0.00     0.031 A 
ATOM     27  C   UNL A   1      41.419  34.670  29.778  1.00  0.00     0.031 A 
ATOM     28  C   UNL A   1      40.902  28.182  31.517  1.00  0.00     0.049 A 
ATOM     29  C   UNL A   1      42.249  33.660  30.473  1.00  0.00     0.074 A 
ATOM     30  C   UNL A   1      40.098  28.041  32.632  1.00  0.00     0.029 A 
ATOM     31  N   UNL A   1      41.869  29.091  31.866  1.00  0.00    -0.354 N 
ATOM     32  N   UNL A   1      42.174  33.418  31.748  1.00  0.00    -0.248 NA
ATOM     33  C   UNL A   1      42.885  32.622  29.677  1.00  0.00     0.031 C 
ATOM     34  C   UNL A   1      40.351  29.202  33.421  1.00  0.00     0.029 A 
ATOM     35  C   UNL A   1      41.330  29.957  32.774  1.00  0.00     0.049 A 
ATOM     36  H   UNL A   1      42.790  29.116  31.519  1.00  0.00     0.167 HD
ATOM     37  C   UNL A   1      42.318  32.043  31.851  1.00  0.00     0.074 A 
ATOM     38  C   UNL A   1      42.879  31.626  30.568  1.00  0.00     0.031 C 
ATOM     39  C   UNL A   1      41.700  31.351  32.853  1.00  0.00     0.031 A 
BRANCH  26  40
ATOM     40  C   UNL A   1      42.008  27.454  29.298  1.00  0.00    -0.014 A 
ATOM     41  C   UNL A   1      42.710  28.468  28.620  1.00  0.00     0.009 A 
ATOM     42  C   UNL A   1      42.271  26.131  28.892  1.00  0.00     0.009 A 
ATOM     43  C   UNL A   1      43.500  28.181  27.500  1.00  0.00     0.001 A 
ATOM     44  C   UNL A   1      43.098  25.837  27.805  1.00  0.00     0.001 A 
ATOM     45  C   UNL A   1      43.676  26.867  27.081  1.00  0.00     0.000 A 
ENDBRANCH  26  40
BRANCH  27  46
ATOM     46  C   UNL A   1      42.023  35.785  29.018  1.00  0.00    -0.014 A 
ATOM     47  C   UNL A   1      43.098  36.516  29.551  1.00  0.00     0.009 A 
ATOM     48  C   UNL A   1      41.723  35.966  27.656  1.00  0.00     0.009 A 
ATOM     49  C   UNL A   1      43.865  37.364  28.741  1.00  0.00     0.001 A 
ATOM     50  C   UNL A   1      42.482  36.820  26.849  1.00  0.00     0.001 A 
ATOM     51  C   UNL A   1      43.563  37.506  27.388  1.00  0.00     0.000 A 
ENDBRANCH  27  46
BRANCH  39  52
ATOM     52  C   UNL A   1      41.136  32.135  34.010  1.00  0.00    -0.014 A 
ATOM     53  C   UNL A   1      39.849  32.699  34.008  1.00  0.00     0.009 A 
ATOM     54  C   UNL A   1      41.893  32.202  35.189  1.00  0.00     0.009 A 
ATOM     55  C   UNL A   1      39.355  33.353  35.140  1.00  0.00     0.001 A 
ATOM     56  C   UNL A   1      41.390  32.832  36.327  1.00  0.00     0.001 A 
ATOM     57  C   UNL A   1      40.125  33.416  36.299  1.00  0.00     0.000 A 
ENDBRANCH  39  52
ENDBRANCH  13  14
ENDBRANCH   6   8
ENDBRANCH   3   4
ENDBRANCH   2   3
ENDBRANCH   1   2
BRANCH   1  58
ATOM     58  C   UNL A   1      30.515  24.957  26.183  1.00  0.00     0.116 C 
BRANCH  58  59
ATOM     59  N   UNL A   1      31.700  24.129  26.284  1.00  0.00    -0.356 N 
ATOM     60  C   UNL A   1      32.948  24.253  25.743  1.00  0.00     0.224 C 
ATOM     61  H   UNL A   1      31.585  23.330  26.846  1.00  0.00     0.163 HD
ATOM     62  O   UNL A   1      33.834  23.684  26.395  1.00  0.00    -0.275 OA
BRANCH  60  63
ATOM     63  C   UNL A   1      33.297  24.952  24.395  1.00  0.00     0.095 C 
ATOM     64  C   UNL A   1      34.742  24.829  23.911  1.00  0.00     0.041 C 
ATOM     65  C   UNL A   1      32.400  24.374  23.256  1.00  0.00     0.095 C 
ATOM     66  C   UNL A   1      35.074  23.383  23.624  1.00  0.00    -0.030 C 
ATOM     67  C   UNL A   1      32.659  22.844  23.165  1.00  0.00     0.041 C 
ATOM     68  C   UNL A   1      34.121  22.479  23.331  1.00  0.00    -0.030 C 
BRANCH  65  69
ATOM     69  C   UNL A   1      32.742  24.987  21.879  1.00  0.00     0.229 C 
ATOM     70  O   UNL A   1      33.251  24.307  20.975  1.00  0.00    -0.274 OA
ATOM     71  N   UNL A   1      32.527  26.274  21.536  1.00  0.00    -0.308 N 
ATOM     72  H   UNL A   1      32.951  26.548  20.691  1.00  0.00     0.171 HD
BRANCH  71  73
ATOM     73  C   UNL A   1      31.821  27.262  22.160  1.00  0.00     0.168 A 
ATOM     74  N   UNL A   1      30.497  27.398  22.154  1.00  0.00    -0.153 NA
ATOM     75  C   UNL A   1      32.426  28.319  22.877  1.00  0.00     0.080 A 
ATOM     76  N   UNL A   1      30.270  28.564  22.801  1.00  0.00    -0.265 N 
ATOM     77  C   UNL A   1      31.418  29.170  23.234  1.00  0.00     0.127 A 
ATOM     78  Br  UNL A   1      34.264  28.560  23.142  1.00  0.00    -0.045 Br
BRANCH  76  79
ATOM     79  C   UNL A   1      28.911  29.032  23.051  1.00  0.00     0.182 C 
BRANCH  79  80
ATOM     80  C   UNL A   1      28.626  30.360  22.410  1.00  0.00     0.009 A 
ATOM     81  C   UNL A   1      28.168  30.457  21.088  1.00  0.00     0.008 A 
ATOM     82  C   UNL A   1      28.794  31.535  23.148  1.00  0.00     0.128 A 
ATOM     83  C   UNL A   1      27.881  31.707  20.532  1.00  0.00     0.001 A 
ATOM     84  C   UNL A   1      28.496  32.779  22.603  1.00  0.00     0.039 A 
ATOM     85  F   UNL A   1      29.267  31.472  24.402  1.00  0.00    -0.207 F 
ATOM     86  C   UNL A   1      28.034  32.867  21.293  1.00  0.00     0.003 A 
ENDBRANCH  79  80
ENDBRANCH  76  79
ENDBRANCH  71  73
ENDBRANCH  65  69
ENDBRANCH  60  63
ENDBRANCH  58  59
ENDBRANCH   1  58
TORSDOF 15
ENDMDL
MODEL 2
REMARK VINA RESULT:     -12.9      3.520      7.808
REMARK SMILES O=C(NCCCCNC(=O)[C@H]1CC=CC[C@@H]1C(=O)Nc1nn(Cc2ccccc2F)cc1Br)c1ccc(-c2c3nc(c(-c4ccccc4)c4ccc([nH]4)c(-c4ccccc4)c4nc(c(-c5ccccc5)c5ccc2[nH]5)C=C4)C=C3)cc1
REMARK SMILES IDX 6 1 5 2 4 3 3 4 1 5 2 6 34 8 35 9 81 10 36 11 80 12 37 13
REMARK SMILES IDX 38 14 39 15 74 16 40 17 79 18 73 19 75 20 41 21 78 22 72 23
REMARK SMILES IDX 71 24 42 26 64 27 49 28 63 29 50 30 53 31 62 32 76 33 51 34
REMARK SMILES IDX 52 35 61 37 77 38 54 39 43 40 44 41 48 42 45 43 47 44 46 45
REMARK SMILES IDX 65 46 66 47 70 48 67 49 69 50 68 51 55 52 56 53 60 54 57 55
REMARK SMILES IDX 59 56 58 57 7 58 8 59 9 60 10 62 11 63 12 64 16 65 13 66
REMARK SMILES IDX 15 67 14 68 17 69 18 70 19 71 20 73 21 74 32 75 22 76 31 77
REMARK SMILES IDX 33 78 23 79 24 80 25 81 29 82 26 83 28 84 30 85 27 86
REMARK H PARENT 3 7 75 25 53 36 8 61 19 72
REMARK Flexibility Score: inf
ROOT
ATOM      1  C   UNL A   1      32.754  28.913  23.620  1.00  0.00     0.023 C 
ENDROOT
BRANCH   1   2
ATOM      2  C   UNL A   1      32.403  29.577  24.946  1.00  0.00     0.023 C 
BRANCH   2   3
ATOM      3  C   UNL A   1      33.535  29.638  25.982  1.00  0.00     0.116 C 
BRANCH   3   4
ATOM      4  N   UNL A   1      33.433  30.697  26.973  1.00  0.00    -0.352 N 
ATOM      5  O   UNL A   1      33.951  32.344  28.371  1.00  0.00    -0.269 OA
ATOM      6  C   UNL A   1      34.331  31.318  27.796  1.00  0.00     0.251 C 
ATOM      7  H   UNL A   1      32.517  31.044  27.072  1.00  0.00     0.163 HD
BRANCH   6   8
ATOM      8  C   UNL A   1      35.684  30.791  28.103  1.00  0.00     0.039 A 
ATOM      9  C   UNL A   1      36.017  29.440  28.129  1.00  0.00     0.014 A 
ATOM     10  C   UNL A   1      36.669  31.740  28.435  1.00  0.00     0.014 A 
ATOM     11  C   UNL A   1      37.247  29.027  28.608  1.00  0.00     0.010 A 
ATOM     12  C   UNL A   1      37.927  31.337  28.868  1.00  0.00     0.010 A 
ATOM     13  C   UNL A   1      38.194  29.977  28.988  1.00  0.00    -0.014 A 
BRANCH  13  14
ATOM     14  C   UNL A   1      39.533  29.479  29.265  1.00  0.00     0.031 A 
ATOM     15  C   UNL A   1      39.881  29.518  30.712  1.00  0.00     0.074 A 
ATOM     16  C   UNL A   1      40.338  28.928  28.338  1.00  0.00     0.049 A 
ATOM     17  N   UNL A   1      40.822  30.190  31.287  1.00  0.00    -0.248 NA
ATOM     18  C   UNL A   1      38.964  28.843  31.648  1.00  0.00     0.031 C 
ATOM     19  C   UNL A   1      40.000  28.596  26.954  1.00  0.00     0.029 A 
ATOM     20  N   UNL A   1      41.597  28.427  28.483  1.00  0.00    -0.354 N 
ATOM     21  C   UNL A   1      40.745  29.861  32.639  1.00  0.00     0.074 A 
ATOM     22  C   UNL A   1      39.486  29.188  32.824  1.00  0.00     0.031 C 
ATOM     23  C   UNL A   1      40.923  27.734  26.473  1.00  0.00     0.029 A 
ATOM     24  C   UNL A   1      41.966  27.552  27.470  1.00  0.00     0.049 A 
ATOM     25  H   UNL A   1      42.188  28.661  29.235  1.00  0.00     0.167 HD
ATOM     26  C   UNL A   1      41.849  29.889  33.435  1.00  0.00     0.031 A 
ATOM     27  C   UNL A   1      43.001  26.676  27.489  1.00  0.00     0.031 A 
ATOM     28  C   UNL A   1      42.888  30.719  32.877  1.00  0.00     0.049 A 
ATOM     29  C   UNL A   1      43.940  27.097  28.553  1.00  0.00     0.074 A 
ATOM     30  C   UNL A   1      42.996  32.041  32.493  1.00  0.00     0.029 A 
ATOM     31  N   UNL A   1      43.958  30.075  32.307  1.00  0.00    -0.354 N 
ATOM     32  N   UNL A   1      44.684  28.160  28.481  1.00  0.00    -0.248 NA
ATOM     33  C   UNL A   1      43.758  26.552  29.890  1.00  0.00     0.031 C 
ATOM     34  C   UNL A   1      43.854  32.028  31.352  1.00  0.00     0.029 A 
ATOM     35  C   UNL A   1      44.263  30.711  31.137  1.00  0.00     0.049 A 
ATOM     36  H   UNL A   1      44.423  29.289  32.676  1.00  0.00     0.167 HD
ATOM     37  C   UNL A   1      44.675  28.679  29.767  1.00  0.00     0.074 A 
ATOM     38  C   UNL A   1      44.202  27.585  30.612  1.00  0.00     0.031 C 
ATOM     39  C   UNL A   1      44.776  30.026  29.974  1.00  0.00     0.031 A 
BRANCH  26  40
ATOM     40  C   UNL A   1      42.170  28.752  34.391  1.00  0.00    -0.014 A 
ATOM     41  C   UNL A   1      42.427  27.480  33.847  1.00  0.00     0.009 A 
ATOM     42  C   UNL A   1      41.890  28.798  35.771  1.00  0.00     0.009 A 
ATOM     43  C   UNL A   1      42.253  26.316  34.605  1.00  0.00     0.001 A 
ATOM     44  C   UNL A   1      41.764  27.640  36.543  1.00  0.00     0.001 A 
ATOM     45  C   UNL A   1      41.901  26.397  35.948  1.00  0.00     0.000 A 
ENDBRANCH  26  40
BRANCH  27  46
ATOM     46  C   UNL A   1      43.105  25.352  26.839  1.00  0.00    -0.014 A 
ATOM     47  C   UNL A   1      42.961  25.223  25.447  1.00  0.00     0.009 A 
ATOM     48  C   UNL A   1      43.608  24.246  27.547  1.00  0.00     0.009 A 
ATOM     49  C   UNL A   1      43.344  24.047  24.788  1.00  0.00     0.001 A 
ATOM     50  C   UNL A   1      43.982  23.068  26.891  1.00  0.00     0.001 A 
ATOM     51  C   UNL A   1      43.865  22.975  25.510  1.00  0.00     0.000 A 
ENDBRANCH  27  46
BRANCH  39  52
ATOM     52  C   UNL A   1      45.213  30.888  28.820  1.00  0.00    -0.014 A 
ATOM     53  C   UNL A   1      46.558  31.199  28.552  1.00  0.00     0.009 A 
ATOM     54  C   UNL A   1      44.237  31.303  27.901  1.00  0.00     0.009 A 
ATOM     55  C   UNL A   1      46.907  31.944  27.423  1.00  0.00     0.001 A 
ATOM     56  C   UNL A   1      44.588  32.025  26.761  1.00  0.00     0.001 A 
ATOM     57  C   UNL A   1      45.922  32.354  26.527  1.00  0.00     0.000 A 
ENDBRANCH  39  52
ENDBRANCH  13  14
ENDBRANCH   6   8
ENDBRANCH   3   4
ENDBRANCH   2   3
ENDBRANCH   1   2
BRANCH   1  58
ATOM     58  C   UNL A   1      33.786  27.800  23.711  1.00  0.00     0.116 C 
BRANCH  58  59
ATOM     59  N   UNL A   1      33.382  26.564  23.070  1.00  0.00    -0.356 N 
ATOM     60  C   UNL A   1      32.917  25.384  23.577  1.00  0.00     0.224 C 
ATOM     61  H   UNL A   1      33.456  26.577  22.089  1.00  0.00     0.163 HD
ATOM     62  O   UNL A   1      32.219  24.740  22.781  1.00  0.00    -0.275 OA
BRANCH  60  63
ATOM     63  C   UNL A   1      33.256  24.792  24.977  1.00  0.00     0.095 C 
ATOM     64  C   UNL A   1      33.297  25.774  26.148  1.00  0.00     0.041 C 
ATOM     65  C   UNL A   1      32.204  23.702  25.354  1.00  0.00     0.095 C 
ATOM     66  C   UNL A   1      31.930  26.376  26.370  1.00  0.00    -0.030 C 
ATOM     67  C   UNL A   1      30.799  24.367  25.363  1.00  0.00     0.041 C 
ATOM     68  C   UNL A   1      30.804  25.754  25.972  1.00  0.00    -0.030 C 
BRANCH  65  69
ATOM     69  C   UNL A   1      32.452  23.117  26.762  1.00  0.00     0.229 C 
ATOM     70  O   UNL A   1      31.639  23.282  27.685  1.00  0.00    -0.274 OA
ATOM     71  N   UNL A   1      33.535  22.392  27.114  1.00  0.00    -0.308 N 
ATOM     72  H   UNL A   1      33.626  22.239  28.083  1.00  0.00     0.171 HD
BRANCH  71  73
ATOM     73  C   UNL A   1      34.526  21.837  26.357  1.00  0.00     0.168 A 
ATOM     74  N   UNL A   1      35.765  22.305  26.230  1.00  0.00    -0.153 NA
ATOM     75  C   UNL A   1      34.344  20.686  25.558  1.00  0.00     0.080 A 
ATOM     76  N   UNL A   1      36.341  21.501  25.308  1.00  0.00    -0.265 N 
ATOM     77  C   UNL A   1      35.504  20.519  24.854  1.00  0.00     0.127 A 
ATOM     78  Br  UNL A   1      32.766  19.692  25.400  1.00  0.00    -0.045 Br
BRANCH  76  79
ATOM     79  C   UNL A   1      37.744  21.664  24.940  1.00  0.00     0.182 C 
BRANCH  79  80
ATOM     80  C   UNL A   1      38.488  22.573  25.876  1.00  0.00     0.009 A 
ATOM     81  C   UNL A   1      38.125  23.918  26.041  1.00  0.00     0.008 A 
ATOM     82  C   UNL A   1      39.554  22.070  26.627  1.00  0.00     0.128 A 
ATOM     83  C   UNL A   1      38.818  24.728  26.946  1.00  0.00     0.001 A 
ATOM     84  C   UNL A   1      40.236  22.870  27.538  1.00  0.00     0.039 A 
ATOM     85  F   UNL A   1      39.945  20.798  26.460  1.00  0.00    -0.207 F 
ATOM     86  C   UNL A   1      39.866  24.202  27.702  1.00  0.00     0.003 A 
ENDBRANCH  79  80
ENDBRANCH  76  79
ENDBRANCH  71  73
ENDBRANCH  65  69
ENDBRANCH  60  63
ENDBRANCH  58  59
ENDBRANCH   1  58
TORSDOF 15
ENDMDL
MODEL 3
REMARK VINA RESULT:     -12.8      2.061      5.383
REMARK SMILES O=C(NCCCCNC(=O)[C@H]1CC=CC[C@@H]1C(=O)Nc1nn(Cc2ccccc2F)cc1Br)c1ccc(-c2c3nc(c(-c4ccccc4)c4ccc([nH]4)c(-c4ccccc4)c4nc(c(-c5ccccc5)c5ccc2[nH]5)C=C4)C=C3)cc1
REMARK SMILES IDX 6 1 5 2 4 3 3 4 1 5 2 6 34 8 35 9 81 10 36 11 80 12 37 13
REMARK SMILES IDX 38 14 39 15 74 16 40 17 79 18 73 19 75 20 41 21 78 22 72 23
REMARK SMILES IDX 71 24 42 26 64 27 49 28 63 29 50 30 53 31 62 32 76 33 51 34
REMARK SMILES IDX 52 35 61 37 77 38 54 39 43 40 44 41 48 42 45 43 47 44 46 45
REMARK SMILES IDX 65 46 66 47 70 48 67 49 69 50 68 51 55 52 56 53 60 54 57 55
REMARK SMILES IDX 59 56 58 57 7 58 8 59 9 60 10 62 11 63 12 64 16 65 13 66
REMARK SMILES IDX 15 67 14 68 17 69 18 70 19 71 20 73 21 74 32 75 22 76 31 77
REMARK SMILES IDX 33 78 23 79 24 80 25 81 29 82 26 83 28 84 30 85 27 86
REMARK H PARENT 3 7 75 25 53 36 8 61 19 72
REMARK Flexibility Score: inf
ROOT
ATOM      1  C   UNL A   1      31.369  27.102  26.166  1.00  0.00     0.023 C 
ENDROOT
BRANCH   1   2
ATOM      2  C   UNL A   1      31.870  28.058  27.242  1.00  0.00     0.023 C 
BRANCH   2   3
ATOM      3  C   UNL A   1      33.120  28.874  26.881  1.00  0.00     0.116 C 
BRANCH   3   4
ATOM      4  N   UNL A   1      33.152  30.241  27.376  1.00  0.00    -0.352 N 
ATOM      5  O   UNL A   1      33.851  32.277  27.924  1.00  0.00    -0.269 OA
ATOM      6  C   UNL A   1      34.154  31.091  27.756  1.00  0.00     0.251 C 
ATOM      7  H   UNL A   1      32.257  30.642  27.453  1.00  0.00     0.163 HD
BRANCH   6   8
ATOM      8  C   UNL A   1      35.541  30.661  28.060  1.00  0.00     0.039 A 
ATOM      9  C   UNL A   1      35.993  29.346  27.994  1.00  0.00     0.014 A 
ATOM     10  C   UNL A   1      36.431  31.664  28.488  1.00  0.00     0.014 A 
ATOM     11  C   UNL A   1      37.244  29.007  28.475  1.00  0.00     0.010 A 
ATOM     12  C   UNL A   1      37.711  31.341  28.924  1.00  0.00     0.010 A 
ATOM     13  C   UNL A   1      38.095  30.004  28.950  1.00  0.00    -0.014 A 
BRANCH  13  14
ATOM     14  C   UNL A   1      39.467  29.604  29.225  1.00  0.00     0.031 A 
ATOM     15  C   UNL A   1      39.806  29.648  30.675  1.00  0.00     0.074 A 
ATOM     16  C   UNL A   1      40.314  29.130  28.295  1.00  0.00     0.049 A 
ATOM     17  N   UNL A   1      40.692  30.382  31.264  1.00  0.00    -0.248 NA
ATOM     18  C   UNL A   1      38.940  28.892  31.596  1.00  0.00     0.031 C 
ATOM     19  C   UNL A   1      40.008  28.795  26.904  1.00  0.00     0.029 A 
ATOM     20  N   UNL A   1      41.607  28.724  28.438  1.00  0.00    -0.354 N 
ATOM     21  C   UNL A   1      40.635  30.027  32.610  1.00  0.00     0.074 A 
ATOM     22  C   UNL A   1      39.430  29.258  32.780  1.00  0.00     0.031 C 
ATOM     23  C   UNL A   1      40.995  28.012  26.415  1.00  0.00     0.029 A 
ATOM     24  C   UNL A   1      42.045  27.895  27.414  1.00  0.00     0.049 A 
ATOM     25  H   UNL A   1      42.176  28.991  29.195  1.00  0.00     0.167 HD
ATOM     26  C   UNL A   1      41.731  30.127  33.411  1.00  0.00     0.031 A 
ATOM     27  C   UNL A   1      43.144  27.099  27.425  1.00  0.00     0.031 A 
ATOM     28  C   UNL A   1      42.706  31.041  32.870  1.00  0.00     0.049 A 
ATOM     29  C   UNL A   1      44.044  27.574  28.499  1.00  0.00     0.074 A 
ATOM     30  C   UNL A   1      42.715  32.374  32.506  1.00  0.00     0.029 A 
ATOM     31  N   UNL A   1      43.824  30.489  32.296  1.00  0.00    -0.354 N 
ATOM     32  N   UNL A   1      44.705  28.692  28.445  1.00  0.00    -0.248 NA
ATOM     33  C   UNL A   1      43.900  26.998  29.827  1.00  0.00     0.031 C 
ATOM     34  C   UNL A   1      43.575  32.443  31.370  1.00  0.00     0.029 A 
ATOM     35  C   UNL A   1      44.083  31.164  31.137  1.00  0.00     0.049 A 
ATOM     36  H   UNL A   1      44.346  29.736  32.655  1.00  0.00     0.167 HD
ATOM     37  C   UNL A   1      44.653  29.190  29.739  1.00  0.00     0.074 A 
ATOM     38  C   UNL A   1      44.261  28.051  30.566  1.00  0.00     0.031 C 
ATOM     39  C   UNL A   1      44.651  30.537  29.967  1.00  0.00     0.031 A 
BRANCH  26  40
ATOM     40  C   UNL A   1      42.134  29.004  34.353  1.00  0.00    -0.014 A 
ATOM     41  C   UNL A   1      42.569  27.789  33.789  1.00  0.00     0.009 A 
ATOM     42  C   UNL A   1      41.779  28.969  35.715  1.00  0.00     0.009 A 
ATOM     43  C   UNL A   1      42.495  26.588  34.504  1.00  0.00     0.001 A 
ATOM     44  C   UNL A   1      41.750  27.779  36.446  1.00  0.00     0.001 A 
ATOM     45  C   UNL A   1      42.066  26.581  35.826  1.00  0.00     0.000 A 
ENDBRANCH  26  40
BRANCH  27  46
ATOM     46  C   UNL A   1      43.350  25.797  26.755  1.00  0.00    -0.014 A 
ATOM     47  C   UNL A   1      42.633  24.660  27.162  1.00  0.00     0.009 A 
ATOM     48  C   UNL A   1      44.055  25.722  25.541  1.00  0.00     0.009 A 
ATOM     49  C   UNL A   1      42.592  23.508  26.365  1.00  0.00     0.001 A 
ATOM     50  C   UNL A   1      44.023  24.570  24.749  1.00  0.00     0.001 A 
ATOM     51  C   UNL A   1      43.279  23.469  25.153  1.00  0.00     0.000 A 
ENDBRANCH  27  46
BRANCH  39  52
ATOM     52  C   UNL A   1      45.025  31.447  28.827  1.00  0.00    -0.014 A 
ATOM     53  C   UNL A   1      44.100  31.927  27.884  1.00  0.00     0.009 A 
ATOM     54  C   UNL A   1      46.341  31.931  28.777  1.00  0.00     0.009 A 
ATOM     55  C   UNL A   1      44.495  32.828  26.891  1.00  0.00     0.001 A 
ATOM     56  C   UNL A   1      46.730  32.850  27.802  1.00  0.00     0.001 A 
ATOM     57  C   UNL A   1      45.809  33.291  26.853  1.00  0.00     0.000 A 
ENDBRANCH  39  52
ENDBRANCH  13  14
ENDBRANCH   6   8
ENDBRANCH   3   4
ENDBRANCH   2   3
ENDBRANCH   1   2
BRANCH   1  58
ATOM     58  C   UNL A   1      30.849  25.770  26.681  1.00  0.00     0.116 C 
BRANCH  58  59
ATOM     59  N   UNL A   1      31.839  24.712  26.695  1.00  0.00    -0.356 N 
ATOM     60  C   UNL A   1      33.007  24.548  26.008  1.00  0.00     0.224 C 
ATOM     61  H   UNL A   1      31.631  23.974  27.312  1.00  0.00     0.163 HD
ATOM     62  O   UNL A   1      33.830  23.825  26.586  1.00  0.00    -0.275 OA
BRANCH  60  63
ATOM     63  C   UNL A   1      33.323  25.111  24.590  1.00  0.00     0.095 C 
ATOM     64  C   UNL A   1      34.719  24.828  24.033  1.00  0.00     0.041 C 
ATOM     65  C   UNL A   1      32.311  24.527  23.555  1.00  0.00     0.095 C 
ATOM     66  C   UNL A   1      34.914  23.342  23.845  1.00  0.00    -0.030 C 
ATOM     67  C   UNL A   1      32.439  22.979  23.573  1.00  0.00     0.041 C 
ATOM     68  C   UNL A   1      33.874  22.504  23.682  1.00  0.00    -0.030 C 
BRANCH  65  69
ATOM     69  C   UNL A   1      32.611  25.003  22.116  1.00  0.00     0.229 C 
ATOM     70  O   UNL A   1      33.087  24.236  21.265  1.00  0.00    -0.274 OA
ATOM     71  N   UNL A   1      32.390  26.253  21.658  1.00  0.00    -0.308 N 
ATOM     72  H   UNL A   1      32.788  26.441  20.777  1.00  0.00     0.171 HD
BRANCH  71  73
ATOM     73  C   UNL A   1      31.708  27.302  22.207  1.00  0.00     0.168 A 
ATOM     74  N   UNL A   1      30.386  27.443  22.235  1.00  0.00    -0.153 NA
ATOM     75  C   UNL A   1      32.341  28.421  22.792  1.00  0.00     0.080 A 
ATOM     76  N   UNL A   1      30.185  28.668  22.771  1.00  0.00    -0.265 N 
ATOM     77  C   UNL A   1      31.348  29.309  23.099  1.00  0.00     0.127 A 
ATOM     78  Br  UNL A   1      34.188  28.678  22.964  1.00  0.00    -0.045 Br
BRANCH  76  79
ATOM     79  C   UNL A   1      28.836  29.165  23.024  1.00  0.00     0.182 C 
BRANCH  79  80
ATOM     80  C   UNL A   1      28.561  30.473  22.338  1.00  0.00     0.009 A 
ATOM     81  C   UNL A   1      28.106  30.528  21.012  1.00  0.00     0.008 A 
ATOM     82  C   UNL A   1      28.734  31.671  23.037  1.00  0.00     0.128 A 
ATOM     83  C   UNL A   1      27.828  31.761  20.414  1.00  0.00     0.001 A 
ATOM     84  C   UNL A   1      28.445  32.897  22.450  1.00  0.00     0.039 A 
ATOM     85  F   UNL A   1      29.205  31.647  24.293  1.00  0.00    -0.207 F 
ATOM     86  C   UNL A   1      27.987  32.945  21.136  1.00  0.00     0.003 A 
ENDBRANCH  79  80
ENDBRANCH  76  79
ENDBRANCH  71  73
ENDBRANCH  65  69
ENDBRANCH  60  63
ENDBRANCH  58  59
ENDBRANCH   1  58
TORSDOF 15
ENDMDL
