MODEL 1
REMARK VINA RESULT:     -13.5      0.000      0.000
REMARK SMILES C[C@H](C(=O)NCCCCNC(=O)c1ccc(-c2c3nc(c(-c4ccccc4)c4ccc([nH]4)c(-c4ccccc4)c4nc(c(-c5ccccc5)c5ccc2[nH]5)C=C4)C=C3)cc1)[C@@H](C(=O)c1ccccc1)c1ccc(F)cc1
REMARK SMILES IDX 7 1 6 2 5 3 3 4 4 5 2 7 1 8 61 9 62 10 63 11 64 12 65 13
REMARK SMILES IDX 69 14 66 15 68 16 67 17 70 18 71 19 76 20 72 21 75 22 73 23
REMARK SMILES IDX 74 24 8 25 9 26 10 27 11 28 12 30 13 31 14 32 60 33 15 34
REMARK SMILES IDX 59 35 16 36 17 37 18 38 53 39 19 40 58 41 52 42 54 43 20 44
REMARK SMILES IDX 57 45 51 46 50 47 21 49 43 50 28 51 42 52 29 53 32 54 41 55
REMARK SMILES IDX 55 56 30 57 31 58 40 60 56 61 33 62 22 63 23 64 27 65 24 66
REMARK SMILES IDX 26 67 25 68 44 69 45 70 49 71 46 72 48 73 47 74 34 75 35 76
REMARK SMILES IDX 39 77 36 78 38 79 37 80
REMARK H PARENT 5 6 10 29 54 48 32 59
REMARK Flexibility Score: inf
ROOT
ATOM      1  C   UNL A   1      34.725  21.001  25.019  1.00  0.00     0.023 C 
ENDROOT
BRANCH   1   2
ATOM      2  C   UNL A   1      33.947  21.101  26.605  1.00  0.00     0.116 C 
BRANCH   2   3
ATOM      3  N   UNL A   1      32.415  21.666  26.887  1.00  0.00    -0.356 N 
ATOM      4  C   UNL A   1      31.708  22.879  27.098  1.00  0.00     0.223 C 
ATOM      5  O   UNL A   1      30.581  22.834  27.592  1.00  0.00    -0.275 OA
ATOM      6  H   UNL A   1      31.786  20.910  26.919  1.00  0.00     0.163 HD
BRANCH   4   7
ATOM      7  C   UNL A   1      32.315  24.216  26.695  1.00  0.00     0.090 C 
ATOM      8  C   UNL A   1      33.784  24.477  26.337  1.00  0.00     0.019 C 
BRANCH   7   9
ATOM      9  C   UNL A   1      31.500  24.588  25.507  1.00  0.00     0.103 C 
BRANCH   9  10
ATOM     10  C   UNL A   1      30.639  25.905  25.923  1.00  0.00     0.171 C 
ATOM     11  O   UNL A   1      29.446  25.628  26.169  1.00  0.00    -0.293 OA
BRANCH  10  12
ATOM     12  C   UNL A   1      31.064  27.611  26.283  1.00  0.00     0.018 A 
ATOM     13  C   UNL A   1      32.297  28.121  27.609  1.00  0.00     0.012 A 
ATOM     14  C   UNL A   1      31.477  28.091  24.615  1.00  0.00     0.012 A 
ATOM     15  C   UNL A   1      33.966  28.759  27.146  1.00  0.00     0.001 A 
ATOM     16  C   UNL A   1      33.053  28.744  24.199  1.00  0.00     0.001 A 
ATOM     17  C   UNL A   1      34.290  29.080  25.414  1.00  0.00     0.000 A 
ENDBRANCH  10  12
ENDBRANCH   9  10
BRANCH   9  18
ATOM     18  C   UNL A   1      32.361  24.049  24.282  1.00  0.00    -0.036 A 
ATOM     19  C   UNL A   1      33.046  24.966  23.465  1.00  0.00     0.007 A 
ATOM     20  C   UNL A   1      32.104  22.772  23.669  1.00  0.00     0.007 A 
ATOM     21  C   UNL A   1      33.373  24.646  22.129  1.00  0.00     0.039 A 
ATOM     22  C   UNL A   1      32.474  22.436  22.368  1.00  0.00     0.039 A 
ATOM     23  C   UNL A   1      33.077  23.396  21.593  1.00  0.00     0.123 A 
ATOM     24  F   UNL A   1      33.322  23.137  20.303  1.00  0.00    -0.207 F 
ENDBRANCH   9  18
ENDBRANCH   7   9
ENDBRANCH   4   7
ENDBRANCH   2   3
ENDBRANCH   1   2
BRANCH   1  25
ATOM     25  C   UNL A   1      35.820  22.332  24.220  1.00  0.00     0.023 C 
BRANCH  25  26
ATOM     26  C   UNL A   1      37.432  23.420  25.294  1.00  0.00     0.116 C 
BRANCH  26  27
ATOM     27  N   UNL A   1      38.836  22.733  26.017  1.00  0.00    -0.352 N 
ATOM     28  C   UNL A   1      40.101  23.258  26.239  1.00  0.00     0.251 C 
ATOM     29  H   UNL A   1      38.720  21.805  26.328  1.00  0.00     0.163 HD
ATOM     30  O   UNL A   1      41.120  22.609  26.022  1.00  0.00    -0.269 OA
BRANCH  28  31
ATOM     31  C   UNL A   1      40.184  24.617  26.781  1.00  0.00     0.039 A 
ATOM     32  C   UNL A   1      40.866  25.666  26.145  1.00  0.00     0.014 A 
ATOM     33  C   UNL A   1      39.591  24.789  28.024  1.00  0.00     0.014 A 
ATOM     34  C   UNL A   1      40.925  26.916  26.771  1.00  0.00     0.010 A 
ATOM     35  C   UNL A   1      39.605  26.030  28.615  1.00  0.00     0.010 A 
ATOM     36  C   UNL A   1      40.298  27.092  28.012  1.00  0.00    -0.014 A 
BRANCH  36  37
ATOM     37  C   UNL A   1      40.388  28.319  28.826  1.00  0.00     0.031 A 
ATOM     38  C   UNL A   1      41.418  28.358  29.919  1.00  0.00     0.074 A 
ATOM     39  C   UNL A   1      39.427  29.252  28.737  1.00  0.00     0.049 A 
ATOM     40  N   UNL A   1      41.485  29.134  30.968  1.00  0.00    -0.248 NA
ATOM     41  C   UNL A   1      42.472  27.329  29.855  1.00  0.00     0.031 C 
ATOM     42  C   UNL A   1      38.362  29.287  27.736  1.00  0.00     0.029 A 
ATOM     43  N   UNL A   1      39.167  30.323  29.550  1.00  0.00    -0.354 N 
ATOM     44  C   UNL A   1      42.557  28.656  31.711  1.00  0.00     0.074 A 
ATOM     45  C   UNL A   1      43.076  27.495  31.021  1.00  0.00     0.031 C 
ATOM     46  C   UNL A   1      37.557  30.330  27.997  1.00  0.00     0.029 A 
ATOM     47  C   UNL A   1      38.019  30.996  29.212  1.00  0.00     0.049 A 
ATOM     48  H   UNL A   1      39.745  30.584  30.303  1.00  0.00     0.167 HD
ATOM     49  C   UNL A   1      43.069  29.149  32.862  1.00  0.00     0.031 A 
ATOM     50  C   UNL A   1      37.402  32.017  29.834  1.00  0.00     0.031 A 
ATOM     51  C   UNL A   1      42.546  30.311  33.527  1.00  0.00     0.049 A 
ATOM     52  C   UNL A   1      37.990  32.556  31.109  1.00  0.00     0.074 A 
ATOM     53  C   UNL A   1      43.024  30.949  34.656  1.00  0.00     0.029 A 
ATOM     54  N   UNL A   1      41.421  31.010  33.114  1.00  0.00    -0.354 N 
ATOM     55  N   UNL A   1      39.042  32.143  31.776  1.00  0.00    -0.248 NA
ATOM     56  C   UNL A   1      37.311  33.710  31.711  1.00  0.00     0.031 C 
ATOM     57  C   UNL A   1      42.157  32.004  34.957  1.00  0.00     0.029 A 
ATOM     58  C   UNL A   1      41.178  32.064  33.977  1.00  0.00     0.049 A 
ATOM     59  H   UNL A   1      40.876  30.790  32.324  1.00  0.00     0.167 HD
ATOM     60  C   UNL A   1      39.174  33.010  32.853  1.00  0.00     0.074 A 
ATOM     61  C   UNL A   1      38.099  33.975  32.744  1.00  0.00     0.031 C 
ATOM     62  C   UNL A   1      40.104  33.015  33.840  1.00  0.00     0.031 A 
BRANCH  49  63
ATOM     63  C   UNL A   1      44.240  28.425  33.467  1.00  0.00    -0.014 A 
ATOM     64  C   UNL A   1      45.562  28.765  33.134  1.00  0.00     0.009 A 
ATOM     65  C   UNL A   1      44.021  27.390  34.390  1.00  0.00     0.009 A 
ATOM     66  C   UNL A   1      46.635  28.052  33.672  1.00  0.00     0.001 A 
ATOM     67  C   UNL A   1      45.097  26.704  34.956  1.00  0.00     0.001 A 
ATOM     68  C   UNL A   1      46.402  27.026  34.586  1.00  0.00     0.000 A 
ENDBRANCH  49  63
BRANCH  50  69
ATOM     69  C   UNL A   1      36.178  32.612  29.242  1.00  0.00    -0.014 A 
ATOM     70  C   UNL A   1      34.968  31.900  29.268  1.00  0.00     0.009 A 
ATOM     71  C   UNL A   1      36.199  33.890  28.663  1.00  0.00     0.009 A 
ATOM     72  C   UNL A   1      33.813  32.443  28.702  1.00  0.00     0.001 A 
ATOM     73  C   UNL A   1      35.035  34.445  28.126  1.00  0.00     0.001 A 
ATOM     74  C   UNL A   1      33.845  33.717  28.137  1.00  0.00     0.000 A 
ENDBRANCH  50  69
BRANCH  62  75
ATOM     75  C   UNL A   1      40.037  34.129  34.848  1.00  0.00    -0.014 A 
ATOM     76  C   UNL A   1      39.333  33.988  36.053  1.00  0.00     0.009 A 
ATOM     77  C   UNL A   1      40.743  35.319  34.605  1.00  0.00     0.009 A 
ATOM     78  C   UNL A   1      39.313  35.032  36.982  1.00  0.00     0.001 A 
ATOM     79  C   UNL A   1      40.749  36.345  35.549  1.00  0.00     0.001 A 
ATOM     80  C   UNL A   1      40.026  36.205  36.732  1.00  0.00     0.000 A 
ENDBRANCH  62  75
ENDBRANCH  36  37
ENDBRANCH  28  31
ENDBRANCH  26  27
ENDBRANCH  25  26
ENDBRANCH   1  25
TORSDOF 15
ENDMDL
MODEL 2
REMARK VINA RESULT:     -13.2      3.022      8.013
REMARK SMILES C[C@H](C(=O)NCCCCNC(=O)c1ccc(-c2c3nc(c(-c4ccccc4)c4ccc([nH]4)c(-c4ccccc4)c4nc(c(-c5ccccc5)c5ccc2[nH]5)C=C4)C=C3)cc1)[C@@H](C(=O)c1ccccc1)c1ccc(F)cc1
REMARK SMILES IDX 7 1 6 2 5 3 3 4 4 5 2 7 1 8 61 9 62 10 63 11 64 12 65 13
REMARK SMILES IDX 69 14 66 15 68 16 67 17 70 18 71 19 76 20 72 21 75 22 73 23
REMARK SMILES IDX 74 24 8 25 9 26 10 27 11 28 12 30 13 31 14 32 60 33 15 34
REMARK SMILES IDX 59 35 16 36 17 37 18 38 53 39 19 40 58 41 52 42 54 43 20 44
REMARK SMILES IDX 57 45 51 46 50 47 21 49 43 50 28 51 42 52 29 53 32 54 41 55
REMARK SMILES IDX 55 56 30 57 31 58 40 60 56 61 33 62 22 63 23 64 27 65 24 66
REMARK SMILES IDX 26 67 25 68 44 69 45 70 49 71 46 72 48 73 47 74 34 75 35 76
REMARK SMILES IDX 39 77 36 78 38 79 37 80
REMARK H PARENT 5 6 10 29 54 48 32 59
REMARK Flexibility Score: inf
ROOT
ATOM      1  C   UNL A   1      32.876  30.756  27.218  1.00  0.00     0.023 C 
ENDROOT
BRANCH   1   2
ATOM      2  C   UNL A   1      33.743  29.507  26.313  1.00  0.00     0.116 C 
BRANCH   2   3
ATOM      3  N   UNL A   1      33.767  29.363  24.662  1.00  0.00    -0.356 N 
ATOM      4  C   UNL A   1      33.780  28.376  23.641  1.00  0.00     0.223 C 
ATOM      5  O   UNL A   1      34.120  28.700  22.503  1.00  0.00    -0.275 OA
ATOM      6  H   UNL A   1      33.777  30.258  24.253  1.00  0.00     0.163 HD
BRANCH   4   7
ATOM      7  C   UNL A   1      33.354  26.945  23.935  1.00  0.00     0.090 C 
ATOM      8  C   UNL A   1      32.698  26.437  25.225  1.00  0.00     0.019 C 
BRANCH   7   9
ATOM      9  C   UNL A   1      32.409  26.661  22.821  1.00  0.00     0.103 C 
BRANCH   9  10
ATOM     10  C   UNL A   1      32.981  25.352  22.042  1.00  0.00     0.171 C 
ATOM     11  O   UNL A   1      33.264  25.599  20.851  1.00  0.00    -0.293 OA
BRANCH  10  12
ATOM     12  C   UNL A   1      33.464  23.703  22.563  1.00  0.00     0.018 A 
ATOM     13  C   UNL A   1      34.913  23.354  23.711  1.00  0.00     0.012 A 
ATOM     14  C   UNL A   1      31.864  23.182  23.155  1.00  0.00     0.012 A 
ATOM     15  C   UNL A   1      34.624  22.832  25.458  1.00  0.00     0.001 A 
ATOM     16  C   UNL A   1      31.615  22.638  24.806  1.00  0.00     0.001 A 
ATOM     17  C   UNL A   1      32.944  22.458  25.954  1.00  0.00     0.000 A 
ENDBRANCH  10  12
ENDBRANCH   9  10
BRANCH   9  18
ATOM     18  C   UNL A   1      31.024  27.238  23.352  1.00  0.00    -0.036 A 
ATOM     19  C   UNL A   1      30.017  26.345  23.760  1.00  0.00     0.007 A 
ATOM     20  C   UNL A   1      30.556  28.552  22.997  1.00  0.00     0.007 A 
ATOM     21  C   UNL A   1      28.656  26.724  23.738  1.00  0.00     0.039 A 
ATOM     22  C   UNL A   1      29.218  28.944  23.026  1.00  0.00     0.039 A 
ATOM     23  C   UNL A   1      28.271  28.008  23.364  1.00  0.00     0.123 A 
ATOM     24  F   UNL A   1      26.975  28.327  23.272  1.00  0.00    -0.207 F 
ENDBRANCH   9  18
ENDBRANCH   7   9
ENDBRANCH   4   7
ENDBRANCH   2   3
ENDBRANCH   1   2
BRANCH   1  25
ATOM     25  C   UNL A   1      33.622  32.355  27.920  1.00  0.00     0.023 C 
BRANCH  25  26
ATOM     26  C   UNL A   1      32.638  34.343  27.796  1.00  0.00     0.116 C 
BRANCH  26  27
ATOM     27  N   UNL A   1      32.891  35.686  28.844  1.00  0.00    -0.352 N 
ATOM     28  C   UNL A   1      32.996  35.763  30.225  1.00  0.00     0.251 C 
ATOM     29  H   UNL A   1      32.977  36.552  28.381  1.00  0.00     0.163 HD
ATOM     30  O   UNL A   1      32.437  36.643  30.870  1.00  0.00    -0.269 OA
BRANCH  28  31
ATOM     31  C   UNL A   1      33.834  34.765  30.896  1.00  0.00     0.039 A 
ATOM     32  C   UNL A   1      33.454  34.093  32.069  1.00  0.00     0.014 A 
ATOM     33  C   UNL A   1      35.084  34.570  30.324  1.00  0.00     0.014 A 
ATOM     34  C   UNL A   1      34.349  33.193  32.656  1.00  0.00     0.010 A 
ATOM     35  C   UNL A   1      35.943  33.648  30.873  1.00  0.00     0.010 A 
ATOM     36  C   UNL A   1      35.599  32.978  32.057  1.00  0.00    -0.014 A 
BRANCH  36  37
ATOM     37  C   UNL A   1      36.671  32.149  32.640  1.00  0.00     0.031 A 
ATOM     38  C   UNL A   1      37.276  32.602  33.939  1.00  0.00     0.074 A 
ATOM     39  C   UNL A   1      37.233  31.174  31.909  1.00  0.00     0.049 A 
ATOM     40  N   UNL A   1      38.420  32.276  34.479  1.00  0.00    -0.248 NA
ATOM     41  C   UNL A   1      36.516  33.618  34.690  1.00  0.00     0.031 C 
ATOM     42  C   UNL A   1      36.746  30.683  30.621  1.00  0.00     0.029 A 
ATOM     43  N   UNL A   1      38.381  30.460  32.134  1.00  0.00    -0.354 N 
ATOM     44  C   UNL A   1      38.537  33.081  35.605  1.00  0.00     0.074 A 
ATOM     45  C   UNL A   1      37.377  33.944  35.640  1.00  0.00     0.031 C 
ATOM     46  C   UNL A   1      37.594  29.748  30.164  1.00  0.00     0.029 A 
ATOM     47  C   UNL A   1      38.707  29.617  31.101  1.00  0.00     0.049 A 
ATOM     48  H   UNL A   1      38.918  30.544  32.954  1.00  0.00     0.167 HD
ATOM     49  C   UNL A   1      39.522  33.091  36.533  1.00  0.00     0.031 A 
ATOM     50  C   UNL A   1      39.799  28.851  30.924  1.00  0.00     0.031 A 
ATOM     51  C   UNL A   1      40.663  32.217  36.485  1.00  0.00     0.049 A 
ATOM     52  C   UNL A   1      40.880  28.871  31.970  1.00  0.00     0.074 A 
ATOM     53  C   UNL A   1      41.686  32.083  37.405  1.00  0.00     0.029 A 
ATOM     54  N   UNL A   1      40.924  31.325  35.456  1.00  0.00    -0.354 N 
ATOM     55  N   UNL A   1      40.959  29.586  33.067  1.00  0.00    -0.248 NA
ATOM     56  C   UNL A   1      42.018  27.968  31.758  1.00  0.00     0.031 C 
ATOM     57  C   UNL A   1      42.596  31.146  36.905  1.00  0.00     0.029 A 
ATOM     58  C   UNL A   1      42.103  30.647  35.708  1.00  0.00     0.049 A 
ATOM     59  H   UNL A   1      40.355  31.193  34.664  1.00  0.00     0.167 HD
ATOM     60  C   UNL A   1      42.133  29.192  33.695  1.00  0.00     0.074 A 
ATOM     61  C   UNL A   1      42.728  28.169  32.860  1.00  0.00     0.031 C 
ATOM     62  C   UNL A   1      42.669  29.628  34.862  1.00  0.00     0.031 A 
BRANCH  49  63
ATOM     63  C   UNL A   1      39.405  34.082  37.658  1.00  0.00    -0.014 A 
ATOM     64  C   UNL A   1      39.866  35.402  37.521  1.00  0.00     0.009 A 
ATOM     65  C   UNL A   1      38.817  33.695  38.872  1.00  0.00     0.009 A 
ATOM     66  C   UNL A   1      39.789  36.296  38.592  1.00  0.00     0.001 A 
ATOM     67  C   UNL A   1      38.707  34.601  39.928  1.00  0.00     0.001 A 
ATOM     68  C   UNL A   1      39.206  35.896  39.792  1.00  0.00     0.000 A 
ENDBRANCH  49  63
BRANCH  50  69
ATOM     69  C   UNL A   1      39.905  27.980  29.727  1.00  0.00    -0.014 A 
ATOM     70  C   UNL A   1      39.365  26.685  29.751  1.00  0.00     0.009 A 
ATOM     71  C   UNL A   1      40.529  28.432  28.554  1.00  0.00     0.009 A 
ATOM     72  C   UNL A   1      39.471  25.851  28.636  1.00  0.00     0.001 A 
ATOM     73  C   UNL A   1      40.606  27.608  27.429  1.00  0.00     0.001 A 
ATOM     74  C   UNL A   1      40.086  26.315  27.474  1.00  0.00     0.000 A 
ENDBRANCH  50  69
BRANCH  62  75
ATOM     75  C   UNL A   1      43.933  28.963  35.334  1.00  0.00    -0.014 A 
ATOM     76  C   UNL A   1      43.903  27.820  36.146  1.00  0.00     0.009 A 
ATOM     77  C   UNL A   1      45.174  29.462  34.903  1.00  0.00     0.009 A 
ATOM     78  C   UNL A   1      45.095  27.210  36.545  1.00  0.00     0.001 A 
ATOM     79  C   UNL A   1      46.359  28.829  35.274  1.00  0.00     0.001 A 
ATOM     80  C   UNL A   1      46.320  27.710  36.102  1.00  0.00     0.000 A 
ENDBRANCH  62  75
ENDBRANCH  36  37
ENDBRANCH  28  31
ENDBRANCH  26  27
ENDBRANCH  25  26
ENDBRANCH   1  25
TORSDOF 15
ENDMDL
MODEL 3
REMARK VINA RESULT:     -13.1      4.044      5.670
REMARK SMILES C[C@H](C(=O)NCCCCNC(=O)c1ccc(-c2c3nc(c(-c4ccccc4)c4ccc([nH]4)c(-c4ccccc4)c4nc(c(-c5ccccc5)c5ccc2[nH]5)C=C4)C=C3)cc1)[C@@H](C(=O)c1ccccc1)c1ccc(F)cc1
REMARK SMILES IDX 7 1 6 2 5 3 3 4 4 5 2 7 1 8 61 9 62 10 63 11 64 12 65 13
REMARK SMILES IDX 69 14 66 15 68 16 67 17 70 18 71 19 76 20 72 21 75 22 73 23
REMARK SMILES IDX 74 24 8 25 9 26 10 27 11 28 12 30 13 31 14 32 60 33 15 34
REMARK SMILES IDX 59 35 16 36 17 37 18 38 53 39 19 40 58 41 52 42 54 43 20 44
REMARK SMILES IDX 57 45 51 46 50 47 21 49 43 50 28 51 42 52 29 53 32 54 41 55
REMARK SMILES IDX 55 56 30 57 31 58 40 60 56 61 33 62 22 63 23 64 27 65 24 66
REMARK SMILES IDX 26 67 25 68 44 69 45 70 49 71 46 72 48 73 47 74 34 75 35 76
REMARK SMILES IDX 39 77 36 78 38 79 37 80
REMARK H PARENT 5 6 10 29 54 48 32 59
REMARK Flexibility Score: inf
ROOT
ATOM      1  C   UNL A   1      37.265  22.493  25.907  1.00  0.00     0.023 C 
ENDROOT
BRANCH   1   2
ATOM      2  C   UNL A   1      35.747  21.585  25.881  1.00  0.00     0.116 C 
BRANCH   2   3
ATOM      3  N   UNL A   1      34.537  21.708  27.007  1.00  0.00    -0.356 N 
ATOM      4  C   UNL A   1      33.516  22.596  27.437  1.00  0.00     0.223 C 
ATOM      5  O   UNL A   1      33.014  22.433  28.549  1.00  0.00    -0.275 OA
ATOM      6  H   UNL A   1      34.521  20.896  27.563  1.00  0.00     0.163 HD
BRANCH   4   7
ATOM      7  C   UNL A   1      33.025  23.717  26.531  1.00  0.00     0.090 C 
ATOM      8  C   UNL A   1      33.794  24.344  25.361  1.00  0.00     0.019 C 
BRANCH   7   9
ATOM      9  C   UNL A   1      31.768  23.147  25.976  1.00  0.00     0.103 C 
BRANCH   9  10
ATOM     10  C   UNL A   1      30.573  24.180  26.363  1.00  0.00     0.171 C 
ATOM     11  O   UNL A   1      29.818  23.717  27.244  1.00  0.00    -0.293 OA
BRANCH  10  12
ATOM     12  C   UNL A   1      30.217  25.890  25.945  1.00  0.00     0.018 A 
ATOM     13  C   UNL A   1      31.335  27.331  26.404  1.00  0.00     0.012 A 
ATOM     14  C   UNL A   1      29.955  25.638  24.199  1.00  0.00     0.012 A 
ATOM     15  C   UNL A   1      32.349  28.181  25.118  1.00  0.00     0.001 A 
ATOM     16  C   UNL A   1      30.893  26.493  22.985  1.00  0.00     0.001 A 
ATOM     17  C   UNL A   1      32.071  27.740  23.404  1.00  0.00     0.000 A 
ENDBRANCH  10  12
ENDBRANCH   9  10
BRANCH   9  18
ATOM     18  C   UNL A   1      32.266  22.294  24.728  1.00  0.00    -0.036 A 
ATOM     19  C   UNL A   1      32.219  22.862  23.442  1.00  0.00     0.007 A 
ATOM     20  C   UNL A   1      32.301  20.855  24.749  1.00  0.00     0.007 A 
ATOM     21  C   UNL A   1      32.138  22.049  22.290  1.00  0.00     0.039 A 
ATOM     22  C   UNL A   1      32.275  20.052  23.610  1.00  0.00     0.039 A 
ATOM     23  C   UNL A   1      32.157  20.661  22.384  1.00  0.00     0.123 A 
ATOM     24  F   UNL A   1      32.000  19.905  21.291  1.00  0.00    -0.207 F 
ENDBRANCH   9  18
ENDBRANCH   7   9
ENDBRANCH   4   7
ENDBRANCH   2   3
ENDBRANCH   1   2
BRANCH   1  25
ATOM     25  C   UNL A   1      39.014  21.754  25.953  1.00  0.00     0.023 C 
BRANCH  25  26
ATOM     26  C   UNL A   1      39.451  19.587  25.731  1.00  0.00     0.116 C 
BRANCH  26  27
ATOM     27  N   UNL A   1      40.930  18.789  26.112  1.00  0.00    -0.352 N 
ATOM     28  C   UNL A   1      42.250  19.183  25.951  1.00  0.00     0.251 C 
ATOM     29  H   UNL A   1      40.817  17.897  26.516  1.00  0.00     0.163 HD
ATOM     30  O   UNL A   1      43.108  18.416  25.527  1.00  0.00    -0.269 OA
BRANCH  28  31
ATOM     31  C   UNL A   1      42.601  20.551  26.342  1.00  0.00     0.039 A 
ATOM     32  C   UNL A   1      42.462  21.045  27.649  1.00  0.00     0.014 A 
ATOM     33  C   UNL A   1      43.023  21.368  25.302  1.00  0.00     0.014 A 
ATOM     34  C   UNL A   1      42.781  22.382  27.907  1.00  0.00     0.010 A 
ATOM     35  C   UNL A   1      43.385  22.668  25.566  1.00  0.00     0.010 A 
ATOM     36  C   UNL A   1      43.236  23.194  26.859  1.00  0.00    -0.014 A 
BRANCH  36  37
ATOM     37  C   UNL A   1      43.490  24.642  26.975  1.00  0.00     0.031 A 
ATOM     38  C   UNL A   1      44.920  25.103  26.972  1.00  0.00     0.074 A 
ATOM     39  C   UNL A   1      42.489  25.471  27.312  1.00  0.00     0.049 A 
ATOM     40  N   UNL A   1      45.429  26.231  27.392  1.00  0.00    -0.248 NA
ATOM     41  C   UNL A   1      45.916  24.125  26.499  1.00  0.00     0.031 C 
ATOM     42  C   UNL A   1      41.072  25.116  27.379  1.00  0.00     0.029 A 
ATOM     43  N   UNL A   1      42.531  26.779  27.716  1.00  0.00    -0.354 N 
ATOM     44  C   UNL A   1      46.805  26.078  27.279  1.00  0.00     0.074 A 
ATOM     45  C   UNL A   1      47.051  24.735  26.802  1.00  0.00     0.031 C 
ATOM     46  C   UNL A   1      40.377  26.182  27.805  1.00  0.00     0.029 A 
ATOM     47  C   UNL A   1      41.307  27.272  28.092  1.00  0.00     0.049 A 
ATOM     48  H   UNL A   1      43.358  27.313  27.737  1.00  0.00     0.167 HD
ATOM     49  C   UNL A   1      47.776  26.983  27.540  1.00  0.00     0.031 A 
ATOM     50  C   UNL A   1      40.983  28.460  28.634  1.00  0.00     0.031 A 
ATOM     51  C   UNL A   1      47.510  28.318  28.003  1.00  0.00     0.049 A 
ATOM     52  C   UNL A   1      42.077  29.456  28.911  1.00  0.00     0.074 A 
ATOM     53  C   UNL A   1      48.404  29.347  28.231  1.00  0.00     0.029 A 
ATOM     54  N   UNL A   1      46.247  28.805  28.306  1.00  0.00    -0.354 N 
ATOM     55  N   UNL A   1      43.372  29.333  28.743  1.00  0.00    -0.248 NA
ATOM     56  C   UNL A   1      41.660  30.760  29.443  1.00  0.00     0.031 C 
ATOM     57  C   UNL A   1      47.686  30.442  28.724  1.00  0.00     0.029 A 
ATOM     58  C   UNL A   1      46.338  30.116  28.737  1.00  0.00     0.049 A 
ATOM     59  H   UNL A   1      45.409  28.293  28.227  1.00  0.00     0.167 HD
ATOM     60  C   UNL A   1      43.922  30.555  29.109  1.00  0.00     0.074 A 
ATOM     61  C   UNL A   1      42.817  31.407  29.501  1.00  0.00     0.031 C 
ATOM     62  C   UNL A   1      45.220  30.944  29.115  1.00  0.00     0.031 A 
BRANCH  49  63
ATOM     63  C   UNL A   1      49.201  26.549  27.339  1.00  0.00    -0.014 A 
ATOM     64  C   UNL A   1      49.820  26.629  26.080  1.00  0.00     0.009 A 
ATOM     65  C   UNL A   1      49.943  26.058  28.425  1.00  0.00     0.009 A 
ATOM     66  C   UNL A   1      51.130  26.180  25.902  1.00  0.00     0.001 A 
ATOM     67  C   UNL A   1      51.265  25.645  28.253  1.00  0.00     0.001 A 
ATOM     68  C   UNL A   1      51.853  25.692  26.990  1.00  0.00     0.000 A 
ENDBRANCH  49  63
BRANCH  50  69
ATOM     69  C   UNL A   1      39.563  28.782  28.918  1.00  0.00    -0.014 A 
ATOM     70  C   UNL A   1      39.021  28.507  30.183  1.00  0.00     0.009 A 
ATOM     71  C   UNL A   1      38.744  29.374  27.944  1.00  0.00     0.009 A 
ATOM     72  C   UNL A   1      37.682  28.792  30.459  1.00  0.00     0.001 A 
ATOM     73  C   UNL A   1      37.413  29.687  28.232  1.00  0.00     0.001 A 
ATOM     74  C   UNL A   1      36.881  29.387  29.486  1.00  0.00     0.000 A 
ENDBRANCH  50  69
BRANCH  62  75
ATOM     75  C   UNL A   1      45.515  32.366  29.503  1.00  0.00    -0.014 A 
ATOM     76  C   UNL A   1      45.814  32.721  30.826  1.00  0.00     0.009 A 
ATOM     77  C   UNL A   1      45.550  33.357  28.507  1.00  0.00     0.009 A 
ATOM     78  C   UNL A   1      46.111  34.047  31.149  1.00  0.00     0.001 A 
ATOM     79  C   UNL A   1      45.880  34.673  28.827  1.00  0.00     0.001 A 
ATOM     80  C   UNL A   1      46.151  35.019  30.149  1.00  0.00     0.000 A 
ENDBRANCH  62  75
ENDBRANCH  36  37
ENDBRANCH  28  31
ENDBRANCH  26  27
ENDBRANCH  25  26
ENDBRANCH   1  25
TORSDOF 15
ENDMDL
