MODEL 1
REMARK VINA RESULT:     -11.4      0.000      0.000
REMARK SMILES COc1ccc(C(=O)NCCCCNC(=O)c2ccc(-c3c4nc(c(-c5ccccc5)c5ccc([nH]5)c(-c5ccccc5)c5nc(c(-c6ccccc6)c6ccc3[nH]6)C=C5)C=C4)cc2)cc1CN1CC(=O)N(C)CC1=O
REMARK SMILES IDX 11 1 10 2 9 3 7 4 8 5 6 7 3 8 4 9 66 10 5 11 65 12 2 13 1 14
REMARK SMILES IDX 67 15 68 16 69 17 75 18 70 19 74 20 76 21 71 22 72 23 73 24
REMARK SMILES IDX 12 25 13 26 14 27 15 28 16 30 17 31 18 32 64 33 19 34 63 35
REMARK SMILES IDX 20 36 21 37 22 38 57 39 23 40 62 41 56 42 58 43 24 44 61 45
REMARK SMILES IDX 55 46 54 47 25 49 47 50 32 51 46 52 33 53 36 54 45 55 59 56
REMARK SMILES IDX 34 57 35 58 44 60 60 61 37 62 26 63 27 64 31 65 28 66 30 67
REMARK SMILES IDX 29 68 48 69 49 70 53 71 50 72 52 73 51 74 38 75 39 76 43 77
REMARK SMILES IDX 40 78 42 79 41 80
REMARK H PARENT 9 6 14 29 58 48 36 59
REMARK Flexibility Score: inf
ROOT
ATOM      1  C   UNL A   1      35.992  20.601  24.998  1.00  0.00     0.023 C 
ENDROOT
BRANCH   1   2
ATOM      2  C   UNL A   1      35.257  21.332  26.124  1.00  0.00     0.116 C 
BRANCH   2   3
ATOM      3  N   UNL A   1      33.825  21.120  26.041  1.00  0.00    -0.352 N 
ATOM      4  C   UNL A   1      32.833  21.700  25.288  1.00  0.00     0.251 C 
ATOM      5  O   UNL A   1      31.700  21.229  25.410  1.00  0.00    -0.269 OA
ATOM      6  H   UNL A   1      33.497  20.418  26.648  1.00  0.00     0.163 HD
BRANCH   4   7
ATOM      7  C   UNL A   1      33.040  22.836  24.335  1.00  0.00     0.040 A 
ATOM      8  C   UNL A   1      33.392  24.858  22.399  1.00  0.00     0.123 A 
ATOM      9  C   UNL A   1      33.492  23.514  22.037  1.00  0.00     0.047 A 
ATOM     10  C   UNL A   1      33.089  25.219  23.713  1.00  0.00     0.014 A 
ATOM     11  C   UNL A   1      33.331  22.513  23.002  1.00  0.00     0.017 A 
ATOM     12  C   UNL A   1      32.899  24.188  24.659  1.00  0.00     0.023 A 
BRANCH   8  13
ATOM     13  O   UNL A   1      33.497  25.803  21.418  1.00  0.00    -0.496 OA
ATOM     14  C   UNL A   1      32.521  25.597  20.395  1.00  0.00     0.278 C 
ENDBRANCH   8  13
BRANCH  10  15
ATOM     15  C   UNL A   1      32.962  26.661  24.154  1.00  0.00     0.159 C 
BRANCH  15  16
ATOM     16  N   UNL A   1      31.722  27.257  23.680  1.00  0.00    -0.327 N 
ATOM     17  C   UNL A   1      30.531  26.424  23.658  1.00  0.00     0.220 C 
ATOM     18  C   UNL A   1      31.746  28.412  22.921  1.00  0.00     0.242 C 
ATOM     19  C   UNL A   1      29.187  27.152  23.618  1.00  0.00     0.242 C 
ATOM     20  C   UNL A   1      30.436  29.197  22.964  1.00  0.00     0.219 C 
ATOM     21  O   UNL A   1      32.782  28.920  22.496  1.00  0.00    -0.273 OA
ATOM     22  O   UNL A   1      28.142  26.546  23.855  1.00  0.00    -0.273 OA
ATOM     23  N   UNL A   1      29.206  28.431  23.086  1.00  0.00    -0.335 N 
ATOM     24  C   UNL A   1      27.960  29.137  22.859  1.00  0.00     0.147 C 
ENDBRANCH  15  16
ENDBRANCH  10  15
ENDBRANCH   4   7
ENDBRANCH   2   3
ENDBRANCH   1   2
BRANCH   1  25
ATOM     25  C   UNL A   1      37.340  21.212  24.613  1.00  0.00     0.023 C 
BRANCH  25  26
ATOM     26  C   UNL A   1      38.395  21.171  25.717  1.00  0.00     0.116 C 
BRANCH  26  27
ATOM     27  N   UNL A   1      39.289  20.024  25.635  1.00  0.00    -0.352 N 
ATOM     28  C   UNL A   1      40.615  19.944  25.997  1.00  0.00     0.251 C 
ATOM     29  H   UNL A   1      38.894  19.198  25.273  1.00  0.00     0.163 HD
ATOM     30  O   UNL A   1      41.262  18.925  25.801  1.00  0.00    -0.269 OA
BRANCH  28  31
ATOM     31  C   UNL A   1      41.271  21.135  26.579  1.00  0.00     0.039 A 
ATOM     32  C   UNL A   1      41.911  22.031  25.720  1.00  0.00     0.014 A 
ATOM     33  C   UNL A   1      41.194  21.395  27.949  1.00  0.00     0.014 A 
ATOM     34  C   UNL A   1      42.388  23.243  26.222  1.00  0.00     0.010 A 
ATOM     35  C   UNL A   1      41.617  22.627  28.437  1.00  0.00     0.010 A 
ATOM     36  C   UNL A   1      42.195  23.571  27.574  1.00  0.00    -0.014 A 
BRANCH  36  37
ATOM     37  C   UNL A   1      42.531  24.918  28.095  1.00  0.00     0.031 A 
ATOM     38  C   UNL A   1      43.926  25.233  28.547  1.00  0.00     0.074 A 
ATOM     39  C   UNL A   1      41.547  25.826  28.250  1.00  0.00     0.049 A 
ATOM     40  N   UNL A   1      44.380  26.316  29.124  1.00  0.00    -0.248 NA
ATOM     41  C   UNL A   1      44.941  24.186  28.345  1.00  0.00     0.031 C 
ATOM     42  C   UNL A   1      40.141  25.628  27.887  1.00  0.00     0.029 A 
ATOM     43  N   UNL A   1      41.580  27.096  28.769  1.00  0.00    -0.354 N 
ATOM     44  C   UNL A   1      45.724  26.075  29.374  1.00  0.00     0.074 A 
ATOM     45  C   UNL A   1      46.006  24.732  28.915  1.00  0.00     0.031 C 
ATOM     46  C   UNL A   1      39.450  26.741  28.179  1.00  0.00     0.029 A 
ATOM     47  C   UNL A   1      40.353  27.715  28.785  1.00  0.00     0.049 A 
ATOM     48  H   UNL A   1      42.403  27.523  29.100  1.00  0.00     0.167 HD
ATOM     49  C   UNL A   1      46.642  26.902  29.926  1.00  0.00     0.031 A 
ATOM     50  C   UNL A   1      39.992  28.925  29.249  1.00  0.00     0.031 A 
ATOM     51  C   UNL A   1      46.367  28.243  30.367  1.00  0.00     0.049 A 
ATOM     52  C   UNL A   1      41.029  29.815  29.871  1.00  0.00     0.074 A 
ATOM     53  C   UNL A   1      47.252  29.182  30.870  1.00  0.00     0.029 A 
ATOM     54  N   UNL A   1      45.115  28.834  30.360  1.00  0.00    -0.354 N 
ATOM     55  N   UNL A   1      42.309  29.597  30.037  1.00  0.00    -0.248 NA
ATOM     56  C   UNL A   1      40.568  31.120  30.368  1.00  0.00     0.031 C 
ATOM     57  C   UNL A   1      46.524  30.329  31.209  1.00  0.00     0.029 A 
ATOM     58  C   UNL A   1      45.196  30.116  30.877  1.00  0.00     0.049 A 
ATOM     59  H   UNL A   1      44.290  28.406  30.038  1.00  0.00     0.167 HD
ATOM     60  C   UNL A   1      42.812  30.742  30.640  1.00  0.00     0.074 A 
ATOM     61  C   UNL A   1      41.701  31.658  30.795  1.00  0.00     0.031 C 
ATOM     62  C   UNL A   1      44.081  31.011  31.029  1.00  0.00     0.031 A 
BRANCH  49  63
ATOM     63  C   UNL A   1      48.038  26.374  30.090  1.00  0.00    -0.014 A 
ATOM     64  C   UNL A   1      48.448  25.771  31.289  1.00  0.00     0.009 A 
ATOM     65  C   UNL A   1      48.938  26.437  29.015  1.00  0.00     0.009 A 
ATOM     66  C   UNL A   1      49.744  25.267  31.418  1.00  0.00     0.001 A 
ATOM     67  C   UNL A   1      50.225  25.912  29.139  1.00  0.00     0.001 A 
ATOM     68  C   UNL A   1      50.629  25.334  30.342  1.00  0.00     0.000 A 
ENDBRANCH  49  63
BRANCH  50  69
ATOM     69  C   UNL A   1      38.579  29.373  29.145  1.00  0.00    -0.014 A 
ATOM     70  C   UNL A   1      38.114  29.975  27.966  1.00  0.00     0.009 A 
ATOM     71  C   UNL A   1      37.697  29.219  30.226  1.00  0.00     0.009 A 
ATOM     72  C   UNL A   1      36.798  30.437  27.880  1.00  0.00     0.001 A 
ATOM     73  C   UNL A   1      36.376  29.661  30.128  1.00  0.00     0.001 A 
ATOM     74  C   UNL A   1      35.931  30.276  28.959  1.00  0.00     0.000 A 
ENDBRANCH  50  69
BRANCH  62  75
ATOM     75  C   UNL A   1      44.335  32.357  31.643  1.00  0.00    -0.014 A 
ATOM     76  C   UNL A   1      44.662  33.465  30.846  1.00  0.00     0.009 A 
ATOM     77  C   UNL A   1      44.215  32.524  33.031  1.00  0.00     0.009 A 
ATOM     78  C   UNL A   1      44.890  34.711  31.432  1.00  0.00     0.001 A 
ATOM     79  C   UNL A   1      44.421  33.776  33.611  1.00  0.00     0.001 A 
ATOM     80  C   UNL A   1      44.765  34.866  32.813  1.00  0.00     0.000 A 
ENDBRANCH  62  75
ENDBRANCH  36  37
ENDBRANCH  28  31
ENDBRANCH  26  27
ENDBRANCH  25  26
ENDBRANCH   1  25
TORSDOF 14
ENDMDL
MODEL 2
REMARK VINA RESULT:     -11.4      1.868      7.711
REMARK SMILES COc1ccc(C(=O)NCCCCNC(=O)c2ccc(-c3c4nc(c(-c5ccccc5)c5ccc([nH]5)c(-c5ccccc5)c5nc(c(-c6ccccc6)c6ccc3[nH]6)C=C5)C=C4)cc2)cc1CN1CC(=O)N(C)CC1=O
REMARK SMILES IDX 11 1 10 2 9 3 7 4 8 5 6 7 3 8 4 9 66 10 5 11 65 12 2 13 1 14
REMARK SMILES IDX 67 15 68 16 69 17 75 18 70 19 74 20 76 21 71 22 72 23 73 24
REMARK SMILES IDX 12 25 13 26 14 27 15 28 16 30 17 31 18 32 64 33 19 34 63 35
REMARK SMILES IDX 20 36 21 37 22 38 57 39 23 40 62 41 56 42 58 43 24 44 61 45
REMARK SMILES IDX 55 46 54 47 25 49 47 50 32 51 46 52 33 53 36 54 45 55 59 56
REMARK SMILES IDX 34 57 35 58 44 60 60 61 37 62 26 63 27 64 31 65 28 66 30 67
REMARK SMILES IDX 29 68 48 69 49 70 53 71 50 72 52 73 51 74 38 75 39 76 43 77
REMARK SMILES IDX 40 78 42 79 41 80
REMARK H PARENT 9 6 14 29 58 48 36 59
REMARK Flexibility Score: inf
ROOT
ATOM      1  C   UNL A   1      33.212  29.637  24.992  1.00  0.00     0.023 C 
ENDROOT
BRANCH   1   2
ATOM      2  C   UNL A   1      31.708  29.598  24.708  1.00  0.00     0.116 C 
BRANCH   2   3
ATOM      3  N   UNL A   1      31.420  28.822  23.516  1.00  0.00    -0.352 N 
ATOM      4  C   UNL A   1      31.170  27.489  23.303  1.00  0.00     0.251 C 
ATOM      5  O   UNL A   1      30.886  27.158  22.150  1.00  0.00    -0.269 OA
ATOM      6  H   UNL A   1      31.401  29.362  22.693  1.00  0.00     0.163 HD
BRANCH   4   7
ATOM      7  C   UNL A   1      31.203  26.435  24.365  1.00  0.00     0.040 A 
ATOM      8  C   UNL A   1      31.080  24.455  26.373  1.00  0.00     0.123 A 
ATOM      9  C   UNL A   1      30.009  25.330  26.181  1.00  0.00     0.047 A 
ATOM     10  C   UNL A   1      32.211  24.529  25.558  1.00  0.00     0.014 A 
ATOM     11  C   UNL A   1      30.078  26.320  25.194  1.00  0.00     0.017 A 
ATOM     12  C   UNL A   1      32.241  25.516  24.549  1.00  0.00     0.023 A 
BRANCH   8  13
ATOM     13  O   UNL A   1      30.950  23.466  27.306  1.00  0.00    -0.496 OA
ATOM     14  C   UNL A   1      29.837  22.620  27.012  1.00  0.00     0.278 C 
ENDBRANCH   8  13
BRANCH  10  15
ATOM     15  C   UNL A   1      33.394  23.600  25.720  1.00  0.00     0.159 C 
BRANCH  15  16
ATOM     16  N   UNL A   1      33.089  22.259  25.244  1.00  0.00    -0.327 N 
ATOM     17  C   UNL A   1      32.262  22.130  24.057  1.00  0.00     0.220 C 
ATOM     18  C   UNL A   1      33.233  21.169  26.083  1.00  0.00     0.242 C 
ATOM     19  C   UNL A   1      32.336  20.796  23.312  1.00  0.00     0.242 C 
ATOM     20  C   UNL A   1      33.413  19.848  25.339  1.00  0.00     0.219 C 
ATOM     21  O   UNL A   1      33.487  21.268  27.282  1.00  0.00    -0.273 OA
ATOM     22  O   UNL A   1      31.879  20.690  22.175  1.00  0.00    -0.273 OA
ATOM     23  N   UNL A   1      32.724  19.701  24.067  1.00  0.00    -0.335 N 
ATOM     24  C   UNL A   1      32.670  18.371  23.491  1.00  0.00     0.147 C 
ENDBRANCH  15  16
ENDBRANCH  10  15
ENDBRANCH   4   7
ENDBRANCH   2   3
ENDBRANCH   1   2
BRANCH   1  25
ATOM     25  C   UNL A   1      33.691  28.626  26.035  1.00  0.00     0.023 C 
BRANCH  25  26
ATOM     26  C   UNL A   1      33.401  29.019  27.482  1.00  0.00     0.116 C 
BRANCH  26  27
ATOM     27  N   UNL A   1      33.590  30.436  27.757  1.00  0.00    -0.352 N 
ATOM     28  C   UNL A   1      34.727  31.081  28.189  1.00  0.00     0.251 C 
ATOM     29  H   UNL A   1      32.801  31.008  27.618  1.00  0.00     0.163 HD
ATOM     30  O   UNL A   1      34.714  32.275  28.450  1.00  0.00    -0.269 OA
BRANCH  28  31
ATOM     31  C   UNL A   1      35.963  30.294  28.390  1.00  0.00     0.039 A 
ATOM     32  C   UNL A   1      36.887  30.222  27.345  1.00  0.00     0.014 A 
ATOM     33  C   UNL A   1      36.233  29.691  29.621  1.00  0.00     0.014 A 
ATOM     34  C   UNL A   1      38.131  29.629  27.568  1.00  0.00     0.010 A 
ATOM     35  C   UNL A   1      37.494  29.154  29.859  1.00  0.00     0.010 A 
ATOM     36  C   UNL A   1      38.461  29.140  28.842  1.00  0.00    -0.014 A 
BRANCH  36  37
ATOM     37  C   UNL A   1      39.832  28.669  29.154  1.00  0.00     0.031 A 
ATOM     38  C   UNL A   1      40.828  29.594  29.788  1.00  0.00     0.074 A 
ATOM     39  C   UNL A   1      40.204  27.430  28.773  1.00  0.00     0.049 A 
ATOM     40  N   UNL A   1      42.097  29.391  30.038  1.00  0.00    -0.248 NA
ATOM     41  C   UNL A   1      40.343  30.929  30.172  1.00  0.00     0.031 C 
ATOM     42  C   UNL A   1      39.340  26.449  28.110  1.00  0.00     0.029 A 
ATOM     43  N   UNL A   1      41.413  26.792  28.876  1.00  0.00    -0.354 N 
ATOM     44  C   UNL A   1      42.567  30.577  30.586  1.00  0.00     0.074 A 
ATOM     45  C   UNL A   1      41.457  31.504  30.605  1.00  0.00     0.031 C 
ATOM     46  C   UNL A   1      40.043  25.328  27.882  1.00  0.00     0.029 A 
ATOM     47  C   UNL A   1      41.413  25.524  28.343  1.00  0.00     0.049 A 
ATOM     48  H   UNL A   1      42.207  27.202  29.290  1.00  0.00     0.167 HD
ATOM     49  C   UNL A   1      43.809  30.862  31.043  1.00  0.00     0.031 A 
ATOM     50  C   UNL A   1      42.408  24.626  28.226  1.00  0.00     0.031 A 
ATOM     51  C   UNL A   1      44.909  29.935  31.041  1.00  0.00     0.049 A 
ATOM     52  C   UNL A   1      43.779  24.976  28.728  1.00  0.00     0.074 A 
ATOM     53  C   UNL A   1      46.183  30.112  31.552  1.00  0.00     0.029 A 
ATOM     54  N   UNL A   1      44.865  28.661  30.500  1.00  0.00    -0.354 N 
ATOM     55  N   UNL A   1      44.189  26.078  29.306  1.00  0.00    -0.248 NA
ATOM     56  C   UNL A   1      44.825  23.956  28.561  1.00  0.00     0.031 C 
ATOM     57  C   UNL A   1      46.926  28.956  31.281  1.00  0.00     0.029 A 
ATOM     58  C   UNL A   1      46.100  28.049  30.638  1.00  0.00     0.049 A 
ATOM     59  H   UNL A   1      44.076  28.253  30.078  1.00  0.00     0.167 HD
ATOM     60  C   UNL A   1      45.533  25.878  29.589  1.00  0.00     0.074 A 
ATOM     61  C   UNL A   1      45.865  24.544  29.133  1.00  0.00     0.031 C 
ATOM     62  C   UNL A   1      46.414  26.724  30.175  1.00  0.00     0.031 A 
BRANCH  49  63
ATOM     63  C   UNL A   1      44.046  32.243  31.581  1.00  0.00    -0.014 A 
ATOM     64  C   UNL A   1      43.858  32.533  32.941  1.00  0.00     0.009 A 
ATOM     65  C   UNL A   1      44.511  33.255  30.726  1.00  0.00     0.009 A 
ATOM     66  C   UNL A   1      44.102  33.819  33.429  1.00  0.00     0.001 A 
ATOM     67  C   UNL A   1      44.776  34.532  31.221  1.00  0.00     0.001 A 
ATOM     68  C   UNL A   1      44.565  34.814  32.569  1.00  0.00     0.000 A 
ENDBRANCH  49  63
BRANCH  50  69
ATOM     69  C   UNL A   1      42.149  23.302  27.606  1.00  0.00    -0.014 A 
ATOM     70  C   UNL A   1      42.459  23.081  26.256  1.00  0.00     0.009 A 
ATOM     71  C   UNL A   1      41.576  22.261  28.353  1.00  0.00     0.009 A 
ATOM     72  C   UNL A   1      42.177  21.851  25.657  1.00  0.00     0.001 A 
ATOM     73  C   UNL A   1      41.316  21.024  27.757  1.00  0.00     0.001 A 
ATOM     74  C   UNL A   1      41.609  20.824  26.409  1.00  0.00     0.000 A 
ENDBRANCH  50  69
BRANCH  62  75
ATOM     75  C   UNL A   1      47.814  26.222  30.372  1.00  0.00    -0.014 A 
ATOM     76  C   UNL A   1      48.737  26.219  29.315  1.00  0.00     0.009 A 
ATOM     77  C   UNL A   1      48.223  25.777  31.639  1.00  0.00     0.009 A 
ATOM     78  C   UNL A   1      50.037  25.753  29.517  1.00  0.00     0.001 A 
ATOM     79  C   UNL A   1      49.530  25.335  31.843  1.00  0.00     0.001 A 
ATOM     80  C   UNL A   1      50.433  25.317  30.781  1.00  0.00     0.000 A 
ENDBRANCH  62  75
ENDBRANCH  36  37
ENDBRANCH  28  31
ENDBRANCH  26  27
ENDBRANCH  25  26
ENDBRANCH   1  25
TORSDOF 14
ENDMDL
MODEL 3
REMARK VINA RESULT:     -11.3      1.204      6.063
REMARK SMILES COc1ccc(C(=O)NCCCCNC(=O)c2ccc(-c3c4nc(c(-c5ccccc5)c5ccc([nH]5)c(-c5ccccc5)c5nc(c(-c6ccccc6)c6ccc3[nH]6)C=C5)C=C4)cc2)cc1CN1CC(=O)N(C)CC1=O
REMARK SMILES IDX 11 1 10 2 9 3 7 4 8 5 6 7 3 8 4 9 66 10 5 11 65 12 2 13 1 14
REMARK SMILES IDX 67 15 68 16 69 17 75 18 70 19 74 20 76 21 71 22 72 23 73 24
REMARK SMILES IDX 12 25 13 26 14 27 15 28 16 30 17 31 18 32 64 33 19 34 63 35
REMARK SMILES IDX 20 36 21 37 22 38 57 39 23 40 62 41 56 42 58 43 24 44 61 45
REMARK SMILES IDX 55 46 54 47 25 49 47 50 32 51 46 52 33 53 36 54 45 55 59 56
REMARK SMILES IDX 34 57 35 58 44 60 60 61 37 62 26 63 27 64 31 65 28 66 30 67
REMARK SMILES IDX 29 68 48 69 49 70 53 71 50 72 52 73 51 74 38 75 39 76 43 77
REMARK SMILES IDX 40 78 42 79 41 80
REMARK H PARENT 9 6 14 29 58 48 36 59
REMARK Flexibility Score: inf
ROOT
ATOM      1  C   UNL A   1      36.266  20.517  25.064  1.00  0.00     0.023 C 
ENDROOT
BRANCH   1   2
ATOM      2  C   UNL A   1      35.245  21.250  25.939  1.00  0.00     0.116 C 
BRANCH   2   3
ATOM      3  N   UNL A   1      33.918  20.688  25.779  1.00  0.00    -0.352 N 
ATOM      4  C   UNL A   1      32.803  21.098  25.089  1.00  0.00     0.251 C 
ATOM      5  O   UNL A   1      31.834  20.335  25.102  1.00  0.00    -0.269 OA
ATOM      6  H   UNL A   1      33.789  19.841  26.265  1.00  0.00     0.163 HD
BRANCH   4   7
ATOM      7  C   UNL A   1      32.699  22.378  24.320  1.00  0.00     0.040 A 
ATOM      8  C   UNL A   1      32.627  24.723  22.753  1.00  0.00     0.123 A 
ATOM      9  C   UNL A   1      33.724  23.863  22.681  1.00  0.00     0.047 A 
ATOM     10  C   UNL A   1      31.541  24.422  23.577  1.00  0.00     0.014 A 
ATOM     11  C   UNL A   1      33.763  22.708  23.470  1.00  0.00     0.017 A 
ATOM     12  C   UNL A   1      31.593  23.233  24.338  1.00  0.00     0.023 A 
BRANCH   8  13
ATOM     13  O   UNL A   1      32.599  25.809  21.925  1.00  0.00    -0.496 OA
ATOM     14  C   UNL A   1      32.611  25.413  20.552  1.00  0.00     0.278 C 
ENDBRANCH   8  13
BRANCH  10  15
ATOM     15  C   UNL A   1      30.326  25.317  23.685  1.00  0.00     0.159 C 
BRANCH  15  16
ATOM     16  N   UNL A   1      30.632  26.546  24.401  1.00  0.00    -0.327 N 
ATOM     17  C   UNL A   1      30.636  26.505  25.854  1.00  0.00     0.220 C 
ATOM     18  C   UNL A   1      30.529  27.771  23.765  1.00  0.00     0.242 C 
ATOM     19  C   UNL A   1      31.394  27.626  26.568  1.00  0.00     0.242 C 
ATOM     20  C   UNL A   1      31.369  28.867  24.417  1.00  0.00     0.219 C 
ATOM     21  O   UNL A   1      30.061  27.909  22.637  1.00  0.00    -0.273 OA
ATOM     22  O   UNL A   1      31.666  27.531  27.764  1.00  0.00    -0.273 OA
ATOM     23  N   UNL A   1      31.536  28.808  25.860  1.00  0.00    -0.335 N 
ATOM     24  C   UNL A   1      32.097  29.976  26.511  1.00  0.00     0.147 C 
ENDBRANCH  15  16
ENDBRANCH  10  15
ENDBRANCH   4   7
ENDBRANCH   2   3
ENDBRANCH   1   2
BRANCH   1  25
ATOM     25  C   UNL A   1      37.506  21.338  24.706  1.00  0.00     0.023 C 
BRANCH  25  26
ATOM     26  C   UNL A   1      38.618  21.299  25.752  1.00  0.00     0.116 C 
BRANCH  26  27
ATOM     27  N   UNL A   1      39.480  20.129  25.653  1.00  0.00    -0.352 N 
ATOM     28  C   UNL A   1      40.805  20.008  26.010  1.00  0.00     0.251 C 
ATOM     29  H   UNL A   1      39.062  19.320  25.281  1.00  0.00     0.163 HD
ATOM     30  O   UNL A   1      41.423  18.975  25.797  1.00  0.00    -0.269 OA
BRANCH  28  31
ATOM     31  C   UNL A   1      41.494  21.173  26.605  1.00  0.00     0.039 A 
ATOM     32  C   UNL A   1      42.013  22.150  25.752  1.00  0.00     0.014 A 
ATOM     33  C   UNL A   1      41.566  21.329  27.991  1.00  0.00     0.014 A 
ATOM     34  C   UNL A   1      42.516  23.336  26.290  1.00  0.00     0.010 A 
ATOM     35  C   UNL A   1      42.013  22.535  28.523  1.00  0.00     0.010 A 
ATOM     36  C   UNL A   1      42.468  23.557  27.676  1.00  0.00    -0.014 A 
BRANCH  36  37
ATOM     37  C   UNL A   1      42.829  24.872  28.259  1.00  0.00     0.031 A 
ATOM     38  C   UNL A   1      41.782  25.925  28.467  1.00  0.00     0.074 A 
ATOM     39  C   UNL A   1      44.126  25.147  28.508  1.00  0.00     0.049 A 
ATOM     40  N   UNL A   1      41.927  27.163  28.865  1.00  0.00    -0.248 NA
ATOM     41  C   UNL A   1      40.392  25.545  28.168  1.00  0.00     0.031 C 
ATOM     42  C   UNL A   1      45.245  24.222  28.308  1.00  0.00     0.029 A 
ATOM     43  N   UNL A   1      44.721  26.293  28.970  1.00  0.00    -0.354 N 
ATOM     44  C   UNL A   1      40.653  27.717  28.844  1.00  0.00     0.074 A 
ATOM     45  C   UNL A   1      39.753  26.690  28.365  1.00  0.00     0.031 C 
ATOM     46  C   UNL A   1      46.387  24.832  28.661  1.00  0.00     0.029 A 
ATOM     47  C   UNL A   1      46.088  26.200  29.073  1.00  0.00     0.049 A 
ATOM     48  H   UNL A   1      44.217  27.106  29.204  1.00  0.00     0.167 HD
ATOM     49  C   UNL A   1      40.269  28.964  29.203  1.00  0.00     0.031 A 
ATOM     50  C   UNL A   1      47.001  27.117  29.444  1.00  0.00     0.031 A 
ATOM     51  C   UNL A   1      41.161  29.980  29.695  1.00  0.00     0.049 A 
ATOM     52  C   UNL A   1      46.546  28.497  29.820  1.00  0.00     0.074 A 
ATOM     53  C   UNL A   1      40.850  31.249  30.153  1.00  0.00     0.029 A 
ATOM     54  N   UNL A   1      42.536  29.843  29.790  1.00  0.00    -0.354 N 
ATOM     55  N   UNL A   1      45.331  28.983  29.860  1.00  0.00    -0.248 NA
ATOM     56  C   UNL A   1      47.593  29.455  30.205  1.00  0.00     0.031 C 
ATOM     57  C   UNL A   1      42.046  31.897  30.487  1.00  0.00     0.029 A 
ATOM     58  C   UNL A   1      43.093  31.015  30.274  1.00  0.00     0.049 A 
ATOM     59  H   UNL A   1      43.041  29.034  29.549  1.00  0.00     0.167 HD
ATOM     60  C   UNL A   1      45.463  30.295  30.292  1.00  0.00     0.074 A 
ATOM     61  C   UNL A   1      46.875  30.525  30.516  1.00  0.00     0.031 C 
ATOM     62  C   UNL A   1      44.500  31.228  30.485  1.00  0.00     0.031 A 
BRANCH  49  63
ATOM     63  C   UNL A   1      38.813  29.304  29.068  1.00  0.00    -0.014 A 
ATOM     64  C   UNL A   1      38.277  29.725  27.842  1.00  0.00     0.009 A 
ATOM     65  C   UNL A   1      37.957  29.153  30.171  1.00  0.00     0.009 A 
ATOM     66  C   UNL A   1      36.917  30.018  27.729  1.00  0.00     0.001 A 
ATOM     67  C   UNL A   1      36.594  29.424  30.050  1.00  0.00     0.001 A 
ATOM     68  C   UNL A   1      36.077  29.863  28.832  1.00  0.00     0.000 A 
ENDBRANCH  49  63
BRANCH  50  69
ATOM     69  C   UNL A   1      48.443  26.763  29.478  1.00  0.00    -0.014 A 
ATOM     70  C   UNL A   1      49.004  26.196  30.632  1.00  0.00     0.009 A 
ATOM     71  C   UNL A   1      49.267  27.005  28.368  1.00  0.00     0.009 A 
ATOM     72  C   UNL A   1      50.368  25.902  30.684  1.00  0.00     0.001 A 
ATOM     73  C   UNL A   1      50.626  26.689  28.415  1.00  0.00     0.001 A 
ATOM     74  C   UNL A   1      51.177  26.145  29.574  1.00  0.00     0.000 A 
ENDBRANCH  50  69
BRANCH  62  75
ATOM     75  C   UNL A   1      44.942  32.573  30.982  1.00  0.00    -0.014 A 
ATOM     76  C   UNL A   1      45.057  32.835  32.355  1.00  0.00     0.009 A 
ATOM     77  C   UNL A   1      45.280  33.578  30.063  1.00  0.00     0.009 A 
ATOM     78  C   UNL A   1      45.475  34.091  32.800  1.00  0.00     0.001 A 
ATOM     79  C   UNL A   1      45.721  34.824  30.510  1.00  0.00     0.001 A 
ATOM     80  C   UNL A   1      45.811  35.081  31.877  1.00  0.00     0.000 A 
ENDBRANCH  62  75
ENDBRANCH  36  37
ENDBRANCH  28  31
ENDBRANCH  26  27
ENDBRANCH  25  26
ENDBRANCH   1  25
TORSDOF 14
ENDMDL
