MODEL 1
REMARK VINA RESULT:     -11.3      0.000      0.000
REMARK SMILES CC[C@]1(C(=O)NCCCCNC(=O)c2ccc(-c3c4nc(c(-c5ccccc5)c5ccc([nH]5)c(-c5ccccc5)c5nc(c(-c6ccccc6)c6ccc3[nH]6)C=C5)C=C4)cc2)CCC[N@@H+](Cc2cc(OC)ccc2F)C1
REMARK SMILES IDX 8 1 7 2 6 3 4 4 5 5 3 7 62 8 76 9 63 10 65 11 64 12 2 14
REMARK SMILES IDX 1 15 66 16 67 17 68 18 74 19 69 20 73 21 75 22 72 23 70 24
REMARK SMILES IDX 71 25 9 26 10 27 11 28 12 29 13 31 14 32 15 33 61 34 16 35
REMARK SMILES IDX 60 36 17 37 18 38 19 39 54 40 20 41 59 42 53 43 55 44 21 45
REMARK SMILES IDX 58 46 52 47 51 48 22 50 44 51 29 52 43 53 30 54 33 55 42 56
REMARK SMILES IDX 56 57 31 58 32 59 41 61 57 62 34 63 23 64 24 65 28 66 25 67
REMARK SMILES IDX 27 68 26 69 45 70 46 71 50 72 47 73 49 74 48 75 35 76 36 77
REMARK SMILES IDX 40 78 37 79 39 80 38 81
REMARK H PARENT 6 6 65 13 11 30 55 49 33 60
REMARK Flexibility Score: inf
ROOT
ATOM      1  C   UNL A   1      31.858  27.441  25.793  1.00  0.00     0.023 C 
ENDROOT
BRANCH   1   2
ATOM      2  C   UNL A   1      32.176  26.033  25.301  1.00  0.00     0.116 C 
BRANCH   2   3
ATOM      3  N   UNL A   1      32.783  26.046  23.980  1.00  0.00    -0.355 N 
ATOM      4  C   UNL A   1      33.689  25.226  23.371  1.00  0.00     0.231 C 
ATOM      5  O   UNL A   1      34.022  25.568  22.231  1.00  0.00    -0.274 OA
ATOM      6  H   UNL A   1      32.482  26.793  23.413  1.00  0.00     0.163 HD
BRANCH   4   7
ATOM      7  C   UNL A   1      34.262  23.946  24.051  1.00  0.00     0.098 C 
ATOM      8  C   UNL A   1      34.850  24.336  25.430  1.00  0.00     0.028 C 
ATOM      9  C   UNL A   1      33.104  22.924  24.154  1.00  0.00     0.279 C 
ATOM     10  C   UNL A   1      34.882  23.201  26.449  1.00  0.00     0.063 C 
ATOM     11  N   UNL A   1      33.274  21.864  25.155  1.00  0.00    -0.330 N 
ATOM     12  C   UNL A   1      33.587  22.388  26.481  1.00  0.00     0.262 C 
ATOM     13  H   UNL A   1      34.098  21.334  24.876  1.00  0.00     0.348 HD
BRANCH   7  14
ATOM     14  C   UNL A   1      35.403  23.384  23.128  1.00  0.00     0.019 C 
ATOM     15  C   UNL A   1      36.666  22.853  23.796  1.00  0.00     0.005 C 
ENDBRANCH   7  14
BRANCH  11  16
ATOM     16  C   UNL A   1      32.168  20.883  25.145  1.00  0.00     0.302 C 
BRANCH  16  17
ATOM     17  C   UNL A   1      32.429  19.523  24.528  1.00  0.00     0.046 A 
ATOM     18  C   UNL A   1      32.779  18.424  25.331  1.00  0.00     0.059 A 
ATOM     19  C   UNL A   1      32.392  19.327  23.143  1.00  0.00     0.132 A 
ATOM     20  C   UNL A   1      33.064  17.177  24.759  1.00  0.00     0.119 A 
ATOM     21  C   UNL A   1      32.577  18.069  22.576  1.00  0.00     0.043 A 
ATOM     22  F   UNL A   1      32.181  20.358  22.315  1.00  0.00    -0.206 F 
ATOM     23  C   UNL A   1      32.903  16.987  23.387  1.00  0.00     0.049 A 
BRANCH  20  24
ATOM     24  O   UNL A   1      33.494  16.209  25.627  1.00  0.00    -0.497 OA
ATOM     25  C   UNL A   1      32.622  15.086  25.754  1.00  0.00     0.278 C 
ENDBRANCH  20  24
ENDBRANCH  16  17
ENDBRANCH  11  16
ENDBRANCH   4   7
ENDBRANCH   2   3
ENDBRANCH   1   2
BRANCH   1  26
ATOM     26  C   UNL A   1      33.055  28.390  25.833  1.00  0.00     0.023 C 
BRANCH  26  27
ATOM     27  C   UNL A   1      33.684  28.588  27.207  1.00  0.00     0.116 C 
BRANCH  27  28
ATOM     28  N   UNL A   1      33.676  29.973  27.651  1.00  0.00    -0.352 N 
ATOM     29  C   UNL A   1      34.677  30.706  28.238  1.00  0.00     0.251 C 
ATOM     30  H   UNL A   1      32.829  30.454  27.511  1.00  0.00     0.163 HD
ATOM     31  O   UNL A   1      34.445  31.841  28.653  1.00  0.00    -0.269 OA
BRANCH  29  32
ATOM     32  C   UNL A   1      36.026  30.125  28.402  1.00  0.00     0.039 A 
ATOM     33  C   UNL A   1      36.905  30.151  27.316  1.00  0.00     0.014 A 
ATOM     34  C   UNL A   1      36.430  29.563  29.616  1.00  0.00     0.014 A 
ATOM     35  C   UNL A   1      38.205  29.667  27.468  1.00  0.00     0.010 A 
ATOM     36  C   UNL A   1      37.752  29.162  29.790  1.00  0.00     0.010 A 
ATOM     37  C   UNL A   1      38.651  29.201  28.715  1.00  0.00    -0.014 A 
BRANCH  37  38
ATOM     38  C   UNL A   1      40.058  28.761  28.899  1.00  0.00     0.031 A 
ATOM     39  C   UNL A   1      40.479  27.363  28.532  1.00  0.00     0.074 A 
ATOM     40  C   UNL A   1      40.957  29.616  29.426  1.00  0.00     0.049 A 
ATOM     41  N   UNL A   1      41.670  26.822  28.582  1.00  0.00    -0.248 NA
ATOM     42  C   UNL A   1      39.423  26.446  28.075  1.00  0.00     0.031 C 
ATOM     43  C   UNL A   1      40.665  30.978  29.881  1.00  0.00     0.029 A 
ATOM     44  N   UNL A   1      42.302  29.470  29.657  1.00  0.00    -0.354 N 
ATOM     45  C   UNL A   1      41.505  25.504  28.172  1.00  0.00     0.074 A 
ATOM     46  C   UNL A   1      40.091  25.311  27.936  1.00  0.00     0.031 C 
ATOM     47  C   UNL A   1      41.805  31.557  30.290  1.00  0.00     0.029 A 
ATOM     48  C   UNL A   1      42.899  30.602  30.158  1.00  0.00     0.049 A 
ATOM     49  H   UNL A   1      42.791  28.635  29.480  1.00  0.00     0.167 HD
ATOM     50  C   UNL A   1      42.445  24.547  27.983  1.00  0.00     0.031 A 
ATOM     51  C   UNL A   1      44.186  30.846  30.466  1.00  0.00     0.031 A 
ATOM     52  C   UNL A   1      43.853  24.739  28.214  1.00  0.00     0.049 A 
ATOM     53  C   UNL A   1      45.212  29.773  30.236  1.00  0.00     0.074 A 
ATOM     54  C   UNL A   1      44.892  23.851  27.999  1.00  0.00     0.029 A 
ATOM     55  N   UNL A   1      44.418  25.901  28.716  1.00  0.00    -0.354 N 
ATOM     56  N   UNL A   1      45.051  28.561  29.765  1.00  0.00    -0.248 NA
ATOM     57  C   UNL A   1      46.604  30.113  30.562  1.00  0.00     0.031 C 
ATOM     58  C   UNL A   1      46.080  24.457  28.421  1.00  0.00     0.029 A 
ATOM     59  C   UNL A   1      45.789  25.745  28.839  1.00  0.00     0.049 A 
ATOM     60  H   UNL A   1      43.919  26.717  28.951  1.00  0.00     0.167 HD
ATOM     61  C   UNL A   1      46.321  28.003  29.711  1.00  0.00     0.074 A 
ATOM     62  C   UNL A   1      47.244  29.020  30.174  1.00  0.00     0.031 C 
ATOM     63  C   UNL A   1      46.693  26.762  29.311  1.00  0.00     0.031 A 
BRANCH  50  64
ATOM     64  C   UNL A   1      41.975  23.201  27.502  1.00  0.00    -0.014 A 
ATOM     65  C   UNL A   1      41.959  22.882  26.135  1.00  0.00     0.009 A 
ATOM     66  C   UNL A   1      41.569  22.229  28.429  1.00  0.00     0.009 A 
ATOM     67  C   UNL A   1      41.510  21.631  25.703  1.00  0.00     0.001 A 
ATOM     68  C   UNL A   1      41.151  20.969  27.997  1.00  0.00     0.001 A 
ATOM     69  C   UNL A   1      41.112  20.675  26.635  1.00  0.00     0.000 A 
ENDBRANCH  50  64
BRANCH  51  70
ATOM     70  C   UNL A   1      44.587  32.180  30.986  1.00  0.00    -0.014 A 
ATOM     71  C   UNL A   1      44.721  32.395  32.367  1.00  0.00     0.009 A 
ATOM     72  C   UNL A   1      44.830  33.247  30.108  1.00  0.00     0.009 A 
ATOM     73  C   UNL A   1      45.057  33.659  32.858  1.00  0.00     0.001 A 
ATOM     74  C   UNL A   1      45.197  34.501  30.599  1.00  0.00     0.001 A 
ATOM     75  C   UNL A   1      45.298  34.709  31.974  1.00  0.00     0.000 A 
ENDBRANCH  51  70
BRANCH  63  76
ATOM     76  C   UNL A   1      48.164  26.452  29.329  1.00  0.00    -0.014 A 
ATOM     77  C   UNL A   1      48.774  25.850  30.441  1.00  0.00     0.009 A 
ATOM     78  C   UNL A   1      48.951  26.763  28.209  1.00  0.00     0.009 A 
ATOM     79  C   UNL A   1      50.150  25.612  30.449  1.00  0.00     0.001 A 
ATOM     80  C   UNL A   1      50.320  26.492  28.207  1.00  0.00     0.001 A 
ATOM     81  C   UNL A   1      50.921  25.930  29.332  1.00  0.00     0.000 A 
ENDBRANCH  63  76
ENDBRANCH  37  38
ENDBRANCH  29  32
ENDBRANCH  27  28
ENDBRANCH  26  27
ENDBRANCH   1  26
TORSDOF 15
ENDMDL
MODEL 2
REMARK VINA RESULT:     -11.2      3.323      7.473
REMARK SMILES CC[C@]1(C(=O)NCCCCNC(=O)c2ccc(-c3c4nc(c(-c5ccccc5)c5ccc([nH]5)c(-c5ccccc5)c5nc(c(-c6ccccc6)c6ccc3[nH]6)C=C5)C=C4)cc2)CCC[N@@H+](Cc2cc(OC)ccc2F)C1
REMARK SMILES IDX 8 1 7 2 6 3 4 4 5 5 3 7 62 8 76 9 63 10 65 11 64 12 2 14
REMARK SMILES IDX 1 15 66 16 67 17 68 18 74 19 69 20 73 21 75 22 72 23 70 24
REMARK SMILES IDX 71 25 9 26 10 27 11 28 12 29 13 31 14 32 15 33 61 34 16 35
REMARK SMILES IDX 60 36 17 37 18 38 19 39 54 40 20 41 59 42 53 43 55 44 21 45
REMARK SMILES IDX 58 46 52 47 51 48 22 50 44 51 29 52 43 53 30 54 33 55 42 56
REMARK SMILES IDX 56 57 31 58 32 59 41 61 57 62 34 63 23 64 24 65 28 66 25 67
REMARK SMILES IDX 27 68 26 69 45 70 46 71 50 72 47 73 49 74 48 75 35 76 36 77
REMARK SMILES IDX 40 78 37 79 39 80 38 81
REMARK H PARENT 6 6 65 13 11 30 55 49 33 60
REMARK Flexibility Score: inf
ROOT
ATOM      1  C   UNL A   1      31.430  30.794  25.657  1.00  0.00     0.023 C 
ENDROOT
BRANCH   1   2
ATOM      2  C   UNL A   1      32.755  30.054  25.806  1.00  0.00     0.116 C 
BRANCH   2   3
ATOM      3  N   UNL A   1      33.305  29.662  24.517  1.00  0.00    -0.355 N 
ATOM      4  C   UNL A   1      33.301  28.481  23.832  1.00  0.00     0.231 C 
ATOM      5  O   UNL A   1      33.915  28.496  22.760  1.00  0.00    -0.274 OA
ATOM      6  H   UNL A   1      33.771  30.391  24.048  1.00  0.00     0.163 HD
BRANCH   4   7
ATOM      7  C   UNL A   1      32.572  27.205  24.349  1.00  0.00     0.098 C 
ATOM      8  C   UNL A   1      31.042  27.426  24.238  1.00  0.00     0.028 C 
ATOM      9  C   UNL A   1      33.074  26.013  23.499  1.00  0.00     0.279 C 
ATOM     10  C   UNL A   1      30.226  26.144  24.108  1.00  0.00     0.063 C 
ATOM     11  N   UNL A   1      32.207  24.829  23.482  1.00  0.00    -0.330 N 
ATOM     12  C   UNL A   1      30.829  25.147  23.118  1.00  0.00     0.262 C 
ATOM     13  H   UNL A   1      32.159  24.493  24.443  1.00  0.00     0.348 HD
BRANCH   7  14
ATOM     14  C   UNL A   1      32.970  27.004  25.856  1.00  0.00     0.019 C 
ATOM     15  C   UNL A   1      31.850  26.838  26.876  1.00  0.00     0.005 C 
ENDBRANCH   7  14
BRANCH  11  16
ATOM     16  C   UNL A   1      32.784  23.706  22.715  1.00  0.00     0.302 C 
BRANCH  16  17
ATOM     17  C   UNL A   1      33.357  22.535  23.489  1.00  0.00     0.046 A 
ATOM     18  C   UNL A   1      32.552  21.437  23.834  1.00  0.00     0.059 A 
ATOM     19  C   UNL A   1      34.682  22.532  23.940  1.00  0.00     0.132 A 
ATOM     20  C   UNL A   1      33.068  20.374  24.588  1.00  0.00     0.119 A 
ATOM     21  C   UNL A   1      35.228  21.437  24.603  1.00  0.00     0.043 A 
ATOM     22  F   UNL A   1      35.469  23.599  23.747  1.00  0.00    -0.206 F 
ATOM     23  C   UNL A   1      34.422  20.348  24.919  1.00  0.00     0.049 A 
BRANCH  20  24
ATOM     24  O   UNL A   1      32.166  19.411  24.952  1.00  0.00    -0.497 OA
ATOM     25  C   UNL A   1      32.743  18.167  25.351  1.00  0.00     0.278 C 
ENDBRANCH  20  24
ENDBRANCH  16  17
ENDBRANCH  11  16
ENDBRANCH   4   7
ENDBRANCH   2   3
ENDBRANCH   1   2
BRANCH   1  26
ATOM     26  C   UNL A   1      31.207  31.914  26.672  1.00  0.00     0.023 C 
BRANCH  26  27
ATOM     27  C   UNL A   1      32.474  32.589  27.185  1.00  0.00     0.116 C 
BRANCH  27  28
ATOM     28  N   UNL A   1      32.259  33.957  27.631  1.00  0.00    -0.352 N 
ATOM     29  C   UNL A   1      32.998  34.716  28.502  1.00  0.00     0.251 C 
ATOM     30  H   UNL A   1      31.467  34.402  27.252  1.00  0.00     0.163 HD
ATOM     31  O   UNL A   1      32.592  35.824  28.849  1.00  0.00    -0.269 OA
BRANCH  29  32
ATOM     32  C   UNL A   1      34.268  34.194  29.052  1.00  0.00     0.039 A 
ATOM     33  C   UNL A   1      34.227  33.415  30.210  1.00  0.00     0.014 A 
ATOM     34  C   UNL A   1      35.491  34.463  28.430  1.00  0.00     0.014 A 
ATOM     35  C   UNL A   1      35.406  32.858  30.710  1.00  0.00     0.010 A 
ATOM     36  C   UNL A   1      36.650  33.836  28.880  1.00  0.00     0.010 A 
ATOM     37  C   UNL A   1      36.622  33.034  30.029  1.00  0.00    -0.014 A 
BRANCH  37  38
ATOM     38  C   UNL A   1      37.862  32.376  30.514  1.00  0.00     0.031 A 
ATOM     39  C   UNL A   1      38.612  32.930  31.696  1.00  0.00     0.074 A 
ATOM     40  C   UNL A   1      38.332  31.290  29.869  1.00  0.00     0.049 A 
ATOM     41  N   UNL A   1      39.685  32.461  32.283  1.00  0.00    -0.248 NA
ATOM     42  C   UNL A   1      38.111  34.184  32.278  1.00  0.00     0.031 C 
ATOM     43  C   UNL A   1      37.735  30.690  28.674  1.00  0.00     0.029 A 
ATOM     44  N   UNL A   1      39.415  30.491  30.136  1.00  0.00    -0.354 N 
ATOM     45  C   UNL A   1      39.988  33.365  33.294  1.00  0.00     0.074 A 
ATOM     46  C   UNL A   1      39.025  34.439  33.202  1.00  0.00     0.031 C 
ATOM     47  C   UNL A   1      38.430  29.591  28.340  1.00  0.00     0.029 A 
ATOM     48  C   UNL A   1      39.537  29.427  29.275  1.00  0.00     0.049 A 
ATOM     49  H   UNL A   1      40.043  30.662  30.874  1.00  0.00     0.167 HD
ATOM     50  C   UNL A   1      40.963  33.297  34.233  1.00  0.00     0.031 A 
ATOM     51  C   UNL A   1      40.434  28.423  29.248  1.00  0.00     0.031 A 
ATOM     52  C   UNL A   1      41.921  32.226  34.329  1.00  0.00     0.049 A 
ATOM     53  C   UNL A   1      41.499  28.364  30.307  1.00  0.00     0.074 A 
ATOM     54  C   UNL A   1      42.912  32.036  35.276  1.00  0.00     0.029 A 
ATOM     55  N   UNL A   1      42.008  31.165  33.441  1.00  0.00    -0.354 N 
ATOM     56  N   UNL A   1      41.718  29.180  31.308  1.00  0.00    -0.248 NA
ATOM     57  C   UNL A   1      42.428  27.227  30.241  1.00  0.00     0.031 C 
ATOM     58  C   UNL A   1      43.632  30.888  34.931  1.00  0.00     0.029 A 
ATOM     59  C   UNL A   1      43.050  30.328  33.806  1.00  0.00     0.049 A 
ATOM     60  H   UNL A   1      41.417  31.026  32.666  1.00  0.00     0.167 HD
ATOM     61  C   UNL A   1      42.790  28.642  32.008  1.00  0.00     0.074 A 
ATOM     62  C   UNL A   1      43.160  27.417  31.329  1.00  0.00     0.031 C 
ATOM     63  C   UNL A   1      43.412  29.117  33.115  1.00  0.00     0.031 A 
BRANCH  50  64
ATOM     64  C   UNL A   1      41.040  34.419  35.232  1.00  0.00    -0.014 A 
ATOM     65  C   UNL A   1      40.324  34.369  36.439  1.00  0.00     0.009 A 
ATOM     66  C   UNL A   1      41.862  35.527  34.978  1.00  0.00     0.009 A 
ATOM     67  C   UNL A   1      40.399  35.423  37.353  1.00  0.00     0.001 A 
ATOM     68  C   UNL A   1      41.959  36.565  35.907  1.00  0.00     0.001 A 
ATOM     69  C   UNL A   1      41.220  36.517  37.088  1.00  0.00     0.000 A 
ENDBRANCH  50  64
BRANCH  51  70
ATOM     70  C   UNL A   1      40.341  27.368  28.206  1.00  0.00    -0.014 A 
ATOM     71  C   UNL A   1      39.608  26.194  28.443  1.00  0.00     0.009 A 
ATOM     72  C   UNL A   1      40.991  27.522  26.972  1.00  0.00     0.009 A 
ATOM     73  C   UNL A   1      39.556  25.184  27.480  1.00  0.00     0.001 A 
ATOM     74  C   UNL A   1      40.911  26.525  25.998  1.00  0.00     0.001 A 
ATOM     75  C   UNL A   1      40.204  25.352  26.257  1.00  0.00     0.000 A 
ENDBRANCH  51  70
BRANCH  63  76
ATOM     76  C   UNL A   1      44.534  28.288  33.675  1.00  0.00    -0.014 A 
ATOM     77  C   UNL A   1      44.297  27.273  34.616  1.00  0.00     0.009 A 
ATOM     78  C   UNL A   1      45.851  28.523  33.247  1.00  0.00     0.009 A 
ATOM     79  C   UNL A   1      45.361  26.546  35.153  1.00  0.00     0.001 A 
ATOM     80  C   UNL A   1      46.908  27.771  33.760  1.00  0.00     0.001 A 
ATOM     81  C   UNL A   1      46.664  26.793  34.724  1.00  0.00     0.000 A 
ENDBRANCH  63  76
ENDBRANCH  37  38
ENDBRANCH  29  32
ENDBRANCH  27  28
ENDBRANCH  26  27
ENDBRANCH   1  26
TORSDOF 15
ENDMDL
MODEL 3
REMARK VINA RESULT:     -11.2      2.395      8.010
REMARK SMILES CC[C@]1(C(=O)NCCCCNC(=O)c2ccc(-c3c4nc(c(-c5ccccc5)c5ccc([nH]5)c(-c5ccccc5)c5nc(c(-c6ccccc6)c6ccc3[nH]6)C=C5)C=C4)cc2)CCC[N@@H+](Cc2cc(OC)ccc2F)C1
REMARK SMILES IDX 8 1 7 2 6 3 4 4 5 5 3 7 62 8 76 9 63 10 65 11 64 12 2 14
REMARK SMILES IDX 1 15 66 16 67 17 68 18 74 19 69 20 73 21 75 22 72 23 70 24
REMARK SMILES IDX 71 25 9 26 10 27 11 28 12 29 13 31 14 32 15 33 61 34 16 35
REMARK SMILES IDX 60 36 17 37 18 38 19 39 54 40 20 41 59 42 53 43 55 44 21 45
REMARK SMILES IDX 58 46 52 47 51 48 22 50 44 51 29 52 43 53 30 54 33 55 42 56
REMARK SMILES IDX 56 57 31 58 32 59 41 61 57 62 34 63 23 64 24 65 28 66 25 67
REMARK SMILES IDX 27 68 26 69 45 70 46 71 50 72 47 73 49 74 48 75 35 76 36 77
REMARK SMILES IDX 40 78 37 79 39 80 38 81
REMARK H PARENT 6 6 65 13 11 30 55 49 33 60
REMARK Flexibility Score: inf
ROOT
ATOM      1  C   UNL A   1      36.390  19.786  24.919  1.00  0.00     0.023 C 
ENDROOT
BRANCH   1   2
ATOM      2  C   UNL A   1      36.324  21.199  25.488  1.00  0.00     0.116 C 
BRANCH   2   3
ATOM      3  N   UNL A   1      35.205  21.362  26.403  1.00  0.00    -0.355 N 
ATOM      4  C   UNL A   1      34.037  22.066  26.318  1.00  0.00     0.231 C 
ATOM      5  O   UNL A   1      33.320  22.012  27.322  1.00  0.00    -0.274 OA
ATOM      6  H   UNL A   1      35.309  20.869  27.248  1.00  0.00     0.163 HD
BRANCH   4   7
ATOM      7  C   UNL A   1      33.626  22.874  25.050  1.00  0.00     0.098 C 
ATOM      8  C   UNL A   1      33.335  21.879  23.899  1.00  0.00     0.028 C 
ATOM      9  C   UNL A   1      32.397  23.734  25.433  1.00  0.00     0.279 C 
ATOM     10  C   UNL A   1      32.372  22.403  22.838  1.00  0.00     0.063 C 
ATOM     11  N   UNL A   1      31.570  24.199  24.314  1.00  0.00    -0.330 N 
ATOM     12  C   UNL A   1      31.154  23.112  23.432  1.00  0.00     0.262 C 
ATOM     13  H   UNL A   1      32.167  24.794  23.741  1.00  0.00     0.348 HD
BRANCH   7  14
ATOM     14  C   UNL A   1      34.836  23.797  24.659  1.00  0.00     0.019 C 
ATOM     15  C   UNL A   1      35.028  25.093  25.437  1.00  0.00     0.005 C 
ENDBRANCH   7  14
BRANCH  11  16
ATOM     16  C   UNL A   1      30.461  25.076  24.746  1.00  0.00     0.302 C 
BRANCH  16  17
ATOM     17  C   UNL A   1      30.594  26.566  24.498  1.00  0.00     0.046 A 
ATOM     18  C   UNL A   1      30.087  27.148  23.324  1.00  0.00     0.059 A 
ATOM     19  C   UNL A   1      31.275  27.400  25.391  1.00  0.00     0.132 A 
ATOM     20  C   UNL A   1      30.247  28.517  23.072  1.00  0.00     0.119 A 
ATOM     21  C   UNL A   1      31.352  28.776  25.196  1.00  0.00     0.043 A 
ATOM     22  F   UNL A   1      31.884  26.890  26.470  1.00  0.00    -0.206 F 
ATOM     23  C   UNL A   1      30.827  29.340  24.038  1.00  0.00     0.049 A 
BRANCH  20  24
ATOM     24  O   UNL A   1      29.806  28.953  21.852  1.00  0.00    -0.497 OA
ATOM     25  C   UNL A   1      29.271  30.276  21.844  1.00  0.00     0.278 C 
ENDBRANCH  20  24
ENDBRANCH  16  17
ENDBRANCH  11  16
ENDBRANCH   4   7
ENDBRANCH   2   3
ENDBRANCH   1   2
BRANCH   1  26
ATOM     26  C   UNL A   1      37.803  19.223  24.772  1.00  0.00     0.023 C 
BRANCH  26  27
ATOM     27  C   UNL A   1      38.856  19.865  25.669  1.00  0.00     0.116 C 
BRANCH  27  28
ATOM     28  N   UNL A   1      40.110  19.127  25.706  1.00  0.00    -0.352 N 
ATOM     29  C   UNL A   1      41.364  19.558  26.056  1.00  0.00     0.251 C 
ATOM     30  H   UNL A   1      40.048  18.181  25.440  1.00  0.00     0.163 HD
ATOM     31  O   UNL A   1      42.332  18.812  25.914  1.00  0.00    -0.269 OA
BRANCH  29  32
ATOM     32  C   UNL A   1      41.563  20.927  26.576  1.00  0.00     0.039 A 
ATOM     33  C   UNL A   1      41.360  21.165  27.938  1.00  0.00     0.014 A 
ATOM     34  C   UNL A   1      41.952  21.973  25.733  1.00  0.00     0.014 A 
ATOM     35  C   UNL A   1      41.604  22.436  28.461  1.00  0.00     0.010 A 
ATOM     36  C   UNL A   1      42.277  23.215  26.272  1.00  0.00     0.010 A 
ATOM     37  C   UNL A   1      42.099  23.462  27.640  1.00  0.00    -0.014 A 
BRANCH  37  38
ATOM     38  C   UNL A   1      42.435  24.791  28.211  1.00  0.00     0.031 A 
ATOM     39  C   UNL A   1      43.850  25.122  28.606  1.00  0.00     0.074 A 
ATOM     40  C   UNL A   1      41.456  25.697  28.403  1.00  0.00     0.049 A 
ATOM     41  N   UNL A   1      44.332  26.244  29.077  1.00  0.00    -0.248 NA
ATOM     42  C   UNL A   1      44.847  24.047  28.480  1.00  0.00     0.031 C 
ATOM     43  C   UNL A   1      40.034  25.481  28.121  1.00  0.00     0.029 A 
ATOM     44  N   UNL A   1      41.509  26.986  28.870  1.00  0.00    -0.354 N 
ATOM     45  C   UNL A   1      45.682  26.007  29.310  1.00  0.00     0.074 A 
ATOM     46  C   UNL A   1      45.928  24.620  28.987  1.00  0.00     0.031 C 
ATOM     47  C   UNL A   1      39.360  26.613  28.375  1.00  0.00     0.029 A 
ATOM     48  C   UNL A   1      40.291  27.622  28.867  1.00  0.00     0.049 A 
ATOM     49  H   UNL A   1      42.340  27.414  29.178  1.00  0.00     0.167 HD
ATOM     50  C   UNL A   1      46.637  26.871  29.730  1.00  0.00     0.031 A 
ATOM     51  C   UNL A   1      39.962  28.881  29.209  1.00  0.00     0.031 A 
ATOM     52  C   UNL A   1      46.395  28.254  30.048  1.00  0.00     0.049 A 
ATOM     53  C   UNL A   1      41.042  29.824  29.660  1.00  0.00     0.074 A 
ATOM     54  C   UNL A   1      47.305  29.225  30.428  1.00  0.00     0.029 A 
ATOM     55  N   UNL A   1      45.149  28.861  30.026  1.00  0.00    -0.354 N 
ATOM     56  N   UNL A   1      42.328  29.608  29.792  1.00  0.00    -0.248 NA
ATOM     57  C   UNL A   1      40.623  31.193  29.990  1.00  0.00     0.031 C 
ATOM     58  C   UNL A   1      46.602  30.406  30.686  1.00  0.00     0.029 A 
ATOM     59  C   UNL A   1      45.263  30.188  30.407  1.00  0.00     0.049 A 
ATOM     60  H   UNL A   1      44.307  28.415  29.777  1.00  0.00     0.167 HD
ATOM     61  C   UNL A   1      42.877  30.820  30.191  1.00  0.00     0.074 A 
ATOM     62  C   UNL A   1      41.786  31.771  30.256  1.00  0.00     0.031 C 
ATOM     63  C   UNL A   1      44.167  31.120  30.476  1.00  0.00     0.031 A 
BRANCH  50  64
ATOM     64  C   UNL A   1      48.038  26.338  29.870  1.00  0.00    -0.014 A 
ATOM     65  C   UNL A   1      48.930  26.342  28.785  1.00  0.00     0.009 A 
ATOM     66  C   UNL A   1      48.482  25.854  31.109  1.00  0.00     0.009 A 
ATOM     67  C   UNL A   1      50.223  25.835  28.928  1.00  0.00     0.001 A 
ATOM     68  C   UNL A   1      49.786  25.377  31.258  1.00  0.00     0.001 A 
ATOM     69  C   UNL A   1      50.651  25.358  30.166  1.00  0.00     0.000 A 
ENDBRANCH  50  64
BRANCH  51  70
ATOM     70  C   UNL A   1      38.552  29.340  29.099  1.00  0.00    -0.014 A 
ATOM     71  C   UNL A   1      37.699  29.295  30.213  1.00  0.00     0.009 A 
ATOM     72  C   UNL A   1      38.049  29.817  27.879  1.00  0.00     0.009 A 
ATOM     73  C   UNL A   1      36.363  29.686  30.099  1.00  0.00     0.001 A 
ATOM     74  C   UNL A   1      36.721  30.238  27.776  1.00  0.00     0.001 A 
ATOM     75  C   UNL A   1      35.877  30.160  28.882  1.00  0.00     0.000 A 
ENDBRANCH  51  70
BRANCH  63  76
ATOM     76  C   UNL A   1      44.469  32.545  30.851  1.00  0.00    -0.014 A 
ATOM     77  C   UNL A   1      44.946  33.466  29.905  1.00  0.00     0.009 A 
ATOM     78  C   UNL A   1      44.264  32.972  32.173  1.00  0.00     0.009 A 
ATOM     79  C   UNL A   1      45.260  34.773  30.288  1.00  0.00     0.001 A 
ATOM     80  C   UNL A   1      44.545  34.287  32.544  1.00  0.00     0.001 A 
ATOM     81  C   UNL A   1      45.057  35.183  31.606  1.00  0.00     0.000 A 
ENDBRANCH  63  76
ENDBRANCH  37  38
ENDBRANCH  29  32
ENDBRANCH  27  28
ENDBRANCH  26  27
ENDBRANCH   1  26
TORSDOF 15
ENDMDL
