MODEL 1
REMARK VINA RESULT:     -10.3      0.000      0.000
REMARK SMILES COc1ncccc1CS(=O)(=O)[C@@H](C)CC(=O)NCCCCNC(=O)c1ccc(-c2c3nc(c(-c4ccccc4)c4ccc([nH]4)c(-c4ccccc4)c4nc(c(-c5ccccc5)c5ccc2[nH]5)C=C4)C=C3)cc1
REMARK SMILES IDX 19 1 18 2 16 3 17 4 15 6 13 7 14 8 10 9 11 10 12 11 9 12
REMARK SMILES IDX 8 13 3 14 4 15 5 16 7 17 6 18 2 19 1 20 20 21 21 22 22 23
REMARK SMILES IDX 23 24 24 25 25 27 26 28 27 29 73 30 28 31 72 32 29 33 30 34
REMARK SMILES IDX 31 35 66 36 32 37 71 38 65 39 67 40 33 41 70 42 64 43 63 44
REMARK SMILES IDX 34 46 56 47 41 48 55 49 42 50 45 51 54 52 68 53 43 54 44 55
REMARK SMILES IDX 53 57 69 58 46 59 35 60 36 61 40 62 37 63 39 64 38 65 57 66
REMARK SMILES IDX 58 67 62 68 59 69 61 70 60 71 47 72 48 73 52 74 49 75 51 76
REMARK SMILES IDX 50 77
REMARK H PARENT 18 5 23 26 67 45 45 56
REMARK Flexibility Score: inf
ROOT
ATOM      1  C   UNL A   1      33.262  28.982  23.332  1.00  0.00     0.116 C 
ENDROOT
BRANCH   1   2
ATOM      2  N   UNL A   1      32.028  28.850  22.578  1.00  0.00    -0.356 N 
ATOM      3  C   UNL A   1      31.006  27.963  22.521  1.00  0.00     0.221 C 
ATOM      4  O   UNL A   1      30.052  28.347  21.825  1.00  0.00    -0.275 OA
ATOM      5  H   UNL A   1      31.901  29.594  21.948  1.00  0.00     0.163 HD
BRANCH   3   6
ATOM      6  C   UNL A   1      30.831  26.624  23.245  1.00  0.00     0.119 C 
BRANCH   6   7
ATOM      7  C   UNL A   1      31.310  25.313  22.662  1.00  0.00     0.115 C 
ATOM      8  C   UNL A   1      30.597  24.103  23.326  1.00  0.00     0.025 C 
BRANCH   7   9
ATOM      9  S   UNL A   1      33.105  25.006  22.712  1.00  0.00     0.157 S 
ATOM     10  O   UNL A   1      33.523  25.409  24.048  1.00  0.00    -0.228 OA
ATOM     11  O   UNL A   1      33.706  25.719  21.594  1.00  0.00    -0.228 OA
BRANCH   9  12
ATOM     12  C   UNL A   1      33.633  23.299  22.527  1.00  0.00     0.178 C 
BRANCH  12  13
ATOM     13  C   UNL A   1      34.631  22.700  23.483  1.00  0.00     0.029 A 
ATOM     14  C   UNL A   1      34.312  22.055  24.694  1.00  0.00     0.217 A 
ATOM     15  N   UNL A   1      35.217  21.718  25.638  1.00  0.00    -0.222 NA
ATOM     16  C   UNL A   1      36.501  22.013  25.398  1.00  0.00     0.115 A 
ATOM     17  C   UNL A   1      35.992  22.938  23.258  1.00  0.00     0.012 A 
ATOM     18  C   UNL A   1      36.934  22.602  24.228  1.00  0.00     0.021 A 
BRANCH  14  19
ATOM     19  O   UNL A   1      33.012  21.747  24.990  1.00  0.00    -0.481 OA
ATOM     20  C   UNL A   1      32.463  22.482  26.096  1.00  0.00     0.280 C 
ENDBRANCH  14  19
ENDBRANCH  12  13
ENDBRANCH   9  12
ENDBRANCH   7   9
ENDBRANCH   6   7
ENDBRANCH   3   6
ENDBRANCH   1   2
BRANCH   1  21
ATOM     21  C   UNL A   1      33.129  29.398  24.798  1.00  0.00     0.023 C 
BRANCH  21  22
ATOM     22  C   UNL A   1      33.749  28.487  25.867  1.00  0.00     0.023 C 
BRANCH  22  23
ATOM     23  C   UNL A   1      33.418  28.736  27.341  1.00  0.00     0.116 C 
BRANCH  23  24
ATOM     24  N   UNL A   1      33.516  30.114  27.797  1.00  0.00    -0.352 N 
ATOM     25  C   UNL A   1      34.613  30.815  28.250  1.00  0.00     0.251 C 
ATOM     26  H   UNL A   1      32.672  30.622  27.780  1.00  0.00     0.163 HD
ATOM     27  O   UNL A   1      34.512  31.997  28.573  1.00  0.00    -0.269 OA
BRANCH  25  28
ATOM     28  C   UNL A   1      35.908  30.125  28.407  1.00  0.00     0.039 A 
ATOM     29  C   UNL A   1      36.817  30.153  27.346  1.00  0.00     0.014 A 
ATOM     30  C   UNL A   1      36.253  29.516  29.615  1.00  0.00     0.014 A 
ATOM     31  C   UNL A   1      38.109  29.662  27.533  1.00  0.00     0.010 A 
ATOM     32  C   UNL A   1      37.569  29.117  29.828  1.00  0.00     0.010 A 
ATOM     33  C   UNL A   1      38.514  29.189  28.792  1.00  0.00    -0.014 A 
BRANCH  33  34
ATOM     34  C   UNL A   1      39.918  28.767  29.037  1.00  0.00     0.031 A 
ATOM     35  C   UNL A   1      40.880  29.701  29.720  1.00  0.00     0.074 A 
ATOM     36  C   UNL A   1      40.346  27.564  28.604  1.00  0.00     0.049 A 
ATOM     37  N   UNL A   1      42.142  29.516  30.015  1.00  0.00    -0.248 NA
ATOM     38  C   UNL A   1      40.364  31.027  30.092  1.00  0.00     0.031 C 
ATOM     39  C   UNL A   1      39.530  26.579  27.890  1.00  0.00     0.029 A 
ATOM     40  N   UNL A   1      41.575  26.961  28.707  1.00  0.00    -0.354 N 
ATOM     41  C   UNL A   1      42.572  30.708  30.585  1.00  0.00     0.074 A 
ATOM     42  C   UNL A   1      41.457  31.627  30.533  1.00  0.00     0.031 C 
ATOM     43  C   UNL A   1      40.263  25.476  27.670  1.00  0.00     0.029 A 
ATOM     44  C   UNL A   1      41.612  25.691  28.185  1.00  0.00     0.049 A 
ATOM     45  H   UNL A   1      42.357  27.399  29.117  1.00  0.00     0.167 HD
ATOM     46  C   UNL A   1      43.776  31.008  31.127  1.00  0.00     0.031 A 
ATOM     47  C   UNL A   1      42.617  24.795  28.133  1.00  0.00     0.031 A 
ATOM     48  C   UNL A   1      44.885  30.093  31.184  1.00  0.00     0.049 A 
ATOM     49  C   UNL A   1      43.954  25.155  28.717  1.00  0.00     0.074 A 
ATOM     50  C   UNL A   1      46.125  30.273  31.770  1.00  0.00     0.029 A 
ATOM     51  N   UNL A   1      44.888  28.824  30.623  1.00  0.00    -0.354 N 
ATOM     52  N   UNL A   1      44.320  26.256  29.327  1.00  0.00    -0.248 NA
ATOM     53  C   UNL A   1      45.015  24.143  28.610  1.00  0.00     0.031 C 
ATOM     54  C   UNL A   1      46.901  29.140  31.505  1.00  0.00     0.029 A 
ATOM     55  C   UNL A   1      46.121  28.225  30.815  1.00  0.00     0.049 A 
ATOM     56  H   UNL A   1      44.125  28.411  30.157  1.00  0.00     0.167 HD
ATOM     57  C   UNL A   1      45.642  26.059  29.704  1.00  0.00     0.074 A 
ATOM     58  C   UNL A   1      46.009  24.728  29.264  1.00  0.00     0.031 C 
ATOM     59  C   UNL A   1      46.476  26.904  30.361  1.00  0.00     0.031 A 
BRANCH  46  60
ATOM     60  C   UNL A   1      43.952  32.399  31.678  1.00  0.00    -0.014 A 
ATOM     61  C   UNL A   1      44.432  33.450  30.878  1.00  0.00     0.009 A 
ATOM     62  C   UNL A   1      43.645  32.660  33.022  1.00  0.00     0.009 A 
ATOM     63  C   UNL A   1      44.660  34.713  31.428  1.00  0.00     0.001 A 
ATOM     64  C   UNL A   1      43.837  33.933  33.560  1.00  0.00     0.001 A 
ATOM     65  C   UNL A   1      44.360  34.954  32.767  1.00  0.00     0.000 A 
ENDBRANCH  46  60
BRANCH  47  66
ATOM     66  C   UNL A   1      42.382  23.450  27.543  1.00  0.00    -0.014 A 
ATOM     67  C   UNL A   1      42.698  23.203  26.197  1.00  0.00     0.009 A 
ATOM     68  C   UNL A   1      41.857  22.404  28.317  1.00  0.00     0.009 A 
ATOM     69  C   UNL A   1      42.479  21.943  25.636  1.00  0.00     0.001 A 
ATOM     70  C   UNL A   1      41.665  21.136  27.761  1.00  0.00     0.001 A 
ATOM     71  C   UNL A   1      41.970  20.909  26.419  1.00  0.00     0.000 A 
ENDBRANCH  47  66
BRANCH  59  72
ATOM     72  C   UNL A   1      47.860  26.404  30.670  1.00  0.00    -0.014 A 
ATOM     73  C   UNL A   1      48.155  25.768  31.885  1.00  0.00     0.009 A 
ATOM     74  C   UNL A   1      48.874  26.531  29.705  1.00  0.00     0.009 A 
ATOM     75  C   UNL A   1      49.445  25.300  32.141  1.00  0.00     0.001 A 
ATOM     76  C   UNL A   1      50.154  26.034  29.952  1.00  0.00     0.001 A 
ATOM     77  C   UNL A   1      50.441  25.427  31.174  1.00  0.00     0.000 A 
ENDBRANCH  59  72
ENDBRANCH  33  34
ENDBRANCH  25  28
ENDBRANCH  23  24
ENDBRANCH  22  23
ENDBRANCH  21  22
ENDBRANCH   1  21
TORSDOF 16
ENDMDL
MODEL 2
REMARK VINA RESULT:     -10.1      1.215      6.129
REMARK SMILES COc1ncccc1CS(=O)(=O)[C@@H](C)CC(=O)NCCCCNC(=O)c1ccc(-c2c3nc(c(-c4ccccc4)c4ccc([nH]4)c(-c4ccccc4)c4nc(c(-c5ccccc5)c5ccc2[nH]5)C=C4)C=C3)cc1
REMARK SMILES IDX 19 1 18 2 16 3 17 4 15 6 13 7 14 8 10 9 11 10 12 11 9 12
REMARK SMILES IDX 8 13 3 14 4 15 5 16 7 17 6 18 2 19 1 20 20 21 21 22 22 23
REMARK SMILES IDX 23 24 24 25 25 27 26 28 27 29 73 30 28 31 72 32 29 33 30 34
REMARK SMILES IDX 31 35 66 36 32 37 71 38 65 39 67 40 33 41 70 42 64 43 63 44
REMARK SMILES IDX 34 46 56 47 41 48 55 49 42 50 45 51 54 52 68 53 43 54 44 55
REMARK SMILES IDX 53 57 69 58 46 59 35 60 36 61 40 62 37 63 39 64 38 65 57 66
REMARK SMILES IDX 58 67 62 68 59 69 61 70 60 71 47 72 48 73 52 74 49 75 51 76
REMARK SMILES IDX 50 77
REMARK H PARENT 18 5 23 26 67 45 45 56
REMARK Flexibility Score: inf
ROOT
ATOM      1  C   UNL A   1      31.535  29.490  24.811  1.00  0.00     0.116 C 
ENDROOT
BRANCH   1   2
ATOM      2  N   UNL A   1      30.902  29.642  23.513  1.00  0.00    -0.356 N 
ATOM      3  C   UNL A   1      30.479  28.815  22.527  1.00  0.00     0.221 C 
ATOM      4  O   UNL A   1      29.826  29.391  21.641  1.00  0.00    -0.275 OA
ATOM      5  H   UNL A   1      30.737  30.587  23.294  1.00  0.00     0.163 HD
BRANCH   3   6
ATOM      6  C   UNL A   1      30.616  27.295  22.399  1.00  0.00     0.119 C 
BRANCH   6   7
ATOM      7  C   UNL A   1      31.923  26.571  22.640  1.00  0.00     0.115 C 
ATOM      8  C   UNL A   1      32.615  26.191  21.302  1.00  0.00     0.025 C 
BRANCH   7   9
ATOM      9  S   UNL A   1      31.849  25.077  23.680  1.00  0.00     0.157 S 
ATOM     10  O   UNL A   1      32.659  24.088  22.983  1.00  0.00    -0.228 OA
ATOM     11  O   UNL A   1      30.445  24.750  23.882  1.00  0.00    -0.228 OA
BRANCH   9  12
ATOM     12  C   UNL A   1      32.549  25.212  25.329  1.00  0.00     0.178 C 
BRANCH  12  13
ATOM     13  C   UNL A   1      32.953  23.976  26.090  1.00  0.00     0.029 A 
ATOM     14  C   UNL A   1      32.205  23.375  27.122  1.00  0.00     0.217 A 
ATOM     15  N   UNL A   1      32.674  22.405  27.935  1.00  0.00    -0.222 NA
ATOM     16  C   UNL A   1      33.931  21.987  27.740  1.00  0.00     0.115 A 
ATOM     17  C   UNL A   1      34.242  23.466  25.894  1.00  0.00     0.012 A 
ATOM     18  C   UNL A   1      34.739  22.471  26.733  1.00  0.00     0.021 A 
BRANCH  14  19
ATOM     19  O   UNL A   1      30.922  23.780  27.368  1.00  0.00    -0.481 OA
ATOM     20  C   UNL A   1      29.909  22.929  26.806  1.00  0.00     0.280 C 
ENDBRANCH  14  19
ENDBRANCH  12  13
ENDBRANCH   9  12
ENDBRANCH   7   9
ENDBRANCH   6   7
ENDBRANCH   3   6
ENDBRANCH   1   2
BRANCH   1  21
ATOM     21  C   UNL A   1      33.064  29.450  24.827  1.00  0.00     0.023 C 
BRANCH  21  22
ATOM     22  C   UNL A   1      33.753  28.523  25.838  1.00  0.00     0.023 C 
BRANCH  22  23
ATOM     23  C   UNL A   1      33.522  28.750  27.335  1.00  0.00     0.116 C 
BRANCH  23  24
ATOM     24  N   UNL A   1      33.598  30.128  27.795  1.00  0.00    -0.352 N 
ATOM     25  C   UNL A   1      34.680  30.840  28.264  1.00  0.00     0.251 C 
ATOM     26  H   UNL A   1      32.749  30.627  27.767  1.00  0.00     0.163 HD
ATOM     27  O   UNL A   1      34.562  32.021  28.588  1.00  0.00    -0.269 OA
BRANCH  25  28
ATOM     28  C   UNL A   1      35.981  30.165  28.438  1.00  0.00     0.039 A 
ATOM     29  C   UNL A   1      36.901  30.200  27.387  1.00  0.00     0.014 A 
ATOM     30  C   UNL A   1      36.318  29.563  29.651  1.00  0.00     0.014 A 
ATOM     31  C   UNL A   1      38.197  29.724  27.590  1.00  0.00     0.010 A 
ATOM     32  C   UNL A   1      37.637  29.179  29.880  1.00  0.00     0.010 A 
ATOM     33  C   UNL A   1      38.592  29.258  28.854  1.00  0.00    -0.014 A 
BRANCH  33  34
ATOM     34  C   UNL A   1      39.999  28.852  29.117  1.00  0.00     0.031 A 
ATOM     35  C   UNL A   1      40.482  27.489  28.703  1.00  0.00     0.074 A 
ATOM     36  C   UNL A   1      40.830  29.688  29.771  1.00  0.00     0.049 A 
ATOM     37  N   UNL A   1      41.666  26.952  28.851  1.00  0.00    -0.248 NA
ATOM     38  C   UNL A   1      39.495  26.602  28.066  1.00  0.00     0.031 C 
ATOM     39  C   UNL A   1      40.478  31.021  30.266  1.00  0.00     0.029 A 
ATOM     40  N   UNL A   1      42.148  29.541  30.127  1.00  0.00    -0.354 N 
ATOM     41  C   UNL A   1      41.559  25.662  28.347  1.00  0.00     0.074 A 
ATOM     42  C   UNL A   1      40.181  25.476  27.953  1.00  0.00     0.031 C 
ATOM     43  C   UNL A   1      41.566  31.589  30.810  1.00  0.00     0.029 A 
ATOM     44  C   UNL A   1      42.679  30.647  30.744  1.00  0.00     0.049 A 
ATOM     45  H   UNL A   1      42.664  28.719  29.956  1.00  0.00     0.167 HD
ATOM     46  C   UNL A   1      42.522  24.721  28.201  1.00  0.00     0.031 A 
ATOM     47  C   UNL A   1      43.925  30.882  31.199  1.00  0.00     0.031 A 
ATOM     48  C   UNL A   1      43.895  24.906  28.589  1.00  0.00     0.049 A 
ATOM     49  C   UNL A   1      44.974  29.816  31.051  1.00  0.00     0.074 A 
ATOM     50  C   UNL A   1      44.964  24.043  28.424  1.00  0.00     0.029 A 
ATOM     51  N   UNL A   1      44.386  26.033  29.232  1.00  0.00    -0.354 N 
ATOM     52  N   UNL A   1      44.878  28.632  30.496  1.00  0.00    -0.248 NA
ATOM     53  C   UNL A   1      46.309  30.125  31.586  1.00  0.00     0.031 C 
ATOM     54  C   UNL A   1      46.087  24.620  29.026  1.00  0.00     0.029 A 
ATOM     55  C   UNL A   1      45.734  25.872  29.505  1.00  0.00     0.049 A 
ATOM     56  H   UNL A   1      43.855  26.830  29.460  1.00  0.00     0.167 HD
ATOM     57  C   UNL A   1      46.143  28.066  30.588  1.00  0.00     0.074 A 
ATOM     58  C   UNL A   1      46.992  29.043  31.240  1.00  0.00     0.031 C 
ATOM     59  C   UNL A   1      46.564  26.848  30.165  1.00  0.00     0.031 A 
BRANCH  46  60
ATOM     60  C   UNL A   1      42.104  23.398  27.616  1.00  0.00    -0.014 A 
ATOM     61  C   UNL A   1      42.207  23.139  26.238  1.00  0.00     0.009 A 
ATOM     62  C   UNL A   1      41.587  22.398  28.453  1.00  0.00     0.009 A 
ATOM     63  C   UNL A   1      41.743  21.935  25.706  1.00  0.00     0.001 A 
ATOM     64  C   UNL A   1      41.159  21.180  27.924  1.00  0.00     0.001 A 
ATOM     65  C   UNL A   1      41.221  20.956  26.550  1.00  0.00     0.000 A 
ENDBRANCH  46  60
BRANCH  47  66
ATOM     66  C   UNL A   1      44.260  32.202  31.798  1.00  0.00    -0.014 A 
ATOM     67  C   UNL A   1      44.793  33.226  30.999  1.00  0.00     0.009 A 
ATOM     68  C   UNL A   1      44.040  32.453  33.161  1.00  0.00     0.009 A 
ATOM     69  C   UNL A   1      45.111  34.467  31.555  1.00  0.00     0.001 A 
ATOM     70  C   UNL A   1      44.333  33.704  33.709  1.00  0.00     0.001 A 
ATOM     71  C   UNL A   1      44.874  34.708  32.906  1.00  0.00     0.000 A 
ENDBRANCH  47  66
BRANCH  59  72
ATOM     72  C   UNL A   1      48.016  26.513  30.368  1.00  0.00    -0.014 A 
ATOM     73  C   UNL A   1      48.462  25.865  31.530  1.00  0.00     0.009 A 
ATOM     74  C   UNL A   1      48.944  26.810  29.357  1.00  0.00     0.009 A 
ATOM     75  C   UNL A   1      49.814  25.552  31.688  1.00  0.00     0.001 A 
ATOM     76  C   UNL A   1      50.289  26.467  29.504  1.00  0.00     0.001 A 
ATOM     77  C   UNL A   1      50.724  25.848  30.674  1.00  0.00     0.000 A 
ENDBRANCH  59  72
ENDBRANCH  33  34
ENDBRANCH  25  28
ENDBRANCH  23  24
ENDBRANCH  22  23
ENDBRANCH  21  22
ENDBRANCH   1  21
TORSDOF 16
ENDMDL
MODEL 3
REMARK VINA RESULT:     -10.1      3.473      4.982
REMARK SMILES COc1ncccc1CS(=O)(=O)[C@@H](C)CC(=O)NCCCCNC(=O)c1ccc(-c2c3nc(c(-c4ccccc4)c4ccc([nH]4)c(-c4ccccc4)c4nc(c(-c5ccccc5)c5ccc2[nH]5)C=C4)C=C3)cc1
REMARK SMILES IDX 19 1 18 2 16 3 17 4 15 6 13 7 14 8 10 9 11 10 12 11 9 12
REMARK SMILES IDX 8 13 3 14 4 15 5 16 7 17 6 18 2 19 1 20 20 21 21 22 22 23
REMARK SMILES IDX 23 24 24 25 25 27 26 28 27 29 73 30 28 31 72 32 29 33 30 34
REMARK SMILES IDX 31 35 66 36 32 37 71 38 65 39 67 40 33 41 70 42 64 43 63 44
REMARK SMILES IDX 34 46 56 47 41 48 55 49 42 50 45 51 54 52 68 53 43 54 44 55
REMARK SMILES IDX 53 57 69 58 46 59 35 60 36 61 40 62 37 63 39 64 38 65 57 66
REMARK SMILES IDX 58 67 62 68 59 69 61 70 60 71 47 72 48 73 52 74 49 75 51 76
REMARK SMILES IDX 50 77
REMARK H PARENT 18 5 23 26 67 45 45 56
REMARK Flexibility Score: inf
ROOT
ATOM      1  C   UNL A   1      33.110  29.919  26.213  1.00  0.00     0.116 C 
ENDROOT
BRANCH   1   2
ATOM      2  N   UNL A   1      33.116  29.690  24.779  1.00  0.00    -0.356 N 
ATOM      3  C   UNL A   1      32.659  28.731  23.940  1.00  0.00     0.221 C 
ATOM      4  O   UNL A   1      32.746  29.037  22.739  1.00  0.00    -0.275 OA
ATOM      5  H   UNL A   1      33.567  30.417  24.293  1.00  0.00     0.163 HD
BRANCH   3   6
ATOM      6  C   UNL A   1      31.989  27.390  24.258  1.00  0.00     0.119 C 
BRANCH   6   7
ATOM      7  C   UNL A   1      32.713  26.067  24.135  1.00  0.00     0.115 C 
ATOM      8  C   UNL A   1      34.124  26.130  24.782  1.00  0.00     0.025 C 
BRANCH   7   9
ATOM      9  S   UNL A   1      32.895  25.389  22.454  1.00  0.00     0.157 S 
ATOM     10  O   UNL A   1      34.035  26.092  21.881  1.00  0.00    -0.228 OA
ATOM     11  O   UNL A   1      31.617  25.549  21.773  1.00  0.00    -0.228 OA
BRANCH   9  12
ATOM     12  C   UNL A   1      33.284  23.640  22.331  1.00  0.00     0.178 C 
BRANCH  12  13
ATOM     13  C   UNL A   1      34.211  22.992  23.326  1.00  0.00     0.029 A 
ATOM     14  C   UNL A   1      33.809  22.354  24.516  1.00  0.00     0.217 A 
ATOM     15  N   UNL A   1      34.654  21.972  25.497  1.00  0.00    -0.222 NA
ATOM     16  C   UNL A   1      35.960  22.211  25.318  1.00  0.00     0.115 A 
ATOM     17  C   UNL A   1      35.590  23.171  23.165  1.00  0.00     0.012 A 
ATOM     18  C   UNL A   1      36.471  22.789  24.174  1.00  0.00     0.021 A 
BRANCH  14  19
ATOM     19  O   UNL A   1      32.485  22.102  24.750  1.00  0.00    -0.481 OA
ATOM     20  C   UNL A   1      32.167  20.713  24.941  1.00  0.00     0.280 C 
ENDBRANCH  14  19
ENDBRANCH  12  13
ENDBRANCH   9  12
ENDBRANCH   7   9
ENDBRANCH   6   7
ENDBRANCH   3   6
ENDBRANCH   1   2
BRANCH   1  21
ATOM     21  C   UNL A   1      31.795  30.406  26.825  1.00  0.00     0.023 C 
BRANCH  21  22
ATOM     22  C   UNL A   1      31.528  31.917  26.857  1.00  0.00     0.023 C 
BRANCH  22  23
ATOM     23  C   UNL A   1      32.674  32.869  27.209  1.00  0.00     0.116 C 
BRANCH  23  24
ATOM     24  N   UNL A   1      32.289  34.205  27.640  1.00  0.00    -0.352 N 
ATOM     25  C   UNL A   1      32.912  35.056  28.527  1.00  0.00     0.251 C 
ATOM     26  H   UNL A   1      31.459  34.552  27.239  1.00  0.00     0.163 HD
ATOM     27  O   UNL A   1      32.450  36.173  28.753  1.00  0.00    -0.269 OA
BRANCH  25  28
ATOM     28  C   UNL A   1      34.110  34.602  29.259  1.00  0.00     0.039 A 
ATOM     29  C   UNL A   1      33.944  34.000  30.509  1.00  0.00     0.014 A 
ATOM     30  C   UNL A   1      35.380  34.705  28.689  1.00  0.00     0.014 A 
ATOM     31  C   UNL A   1      35.040  33.407  31.139  1.00  0.00     0.010 A 
ATOM     32  C   UNL A   1      36.448  34.029  29.272  1.00  0.00     0.010 A 
ATOM     33  C   UNL A   1      36.290  33.369  30.501  1.00  0.00    -0.014 A 
BRANCH  33  34
ATOM     34  C   UNL A   1      37.438  32.645  31.108  1.00  0.00     0.031 A 
ATOM     35  C   UNL A   1      37.984  33.074  32.442  1.00  0.00     0.074 A 
ATOM     36  C   UNL A   1      38.025  31.632  30.438  1.00  0.00     0.049 A 
ATOM     37  N   UNL A   1      38.980  32.573  33.128  1.00  0.00    -0.248 NA
ATOM     38  C   UNL A   1      37.344  34.238  33.075  1.00  0.00     0.031 C 
ATOM     39  C   UNL A   1      37.624  31.142  29.118  1.00  0.00     0.029 A 
ATOM     40  N   UNL A   1      39.082  30.826  30.783  1.00  0.00    -0.354 N 
ATOM     41  C   UNL A   1      39.098  33.373  34.257  1.00  0.00     0.074 A 
ATOM     42  C   UNL A   1      38.118  34.429  34.132  1.00  0.00     0.031 C 
ATOM     43  C   UNL A   1      38.388  30.087  28.790  1.00  0.00     0.029 A 
ATOM     44  C   UNL A   1      39.360  29.854  29.853  1.00  0.00     0.049 A 
ATOM     45  H   UNL A   1      39.593  30.935  31.618  1.00  0.00     0.167 HD
ATOM     46  C   UNL A   1      39.928  33.234  35.318  1.00  0.00     0.031 A 
ATOM     47  C   UNL A   1      40.288  28.878  29.858  1.00  0.00     0.031 A 
ATOM     48  C   UNL A   1      40.900  32.181  35.447  1.00  0.00     0.049 A 
ATOM     49  C   UNL A   1      41.218  28.754  31.033  1.00  0.00     0.074 A 
ATOM     50  C   UNL A   1      41.744  31.910  36.510  1.00  0.00     0.029 A 
ATOM     51  N   UNL A   1      41.165  31.231  34.472  1.00  0.00    -0.354 N 
ATOM     52  N   UNL A   1      41.261  29.467  32.132  1.00  0.00    -0.248 NA
ATOM     53  C   UNL A   1      42.223  27.682  30.969  1.00  0.00     0.031 C 
ATOM     54  C   UNL A   1      42.565  30.836  36.150  1.00  0.00     0.029 A 
ATOM     55  C   UNL A   1      42.186  30.395  34.892  1.00  0.00     0.049 A 
ATOM     56  H   UNL A   1      40.697  31.161  33.609  1.00  0.00     0.167 HD
ATOM     57  C   UNL A   1      42.275  28.914  32.903  1.00  0.00     0.074 A 
ATOM     58  C   UNL A   1      42.811  27.798  32.152  1.00  0.00     0.031 C 
ATOM     59  C   UNL A   1      42.718  29.295  34.128  1.00  0.00     0.031 A 
BRANCH  46  60
ATOM     60  C   UNL A   1      39.826  34.267  36.408  1.00  0.00    -0.014 A 
ATOM     61  C   UNL A   1      40.552  35.469  36.351  1.00  0.00     0.009 A 
ATOM     62  C   UNL A   1      39.000  34.031  37.518  1.00  0.00     0.009 A 
ATOM     63  C   UNL A   1      40.503  36.380  37.408  1.00  0.00     0.001 A 
ATOM     64  C   UNL A   1      38.922  34.960  38.556  1.00  0.00     0.001 A 
ATOM     65  C   UNL A   1      39.686  36.126  38.508  1.00  0.00     0.000 A 
ENDBRANCH  46  60
BRANCH  47  66
ATOM     66  C   UNL A   1      40.355  27.910  28.730  1.00  0.00    -0.014 A 
ATOM     67  C   UNL A   1      39.650  26.697  28.798  1.00  0.00     0.009 A 
ATOM     68  C   UNL A   1      41.105  28.194  27.579  1.00  0.00     0.009 A 
ATOM     69  C   UNL A   1      39.709  25.784  27.743  1.00  0.00     0.001 A 
ATOM     70  C   UNL A   1      41.139  27.291  26.513  1.00  0.00     0.001 A 
ATOM     71  C   UNL A   1      40.446  26.083  26.599  1.00  0.00     0.000 A 
ENDBRANCH  47  66
BRANCH  59  72
ATOM     72  C   UNL A   1      43.820  28.479  34.745  1.00  0.00    -0.014 A 
ATOM     73  C   UNL A   1      43.544  27.341  35.518  1.00  0.00     0.009 A 
ATOM     74  C   UNL A   1      45.159  28.831  34.508  1.00  0.00     0.009 A 
ATOM     75  C   UNL A   1      44.587  26.592  36.069  1.00  0.00     0.001 A 
ATOM     76  C   UNL A   1      46.199  28.062  35.033  1.00  0.00     0.001 A 
ATOM     77  C   UNL A   1      45.912  26.950  35.821  1.00  0.00     0.000 A 
ENDBRANCH  59  72
ENDBRANCH  33  34
ENDBRANCH  25  28
ENDBRANCH  23  24
ENDBRANCH  22  23
ENDBRANCH  21  22
ENDBRANCH   1  21
TORSDOF 16
ENDMDL
