MODEL 1
REMARK VINA RESULT:     -11.5      0.000      0.000
REMARK SMILES COc1ccc(-c2cccc(/C=C\C(=O)NCCCCNC(=O)c3ccc(-c4c5nc(c(-c6ccccc6)c6ccc([nH]6)c(-c6ccccc6)c6nc(c(-c7ccccc7)c7ccc4[nH]7)C=C6)C=C5)cc3)c2)c(Cl)c1OC
REMARK SMILES IDX 18 1 17 2 16 3 14 4 15 5 13 7 12 8 11 9 7 10 8 11 72 12 9 13
REMARK SMILES IDX 10 14 6 15 3 16 4 17 75 18 5 19 73 20 74 21 2 22 1 23 76 24
REMARK SMILES IDX 77 25 19 26 20 27 21 28 22 29 23 31 24 32 25 33 71 34 26 35
REMARK SMILES IDX 70 36 27 37 28 38 29 39 64 40 30 41 69 42 63 43 65 44 31 45
REMARK SMILES IDX 68 46 62 47 61 48 32 50 54 51 39 52 53 53 40 54 43 55 52 56
REMARK SMILES IDX 66 57 41 58 42 59 51 61 67 62 44 63 33 64 34 65 38 66 35 67
REMARK SMILES IDX 37 68 36 69 55 70 56 71 60 72 57 73 59 74 58 75 45 76 46 77
REMARK SMILES IDX 50 78 47 79 49 80 48 81
REMARK H PARENT 16 6 21 30 65 49 43 60
REMARK Flexibility Score: inf
ROOT
ATOM      1  C   UNL A   1      31.389  30.627  25.740  1.00  0.00     0.023 C 
ENDROOT
BRANCH   1   2
ATOM      2  C   UNL A   1      31.494  29.381  24.872  1.00  0.00     0.116 C 
BRANCH   2   3
ATOM      3  N   UNL A   1      31.056  29.543  23.503  1.00  0.00    -0.353 N 
ATOM      4  C   UNL A   1      30.096  28.864  22.818  1.00  0.00     0.243 C 
ATOM      5  O   UNL A   1      29.862  29.180  21.650  1.00  0.00    -0.270 OA
ATOM      6  H   UNL A   1      31.521  30.246  22.993  1.00  0.00     0.163 HD
BRANCH   4   7
ATOM      7  C   UNL A   1      29.382  27.684  23.384  1.00  0.00     0.072 C 
ATOM      8  C   UNL A   1      29.721  26.387  23.501  1.00  0.00     0.014 C 
BRANCH   8   9
ATOM      9  C   UNL A   1      30.946  25.735  23.027  1.00  0.00    -0.025 A 
ATOM     10  C   UNL A   1      32.371  23.736  22.990  1.00  0.00    -0.016 A 
ATOM     11  C   UNL A   1      33.014  24.297  21.864  1.00  0.00     0.009 A 
ATOM     12  C   UNL A   1      31.317  24.478  23.551  1.00  0.00     0.017 A 
ATOM     13  C   UNL A   1      32.739  25.592  21.426  1.00  0.00     0.001 A 
ATOM     14  C   UNL A   1      31.728  26.326  22.031  1.00  0.00     0.008 A 
BRANCH  10  15
ATOM     15  C   UNL A   1      32.927  22.491  23.600  1.00  0.00     0.004 A 
ATOM     16  C   UNL A   1      33.755  19.942  24.537  1.00  0.00     0.162 A 
ATOM     17  C   UNL A   1      32.532  20.086  23.897  1.00  0.00     0.051 A 
ATOM     18  C   UNL A   1      34.561  21.074  24.793  1.00  0.00     0.180 A 
ATOM     19  C   UNL A   1      32.148  21.327  23.415  1.00  0.00     0.014 A 
ATOM     20  C   UNL A   1      34.136  22.353  24.338  1.00  0.00     0.094 A 
ATOM     21  Cl  UNL A   1      35.011  23.789  24.782  1.00  0.00    -0.079 Cl
BRANCH  16  22
ATOM     22  O   UNL A   1      34.198  18.713  24.969  1.00  0.00    -0.493 OA
ATOM     23  C   UNL A   1      34.077  17.669  24.001  1.00  0.00     0.278 C 
ENDBRANCH  16  22
BRANCH  18  24
ATOM     24  O   UNL A   1      35.652  20.794  25.583  1.00  0.00    -0.491 OA
ATOM     25  C   UNL A   1      36.946  20.761  25.001  1.00  0.00     0.278 C 
ENDBRANCH  18  24
ENDBRANCH  10  15
ENDBRANCH   8   9
ENDBRANCH   4   7
ENDBRANCH   2   3
ENDBRANCH   1   2
BRANCH   1  26
ATOM     26  C   UNL A   1      32.245  30.644  27.009  1.00  0.00     0.023 C 
BRANCH  26  27
ATOM     27  C   UNL A   1      33.253  31.781  27.177  1.00  0.00     0.116 C 
BRANCH  27  28
ATOM     28  N   UNL A   1      32.691  33.048  27.626  1.00  0.00    -0.352 N 
ATOM     29  C   UNL A   1      33.209  33.991  28.488  1.00  0.00     0.251 C 
ATOM     30  H   UNL A   1      31.804  33.262  27.257  1.00  0.00     0.163 HD
ATOM     31  O   UNL A   1      32.600  35.025  28.718  1.00  0.00    -0.269 OA
BRANCH  29  32
ATOM     32  C   UNL A   1      34.492  33.729  29.176  1.00  0.00     0.039 A 
ATOM     33  C   UNL A   1      34.483  32.944  30.333  1.00  0.00     0.014 A 
ATOM     34  C   UNL A   1      35.697  34.204  28.657  1.00  0.00     0.014 A 
ATOM     35  C   UNL A   1      35.694  32.534  30.900  1.00  0.00     0.010 A 
ATOM     36  C   UNL A   1      36.900  33.739  29.180  1.00  0.00     0.010 A 
ATOM     37  C   UNL A   1      36.910  32.876  30.288  1.00  0.00    -0.014 A 
BRANCH  37  38
ATOM     38  C   UNL A   1      38.199  32.294  30.746  1.00  0.00     0.031 A 
ATOM     39  C   UNL A   1      38.734  31.038  30.120  1.00  0.00     0.074 A 
ATOM     40  C   UNL A   1      38.836  32.843  31.800  1.00  0.00     0.049 A 
ATOM     41  N   UNL A   1      39.781  30.326  30.458  1.00  0.00    -0.248 NA
ATOM     42  C   UNL A   1      37.976  30.492  28.984  1.00  0.00     0.031 C 
ATOM     43  C   UNL A   1      38.398  34.035  32.531  1.00  0.00     0.029 A 
ATOM     44  N   UNL A   1      39.984  32.462  32.450  1.00  0.00    -0.354 N 
ATOM     45  C   UNL A   1      39.791  29.238  29.596  1.00  0.00     0.074 A 
ATOM     46  C   UNL A   1      38.624  29.361  28.747  1.00  0.00     0.031 C 
ATOM     47  C   UNL A   1      39.278  34.300  33.510  1.00  0.00     0.029 A 
ATOM     48  C   UNL A   1      40.319  33.279  33.504  1.00  0.00     0.049 A 
ATOM     49  H   UNL A   1      40.517  31.677  32.187  1.00  0.00     0.167 HD
ATOM     50  C   UNL A   1      40.697  28.234  29.505  1.00  0.00     0.031 A 
ATOM     51  C   UNL A   1      41.345  33.210  34.372  1.00  0.00     0.031 A 
ATOM     52  C   UNL A   1      41.863  28.118  30.338  1.00  0.00     0.049 A 
ATOM     53  C   UNL A   1      42.340  32.092  34.249  1.00  0.00     0.074 A 
ATOM     54  C   UNL A   1      42.870  27.171  30.286  1.00  0.00     0.029 A 
ATOM     55  N   UNL A   1      42.178  28.981  31.377  1.00  0.00    -0.354 N 
ATOM     56  N   UNL A   1      42.368  31.105  33.387  1.00  0.00    -0.248 NA
ATOM     57  C   UNL A   1      43.449  32.084  35.214  1.00  0.00     0.031 C 
ATOM     58  C   UNL A   1      43.776  27.438  31.320  1.00  0.00     0.029 A 
ATOM     59  C   UNL A   1      43.356  28.578  31.984  1.00  0.00     0.049 A 
ATOM     60  H   UNL A   1      41.644  29.764  31.644  1.00  0.00     0.167 HD
ATOM     61  C   UNL A   1      43.509  30.374  33.687  1.00  0.00     0.074 A 
ATOM     62  C   UNL A   1      44.153  31.039  34.803  1.00  0.00     0.031 C 
ATOM     63  C   UNL A   1      43.983  29.252  33.093  1.00  0.00     0.031 A 
BRANCH  50  64
ATOM     64  C   UNL A   1      40.446  27.176  28.466  1.00  0.00    -0.014 A 
ATOM     65  C   UNL A   1      39.651  26.054  28.749  1.00  0.00     0.009 A 
ATOM     66  C   UNL A   1      41.000  27.309  27.184  1.00  0.00     0.009 A 
ATOM     67  C   UNL A   1      39.454  25.064  27.784  1.00  0.00     0.001 A 
ATOM     68  C   UNL A   1      40.778  26.332  26.212  1.00  0.00     0.001 A 
ATOM     69  C   UNL A   1      40.016  25.205  26.516  1.00  0.00     0.000 A 
ENDBRANCH  50  64
BRANCH  51  70
ATOM     70  C   UNL A   1      41.500  34.251  35.423  1.00  0.00    -0.014 A 
ATOM     71  C   UNL A   1      42.235  35.416  35.158  1.00  0.00     0.009 A 
ATOM     72  C   UNL A   1      40.916  34.088  36.688  1.00  0.00     0.009 A 
ATOM     73  C   UNL A   1      42.399  36.389  36.147  1.00  0.00     0.001 A 
ATOM     74  C   UNL A   1      41.061  35.075  37.667  1.00  0.00     0.001 A 
ATOM     75  C   UNL A   1      41.809  36.220  37.398  1.00  0.00     0.000 A 
ENDBRANCH  51  70
BRANCH  63  76
ATOM     76  C   UNL A   1      45.274  28.692  33.616  1.00  0.00    -0.014 A 
ATOM     77  C   UNL A   1      45.288  27.723  34.631  1.00  0.00     0.009 A 
ATOM     78  C   UNL A   1      46.490  29.114  33.059  1.00  0.00     0.009 A 
ATOM     79  C   UNL A   1      46.500  27.209  35.098  1.00  0.00     0.001 A 
ATOM     80  C   UNL A   1      47.698  28.580  33.510  1.00  0.00     0.001 A 
ATOM     81  C   UNL A   1      47.702  27.634  34.534  1.00  0.00     0.000 A 
ENDBRANCH  63  76
ENDBRANCH  37  38
ENDBRANCH  29  32
ENDBRANCH  27  28
ENDBRANCH  26  27
ENDBRANCH   1  26
TORSDOF 15
ENDMDL
MODEL 2
REMARK VINA RESULT:     -11.3      4.043      7.667
REMARK SMILES COc1ccc(-c2cccc(/C=C\C(=O)NCCCCNC(=O)c3ccc(-c4c5nc(c(-c6ccccc6)c6ccc([nH]6)c(-c6ccccc6)c6nc(c(-c7ccccc7)c7ccc4[nH]7)C=C6)C=C5)cc3)c2)c(Cl)c1OC
REMARK SMILES IDX 18 1 17 2 16 3 14 4 15 5 13 7 12 8 11 9 7 10 8 11 72 12 9 13
REMARK SMILES IDX 10 14 6 15 3 16 4 17 75 18 5 19 73 20 74 21 2 22 1 23 76 24
REMARK SMILES IDX 77 25 19 26 20 27 21 28 22 29 23 31 24 32 25 33 71 34 26 35
REMARK SMILES IDX 70 36 27 37 28 38 29 39 64 40 30 41 69 42 63 43 65 44 31 45
REMARK SMILES IDX 68 46 62 47 61 48 32 50 54 51 39 52 53 53 40 54 43 55 52 56
REMARK SMILES IDX 66 57 41 58 42 59 51 61 67 62 44 63 33 64 34 65 38 66 35 67
REMARK SMILES IDX 37 68 36 69 55 70 56 71 60 72 57 73 59 74 58 75 45 76 46 77
REMARK SMILES IDX 50 78 47 79 49 80 48 81
REMARK H PARENT 16 6 21 30 65 49 43 60
REMARK Flexibility Score: inf
ROOT
ATOM      1  C   UNL A   1      35.007  33.690  28.830  1.00  0.00     0.023 C 
ENDROOT
BRANCH   1   2
ATOM      2  C   UNL A   1      34.364  32.521  28.097  1.00  0.00     0.116 C 
BRANCH   2   3
ATOM      3  N   UNL A   1      35.268  31.460  27.712  1.00  0.00    -0.353 N 
ATOM      4  C   UNL A   1      35.004  30.148  27.465  1.00  0.00     0.243 C 
ATOM      5  O   UNL A   1      35.928  29.409  27.123  1.00  0.00    -0.270 OA
ATOM      6  H   UNL A   1      36.211  31.726  27.613  1.00  0.00     0.163 HD
BRANCH   4   7
ATOM      7  C   UNL A   1      33.662  29.538  27.690  1.00  0.00     0.072 C 
ATOM      8  C   UNL A   1      32.991  28.560  27.057  1.00  0.00     0.014 C 
BRANCH   8   9
ATOM      9  C   UNL A   1      33.407  27.814  25.865  1.00  0.00    -0.025 A 
ATOM     10  C   UNL A   1      33.866  25.646  24.809  1.00  0.00    -0.016 A 
ATOM     11  C   UNL A   1      33.788  26.310  23.565  1.00  0.00     0.009 A 
ATOM     12  C   UNL A   1      33.653  26.427  25.958  1.00  0.00     0.017 A 
ATOM     13  C   UNL A   1      33.676  27.697  23.474  1.00  0.00     0.001 A 
ATOM     14  C   UNL A   1      33.521  28.454  24.628  1.00  0.00     0.008 A 
BRANCH  10  15
ATOM     15  C   UNL A   1      34.305  24.218  24.845  1.00  0.00     0.004 A 
ATOM     16  C   UNL A   1      35.479  21.633  24.857  1.00  0.00     0.162 A 
ATOM     17  C   UNL A   1      36.142  22.697  24.263  1.00  0.00     0.051 A 
ATOM     18  C   UNL A   1      34.183  21.813  25.393  1.00  0.00     0.180 A 
ATOM     19  C   UNL A   1      35.577  23.962  24.288  1.00  0.00     0.014 A 
ATOM     20  C   UNL A   1      33.590  23.105  25.370  1.00  0.00     0.094 A 
ATOM     21  Cl  UNL A   1      31.936  23.332  25.861  1.00  0.00    -0.079 Cl
BRANCH  16  22
ATOM     22  O   UNL A   1      36.039  20.378  24.910  1.00  0.00    -0.493 OA
ATOM     23  C   UNL A   1      37.468  20.369  24.907  1.00  0.00     0.278 C 
ENDBRANCH  16  22
BRANCH  18  24
ATOM     24  O   UNL A   1      33.592  20.634  25.787  1.00  0.00    -0.491 OA
ATOM     25  C   UNL A   1      32.552  20.077  25.000  1.00  0.00     0.278 C 
ENDBRANCH  18  24
ENDBRANCH  10  15
ENDBRANCH   8   9
ENDBRANCH   4   7
ENDBRANCH   2   3
ENDBRANCH   1   2
BRANCH   1  26
ATOM     26  C   UNL A   1      34.628  33.858  30.303  1.00  0.00     0.023 C 
BRANCH  26  27
ATOM     27  C   UNL A   1      34.551  32.601  31.170  1.00  0.00     0.116 C 
BRANCH  27  28
ATOM     28  N   UNL A   1      35.002  32.765  32.544  1.00  0.00    -0.352 N 
ATOM     29  C   UNL A   1      36.179  32.368  33.145  1.00  0.00     0.251 C 
ATOM     30  H   UNL A   1      34.368  33.231  33.137  1.00  0.00     0.163 HD
ATOM     31  O   UNL A   1      36.399  32.632  34.317  1.00  0.00    -0.269 OA
BRANCH  29  32
ATOM     32  C   UNL A   1      37.162  31.576  32.375  1.00  0.00     0.039 A 
ATOM     33  C   UNL A   1      37.117  31.624  30.979  1.00  0.00     0.014 A 
ATOM     34  C   UNL A   1      38.154  30.837  33.022  1.00  0.00     0.014 A 
ATOM     35  C   UNL A   1      38.139  31.031  30.232  1.00  0.00     0.010 A 
ATOM     36  C   UNL A   1      39.207  30.307  32.281  1.00  0.00     0.010 A 
ATOM     37  C   UNL A   1      39.226  30.425  30.881  1.00  0.00    -0.014 A 
BRANCH  37  38
ATOM     38  C   UNL A   1      40.421  29.964  30.128  1.00  0.00     0.031 A 
ATOM     39  C   UNL A   1      41.556  30.907  29.847  1.00  0.00     0.074 A 
ATOM     40  C   UNL A   1      40.436  28.721  29.606  1.00  0.00     0.049 A 
ATOM     41  N   UNL A   1      42.627  30.718  29.116  1.00  0.00    -0.248 NA
ATOM     42  C   UNL A   1      41.460  32.250  30.439  1.00  0.00     0.031 C 
ATOM     43  C   UNL A   1      39.376  27.721  29.762  1.00  0.00     0.029 A 
ATOM     44  N   UNL A   1      41.373  28.089  28.826  1.00  0.00    -0.354 N 
ATOM     45  C   UNL A   1      43.316  31.923  29.140  1.00  0.00     0.074 A 
ATOM     46  C   UNL A   1      42.522  32.848  29.922  1.00  0.00     0.031 C 
ATOM     47  C   UNL A   1      39.733  26.596  29.121  1.00  0.00     0.029 A 
ATOM     48  C   UNL A   1      41.024  26.806  28.476  1.00  0.00     0.049 A 
ATOM     49  H   UNL A   1      42.214  28.514  28.543  1.00  0.00     0.167 HD
ATOM     50  C   UNL A   1      44.509  32.230  28.576  1.00  0.00     0.031 A 
ATOM     51  C   UNL A   1      41.669  25.901  27.715  1.00  0.00     0.031 A 
ATOM     52  C   UNL A   1      45.305  31.308  27.811  1.00  0.00     0.049 A 
ATOM     53  C   UNL A   1      42.994  26.262  27.105  1.00  0.00     0.074 A 
ATOM     54  C   UNL A   1      46.554  31.506  27.248  1.00  0.00     0.029 A 
ATOM     55  N   UNL A   1      44.927  30.011  27.501  1.00  0.00    -0.354 N 
ATOM     56  N   UNL A   1      43.660  27.387  27.189  1.00  0.00    -0.248 NA
ATOM     57  C   UNL A   1      43.657  25.224  26.303  1.00  0.00     0.031 C 
ATOM     58  C   UNL A   1      46.915  30.339  26.564  1.00  0.00     0.029 A 
ATOM     59  C   UNL A   1      45.912  29.402  26.741  1.00  0.00     0.049 A 
ATOM     60  H   UNL A   1      44.084  29.585  27.779  1.00  0.00     0.167 HD
ATOM     61  C   UNL A   1      44.833  27.185  26.474  1.00  0.00     0.074 A 
ATOM     62  C   UNL A   1      44.791  25.825  25.975  1.00  0.00     0.031 C 
ATOM     63  C   UNL A   1      45.854  28.048  26.251  1.00  0.00     0.031 A 
BRANCH  50  64
ATOM     64  C   UNL A   1      45.017  33.633  28.766  1.00  0.00    -0.014 A 
ATOM     65  C   UNL A   1      44.817  34.617  27.783  1.00  0.00     0.009 A 
ATOM     66  C   UNL A   1      45.689  33.981  29.947  1.00  0.00     0.009 A 
ATOM     67  C   UNL A   1      45.323  35.906  27.960  1.00  0.00     0.001 A 
ATOM     68  C   UNL A   1      46.168  35.279  30.134  1.00  0.00     0.001 A 
ATOM     69  C   UNL A   1      45.996  36.237  29.135  1.00  0.00     0.000 A 
ENDBRANCH  50  64
BRANCH  51  70
ATOM     70  C   UNL A   1      41.081  24.551  27.508  1.00  0.00    -0.014 A 
ATOM     71  C   UNL A   1      41.617  23.439  28.176  1.00  0.00     0.009 A 
ATOM     72  C   UNL A   1      39.987  24.367  26.649  1.00  0.00     0.009 A 
ATOM     73  C   UNL A   1      41.080  22.165  27.972  1.00  0.00     0.001 A 
ATOM     74  C   UNL A   1      39.438  23.095  26.467  1.00  0.00     0.001 A 
ATOM     75  C   UNL A   1      39.989  21.995  27.122  1.00  0.00     0.000 A 
ENDBRANCH  51  70
BRANCH  63  76
ATOM     76  C   UNL A   1      47.022  27.537  25.459  1.00  0.00    -0.014 A 
ATOM     77  C   UNL A   1      47.099  27.727  24.071  1.00  0.00     0.009 A 
ATOM     78  C   UNL A   1      48.077  26.887  26.118  1.00  0.00     0.009 A 
ATOM     79  C   UNL A   1      48.198  27.251  23.354  1.00  0.00     0.001 A 
ATOM     80  C   UNL A   1      49.187  26.436  25.402  1.00  0.00     0.001 A 
ATOM     81  C   UNL A   1      49.242  26.611  24.021  1.00  0.00     0.000 A 
ENDBRANCH  63  76
ENDBRANCH  37  38
ENDBRANCH  29  32
ENDBRANCH  27  28
ENDBRANCH  26  27
ENDBRANCH   1  26
TORSDOF 15
ENDMDL
MODEL 3
REMARK VINA RESULT:     -11.1      3.809      5.417
REMARK SMILES COc1ccc(-c2cccc(/C=C\C(=O)NCCCCNC(=O)c3ccc(-c4c5nc(c(-c6ccccc6)c6ccc([nH]6)c(-c6ccccc6)c6nc(c(-c7ccccc7)c7ccc4[nH]7)C=C6)C=C5)cc3)c2)c(Cl)c1OC
REMARK SMILES IDX 18 1 17 2 16 3 14 4 15 5 13 7 12 8 11 9 7 10 8 11 72 12 9 13
REMARK SMILES IDX 10 14 6 15 3 16 4 17 75 18 5 19 73 20 74 21 2 22 1 23 76 24
REMARK SMILES IDX 77 25 19 26 20 27 21 28 22 29 23 31 24 32 25 33 71 34 26 35
REMARK SMILES IDX 70 36 27 37 28 38 29 39 64 40 30 41 69 42 63 43 65 44 31 45
REMARK SMILES IDX 68 46 62 47 61 48 32 50 54 51 39 52 53 53 40 54 43 55 52 56
REMARK SMILES IDX 66 57 41 58 42 59 51 61 67 62 44 63 33 64 34 65 38 66 35 67
REMARK SMILES IDX 37 68 36 69 55 70 56 71 60 72 57 73 59 74 58 75 45 76 46 77
REMARK SMILES IDX 50 78 47 79 49 80 48 81
REMARK H PARENT 16 6 21 30 65 49 43 60
REMARK Flexibility Score: inf
ROOT
ATOM      1  C   UNL A   1      32.436  29.799  26.663  1.00  0.00     0.023 C 
ENDROOT
BRANCH   1   2
ATOM      2  C   UNL A   1      32.112  29.790  25.176  1.00  0.00     0.116 C 
BRANCH   2   3
ATOM      3  N   UNL A   1      33.204  29.406  24.308  1.00  0.00    -0.353 N 
ATOM      4  C   UNL A   1      33.170  28.733  23.125  1.00  0.00     0.243 C 
ATOM      5  O   UNL A   1      34.228  28.526  22.528  1.00  0.00    -0.270 OA
ATOM      6  H   UNL A   1      34.101  29.670  24.617  1.00  0.00     0.163 HD
BRANCH   4   7
ATOM      7  C   UNL A   1      31.920  28.141  22.568  1.00  0.00     0.072 C 
ATOM      8  C   UNL A   1      31.130  27.134  22.980  1.00  0.00     0.014 C 
BRANCH   8   9
ATOM      9  C   UNL A   1      31.326  26.257  24.139  1.00  0.00    -0.025 A 
ATOM     10  C   UNL A   1      32.417  24.283  25.108  1.00  0.00    -0.016 A 
ATOM     11  C   UNL A   1      32.064  24.793  26.377  1.00  0.00     0.009 A 
ATOM     12  C   UNL A   1      32.045  25.052  23.991  1.00  0.00     0.017 A 
ATOM     13  C   UNL A   1      31.243  25.911  26.521  1.00  0.00     0.001 A 
ATOM     14  C   UNL A   1      30.844  26.624  25.399  1.00  0.00     0.008 A 
BRANCH  10  15
ATOM     15  C   UNL A   1      33.018  22.918  25.013  1.00  0.00     0.004 A 
ATOM     16  C   UNL A   1      33.872  20.239  24.622  1.00  0.00     0.162 A 
ATOM     17  C   UNL A   1      32.543  20.583  24.420  1.00  0.00     0.051 A 
ATOM     18  C   UNL A   1      34.792  21.202  25.095  1.00  0.00     0.180 A 
ATOM     19  C   UNL A   1      32.140  21.899  24.583  1.00  0.00     0.014 A 
ATOM     20  C   UNL A   1      34.358  22.539  25.307  1.00  0.00     0.094 A 
ATOM     21  Cl  UNL A   1      35.411  23.708  26.049  1.00  0.00    -0.079 Cl
BRANCH  16  22
ATOM     22  O   UNL A   1      34.322  18.957  24.404  1.00  0.00    -0.493 OA
ATOM     23  C   UNL A   1      33.421  17.935  24.831  1.00  0.00     0.278 C 
ENDBRANCH  16  22
BRANCH  18  24
ATOM     24  O   UNL A   1      36.021  20.668  25.408  1.00  0.00    -0.491 OA
ATOM     25  C   UNL A   1      37.169  21.090  24.688  1.00  0.00     0.278 C 
ENDBRANCH  18  24
ENDBRANCH  10  15
ENDBRANCH   8   9
ENDBRANCH   4   7
ENDBRANCH   2   3
ENDBRANCH   1   2
BRANCH   1  26
ATOM     26  C   UNL A   1      33.208  31.015  27.182  1.00  0.00     0.023 C 
BRANCH  26  27
ATOM     27  C   UNL A   1      34.578  30.774  27.818  1.00  0.00     0.116 C 
BRANCH  27  28
ATOM     28  N   UNL A   1      34.703  31.208  29.203  1.00  0.00    -0.352 N 
ATOM     29  C   UNL A   1      35.748  31.052  30.089  1.00  0.00     0.251 C 
ATOM     30  H   UNL A   1      33.919  31.684  29.562  1.00  0.00     0.163 HD
ATOM     31  O   UNL A   1      35.685  31.524  31.215  1.00  0.00    -0.269 OA
BRANCH  29  32
ATOM     32  C   UNL A   1      36.937  30.269  29.690  1.00  0.00     0.039 A 
ATOM     33  C   UNL A   1      37.353  30.316  28.356  1.00  0.00     0.014 A 
ATOM     34  C   UNL A   1      37.667  29.540  30.630  1.00  0.00     0.014 A 
ATOM     35  C   UNL A   1      38.569  29.732  27.990  1.00  0.00     0.010 A 
ATOM     36  C   UNL A   1      38.910  29.020  30.279  1.00  0.00     0.010 A 
ATOM     37  C   UNL A   1      39.387  29.136  28.963  1.00  0.00    -0.014 A 
BRANCH  37  38
ATOM     38  C   UNL A   1      40.768  28.686  28.647  1.00  0.00     0.031 A 
ATOM     39  C   UNL A   1      41.036  27.259  28.264  1.00  0.00     0.074 A 
ATOM     40  C   UNL A   1      41.797  29.543  28.808  1.00  0.00     0.049 A 
ATOM     41  N   UNL A   1      42.182  26.659  28.059  1.00  0.00    -0.248 NA
ATOM     42  C   UNL A   1      39.864  26.383  28.122  1.00  0.00     0.031 C 
ATOM     43  C   UNL A   1      41.680  30.943  29.224  1.00  0.00     0.029 A 
ATOM     44  N   UNL A   1      43.149  29.358  28.653  1.00  0.00    -0.354 N 
ATOM     45  C   UNL A   1      41.870  25.333  27.791  1.00  0.00     0.074 A 
ATOM     46  C   UNL A   1      40.432  25.207  27.900  1.00  0.00     0.031 C 
ATOM     47  C   UNL A   1      42.903  31.495  29.266  1.00  0.00     0.029 A 
ATOM     48  C   UNL A   1      43.894  30.481  28.922  1.00  0.00     0.049 A 
ATOM     49  H   UNL A   1      43.547  28.501  28.377  1.00  0.00     0.167 HD
ATOM     50  C   UNL A   1      42.702  24.313  27.468  1.00  0.00     0.031 A 
ATOM     51  C   UNL A   1      45.226  30.673  28.899  1.00  0.00     0.031 A 
ATOM     52  C   UNL A   1      44.130  24.440  27.346  1.00  0.00     0.049 A 
ATOM     53  C   UNL A   1      46.129  29.530  28.532  1.00  0.00     0.074 A 
ATOM     54  C   UNL A   1      45.052  23.481  26.967  1.00  0.00     0.029 A 
ATOM     55  N   UNL A   1      44.842  25.602  27.602  1.00  0.00    -0.354 N 
ATOM     56  N   UNL A   1      45.812  28.297  28.221  1.00  0.00    -0.248 NA
ATOM     57  C   UNL A   1      47.571  29.809  28.505  1.00  0.00     0.031 C 
ATOM     58  C   UNL A   1      46.329  24.052  27.031  1.00  0.00     0.029 A 
ATOM     59  C   UNL A   1      46.195  25.379  27.405  1.00  0.00     0.049 A 
ATOM     60  H   UNL A   1      44.446  26.458  27.883  1.00  0.00     0.167 HD
ATOM     61  C   UNL A   1      47.011  27.659  27.936  1.00  0.00     0.074 A 
ATOM     62  C   UNL A   1      48.060  28.646  28.098  1.00  0.00     0.031 C 
ATOM     63  C   UNL A   1      47.225  26.371  27.571  1.00  0.00     0.031 A 
BRANCH  50  64
ATOM     64  C   UNL A   1      42.077  22.966  27.232  1.00  0.00    -0.014 A 
ATOM     65  C   UNL A   1      41.664  22.571  25.949  1.00  0.00     0.009 A 
ATOM     66  C   UNL A   1      41.911  22.074  28.302  1.00  0.00     0.009 A 
ATOM     67  C   UNL A   1      41.055  21.330  25.752  1.00  0.00     0.001 A 
ATOM     68  C   UNL A   1      41.329  20.822  28.097  1.00  0.00     0.001 A 
ATOM     69  C   UNL A   1      40.890  20.456  26.825  1.00  0.00     0.000 A 
ENDBRANCH  50  64
BRANCH  51  70
ATOM     70  C   UNL A   1      45.789  32.014  29.209  1.00  0.00    -0.014 A 
ATOM     71  C   UNL A   1      46.153  32.338  30.525  1.00  0.00     0.009 A 
ATOM     72  C   UNL A   1      45.968  32.970  28.199  1.00  0.00     0.009 A 
ATOM     73  C   UNL A   1      46.667  33.602  30.826  1.00  0.00     0.001 A 
ATOM     74  C   UNL A   1      46.506  34.225  28.499  1.00  0.00     0.001 A 
ATOM     75  C   UNL A   1      46.847  34.542  29.813  1.00  0.00     0.000 A 
ENDBRANCH  51  70
BRANCH  63  76
ATOM     76  C   UNL A   1      48.644  25.965  27.293  1.00  0.00    -0.014 A 
ATOM     77  C   UNL A   1      49.177  26.025  25.997  1.00  0.00     0.009 A 
ATOM     78  C   UNL A   1      49.468  25.551  28.351  1.00  0.00     0.009 A 
ATOM     79  C   UNL A   1      50.501  25.651  25.761  1.00  0.00     0.001 A 
ATOM     80  C   UNL A   1      50.798  25.202  28.116  1.00  0.00     0.001 A 
ATOM     81  C   UNL A   1      51.311  25.245  26.821  1.00  0.00     0.000 A 
ENDBRANCH  63  76
ENDBRANCH  37  38
ENDBRANCH  29  32
ENDBRANCH  27  28
ENDBRANCH  26  27
ENDBRANCH   1  26
TORSDOF 15
ENDMDL
