MODEL 1
REMARK VINA RESULT:     -11.5      0.000      0.000
REMARK SMILES C[NH2+][C@@]1(C(=O)NCCCCNC(=O)c2ccc(-c3c4nc(c(-c5ccccc5)c5ccc([nH]5)c(-c5ccccc5)c5nc(c(-c6ccccc6)c6ccc3[nH]6)C=C5)C=C4)cc2)CCC[C@@H](Oc2cc(F)cc(F)c2)C1
REMARK SMILES IDX 8 1 7 2 6 3 4 4 5 5 3 7 62 8 75 9 63 10 65 11 64 12 2 13
REMARK SMILES IDX 1 14 66 17 67 18 68 19 74 20 69 21 72 22 70 23 71 24 73 25
REMARK SMILES IDX 9 26 10 27 11 28 12 29 13 31 14 32 15 33 61 34 16 35 60 36
REMARK SMILES IDX 17 37 18 38 19 39 54 40 20 41 59 42 53 43 55 44 21 45 58 46
REMARK SMILES IDX 52 47 51 48 22 50 44 51 29 52 43 53 30 54 33 55 42 56 56 57
REMARK SMILES IDX 31 58 32 59 41 61 57 62 34 63 23 64 24 65 28 66 25 67 27 68
REMARK SMILES IDX 26 69 45 70 46 71 50 72 47 73 49 74 48 75 35 76 36 77 40 78
REMARK SMILES IDX 37 79 39 80 38 81
REMARK H PARENT 6 6 2 15 2 16 11 30 55 49 33 60
REMARK Flexibility Score: inf
ROOT
ATOM      1  C   UNL A   1      31.714  29.238  27.173  1.00  0.00     0.023 C 
ENDROOT
BRANCH   1   2
ATOM      2  C   UNL A   1      32.007  27.787  26.789  1.00  0.00     0.116 C 
BRANCH   2   3
ATOM      3  N   UNL A   1      30.838  26.940  26.812  1.00  0.00    -0.351 N 
ATOM      4  C   UNL A   1      30.450  25.865  26.081  1.00  0.00     0.281 C 
ATOM      5  O   UNL A   1      29.696  25.108  26.715  1.00  0.00    -0.268 OA
ATOM      6  H   UNL A   1      30.186  27.197  27.503  1.00  0.00     0.163 HD
BRANCH   4   7
ATOM      7  C   UNL A   1      30.861  25.524  24.577  1.00  0.00     0.178 C 
ATOM      8  C   UNL A   1      32.394  25.593  24.346  1.00  0.00     0.079 C 
ATOM      9  C   UNL A   1      30.073  26.274  23.482  1.00  0.00     0.124 C 
ATOM     10  C   UNL A   1      32.986  26.890  23.799  1.00  0.00     0.011 C 
ATOM     11  C   UNL A   1      30.661  27.616  23.062  1.00  0.00     0.180 C 
ATOM     12  C   UNL A   1      32.147  27.546  22.707  1.00  0.00     0.046 C 
BRANCH   7  13
ATOM     13  N   UNL A   1      30.577  24.046  24.374  1.00  0.00    -0.336 N 
ATOM     14  C   UNL A   1      31.269  23.388  23.266  1.00  0.00     0.331 C 
ATOM     15  H   UNL A   1      30.840  23.561  25.232  1.00  0.00     0.346 HD
ATOM     16  H   UNL A   1      29.586  23.994  24.139  1.00  0.00     0.346 HD
ENDBRANCH   7  13
BRANCH  11  17
ATOM     17  O   UNL A   1      29.786  28.296  22.144  1.00  0.00    -0.490 OA
BRANCH  17  18
ATOM     18  C   UNL A   1      29.483  29.591  22.427  1.00  0.00     0.125 A 
ATOM     19  C   UNL A   1      29.863  30.104  23.666  1.00  0.00     0.085 A 
ATOM     20  C   UNL A   1      28.702  30.344  21.558  1.00  0.00     0.085 A 
ATOM     21  C   UNL A   1      29.496  31.402  24.003  1.00  0.00     0.129 A 
ATOM     22  C   UNL A   1      28.346  31.638  21.920  1.00  0.00     0.129 A 
ATOM     23  F   UNL A   1      29.871  31.904  25.187  1.00  0.00    -0.207 F 
ATOM     24  C   UNL A   1      28.742  32.181  23.136  1.00  0.00     0.078 A 
ATOM     25  F   UNL A   1      27.596  32.370  21.086  1.00  0.00    -0.207 F 
ENDBRANCH  17  18
ENDBRANCH  11  17
ENDBRANCH   4   7
ENDBRANCH   2   3
ENDBRANCH   1   2
BRANCH   1  26
ATOM     26  C   UNL A   1      32.468  30.292  26.373  1.00  0.00     0.023 C 
BRANCH  26  27
ATOM     27  C   UNL A   1      33.281  31.280  27.199  1.00  0.00     0.116 C 
BRANCH  27  28
ATOM     28  N   UNL A   1      32.657  32.583  27.391  1.00  0.00    -0.352 N 
ATOM     29  C   UNL A   1      33.161  33.645  28.111  1.00  0.00     0.251 C 
ATOM     30  H   UNL A   1      31.782  32.720  26.960  1.00  0.00     0.163 HD
ATOM     31  O   UNL A   1      32.533  34.688  28.242  1.00  0.00    -0.269 OA
BRANCH  29  32
ATOM     32  C   UNL A   1      34.467  33.462  28.774  1.00  0.00     0.039 A 
ATOM     33  C   UNL A   1      34.518  32.761  29.980  1.00  0.00     0.014 A 
ATOM     34  C   UNL A   1      35.636  33.841  28.112  1.00  0.00     0.014 A 
ATOM     35  C   UNL A   1      35.755  32.355  30.478  1.00  0.00     0.010 A 
ATOM     36  C   UNL A   1      36.857  33.364  28.567  1.00  0.00     0.010 A 
ATOM     37  C   UNL A   1      36.928  32.609  29.748  1.00  0.00    -0.014 A 
BRANCH  37  38
ATOM     38  C   UNL A   1      38.244  32.091  30.194  1.00  0.00     0.031 A 
ATOM     39  C   UNL A   1      38.756  30.789  29.648  1.00  0.00     0.074 A 
ATOM     40  C   UNL A   1      38.935  32.745  31.148  1.00  0.00     0.049 A 
ATOM     41  N   UNL A   1      39.835  30.126  29.971  1.00  0.00    -0.248 NA
ATOM     42  C   UNL A   1      37.924  30.127  28.629  1.00  0.00     0.031 C 
ATOM     43  C   UNL A   1      38.521  33.990  31.801  1.00  0.00     0.029 A 
ATOM     44  N   UNL A   1      40.136  32.445  31.742  1.00  0.00    -0.354 N 
ATOM     45  C   UNL A   1      39.796  28.959  29.218  1.00  0.00     0.074 A 
ATOM     46  C   UNL A   1      38.564  28.981  28.462  1.00  0.00     0.031 C 
ATOM     47  C   UNL A   1      39.468  34.363  32.678  1.00  0.00     0.029 A 
ATOM     48  C   UNL A   1      40.537  33.369  32.676  1.00  0.00     0.049 A 
ATOM     49  H   UNL A   1      40.661  31.643  31.519  1.00  0.00     0.167 HD
ATOM     50  C   UNL A   1      40.715  27.968  29.143  1.00  0.00     0.031 A 
ATOM     51  C   UNL A   1      41.643  33.412  33.441  1.00  0.00     0.031 A 
ATOM     52  C   UNL A   1      41.955  27.962  29.868  1.00  0.00     0.049 A 
ATOM     53  C   UNL A   1      42.661  32.313  33.321  1.00  0.00     0.074 A 
ATOM     54  C   UNL A   1      42.983  27.038  29.810  1.00  0.00     0.029 A 
ATOM     55  N   UNL A   1      42.337  28.933  30.779  1.00  0.00    -0.354 N 
ATOM     56  N   UNL A   1      42.640  31.250  32.554  1.00  0.00    -0.248 NA
ATOM     57  C   UNL A   1      43.861  32.428  34.162  1.00  0.00     0.031 C 
ATOM     58  C   UNL A   1      43.976  27.435  30.712  1.00  0.00     0.029 A 
ATOM     59  C   UNL A   1      43.582  28.627  31.300  1.00  0.00     0.049 A 
ATOM     60  H   UNL A   1      41.803  29.724  31.020  1.00  0.00     0.167 HD
ATOM     61  C   UNL A   1      43.834  30.583  32.802  1.00  0.00     0.074 A 
ATOM     62  C   UNL A   1      44.560  31.369  33.778  1.00  0.00     0.031 C 
ATOM     63  C   UNL A   1      44.288  29.425  32.267  1.00  0.00     0.031 A 
BRANCH  50  64
ATOM     64  C   UNL A   1      40.404  26.814  28.235  1.00  0.00    -0.014 A 
ATOM     65  C   UNL A   1      40.882  26.779  26.916  1.00  0.00     0.009 A 
ATOM     66  C   UNL A   1      39.628  25.743  28.706  1.00  0.00     0.009 A 
ATOM     67  C   UNL A   1      40.557  25.716  26.073  1.00  0.00     0.001 A 
ATOM     68  C   UNL A   1      39.327  24.667  27.869  1.00  0.00     0.001 A 
ATOM     69  C   UNL A   1      39.782  24.659  26.551  1.00  0.00     0.000 A 
ENDBRANCH  50  64
BRANCH  51  70
ATOM     70  C   UNL A   1      41.868  34.551  34.368  1.00  0.00    -0.014 A 
ATOM     71  C   UNL A   1      42.515  35.712  33.918  1.00  0.00     0.009 A 
ATOM     72  C   UNL A   1      41.447  34.484  35.706  1.00  0.00     0.009 A 
ATOM     73  C   UNL A   1      42.760  36.772  34.793  1.00  0.00     0.001 A 
ATOM     74  C   UNL A   1      41.671  35.555  36.572  1.00  0.00     0.001 A 
ATOM     75  C   UNL A   1      42.336  36.694  36.118  1.00  0.00     0.000 A 
ENDBRANCH  51  70
BRANCH  63  76
ATOM     76  C   UNL A   1      45.646  28.957  32.700  1.00  0.00    -0.014 A 
ATOM     77  C   UNL A   1      46.806  29.375  32.030  1.00  0.00     0.009 A 
ATOM     78  C   UNL A   1      45.768  28.124  33.824  1.00  0.00     0.009 A 
ATOM     79  C   UNL A   1      48.062  28.944  32.463  1.00  0.00     0.001 A 
ATOM     80  C   UNL A   1      47.025  27.715  34.267  1.00  0.00     0.001 A 
ATOM     81  C   UNL A   1      48.170  28.120  33.582  1.00  0.00     0.000 A 
ENDBRANCH  63  76
ENDBRANCH  37  38
ENDBRANCH  29  32
ENDBRANCH  27  28
ENDBRANCH  26  27
ENDBRANCH   1  26
TORSDOF 14
ENDMDL
MODEL 2
REMARK VINA RESULT:     -11.5      4.689      9.430
REMARK SMILES C[NH2+][C@@]1(C(=O)NCCCCNC(=O)c2ccc(-c3c4nc(c(-c5ccccc5)c5ccc([nH]5)c(-c5ccccc5)c5nc(c(-c6ccccc6)c6ccc3[nH]6)C=C5)C=C4)cc2)CCC[C@@H](Oc2cc(F)cc(F)c2)C1
REMARK SMILES IDX 8 1 7 2 6 3 4 4 5 5 3 7 62 8 75 9 63 10 65 11 64 12 2 13
REMARK SMILES IDX 1 14 66 17 67 18 68 19 74 20 69 21 72 22 70 23 71 24 73 25
REMARK SMILES IDX 9 26 10 27 11 28 12 29 13 31 14 32 15 33 61 34 16 35 60 36
REMARK SMILES IDX 17 37 18 38 19 39 54 40 20 41 59 42 53 43 55 44 21 45 58 46
REMARK SMILES IDX 52 47 51 48 22 50 44 51 29 52 43 53 30 54 33 55 42 56 56 57
REMARK SMILES IDX 31 58 32 59 41 61 57 62 34 63 23 64 24 65 28 66 25 67 27 68
REMARK SMILES IDX 26 69 45 70 46 71 50 72 47 73 49 74 48 75 35 76 36 77 40 78
REMARK SMILES IDX 37 79 39 80 38 81
REMARK H PARENT 6 6 2 15 2 16 11 30 55 49 33 60
REMARK Flexibility Score: inf
ROOT
ATOM      1  C   UNL A   1      36.090  22.140  25.270  1.00  0.00     0.023 C 
ENDROOT
BRANCH   1   2
ATOM      2  C   UNL A   1      35.582  23.453  24.674  1.00  0.00     0.116 C 
BRANCH   2   3
ATOM      3  N   UNL A   1      35.023  23.304  23.351  1.00  0.00    -0.351 N 
ATOM      4  C   UNL A   1      33.785  23.505  22.834  1.00  0.00     0.281 C 
ATOM      5  O   UNL A   1      33.817  23.792  21.625  1.00  0.00    -0.268 OA
ATOM      6  H   UNL A   1      35.676  22.989  22.686  1.00  0.00     0.163 HD
BRANCH   4   7
ATOM      7  C   UNL A   1      32.391  23.411  23.606  1.00  0.00     0.178 C 
ATOM      8  C   UNL A   1      32.378  24.239  24.919  1.00  0.00     0.079 C 
ATOM      9  C   UNL A   1      31.835  21.986  23.811  1.00  0.00     0.124 C 
ATOM     10  C   UNL A   1      32.704  23.524  26.228  1.00  0.00     0.011 C 
ATOM     11  C   UNL A   1      32.291  21.288  25.087  1.00  0.00     0.180 C 
ATOM     12  C   UNL A   1      32.094  22.131  26.347  1.00  0.00     0.046 C 
BRANCH   7  13
ATOM     13  N   UNL A   1      31.373  24.151  22.756  1.00  0.00    -0.336 N 
ATOM     14  C   UNL A   1      30.285  24.821  23.466  1.00  0.00     0.331 C 
ATOM     15  H   UNL A   1      31.875  24.859  22.221  1.00  0.00     0.346 HD
ATOM     16  H   UNL A   1      30.921  23.430  22.193  1.00  0.00     0.346 HD
ENDBRANCH   7  13
BRANCH  11  17
ATOM     17  O   UNL A   1      31.835  19.923  25.118  1.00  0.00    -0.490 OA
BRANCH  17  18
ATOM     18  C   UNL A   1      32.762  18.958  24.880  1.00  0.00     0.125 A 
ATOM     19  C   UNL A   1      32.345  17.629  24.852  1.00  0.00     0.085 A 
ATOM     20  C   UNL A   1      34.113  19.278  24.795  1.00  0.00     0.085 A 
ATOM     21  C   UNL A   1      33.291  16.625  24.684  1.00  0.00     0.129 A 
ATOM     22  C   UNL A   1      35.039  18.255  24.630  1.00  0.00     0.129 A 
ATOM     23  F   UNL A   1      32.892  15.347  24.643  1.00  0.00    -0.207 F 
ATOM     24  C   UNL A   1      34.641  16.926  24.567  1.00  0.00     0.078 A 
ATOM     25  F   UNL A   1      36.342  18.556  24.545  1.00  0.00    -0.207 F 
ENDBRANCH  17  18
ENDBRANCH  11  17
ENDBRANCH   4   7
ENDBRANCH   2   3
ENDBRANCH   1   2
BRANCH   1  26
ATOM     26  C   UNL A   1      37.421  21.642  24.723  1.00  0.00     0.023 C 
BRANCH  26  27
ATOM     27  C   UNL A   1      38.515  21.429  25.762  1.00  0.00     0.116 C 
BRANCH  27  28
ATOM     28  N   UNL A   1      39.247  20.174  25.635  1.00  0.00    -0.352 N 
ATOM     29  C   UNL A   1      40.554  19.938  26.005  1.00  0.00     0.251 C 
ATOM     30  H   UNL A   1      38.756  19.415  25.246  1.00  0.00     0.163 HD
ATOM     31  O   UNL A   1      41.087  18.852  25.818  1.00  0.00    -0.269 OA
BRANCH  29  32
ATOM     32  C   UNL A   1      41.314  21.063  26.583  1.00  0.00     0.039 A 
ATOM     33  C   UNL A   1      41.906  21.989  25.723  1.00  0.00     0.014 A 
ATOM     34  C   UNL A   1      41.290  21.275  27.963  1.00  0.00     0.014 A 
ATOM     35  C   UNL A   1      42.397  23.185  26.246  1.00  0.00     0.010 A 
ATOM     36  C   UNL A   1      41.702  22.501  28.467  1.00  0.00     0.010 A 
ATOM     37  C   UNL A   1      42.250  23.470  27.613  1.00  0.00    -0.014 A 
BRANCH  37  38
ATOM     38  C   UNL A   1      42.657  24.780  28.178  1.00  0.00     0.031 A 
ATOM     39  C   UNL A   1      41.625  25.847  28.402  1.00  0.00     0.074 A 
ATOM     40  C   UNL A   1      43.960  25.038  28.407  1.00  0.00     0.049 A 
ATOM     41  N   UNL A   1      41.786  27.081  28.804  1.00  0.00    -0.248 NA
ATOM     42  C   UNL A   1      40.228  25.490  28.100  1.00  0.00     0.031 C 
ATOM     43  C   UNL A   1      45.068  24.106  28.178  1.00  0.00     0.029 A 
ATOM     44  N   UNL A   1      44.574  26.170  28.881  1.00  0.00    -0.354 N 
ATOM     45  C   UNL A   1      40.521  27.653  28.775  1.00  0.00     0.074 A 
ATOM     46  C   UNL A   1      39.612  26.650  28.268  1.00  0.00     0.031 C 
ATOM     47  C   UNL A   1      46.219  24.694  28.542  1.00  0.00     0.029 A 
ATOM     48  C   UNL A   1      45.937  26.051  28.998  1.00  0.00     0.049 A 
ATOM     49  H   UNL A   1      44.083  26.991  29.116  1.00  0.00     0.167 HD
ATOM     50  C   UNL A   1      40.143  28.895  29.158  1.00  0.00     0.031 A 
ATOM     51  C   UNL A   1      46.856  26.936  29.427  1.00  0.00     0.031 A 
ATOM     52  C   UNL A   1      41.040  29.881  29.694  1.00  0.00     0.049 A 
ATOM     53  C   UNL A   1      46.409  28.300  29.873  1.00  0.00     0.074 A 
ATOM     54  C   UNL A   1      40.745  31.145  30.174  1.00  0.00     0.029 A 
ATOM     55  N   UNL A   1      42.408  29.709  29.826  1.00  0.00    -0.354 N 
ATOM     56  N   UNL A   1      45.198  28.803  29.901  1.00  0.00    -0.248 NA
ATOM     57  C   UNL A   1      47.453  29.213  30.357  1.00  0.00     0.031 C 
ATOM     58  C   UNL A   1      41.943  31.750  30.569  1.00  0.00     0.029 A 
ATOM     59  C   UNL A   1      42.975  30.847  30.371  1.00  0.00     0.049 A 
ATOM     60  H   UNL A   1      42.904  28.897  29.571  1.00  0.00     0.167 HD
ATOM     61  C   UNL A   1      45.333  30.080  30.430  1.00  0.00     0.074 A 
ATOM     62  C   UNL A   1      46.739  30.270  30.720  1.00  0.00     0.031 C 
ATOM     63  C   UNL A   1      44.376  31.013  30.655  1.00  0.00     0.031 A 
BRANCH  50  64
ATOM     64  C   UNL A   1      38.690  29.244  29.012  1.00  0.00    -0.014 A 
ATOM     65  C   UNL A   1      37.801  29.111  30.091  1.00  0.00     0.009 A 
ATOM     66  C   UNL A   1      38.205  29.717  27.783  1.00  0.00     0.009 A 
ATOM     67  C   UNL A   1      36.446  29.407  29.931  1.00  0.00     0.001 A 
ATOM     68  C   UNL A   1      36.854  30.039  27.635  1.00  0.00     0.001 A 
ATOM     69  C   UNL A   1      35.975  29.874  28.704  1.00  0.00     0.000 A 
ENDBRANCH  50  64
BRANCH  51  70
ATOM     70  C   UNL A   1      48.290  26.554  29.492  1.00  0.00    -0.014 A 
ATOM     71  C   UNL A   1      49.144  26.830  28.413  1.00  0.00     0.009 A 
ATOM     72  C   UNL A   1      48.812  25.906  30.622  1.00  0.00     0.009 A 
ATOM     73  C   UNL A   1      50.485  26.443  28.454  1.00  0.00     0.001 A 
ATOM     74  C   UNL A   1      50.159  25.541  30.670  1.00  0.00     0.001 A 
ATOM     75  C   UNL A   1      50.992  25.802  29.582  1.00  0.00     0.000 A 
ENDBRANCH  51  70
BRANCH  63  76
ATOM     76  C   UNL A   1      44.814  32.306  31.277  1.00  0.00    -0.014 A 
ATOM     77  C   UNL A   1      44.869  32.461  32.670  1.00  0.00     0.009 A 
ATOM     78  C   UNL A   1      45.223  33.368  30.454  1.00  0.00     0.009 A 
ATOM     79  C   UNL A   1      45.299  33.666  33.228  1.00  0.00     0.001 A 
ATOM     80  C   UNL A   1      45.675  34.562  31.015  1.00  0.00     0.001 A 
ATOM     81  C   UNL A   1      45.707  34.712  32.400  1.00  0.00     0.000 A 
ENDBRANCH  63  76
ENDBRANCH  37  38
ENDBRANCH  29  32
ENDBRANCH  27  28
ENDBRANCH  26  27
ENDBRANCH   1  26
TORSDOF 14
ENDMDL
MODEL 3
REMARK VINA RESULT:     -11.4      4.570      9.291
REMARK SMILES C[NH2+][C@@]1(C(=O)NCCCCNC(=O)c2ccc(-c3c4nc(c(-c5ccccc5)c5ccc([nH]5)c(-c5ccccc5)c5nc(c(-c6ccccc6)c6ccc3[nH]6)C=C5)C=C4)cc2)CCC[C@@H](Oc2cc(F)cc(F)c2)C1
REMARK SMILES IDX 8 1 7 2 6 3 4 4 5 5 3 7 62 8 75 9 63 10 65 11 64 12 2 13
REMARK SMILES IDX 1 14 66 17 67 18 68 19 74 20 69 21 72 22 70 23 71 24 73 25
REMARK SMILES IDX 9 26 10 27 11 28 12 29 13 31 14 32 15 33 61 34 16 35 60 36
REMARK SMILES IDX 17 37 18 38 19 39 54 40 20 41 59 42 53 43 55 44 21 45 58 46
REMARK SMILES IDX 52 47 51 48 22 50 44 51 29 52 43 53 30 54 33 55 42 56 56 57
REMARK SMILES IDX 31 58 32 59 41 61 57 62 34 63 23 64 24 65 28 66 25 67 27 68
REMARK SMILES IDX 26 69 45 70 46 71 50 72 47 73 49 74 48 75 35 76 36 77 40 78
REMARK SMILES IDX 37 79 39 80 38 81
REMARK H PARENT 6 6 2 15 2 16 11 30 55 49 33 60
REMARK Flexibility Score: inf
ROOT
ATOM      1  C   UNL A   1      37.014  21.825  23.898  1.00  0.00     0.023 C 
ENDROOT
BRANCH   1   2
ATOM      2  C   UNL A   1      36.382  23.196  24.138  1.00  0.00     0.116 C 
BRANCH   2   3
ATOM      3  N   UNL A   1      35.325  23.512  23.207  1.00  0.00    -0.351 N 
ATOM      4  C   UNL A   1      34.082  24.036  23.348  1.00  0.00     0.281 C 
ATOM      5  O   UNL A   1      33.704  24.643  22.333  1.00  0.00    -0.268 OA
ATOM      6  H   UNL A   1      35.555  23.302  22.273  1.00  0.00     0.163 HD
BRANCH   4   7
ATOM      7  C   UNL A   1      33.138  23.941  24.631  1.00  0.00     0.178 C 
ATOM      8  C   UNL A   1      33.889  24.259  25.952  1.00  0.00     0.079 C 
ATOM      9  C   UNL A   1      32.286  22.659  24.741  1.00  0.00     0.124 C 
ATOM     10  C   UNL A   1      34.450  23.095  26.764  1.00  0.00     0.011 C 
ATOM     11  C   UNL A   1      32.951  21.497  25.470  1.00  0.00     0.180 C 
ATOM     12  C   UNL A   1      33.527  21.881  26.833  1.00  0.00     0.046 C 
BRANCH   7  13
ATOM     13  N   UNL A   1      32.160  25.100  24.538  1.00  0.00    -0.336 N 
ATOM     14  C   UNL A   1      30.922  24.981  25.307  1.00  0.00     0.331 C 
ATOM     15  H   UNL A   1      32.643  25.938  24.859  1.00  0.00     0.346 HD
ATOM     16  H   UNL A   1      31.866  25.123  23.561  1.00  0.00     0.346 HD
ENDBRANCH   7  13
BRANCH  11  17
ATOM     17  O   UNL A   1      32.138  20.311  25.398  1.00  0.00    -0.490 OA
BRANCH  17  18
ATOM     18  C   UNL A   1      32.568  19.319  24.574  1.00  0.00     0.125 A 
ATOM     19  C   UNL A   1      33.570  18.465  25.032  1.00  0.00     0.085 A 
ATOM     20  C   UNL A   1      32.113  19.237  23.263  1.00  0.00     0.085 A 
ATOM     21  C   UNL A   1      34.074  17.492  24.177  1.00  0.00     0.129 A 
ATOM     22  C   UNL A   1      32.636  18.258  22.427  1.00  0.00     0.129 A 
ATOM     23  F   UNL A   1      35.028  16.661  24.617  1.00  0.00    -0.207 F 
ATOM     24  C   UNL A   1      33.611  17.375  22.873  1.00  0.00     0.078 A 
ATOM     25  F   UNL A   1      32.200  18.172  21.163  1.00  0.00    -0.207 F 
ENDBRANCH  17  18
ENDBRANCH  11  17
ENDBRANCH   4   7
ENDBRANCH   2   3
ENDBRANCH   1   2
BRANCH   1  26
ATOM     26  C   UNL A   1      37.298  21.006  25.151  1.00  0.00     0.023 C 
BRANCH  26  27
ATOM     27  C   UNL A   1      38.702  21.154  25.723  1.00  0.00     0.116 C 
BRANCH  27  28
ATOM     28  N   UNL A   1      39.538  19.965  25.618  1.00  0.00    -0.352 N 
ATOM     29  C   UNL A   1      40.858  19.846  25.996  1.00  0.00     0.251 C 
ATOM     30  H   UNL A   1      39.116  19.162  25.236  1.00  0.00     0.163 HD
ATOM     31  O   UNL A   1      41.483  18.806  25.827  1.00  0.00    -0.269 OA
BRANCH  29  32
ATOM     32  C   UNL A   1      41.517  21.039  26.562  1.00  0.00     0.039 A 
ATOM     33  C   UNL A   1      42.049  21.992  25.692  1.00  0.00     0.014 A 
ATOM     34  C   UNL A   1      41.453  21.276  27.937  1.00  0.00     0.014 A 
ATOM     35  C   UNL A   1      42.433  23.234  26.197  1.00  0.00     0.010 A 
ATOM     36  C   UNL A   1      41.758  22.540  28.421  1.00  0.00     0.010 A 
ATOM     37  C   UNL A   1      42.242  23.533  27.555  1.00  0.00    -0.014 A 
BRANCH  37  38
ATOM     38  C   UNL A   1      42.534  24.882  28.098  1.00  0.00     0.031 A 
ATOM     39  C   UNL A   1      43.928  25.219  28.543  1.00  0.00     0.074 A 
ATOM     40  C   UNL A   1      41.535  25.770  28.269  1.00  0.00     0.049 A 
ATOM     41  N   UNL A   1      44.371  26.306  29.121  1.00  0.00    -0.248 NA
ATOM     42  C   UNL A   1      44.954  24.181  28.346  1.00  0.00     0.031 C 
ATOM     43  C   UNL A   1      40.127  25.546  27.929  1.00  0.00     0.029 A 
ATOM     44  N   UNL A   1      41.553  27.044  28.780  1.00  0.00    -0.354 N 
ATOM     45  C   UNL A   1      45.715  26.070  29.380  1.00  0.00     0.074 A 
ATOM     46  C   UNL A   1      46.004  24.722  28.945  1.00  0.00     0.031 C 
ATOM     47  C   UNL A   1      39.425  26.655  28.211  1.00  0.00     0.029 A 
ATOM     48  C   UNL A   1      40.322  27.655  28.780  1.00  0.00     0.049 A 
ATOM     49  H   UNL A   1      42.370  27.478  29.115  1.00  0.00     0.167 HD
ATOM     50  C   UNL A   1      46.635  26.909  29.911  1.00  0.00     0.031 A 
ATOM     51  C   UNL A   1      39.960  28.884  29.191  1.00  0.00     0.031 A 
ATOM     52  C   UNL A   1      46.358  28.260  30.312  1.00  0.00     0.049 A 
ATOM     53  C   UNL A   1      41.005  29.808  29.753  1.00  0.00     0.074 A 
ATOM     54  C   UNL A   1      47.236  29.213  30.798  1.00  0.00     0.029 A 
ATOM     55  N   UNL A   1      45.106  28.852  30.266  1.00  0.00    -0.354 N 
ATOM     56  N   UNL A   1      42.286  29.593  29.930  1.00  0.00    -0.248 NA
ATOM     57  C   UNL A   1      40.555  31.146  30.159  1.00  0.00     0.031 C 
ATOM     58  C   UNL A   1      46.506  30.375  31.076  1.00  0.00     0.029 A 
ATOM     59  C   UNL A   1      45.183  30.155  30.725  1.00  0.00     0.049 A 
ATOM     60  H   UNL A   1      44.283  28.411  29.952  1.00  0.00     0.167 HD
ATOM     61  C   UNL A   1      42.800  30.777  30.443  1.00  0.00     0.074 A 
ATOM     62  C   UNL A   1      41.695  31.710  30.536  1.00  0.00     0.031 C 
ATOM     63  C   UNL A   1      44.073  31.067  30.804  1.00  0.00     0.031 A 
BRANCH  50  64
ATOM     64  C   UNL A   1      48.029  26.379  30.078  1.00  0.00    -0.014 A 
ATOM     65  C   UNL A   1      48.438  25.779  31.280  1.00  0.00     0.009 A 
ATOM     66  C   UNL A   1      48.945  26.473  29.018  1.00  0.00     0.009 A 
ATOM     67  C   UNL A   1      49.748  25.321  31.432  1.00  0.00     0.001 A 
ATOM     68  C   UNL A   1      50.246  25.988  29.164  1.00  0.00     0.001 A 
ATOM     69  C   UNL A   1      50.650  25.423  30.373  1.00  0.00     0.000 A 
ENDBRANCH  50  64
BRANCH  51  70
ATOM     70  C   UNL A   1      38.550  29.333  29.057  1.00  0.00    -0.014 A 
ATOM     71  C   UNL A   1      37.672  29.239  30.148  1.00  0.00     0.009 A 
ATOM     72  C   UNL A   1      38.072  29.848  27.842  1.00  0.00     0.009 A 
ATOM     73  C   UNL A   1      36.338  29.627  30.019  1.00  0.00     0.001 A 
ATOM     74  C   UNL A   1      36.742  30.258  27.724  1.00  0.00     0.001 A 
ATOM     75  C   UNL A   1      35.874  30.139  28.809  1.00  0.00     0.000 A 
ENDBRANCH  51  70
BRANCH  63  76
ATOM     76  C   UNL A   1      44.345  32.457  31.299  1.00  0.00    -0.014 A 
ATOM     77  C   UNL A   1      44.260  32.771  32.664  1.00  0.00     0.009 A 
ATOM     78  C   UNL A   1      44.738  33.453  30.391  1.00  0.00     0.009 A 
ATOM     79  C   UNL A   1      44.538  34.066  33.106  1.00  0.00     0.001 A 
ATOM     80  C   UNL A   1      45.037  34.738  30.839  1.00  0.00     0.001 A 
ATOM     81  C   UNL A   1      44.930  35.046  32.194  1.00  0.00     0.000 A 
ENDBRANCH  63  76
ENDBRANCH  37  38
ENDBRANCH  29  32
ENDBRANCH  27  28
ENDBRANCH  26  27
ENDBRANCH   1  26
TORSDOF 14
ENDMDL
