MODEL 1
REMARK VINA RESULT:     -12.3      0.000      0.000
REMARK SMILES O=C(NCCCCNC(=O)c1nnn(-c2ccccc2C(F)(F)F)c1-c1cccc(Cl)c1)c1ccc(-c2c3nc(c(-c4ccccc4)c4ccc([nH]4)c(-c4ccccc4)c4nc(c(-c5ccccc5)c5ccc2[nH]5)C=C4)C=C3)cc1
REMARK SMILES IDX 5 1 4 2 3 3 1 4 2 5 33 7 34 8 80 9 35 10 79 11 36 12 37 13
REMARK SMILES IDX 38 14 73 15 39 16 78 17 72 18 74 19 40 20 77 21 71 22 70 23
REMARK SMILES IDX 41 25 63 26 48 27 62 28 49 29 52 30 61 31 75 32 50 33 51 34
REMARK SMILES IDX 60 36 76 37 53 38 42 39 43 40 47 41 44 42 46 43 45 44 64 45
REMARK SMILES IDX 65 46 69 47 66 48 68 49 67 50 54 51 55 52 59 53 56 54 58 55
REMARK SMILES IDX 57 56 6 57 7 58 8 59 9 60 10 62 11 63 12 64 25 65 13 66
REMARK SMILES IDX 14 67 26 68 27 69 32 70 28 71 30 72 29 73 31 74 15 75 16 76
REMARK SMILES IDX 20 77 17 78 19 79 18 80 21 81 22 82 23 83 24 84
REMARK H PARENT 3 6 74 24 52 35 8 61
REMARK Flexibility Score: inf
ROOT
ATOM      1  C   UNL A   1      37.041  22.324  24.334  1.00  0.00     0.023 C 
ENDROOT
BRANCH   1   2
ATOM      2  C   UNL A   1      37.449  21.793  25.709  1.00  0.00     0.116 C 
BRANCH   2   3
ATOM      3  N   UNL A   1      38.852  21.451  25.835  1.00  0.00    -0.352 N 
ATOM      4  O   UNL A   1      40.941  21.286  26.507  1.00  0.00    -0.269 OA
ATOM      5  C   UNL A   1      39.934  21.999  26.466  1.00  0.00     0.251 C 
ATOM      6  H   UNL A   1      39.080  20.625  25.350  1.00  0.00     0.163 HD
BRANCH   5   7
ATOM      7  C   UNL A   1      40.014  23.374  27.037  1.00  0.00     0.039 A 
ATOM      8  C   UNL A   1      39.133  24.424  26.790  1.00  0.00     0.014 A 
ATOM      9  C   UNL A   1      41.127  23.624  27.869  1.00  0.00     0.014 A 
ATOM     10  C   UNL A   1      39.398  25.701  27.292  1.00  0.00     0.010 A 
ATOM     11  C   UNL A   1      41.394  24.893  28.377  1.00  0.00     0.010 A 
ATOM     12  C   UNL A   1      40.545  25.946  28.059  1.00  0.00    -0.014 A 
BRANCH  12  13
ATOM     13  C   UNL A   1      40.737  27.280  28.631  1.00  0.00     0.031 A 
ATOM     14  C   UNL A   1      41.887  28.042  28.064  1.00  0.00     0.074 A 
ATOM     15  C   UNL A   1      39.899  27.885  29.502  1.00  0.00     0.049 A 
ATOM     16  N   UNL A   1      42.948  28.453  28.679  1.00  0.00    -0.248 NA
ATOM     17  C   UNL A   1      41.893  28.306  26.617  1.00  0.00     0.031 C 
ATOM     18  C   UNL A   1      38.576  27.447  29.950  1.00  0.00     0.029 A 
ATOM     19  N   UNL A   1      40.039  29.101  30.110  1.00  0.00    -0.354 N 
ATOM     20  C   UNL A   1      43.695  29.159  27.738  1.00  0.00     0.074 A 
ATOM     21  C   UNL A   1      43.053  28.948  26.465  1.00  0.00     0.031 C 
ATOM     22  C   UNL A   1      37.951  28.473  30.577  1.00  0.00     0.029 A 
ATOM     23  C   UNL A   1      38.880  29.584  30.706  1.00  0.00     0.049 A 
ATOM     24  H   UNL A   1      40.891  29.594  30.125  1.00  0.00     0.167 HD
ATOM     25  C   UNL A   1      44.689  30.018  28.097  1.00  0.00     0.031 A 
ATOM     26  C   UNL A   1      38.689  30.818  31.238  1.00  0.00     0.031 A 
ATOM     27  C   UNL A   1      45.122  29.808  29.453  1.00  0.00     0.049 A 
ATOM     28  C   UNL A   1      40.018  31.397  31.526  1.00  0.00     0.074 A 
ATOM     29  C   UNL A   1      45.694  28.758  30.141  1.00  0.00     0.029 A 
ATOM     30  N   UNL A   1      44.649  30.671  30.410  1.00  0.00    -0.354 N 
ATOM     31  N   UNL A   1      40.812  30.950  32.454  1.00  0.00    -0.248 NA
ATOM     32  C   UNL A   1      40.644  32.221  30.506  1.00  0.00     0.031 C 
ATOM     33  C   UNL A   1      45.088  28.798  31.431  1.00  0.00     0.029 A 
ATOM     34  C   UNL A   1      44.238  29.904  31.468  1.00  0.00     0.049 A 
ATOM     35  H   UNL A   1      44.612  31.653  30.348  1.00  0.00     0.167 HD
ATOM     36  C   UNL A   1      42.081  31.055  31.907  1.00  0.00     0.074 A 
ATOM     37  C   UNL A   1      41.925  31.936  30.751  1.00  0.00     0.031 C 
ATOM     38  C   UNL A   1      43.079  30.202  32.278  1.00  0.00     0.031 A 
BRANCH  25  39
ATOM     39  C   UNL A   1      45.013  31.285  27.349  1.00  0.00    -0.014 A 
ATOM     40  C   UNL A   1      46.342  31.517  26.942  1.00  0.00     0.009 A 
ATOM     41  C   UNL A   1      44.132  32.380  27.287  1.00  0.00     0.009 A 
ATOM     42  C   UNL A   1      46.775  32.794  26.564  1.00  0.00     0.001 A 
ATOM     43  C   UNL A   1      44.553  33.646  26.873  1.00  0.00     0.001 A 
ATOM     44  C   UNL A   1      45.883  33.859  26.538  1.00  0.00     0.000 A 
ENDBRANCH  25  39
BRANCH  26  45
ATOM     45  C   UNL A   1      37.467  31.653  31.279  1.00  0.00    -0.014 A 
ATOM     46  C   UNL A   1      36.826  32.054  30.093  1.00  0.00     0.009 A 
ATOM     47  C   UNL A   1      36.760  31.796  32.485  1.00  0.00     0.009 A 
ATOM     48  C   UNL A   1      35.510  32.541  30.114  1.00  0.00     0.001 A 
ATOM     49  C   UNL A   1      35.447  32.282  32.505  1.00  0.00     0.001 A 
ATOM     50  C   UNL A   1      34.817  32.639  31.318  1.00  0.00     0.000 A 
ENDBRANCH  26  45
BRANCH  38  51
ATOM     51  C   UNL A   1      42.845  29.303  33.467  1.00  0.00    -0.014 A 
ATOM     52  C   UNL A   1      43.172  29.669  34.785  1.00  0.00     0.009 A 
ATOM     53  C   UNL A   1      42.120  28.119  33.264  1.00  0.00     0.009 A 
ATOM     54  C   UNL A   1      42.801  28.859  35.864  1.00  0.00     0.001 A 
ATOM     55  C   UNL A   1      41.733  27.323  34.343  1.00  0.00     0.001 A 
ATOM     56  C   UNL A   1      42.075  27.691  35.642  1.00  0.00     0.000 A 
ENDBRANCH  38  51
ENDBRANCH  12  13
ENDBRANCH   5   7
ENDBRANCH   2   3
ENDBRANCH   1   2
BRANCH   1  57
ATOM     57  C   UNL A   1      35.775  23.188  24.298  1.00  0.00     0.023 C 
BRANCH  57  58
ATOM     58  C   UNL A   1      35.531  24.066  25.521  1.00  0.00     0.116 C 
BRANCH  58  59
ATOM     59  N   UNL A   1      34.528  23.533  26.424  1.00  0.00    -0.351 N 
ATOM     60  C   UNL A   1      33.159  23.687  26.374  1.00  0.00     0.274 C 
ATOM     61  H   UNL A   1      34.870  22.988  27.169  1.00  0.00     0.163 HD
ATOM     62  O   UNL A   1      32.484  23.217  27.292  1.00  0.00    -0.267 OA
BRANCH  60  63
ATOM     63  C   UNL A   1      32.554  24.392  25.255  1.00  0.00     0.178 A 
ATOM     64  N   UNL A   1      32.071  23.726  24.156  1.00  0.00    -0.124 NA
ATOM     65  C   UNL A   1      32.322  25.756  25.104  1.00  0.00     0.108 A 
ATOM     66  N   UNL A   1      31.488  24.609  23.358  1.00  0.00    -0.061 NA
ATOM     67  N   UNL A   1      31.749  25.843  23.837  1.00  0.00    -0.211 N 
BRANCH  65  68
ATOM     68  C   UNL A   1      32.507  26.875  26.023  1.00  0.00     0.004 A 
ATOM     69  C   UNL A   1      31.414  27.381  26.746  1.00  0.00     0.010 A 
ATOM     70  C   UNL A   1      33.769  27.450  26.202  1.00  0.00     0.031 A 
ATOM     71  C   UNL A   1      31.569  28.473  27.600  1.00  0.00     0.002 A 
ATOM     72  C   UNL A   1      33.916  28.547  27.051  1.00  0.00     0.041 A 
ATOM     73  C   UNL A   1      32.821  29.062  27.745  1.00  0.00     0.020 A 
ATOM     74  Cl  UNL A   1      35.460  29.283  27.231  1.00  0.00    -0.084 Cl
ENDBRANCH  65  68
BRANCH  67  75
ATOM     75  C   UNL A   1      31.255  27.003  23.188  1.00  0.00     0.079 A 
ATOM     76  C   UNL A   1      29.861  27.183  23.185  1.00  0.00     0.029 A 
ATOM     77  C   UNL A   1      32.108  28.008  22.688  1.00  0.00     0.081 A 
ATOM     78  C   UNL A   1      29.318  28.405  22.794  1.00  0.00     0.002 A 
ATOM     79  C   UNL A   1      31.531  29.237  22.312  1.00  0.00     0.015 A 
ATOM     80  C   UNL A   1      30.153  29.440  22.383  1.00  0.00     0.001 A 
BRANCH  77  81
ATOM     81  C   UNL A   1      33.589  27.834  22.432  1.00  0.00     0.418 C 
ATOM     82  F   UNL A   1      33.933  26.520  22.320  1.00  0.00    -0.166 F 
ATOM     83  F   UNL A   1      33.985  28.412  21.265  1.00  0.00    -0.166 F 
ATOM     84  F   UNL A   1      34.400  28.333  23.402  1.00  0.00    -0.166 F 
ENDBRANCH  77  81
ENDBRANCH  67  75
ENDBRANCH  60  63
ENDBRANCH  58  59
ENDBRANCH  57  58
ENDBRANCH   1  57
TORSDOF 14
ENDMDL
MODEL 2
REMARK VINA RESULT:     -12.2      2.881      7.671
REMARK SMILES O=C(NCCCCNC(=O)c1nnn(-c2ccccc2C(F)(F)F)c1-c1cccc(Cl)c1)c1ccc(-c2c3nc(c(-c4ccccc4)c4ccc([nH]4)c(-c4ccccc4)c4nc(c(-c5ccccc5)c5ccc2[nH]5)C=C4)C=C3)cc1
REMARK SMILES IDX 5 1 4 2 3 3 1 4 2 5 33 7 34 8 80 9 35 10 79 11 36 12 37 13
REMARK SMILES IDX 38 14 73 15 39 16 78 17 72 18 74 19 40 20 77 21 71 22 70 23
REMARK SMILES IDX 41 25 63 26 48 27 62 28 49 29 52 30 61 31 75 32 50 33 51 34
REMARK SMILES IDX 60 36 76 37 53 38 42 39 43 40 47 41 44 42 46 43 45 44 64 45
REMARK SMILES IDX 65 46 69 47 66 48 68 49 67 50 54 51 55 52 59 53 56 54 58 55
REMARK SMILES IDX 57 56 6 57 7 58 8 59 9 60 10 62 11 63 12 64 25 65 13 66
REMARK SMILES IDX 14 67 26 68 27 69 32 70 28 71 30 72 29 73 31 74 15 75 16 76
REMARK SMILES IDX 20 77 17 78 19 79 18 80 21 81 22 82 23 83 24 84
REMARK H PARENT 3 6 74 24 52 35 8 61
REMARK Flexibility Score: inf
ROOT
ATOM      1  C   UNL A   1      32.424  30.300  26.997  1.00  0.00     0.023 C 
ENDROOT
BRANCH   1   2
ATOM      2  C   UNL A   1      33.901  30.571  27.289  1.00  0.00     0.116 C 
BRANCH   2   3
ATOM      3  N   UNL A   1      34.143  31.546  28.334  1.00  0.00    -0.352 N 
ATOM      4  O   UNL A   1      35.082  32.930  29.765  1.00  0.00    -0.269 OA
ATOM      5  C   UNL A   1      35.210  31.885  29.119  1.00  0.00     0.251 C 
ATOM      6  H   UNL A   1      33.349  32.097  28.523  1.00  0.00     0.163 HD
BRANCH   5   7
ATOM      7  C   UNL A   1      36.455  31.086  29.303  1.00  0.00     0.039 A 
ATOM      8  C   UNL A   1      37.747  31.477  28.957  1.00  0.00     0.014 A 
ATOM      9  C   UNL A   1      36.275  29.792  29.837  1.00  0.00     0.014 A 
ATOM     10  C   UNL A   1      38.810  30.577  29.067  1.00  0.00     0.010 A 
ATOM     11  C   UNL A   1      37.331  28.892  29.955  1.00  0.00     0.010 A 
ATOM     12  C   UNL A   1      38.600  29.273  29.534  1.00  0.00    -0.014 A 
BRANCH  12  13
ATOM     13  C   UNL A   1      39.758  28.394  29.710  1.00  0.00     0.031 A 
ATOM     14  C   UNL A   1      40.272  28.312  31.108  1.00  0.00     0.074 A 
ATOM     15  C   UNL A   1      40.281  27.590  28.758  1.00  0.00     0.049 A 
ATOM     16  N   UNL A   1      41.432  28.675  31.550  1.00  0.00    -0.248 NA
ATOM     17  C   UNL A   1      39.350  27.846  32.155  1.00  0.00     0.031 C 
ATOM     18  C   UNL A   1      39.755  27.291  27.425  1.00  0.00     0.029 A 
ATOM     19  N   UNL A   1      41.383  26.785  28.837  1.00  0.00    -0.354 N 
ATOM     20  C   UNL A   1      41.452  28.349  32.905  1.00  0.00     0.074 A 
ATOM     21  C   UNL A   1      40.112  27.941  33.246  1.00  0.00     0.031 C 
ATOM     22  C   UNL A   1      40.408  26.220  26.913  1.00  0.00     0.029 A 
ATOM     23  C   UNL A   1      41.491  25.854  27.811  1.00  0.00     0.049 A 
ATOM     24  H   UNL A   1      42.046  26.859  29.561  1.00  0.00     0.167 HD
ATOM     25  C   UNL A   1      42.611  28.264  33.614  1.00  0.00     0.031 A 
ATOM     26  C   UNL A   1      42.387  24.837  27.722  1.00  0.00     0.031 A 
ATOM     27  C   UNL A   1      43.705  28.913  32.942  1.00  0.00     0.049 A 
ATOM     28  C   UNL A   1      43.520  25.154  28.617  1.00  0.00     0.074 A 
ATOM     29  C   UNL A   1      43.972  30.205  32.538  1.00  0.00     0.029 A 
ATOM     30  N   UNL A   1      44.593  28.116  32.262  1.00  0.00    -0.354 N 
ATOM     31  N   UNL A   1      44.362  26.120  28.397  1.00  0.00    -0.248 NA
ATOM     32  C   UNL A   1      43.481  24.651  29.979  1.00  0.00     0.031 C 
ATOM     33  C   UNL A   1      44.637  30.063  31.285  1.00  0.00     0.029 A 
ATOM     34  C   UNL A   1      44.791  28.698  31.038  1.00  0.00     0.049 A 
ATOM     35  H   UNL A   1      45.008  27.287  32.591  1.00  0.00     0.167 HD
ATOM     36  C   UNL A   1      44.628  26.643  29.653  1.00  0.00     0.074 A 
ATOM     37  C   UNL A   1      44.140  25.637  30.594  1.00  0.00     0.031 C 
ATOM     38  C   UNL A   1      44.966  27.955  29.811  1.00  0.00     0.031 A 
BRANCH  25  39
ATOM     39  C   UNL A   1      42.840  27.282  34.733  1.00  0.00    -0.014 A 
ATOM     40  C   UNL A   1      43.085  25.932  34.418  1.00  0.00     0.009 A 
ATOM     41  C   UNL A   1      42.538  27.573  36.076  1.00  0.00     0.009 A 
ATOM     42  C   UNL A   1      42.962  24.924  35.382  1.00  0.00     0.001 A 
ATOM     43  C   UNL A   1      42.453  26.574  37.049  1.00  0.00     0.001 A 
ATOM     44  C   UNL A   1      42.637  25.245  36.695  1.00  0.00     0.000 A 
ENDBRANCH  25  39
BRANCH  26  45
ATOM     45  C   UNL A   1      42.232  23.488  27.134  1.00  0.00    -0.014 A 
ATOM     46  C   UNL A   1      43.195  22.969  26.250  1.00  0.00     0.009 A 
ATOM     47  C   UNL A   1      41.295  22.593  27.680  1.00  0.00     0.009 A 
ATOM     48  C   UNL A   1      43.243  21.598  25.959  1.00  0.00     0.001 A 
ATOM     49  C   UNL A   1      41.345  21.224  27.389  1.00  0.00     0.001 A 
ATOM     50  C   UNL A   1      42.327  20.725  26.541  1.00  0.00     0.000 A 
ENDBRANCH  26  45
BRANCH  38  51
ATOM     51  C   UNL A   1      45.281  28.765  28.578  1.00  0.00    -0.014 A 
ATOM     52  C   UNL A   1      44.309  29.491  27.864  1.00  0.00     0.009 A 
ATOM     53  C   UNL A   1      46.628  28.932  28.225  1.00  0.00     0.009 A 
ATOM     54  C   UNL A   1      44.678  30.339  26.815  1.00  0.00     0.001 A 
ATOM     55  C   UNL A   1      46.998  29.796  27.193  1.00  0.00     0.001 A 
ATOM     56  C   UNL A   1      46.023  30.497  26.486  1.00  0.00     0.000 A 
ENDBRANCH  38  51
ENDBRANCH  12  13
ENDBRANCH   5   7
ENDBRANCH   2   3
ENDBRANCH   1   2
BRANCH   1  57
ATOM     57  C   UNL A   1      32.116  28.994  26.257  1.00  0.00     0.023 C 
BRANCH  57  58
ATOM     58  C   UNL A   1      31.921  27.761  27.132  1.00  0.00     0.116 C 
BRANCH  58  59
ATOM     59  N   UNL A   1      30.717  27.014  26.819  1.00  0.00    -0.351 N 
ATOM     60  C   UNL A   1      30.597  25.685  26.474  1.00  0.00     0.274 C 
ATOM     61  H   UNL A   1      29.876  27.524  26.860  1.00  0.00     0.163 HD
ATOM     62  O   UNL A   1      29.482  25.261  26.162  1.00  0.00    -0.267 OA
BRANCH  60  63
ATOM     63  C   UNL A   1      31.772  24.829  26.482  1.00  0.00     0.178 A 
ATOM     64  N   UNL A   1      32.032  23.968  27.520  1.00  0.00    -0.124 NA
ATOM     65  C   UNL A   1      32.758  24.687  25.511  1.00  0.00     0.108 A 
ATOM     66  N   UNL A   1      33.100  23.249  27.206  1.00  0.00    -0.061 NA
ATOM     67  N   UNL A   1      33.630  23.759  26.074  1.00  0.00    -0.211 N 
BRANCH  65  68
ATOM     68  C   UNL A   1      32.881  25.252  24.170  1.00  0.00     0.004 A 
ATOM     69  C   UNL A   1      32.462  24.511  23.052  1.00  0.00     0.010 A 
ATOM     70  C   UNL A   1      33.406  26.534  23.981  1.00  0.00     0.031 A 
ATOM     71  C   UNL A   1      32.607  25.023  21.763  1.00  0.00     0.002 A 
ATOM     72  C   UNL A   1      33.556  27.037  22.689  1.00  0.00     0.041 A 
ATOM     73  C   UNL A   1      33.164  26.285  21.581  1.00  0.00     0.020 A 
ATOM     74  Cl  UNL A   1      34.249  28.594  22.456  1.00  0.00    -0.084 Cl
ENDBRANCH  65  68
BRANCH  67  75
ATOM     75  C   UNL A   1      34.792  23.195  25.489  1.00  0.00     0.079 A 
ATOM     76  C   UNL A   1      35.932  24.016  25.424  1.00  0.00     0.029 A 
ATOM     77  C   UNL A   1      34.864  21.839  25.112  1.00  0.00     0.081 A 
ATOM     78  C   UNL A   1      37.169  23.464  25.098  1.00  0.00     0.002 A 
ATOM     79  C   UNL A   1      36.130  21.307  24.799  1.00  0.00     0.015 A 
ATOM     80  C   UNL A   1      37.273  22.106  24.811  1.00  0.00     0.001 A 
BRANCH  77  81
ATOM     81  C   UNL A   1      33.669  20.930  24.923  1.00  0.00     0.418 C 
ATOM     82  F   UNL A   1      33.969  19.856  24.138  1.00  0.00    -0.166 F 
ATOM     83  F   UNL A   1      33.225  20.406  26.097  1.00  0.00    -0.166 F 
ATOM     84  F   UNL A   1      32.594  21.514  24.331  1.00  0.00    -0.166 F 
ENDBRANCH  77  81
ENDBRANCH  67  75
ENDBRANCH  60  63
ENDBRANCH  58  59
ENDBRANCH  57  58
ENDBRANCH   1  57
TORSDOF 14
ENDMDL
MODEL 3
REMARK VINA RESULT:     -12.2      2.813      7.694
REMARK SMILES O=C(NCCCCNC(=O)c1nnn(-c2ccccc2C(F)(F)F)c1-c1cccc(Cl)c1)c1ccc(-c2c3nc(c(-c4ccccc4)c4ccc([nH]4)c(-c4ccccc4)c4nc(c(-c5ccccc5)c5ccc2[nH]5)C=C4)C=C3)cc1
REMARK SMILES IDX 5 1 4 2 3 3 1 4 2 5 33 7 34 8 80 9 35 10 79 11 36 12 37 13
REMARK SMILES IDX 38 14 73 15 39 16 78 17 72 18 74 19 40 20 77 21 71 22 70 23
REMARK SMILES IDX 41 25 63 26 48 27 62 28 49 29 52 30 61 31 75 32 50 33 51 34
REMARK SMILES IDX 60 36 76 37 53 38 42 39 43 40 47 41 44 42 46 43 45 44 64 45
REMARK SMILES IDX 65 46 69 47 66 48 68 49 67 50 54 51 55 52 59 53 56 54 58 55
REMARK SMILES IDX 57 56 6 57 7 58 8 59 9 60 10 62 11 63 12 64 25 65 13 66
REMARK SMILES IDX 14 67 26 68 27 69 32 70 28 71 30 72 29 73 31 74 15 75 16 76
REMARK SMILES IDX 20 77 17 78 19 79 18 80 21 81 22 82 23 83 24 84
REMARK H PARENT 3 6 74 24 52 35 8 61
REMARK Flexibility Score: inf
ROOT
ATOM      1  C   UNL A   1      33.488  29.596  27.321  1.00  0.00     0.023 C 
ENDROOT
BRANCH   1   2
ATOM      2  C   UNL A   1      34.098  30.993  27.203  1.00  0.00     0.116 C 
BRANCH   2   3
ATOM      3  N   UNL A   1      34.172  31.730  28.450  1.00  0.00    -0.352 N 
ATOM      4  O   UNL A   1      34.873  32.813  30.233  1.00  0.00    -0.269 OA
ATOM      5  C   UNL A   1      35.133  31.939  29.400  1.00  0.00     0.251 C 
ATOM      6  H   UNL A   1      33.328  32.190  28.663  1.00  0.00     0.163 HD
BRANCH   5   7
ATOM      7  C   UNL A   1      36.405  31.176  29.546  1.00  0.00     0.039 A 
ATOM      8  C   UNL A   1      37.695  31.682  29.392  1.00  0.00     0.014 A 
ATOM      9  C   UNL A   1      36.262  29.799  29.820  1.00  0.00     0.014 A 
ATOM     10  C   UNL A   1      38.799  30.826  29.432  1.00  0.00     0.010 A 
ATOM     11  C   UNL A   1      37.358  28.941  29.866  1.00  0.00     0.010 A 
ATOM     12  C   UNL A   1      38.631  29.449  29.636  1.00  0.00    -0.014 A 
BRANCH  12  13
ATOM     13  C   UNL A   1      39.822  28.606  29.751  1.00  0.00     0.031 A 
ATOM     14  C   UNL A   1      40.362  28.477  31.136  1.00  0.00     0.074 A 
ATOM     15  C   UNL A   1      40.358  27.869  28.754  1.00  0.00     0.049 A 
ATOM     16  N   UNL A   1      41.516  28.860  31.578  1.00  0.00    -0.248 NA
ATOM     17  C   UNL A   1      39.475  27.928  32.173  1.00  0.00     0.031 C 
ATOM     18  C   UNL A   1      39.822  27.615  27.416  1.00  0.00     0.029 A 
ATOM     19  N   UNL A   1      41.489  27.102  28.778  1.00  0.00    -0.354 N 
ATOM     20  C   UNL A   1      41.569  28.471  32.916  1.00  0.00     0.074 A 
ATOM     21  C   UNL A   1      40.250  27.998  33.256  1.00  0.00     0.031 C 
ATOM     22  C   UNL A   1      40.504  26.594  26.843  1.00  0.00     0.029 A 
ATOM     23  C   UNL A   1      41.614  26.225  27.706  1.00  0.00     0.049 A 
ATOM     24  H   UNL A   1      42.161  27.165  29.495  1.00  0.00     0.167 HD
ATOM     25  C   UNL A   1      42.742  28.395  33.602  1.00  0.00     0.031 A 
ATOM     26  C   UNL A   1      42.544  25.247  27.556  1.00  0.00     0.031 A 
ATOM     27  C   UNL A   1      43.801  29.114  32.947  1.00  0.00     0.049 A 
ATOM     28  C   UNL A   1      43.680  25.562  28.448  1.00  0.00     0.074 A 
ATOM     29  C   UNL A   1      44.014  30.434  32.602  1.00  0.00     0.029 A 
ATOM     30  N   UNL A   1      44.706  28.384  32.216  1.00  0.00    -0.354 N 
ATOM     31  N   UNL A   1      44.483  26.568  28.263  1.00  0.00    -0.248 NA
ATOM     32  C   UNL A   1      43.682  24.994  29.785  1.00  0.00     0.031 C 
ATOM     33  C   UNL A   1      44.664  30.376  31.334  1.00  0.00     0.029 A 
ATOM     34  C   UNL A   1      44.863  29.031  31.019  1.00  0.00     0.049 A 
ATOM     35  H   UNL A   1      45.155  27.556  32.498  1.00  0.00     0.167 HD
ATOM     36  C   UNL A   1      44.751  27.039  29.538  1.00  0.00     0.074 A 
ATOM     37  C   UNL A   1      44.315  25.972  30.437  1.00  0.00     0.031 C 
ATOM     38  C   UNL A   1      45.044  28.354  29.755  1.00  0.00     0.031 A 
BRANCH  25  39
ATOM     39  C   UNL A   1      43.025  27.369  34.670  1.00  0.00    -0.014 A 
ATOM     40  C   UNL A   1      43.352  26.055  34.284  1.00  0.00     0.009 A 
ATOM     41  C   UNL A   1      42.699  27.569  36.024  1.00  0.00     0.009 A 
ATOM     42  C   UNL A   1      43.285  24.991  35.192  1.00  0.00     0.001 A 
ATOM     43  C   UNL A   1      42.669  26.515  36.941  1.00  0.00     0.001 A 
ATOM     44  C   UNL A   1      42.935  25.221  36.518  1.00  0.00     0.000 A 
ENDBRANCH  25  39
BRANCH  26  45
ATOM     45  C   UNL A   1      42.428  23.923  26.905  1.00  0.00    -0.014 A 
ATOM     46  C   UNL A   1      43.442  23.443  26.057  1.00  0.00     0.009 A 
ATOM     47  C   UNL A   1      41.466  23.005  27.360  1.00  0.00     0.009 A 
ATOM     48  C   UNL A   1      43.512  22.084  25.714  1.00  0.00     0.001 A 
ATOM     49  C   UNL A   1      41.537  21.649  27.017  1.00  0.00     0.001 A 
ATOM     50  C   UNL A   1      42.568  21.186  26.207  1.00  0.00     0.000 A 
ENDBRANCH  26  45
BRANCH  38  51
ATOM     51  C   UNL A   1      45.309  29.233  28.558  1.00  0.00    -0.014 A 
ATOM     52  C   UNL A   1      44.292  29.905  27.855  1.00  0.00     0.009 A 
ATOM     53  C   UNL A   1      46.643  29.521  28.235  1.00  0.00     0.009 A 
ATOM     54  C   UNL A   1      44.606  30.820  26.845  1.00  0.00     0.001 A 
ATOM     55  C   UNL A   1      46.956  30.451  27.241  1.00  0.00     0.001 A 
ATOM     56  C   UNL A   1      45.938  31.098  26.544  1.00  0.00     0.000 A 
ENDBRANCH  38  51
ENDBRANCH  12  13
ENDBRANCH   5   7
ENDBRANCH   2   3
ENDBRANCH   1   2
BRANCH   1  57
ATOM     57  C   UNL A   1      34.220  28.479  26.568  1.00  0.00     0.023 C 
BRANCH  57  58
ATOM     58  C   UNL A   1      33.341  27.545  25.742  1.00  0.00     0.116 C 
BRANCH  58  59
ATOM     59  N   UNL A   1      33.562  27.659  24.313  1.00  0.00    -0.351 N 
ATOM     60  C   UNL A   1      33.350  26.712  23.333  1.00  0.00     0.274 C 
ATOM     61  H   UNL A   1      33.908  28.527  24.001  1.00  0.00     0.163 HD
ATOM     62  O   UNL A   1      33.683  26.982  22.178  1.00  0.00    -0.267 OA
BRANCH  60  63
ATOM     63  C   UNL A   1      32.750  25.434  23.684  1.00  0.00     0.178 A 
ATOM     64  N   UNL A   1      31.393  25.235  23.633  1.00  0.00    -0.124 NA
ATOM     65  C   UNL A   1      33.374  24.250  24.065  1.00  0.00     0.108 A 
ATOM     66  N   UNL A   1      31.150  23.960  23.900  1.00  0.00    -0.061 NA
ATOM     67  N   UNL A   1      32.306  23.387  24.297  1.00  0.00    -0.211 N 
BRANCH  65  68
ATOM     68  C   UNL A   1      34.785  23.882  24.137  1.00  0.00     0.004 A 
ATOM     69  C   UNL A   1      35.386  23.184  23.075  1.00  0.00     0.010 A 
ATOM     70  C   UNL A   1      35.556  24.224  25.252  1.00  0.00     0.031 A 
ATOM     71  C   UNL A   1      36.723  22.793  23.145  1.00  0.00     0.002 A 
ATOM     72  C   UNL A   1      36.890  23.823  25.320  1.00  0.00     0.041 A 
ATOM     73  C   UNL A   1      37.474  23.106  24.275  1.00  0.00     0.020 A 
ATOM     74  Cl  UNL A   1      37.823  24.202  26.715  1.00  0.00    -0.084 Cl
ENDBRANCH  65  68
BRANCH  67  75
ATOM     75  C   UNL A   1      32.362  22.017  24.655  1.00  0.00     0.079 A 
ATOM     76  C   UNL A   1      32.256  21.082  23.610  1.00  0.00     0.029 A 
ATOM     77  C   UNL A   1      32.650  21.592  25.968  1.00  0.00     0.081 A 
ATOM     78  C   UNL A   1      32.549  19.740  23.844  1.00  0.00     0.002 A 
ATOM     79  C   UNL A   1      32.955  20.232  26.171  1.00  0.00     0.015 A 
ATOM     80  C   UNL A   1      32.923  19.320  25.116  1.00  0.00     0.001 A 
BRANCH  77  81
ATOM     81  C   UNL A   1      32.562  22.469  27.198  1.00  0.00     0.418 C 
ATOM     82  F   UNL A   1      32.761  21.757  28.343  1.00  0.00    -0.166 F 
ATOM     83  F   UNL A   1      33.511  23.444  27.209  1.00  0.00    -0.166 F 
ATOM     84  F   UNL A   1      31.368  23.094  27.372  1.00  0.00    -0.166 F 
ENDBRANCH  77  81
ENDBRANCH  67  75
ENDBRANCH  60  63
ENDBRANCH  58  59
ENDBRANCH  57  58
ENDBRANCH   1  57
TORSDOF 14
ENDMDL
