MODEL 1
REMARK VINA RESULT:     -12.6      0.000      0.000
REMARK SMILES Cc1ncc(CO)c([C@H]2[NH2+][C@@H](C(=O)NCCCCNC(=O)c3ccc(-c4c5nc(c(-c6ccccc6)c6ccc([nH]6)c(-c6ccccc6)c6nc(c(-c7ccccc7)c7ccc4[nH]7)C=C6)C=C5)cc3)Cc3[nH]cnc32)c1O
REMARK SMILES IDX 16 1 15 2 14 3 12 4 13 5 11 7 9 8 10 9 75 10 71 13 74 14
REMARK SMILES IDX 70 15 72 16 73 17 8 19 1 20 2 21 3 22 76 23 4 24 5 25 77 26
REMARK SMILES IDX 6 28 7 29 17 31 18 32 19 33 20 34 21 36 22 37 23 38 69 39
REMARK SMILES IDX 24 40 68 41 25 42 26 43 27 44 62 45 28 46 67 47 61 48 63 49
REMARK SMILES IDX 29 50 66 51 60 52 59 53 30 55 52 56 37 57 51 58 38 59 41 60
REMARK SMILES IDX 50 61 64 62 39 63 40 64 49 66 65 67 42 68 31 69 32 70 36 71
REMARK SMILES IDX 33 72 35 73 34 74 53 75 54 76 58 77 55 78 57 79 56 80 43 81
REMARK SMILES IDX 44 82 48 83 45 84 47 85 46 86
REMARK H PARENT 14 6 10 11 10 12 72 18 77 27 7 30 19 35 63 54 41 65
REMARK Flexibility Score: inf
ROOT
ATOM      1  C   UNL A   1      37.752  19.996  24.546  1.00  0.00     0.023 C 
ENDROOT
BRANCH   1   2
ATOM      2  C   UNL A   1      36.617  20.714  25.281  1.00  0.00     0.116 C 
BRANCH   2   3
ATOM      3  N   UNL A   1      36.850  22.140  25.461  1.00  0.00    -0.351 N 
ATOM      4  C   UNL A   1      36.012  23.125  25.924  1.00  0.00     0.278 C 
ATOM      5  O   UNL A   1      36.480  24.250  26.094  1.00  0.00    -0.268 OA
ATOM      6  H   UNL A   1      37.752  22.447  25.210  1.00  0.00     0.163 HD
BRANCH   4   7
ATOM      7  C   UNL A   1      34.534  22.791  26.144  1.00  0.00     0.279 C 
ATOM      8  C   UNL A   1      32.792  21.290  25.491  1.00  0.00     0.270 C 
ATOM      9  N   UNL A   1      34.006  21.996  24.999  1.00  0.00    -0.324 N 
ATOM     10  C   UNL A   1      31.772  22.324  25.869  1.00  0.00     0.124 A 
ATOM     11  H   UNL A   1      33.764  22.614  24.224  1.00  0.00     0.347 HD
ATOM     12  H   UNL A   1      34.704  21.334  24.660  1.00  0.00     0.347 HD
ATOM     13  C   UNL A   1      32.200  23.556  26.362  1.00  0.00     0.051 A 
ATOM     14  N   UNL A   1      30.447  22.142  26.174  1.00  0.00    -0.235 NA
ATOM     15  C   UNL A   1      33.630  24.022  26.408  1.00  0.00     0.131 C 
ATOM     16  N   UNL A   1      31.102  24.152  26.903  1.00  0.00    -0.348 N 
ATOM     17  C   UNL A   1      30.069  23.260  26.764  1.00  0.00     0.197 A 
ATOM     18  H   UNL A   1      31.059  25.046  27.312  1.00  0.00     0.167 HD
BRANCH   8  19
ATOM     19  C   UNL A   1      32.507  20.074  24.650  1.00  0.00     0.066 A 
ATOM     20  C   UNL A   1      33.031  16.350  25.481  1.00  0.00     0.071 C 
ATOM     21  C   UNL A   1      32.677  17.608  24.742  1.00  0.00     0.079 A 
ATOM     22  N   UNL A   1      32.367  17.496  23.440  1.00  0.00    -0.257 NA
ATOM     23  C   UNL A   1      32.708  18.850  25.364  1.00  0.00     0.146 A 
ATOM     24  C   UNL A   1      32.153  18.651  22.759  1.00  0.00     0.118 A 
ATOM     25  C   UNL A   1      32.237  19.955  23.283  1.00  0.00     0.009 A 
BRANCH  23  26
ATOM     26  O   UNL A   1      33.018  18.888  26.707  1.00  0.00    -0.505 OA
ATOM     27  H   UNL A   1      33.498  19.613  27.057  1.00  0.00     0.293 HD
ENDBRANCH  23  26
BRANCH  25  28
ATOM     28  C   UNL A   1      32.045  21.080  22.309  1.00  0.00     0.194 C 
BRANCH  28  29
ATOM     29  O   UNL A   1      31.601  20.554  21.058  1.00  0.00    -0.392 OA
ATOM     30  H   UNL A   1      32.260  19.927  20.719  1.00  0.00     0.211 HD
ENDBRANCH  28  29
ENDBRANCH  25  28
ENDBRANCH   8  19
ENDBRANCH   4   7
ENDBRANCH   2   3
ENDBRANCH   1   2
BRANCH   1  31
ATOM     31  C   UNL A   1      38.621  19.064  25.401  1.00  0.00     0.023 C 
BRANCH  31  32
ATOM     32  C   UNL A   1      39.842  19.722  26.033  1.00  0.00     0.116 C 
BRANCH  32  33
ATOM     33  N   UNL A   1      41.093  19.020  25.752  1.00  0.00    -0.352 N 
ATOM     34  C   UNL A   1      42.364  19.567  25.652  1.00  0.00     0.251 C 
ATOM     35  H   UNL A   1      41.027  18.046  25.619  1.00  0.00     0.163 HD
ATOM     36  O   UNL A   1      43.255  19.002  25.045  1.00  0.00    -0.269 OA
BRANCH  34  37
ATOM     37  C   UNL A   1      42.617  20.855  26.324  1.00  0.00     0.039 A 
ATOM     38  C   UNL A   1      42.927  22.014  25.608  1.00  0.00     0.014 A 
ATOM     39  C   UNL A   1      42.493  20.882  27.709  1.00  0.00     0.014 A 
ATOM     40  C   UNL A   1      43.023  23.222  26.297  1.00  0.00     0.010 A 
ATOM     41  C   UNL A   1      42.432  22.084  28.361  1.00  0.00     0.010 A 
ATOM     42  C   UNL A   1      42.753  23.251  27.674  1.00  0.00    -0.014 A 
BRANCH  42  43
ATOM     43  C   UNL A   1      42.684  24.509  28.409  1.00  0.00     0.031 A 
ATOM     44  C   UNL A   1      41.489  25.345  28.110  1.00  0.00     0.074 A 
ATOM     45  C   UNL A   1      43.489  24.773  29.462  1.00  0.00     0.049 A 
ATOM     46  N   UNL A   1      41.464  26.517  27.569  1.00  0.00    -0.248 NA
ATOM     47  C   UNL A   1      40.155  24.765  28.335  1.00  0.00     0.031 C 
ATOM     48  C   UNL A   1      44.491  23.894  30.081  1.00  0.00     0.029 A 
ATOM     49  N   UNL A   1      43.483  25.845  30.299  1.00  0.00    -0.354 N 
ATOM     50  C   UNL A   1      40.128  26.911  27.563  1.00  0.00     0.074 A 
ATOM     51  C   UNL A   1      39.359  25.735  27.879  1.00  0.00     0.031 C 
ATOM     52  C   UNL A   1      44.793  24.350  31.317  1.00  0.00     0.029 A 
ATOM     53  C   UNL A   1      44.155  25.639  31.499  1.00  0.00     0.049 A 
ATOM     54  H   UNL A   1      43.041  26.695  30.074  1.00  0.00     0.167 HD
ATOM     55  C   UNL A   1      39.778  28.229  27.551  1.00  0.00     0.031 A 
ATOM     56  C   UNL A   1      44.161  26.457  32.581  1.00  0.00     0.031 A 
ATOM     57  C   UNL A   1      40.899  29.070  27.212  1.00  0.00     0.049 A 
ATOM     58  C   UNL A   1      43.726  27.796  32.123  1.00  0.00     0.074 A 
ATOM     59  C   UNL A   1      41.744  29.180  26.128  1.00  0.00     0.029 A 
ATOM     60  N   UNL A   1      41.535  29.702  28.254  1.00  0.00    -0.354 N 
ATOM     61  N   UNL A   1      44.428  28.537  31.315  1.00  0.00    -0.248 NA
ATOM     62  C   UNL A   1      42.309  28.114  32.193  1.00  0.00     0.031 C 
ATOM     63  C   UNL A   1      43.030  29.427  26.693  1.00  0.00     0.029 A 
ATOM     64  C   UNL A   1      42.882  29.536  28.077  1.00  0.00     0.049 A 
ATOM     65  H   UNL A   1      41.100  30.187  28.993  1.00  0.00     0.167 HD
ATOM     66  C   UNL A   1      43.496  29.090  30.452  1.00  0.00     0.074 A 
ATOM     67  C   UNL A   1      42.204  28.883  31.105  1.00  0.00     0.031 C 
ATOM     68  C   UNL A   1      43.828  29.400  29.163  1.00  0.00     0.031 A 
BRANCH  55  69
ATOM     69  C   UNL A   1      38.567  28.787  28.264  1.00  0.00    -0.014 A 
ATOM     70  C   UNL A   1      37.800  29.772  27.611  1.00  0.00     0.009 A 
ATOM     71  C   UNL A   1      38.328  28.612  29.639  1.00  0.00     0.009 A 
ATOM     72  C   UNL A   1      36.916  30.597  28.317  1.00  0.00     0.001 A 
ATOM     73  C   UNL A   1      37.414  29.406  30.339  1.00  0.00     0.001 A 
ATOM     74  C   UNL A   1      36.732  30.420  29.683  1.00  0.00     0.000 A 
ENDBRANCH  55  69
BRANCH  56  75
ATOM     75  C   UNL A   1      44.266  26.108  34.013  1.00  0.00    -0.014 A 
ATOM     76  C   UNL A   1      43.206  25.470  34.679  1.00  0.00     0.009 A 
ATOM     77  C   UNL A   1      45.514  26.150  34.660  1.00  0.00     0.009 A 
ATOM     78  C   UNL A   1      43.402  24.864  35.928  1.00  0.00     0.001 A 
ATOM     79  C   UNL A   1      45.709  25.545  35.907  1.00  0.00     0.001 A 
ATOM     80  C   UNL A   1      44.657  24.888  36.534  1.00  0.00     0.000 A 
ENDBRANCH  56  75
BRANCH  68  81
ATOM     81  C   UNL A   1      45.286  29.354  28.773  1.00  0.00    -0.014 A 
ATOM     82  C   UNL A   1      46.147  30.463  28.862  1.00  0.00     0.009 A 
ATOM     83  C   UNL A   1      45.842  28.104  28.463  1.00  0.00     0.009 A 
ATOM     84  C   UNL A   1      47.519  30.324  28.624  1.00  0.00     0.001 A 
ATOM     85  C   UNL A   1      47.213  27.963  28.246  1.00  0.00     0.001 A 
ATOM     86  C   UNL A   1      48.052  29.073  28.320  1.00  0.00     0.000 A 
ENDBRANCH  68  81
ENDBRANCH  42  43
ENDBRANCH  34  37
ENDBRANCH  32  33
ENDBRANCH  31  32
ENDBRANCH   1  31
TORSDOF 15
ENDMDL
MODEL 2
REMARK VINA RESULT:     -12.1      2.480      6.826
REMARK SMILES Cc1ncc(CO)c([C@H]2[NH2+][C@@H](C(=O)NCCCCNC(=O)c3ccc(-c4c5nc(c(-c6ccccc6)c6ccc([nH]6)c(-c6ccccc6)c6nc(c(-c7ccccc7)c7ccc4[nH]7)C=C6)C=C5)cc3)Cc3[nH]cnc32)c1O
REMARK SMILES IDX 16 1 15 2 14 3 12 4 13 5 11 7 9 8 10 9 75 10 71 13 74 14
REMARK SMILES IDX 70 15 72 16 73 17 8 19 1 20 2 21 3 22 76 23 4 24 5 25 77 26
REMARK SMILES IDX 6 28 7 29 17 31 18 32 19 33 20 34 21 36 22 37 23 38 69 39
REMARK SMILES IDX 24 40 68 41 25 42 26 43 27 44 62 45 28 46 67 47 61 48 63 49
REMARK SMILES IDX 29 50 66 51 60 52 59 53 30 55 52 56 37 57 51 58 38 59 41 60
REMARK SMILES IDX 50 61 64 62 39 63 40 64 49 66 65 67 42 68 31 69 32 70 36 71
REMARK SMILES IDX 33 72 35 73 34 74 53 75 54 76 58 77 55 78 57 79 56 80 43 81
REMARK SMILES IDX 44 82 48 83 45 84 47 85 46 86
REMARK H PARENT 14 6 10 11 10 12 72 18 77 27 7 30 19 35 63 54 41 65
REMARK Flexibility Score: inf
ROOT
ATOM      1  C   UNL A   1      33.499  28.994  24.523  1.00  0.00     0.023 C 
ENDROOT
BRANCH   1   2
ATOM      2  C   UNL A   1      32.495  28.467  23.494  1.00  0.00     0.116 C 
BRANCH   2   3
ATOM      3  N   UNL A   1      33.090  27.586  22.498  1.00  0.00    -0.351 N 
ATOM      4  C   UNL A   1      33.168  26.216  22.459  1.00  0.00     0.278 C 
ATOM      5  O   UNL A   1      33.626  25.690  21.445  1.00  0.00    -0.268 OA
ATOM      6  H   UNL A   1      33.504  28.046  21.732  1.00  0.00     0.163 HD
BRANCH   4   7
ATOM      7  C   UNL A   1      32.740  25.418  23.695  1.00  0.00     0.279 C 
ATOM      8  C   UNL A   1      33.259  23.483  24.997  1.00  0.00     0.270 C 
ATOM      9  N   UNL A   1      33.249  24.020  23.610  1.00  0.00    -0.324 N 
ATOM     10  C   UNL A   1      31.843  23.449  25.495  1.00  0.00     0.124 A 
ATOM     11  H   UNL A   1      32.637  23.458  23.020  1.00  0.00     0.347 HD
ATOM     12  H   UNL A   1      34.183  23.994  23.200  1.00  0.00     0.347 HD
ATOM     13  C   UNL A   1      30.940  24.413  25.048  1.00  0.00     0.051 A 
ATOM     14  N   UNL A   1      31.351  22.847  26.626  1.00  0.00    -0.235 NA
ATOM     15  C   UNL A   1      31.214  25.420  23.965  1.00  0.00     0.131 C 
ATOM     16  N   UNL A   1      29.862  24.337  25.875  1.00  0.00    -0.348 N 
ATOM     17  C   UNL A   1      30.157  23.378  26.810  1.00  0.00     0.197 A 
ATOM     18  H   UNL A   1      29.034  24.866  25.813  1.00  0.00     0.167 HD
BRANCH   8  19
ATOM     19  C   UNL A   1      34.236  22.343  25.120  1.00  0.00     0.066 A 
ATOM     20  C   UNL A   1      38.049  22.441  25.653  1.00  0.00     0.071 C 
ATOM     21  C   UNL A   1      36.654  21.930  25.442  1.00  0.00     0.079 A 
ATOM     22  N   UNL A   1      36.504  20.617  25.201  1.00  0.00    -0.257 NA
ATOM     23  C   UNL A   1      35.557  22.783  25.451  1.00  0.00     0.146 A 
ATOM     24  C   UNL A   1      35.250  20.186  24.909  1.00  0.00     0.118 A 
ATOM     25  C   UNL A   1      34.094  20.985  24.819  1.00  0.00     0.009 A 
BRANCH  23  26
ATOM     26  O   UNL A   1      35.784  24.116  25.721  1.00  0.00    -0.505 OA
ATOM     27  H   UNL A   1      35.108  24.638  26.106  1.00  0.00     0.293 HD
ENDBRANCH  23  26
BRANCH  25  28
ATOM     28  C   UNL A   1      32.834  20.293  24.390  1.00  0.00     0.194 C 
BRANCH  28  29
ATOM     29  O   UNL A   1      32.067  19.947  25.544  1.00  0.00    -0.392 OA
ATOM     30  H   UNL A   1      31.169  20.307  25.455  1.00  0.00     0.211 HD
ENDBRANCH  28  29
ENDBRANCH  25  28
ENDBRANCH   8  19
ENDBRANCH   4   7
ENDBRANCH   2   3
ENDBRANCH   1   2
BRANCH   1  31
ATOM     31  C   UNL A   1      32.946  29.238  25.934  1.00  0.00     0.023 C 
BRANCH  31  32
ATOM     32  C   UNL A   1      34.003  29.380  27.023  1.00  0.00     0.116 C 
BRANCH  32  33
ATOM     33  N   UNL A   1      34.429  30.760  27.245  1.00  0.00    -0.352 N 
ATOM     34  C   UNL A   1      35.526  31.199  27.973  1.00  0.00     0.251 C 
ATOM     35  H   UNL A   1      33.875  31.460  26.829  1.00  0.00     0.163 HD
ATOM     36  O   UNL A   1      35.581  32.327  28.424  1.00  0.00    -0.269 OA
BRANCH  34  37
ATOM     37  C   UNL A   1      36.646  30.259  28.170  1.00  0.00     0.039 A 
ATOM     38  C   UNL A   1      37.653  30.100  27.214  1.00  0.00     0.014 A 
ATOM     39  C   UNL A   1      36.684  29.562  29.372  1.00  0.00     0.014 A 
ATOM     40  C   UNL A   1      38.748  29.295  27.524  1.00  0.00     0.010 A 
ATOM     41  C   UNL A   1      37.826  28.901  29.737  1.00  0.00     0.010 A 
ATOM     42  C   UNL A   1      38.836  28.714  28.798  1.00  0.00    -0.014 A 
BRANCH  42  43
ATOM     43  C   UNL A   1      40.032  27.997  29.226  1.00  0.00     0.031 A 
ATOM     44  C   UNL A   1      40.345  28.107  30.677  1.00  0.00     0.074 A 
ATOM     45  C   UNL A   1      40.653  27.094  28.434  1.00  0.00     0.049 A 
ATOM     46  N   UNL A   1      41.380  28.655  31.220  1.00  0.00    -0.248 NA
ATOM     47  C   UNL A   1      39.332  27.658  31.647  1.00  0.00     0.031 C 
ATOM     48  C   UNL A   1      40.253  26.634  27.097  1.00  0.00     0.029 A 
ATOM     49  N   UNL A   1      41.707  26.283  28.719  1.00  0.00    -0.354 N 
ATOM     50  C   UNL A   1      41.254  28.446  32.591  1.00  0.00     0.074 A 
ATOM     51  C   UNL A   1      39.904  27.991  32.807  1.00  0.00     0.031 C 
ATOM     52  C   UNL A   1      40.880  25.472  26.810  1.00  0.00     0.029 A 
ATOM     53  C   UNL A   1      41.853  25.206  27.852  1.00  0.00     0.049 A 
ATOM     54  H   UNL A   1      42.315  26.445  29.477  1.00  0.00     0.167 HD
ATOM     55  C   UNL A   1      42.345  28.420  33.408  1.00  0.00     0.031 A 
ATOM     56  C   UNL A   1      42.694  24.153  27.994  1.00  0.00     0.031 A 
ATOM     57  C   UNL A   1      43.511  28.951  32.748  1.00  0.00     0.049 A 
ATOM     58  C   UNL A   1      43.741  24.552  28.962  1.00  0.00     0.074 A 
ATOM     59  C   UNL A   1      43.843  30.161  32.175  1.00  0.00     0.029 A 
ATOM     60  N   UNL A   1      44.410  28.037  32.251  1.00  0.00    -0.354 N 
ATOM     61  N   UNL A   1      44.625  25.475  28.717  1.00  0.00    -0.248 NA
ATOM     62  C   UNL A   1      43.519  24.256  30.368  1.00  0.00     0.031 C 
ATOM     63  C   UNL A   1      44.588  29.818  31.008  1.00  0.00     0.029 A 
ATOM     64  C   UNL A   1      44.739  28.430  30.982  1.00  0.00     0.049 A 
ATOM     65  H   UNL A   1      44.755  27.244  32.723  1.00  0.00     0.167 HD
ATOM     66  C   UNL A   1      44.730  26.182  29.904  1.00  0.00     0.074 A 
ATOM     67  C   UNL A   1      44.112  25.323  30.912  1.00  0.00     0.031 C 
ATOM     68  C   UNL A   1      45.043  27.512  29.906  1.00  0.00     0.031 A 
BRANCH  55  69
ATOM     69  C   UNL A   1      42.470  27.527  34.621  1.00  0.00    -0.014 A 
ATOM     70  C   UNL A   1      42.751  26.161  34.422  1.00  0.00     0.009 A 
ATOM     71  C   UNL A   1      42.033  27.898  35.906  1.00  0.00     0.009 A 
ATOM     72  C   UNL A   1      42.515  25.212  35.425  1.00  0.00     0.001 A 
ATOM     73  C   UNL A   1      41.837  26.959  36.923  1.00  0.00     0.001 A 
ATOM     74  C   UNL A   1      42.047  25.612  36.671  1.00  0.00     0.000 A 
ENDBRANCH  55  69
BRANCH  56  75
ATOM     75  C   UNL A   1      42.517  22.752  27.557  1.00  0.00    -0.014 A 
ATOM     76  C   UNL A   1      41.445  21.979  28.031  1.00  0.00     0.009 A 
ATOM     77  C   UNL A   1      43.244  22.259  26.458  1.00  0.00     0.009 A 
ATOM     78  C   UNL A   1      41.090  20.777  27.402  1.00  0.00     0.001 A 
ATOM     79  C   UNL A   1      42.889  21.059  25.831  1.00  0.00     0.001 A 
ATOM     80  C   UNL A   1      41.802  20.326  26.293  1.00  0.00     0.000 A 
ENDBRANCH  56  75
BRANCH  68  81
ATOM     81  C   UNL A   1      45.507  28.135  28.611  1.00  0.00    -0.014 A 
ATOM     82  C   UNL A   1      44.629  28.668  27.650  1.00  0.00     0.009 A 
ATOM     83  C   UNL A   1      46.884  28.338  28.438  1.00  0.00     0.009 A 
ATOM     84  C   UNL A   1      45.120  29.361  26.537  1.00  0.00     0.001 A 
ATOM     85  C   UNL A   1      47.373  29.046  27.339  1.00  0.00     0.001 A 
ATOM     86  C   UNL A   1      46.492  29.553  26.386  1.00  0.00     0.000 A 
ENDBRANCH  68  81
ENDBRANCH  42  43
ENDBRANCH  34  37
ENDBRANCH  32  33
ENDBRANCH  31  32
ENDBRANCH   1  31
TORSDOF 15
ENDMDL
MODEL 3
REMARK VINA RESULT:     -12.0      3.957      7.235
REMARK SMILES Cc1ncc(CO)c([C@H]2[NH2+][C@@H](C(=O)NCCCCNC(=O)c3ccc(-c4c5nc(c(-c6ccccc6)c6ccc([nH]6)c(-c6ccccc6)c6nc(c(-c7ccccc7)c7ccc4[nH]7)C=C6)C=C5)cc3)Cc3[nH]cnc32)c1O
REMARK SMILES IDX 16 1 15 2 14 3 12 4 13 5 11 7 9 8 10 9 75 10 71 13 74 14
REMARK SMILES IDX 70 15 72 16 73 17 8 19 1 20 2 21 3 22 76 23 4 24 5 25 77 26
REMARK SMILES IDX 6 28 7 29 17 31 18 32 19 33 20 34 21 36 22 37 23 38 69 39
REMARK SMILES IDX 24 40 68 41 25 42 26 43 27 44 62 45 28 46 67 47 61 48 63 49
REMARK SMILES IDX 29 50 66 51 60 52 59 53 30 55 52 56 37 57 51 58 38 59 41 60
REMARK SMILES IDX 50 61 64 62 39 63 40 64 49 66 65 67 42 68 31 69 32 70 36 71
REMARK SMILES IDX 33 72 35 73 34 74 53 75 54 76 58 77 55 78 57 79 56 80 43 81
REMARK SMILES IDX 44 82 48 83 45 84 47 85 46 86
REMARK H PARENT 14 6 10 11 10 12 72 18 77 27 7 30 19 35 63 54 41 65
REMARK Flexibility Score: inf
ROOT
ATOM      1  C   UNL A   1      35.411  23.047  23.463  1.00  0.00     0.023 C 
ENDROOT
BRANCH   1   2
ATOM      2  C   UNL A   1      33.951  23.490  23.337  1.00  0.00     0.116 C 
BRANCH   2   3
ATOM      3  N   UNL A   1      33.597  23.951  22.002  1.00  0.00    -0.351 N 
ATOM      4  C   UNL A   1      33.180  25.187  21.572  1.00  0.00     0.278 C 
ATOM      5  O   UNL A   1      33.047  25.364  20.361  1.00  0.00    -0.268 OA
ATOM      6  H   UNL A   1      33.665  23.268  21.295  1.00  0.00     0.163 HD
BRANCH   4   7
ATOM      7  C   UNL A   1      32.844  26.256  22.616  1.00  0.00     0.279 C 
ATOM      8  C   UNL A   1      31.164  27.819  23.284  1.00  0.00     0.270 C 
ATOM      9  N   UNL A   1      31.789  27.172  22.098  1.00  0.00    -0.324 N 
ATOM     10  C   UNL A   1      32.214  28.638  23.976  1.00  0.00     0.124 A 
ATOM     11  H   UNL A   1      32.203  27.878  21.490  1.00  0.00     0.347 HD
ATOM     12  H   UNL A   1      31.096  26.660  21.552  1.00  0.00     0.347 HD
ATOM     13  C   UNL A   1      33.543  28.216  23.939  1.00  0.00     0.051 A 
ATOM     14  N   UNL A   1      32.052  29.559  24.980  1.00  0.00    -0.235 NA
ATOM     15  C   UNL A   1      34.065  27.069  23.117  1.00  0.00     0.131 C 
ATOM     16  N   UNL A   1      34.201  28.947  24.880  1.00  0.00    -0.348 N 
ATOM     17  C   UNL A   1      33.259  29.743  25.481  1.00  0.00     0.197 A 
ATOM     18  H   UNL A   1      35.162  28.910  25.088  1.00  0.00     0.167 HD
BRANCH   8  19
ATOM     19  C   UNL A   1      29.777  28.306  22.956  1.00  0.00     0.066 A 
ATOM     20  C   UNL A   1      28.667  31.638  21.376  1.00  0.00     0.071 C 
ATOM     21  C   UNL A   1      28.623  30.271  21.995  1.00  0.00     0.079 A 
ATOM     22  N   UNL A   1      27.419  29.785  22.340  1.00  0.00    -0.257 NA
ATOM     23  C   UNL A   1      29.783  29.548  22.246  1.00  0.00     0.146 A 
ATOM     24  C   UNL A   1      27.403  28.595  22.994  1.00  0.00     0.118 A 
ATOM     25  C   UNL A   1      28.526  27.829  23.359  1.00  0.00     0.009 A 
BRANCH  23  26
ATOM     26  O   UNL A   1      30.982  30.102  21.850  1.00  0.00    -0.505 OA
ATOM     27  H   UNL A   1      31.219  30.962  22.138  1.00  0.00     0.293 HD
ENDBRANCH  23  26
BRANCH  25  28
ATOM     28  C   UNL A   1      28.259  26.589  24.159  1.00  0.00     0.194 C 
BRANCH  28  29
ATOM     29  O   UNL A   1      26.851  26.358  24.220  1.00  0.00    -0.392 OA
ATOM     30  H   UNL A   1      26.682  25.404  24.280  1.00  0.00     0.211 HD
ENDBRANCH  28  29
ENDBRANCH  25  28
ENDBRANCH   8  19
ENDBRANCH   4   7
ENDBRANCH   2   3
ENDBRANCH   1   2
BRANCH   1  31
ATOM     31  C   UNL A   1      35.874  22.654  24.874  1.00  0.00     0.023 C 
BRANCH  31  32
ATOM     32  C   UNL A   1      37.305  23.048  25.215  1.00  0.00     0.116 C 
BRANCH  32  33
ATOM     33  N   UNL A   1      38.009  22.047  26.015  1.00  0.00    -0.352 N 
ATOM     34  C   UNL A   1      39.216  22.198  26.683  1.00  0.00     0.251 C 
ATOM     35  H   UNL A   1      37.578  21.166  26.089  1.00  0.00     0.163 HD
ATOM     36  O   UNL A   1      39.903  21.238  26.981  1.00  0.00    -0.269 OA
BRANCH  34  37
ATOM     37  C   UNL A   1      39.640  23.562  27.047  1.00  0.00     0.039 A 
ATOM     38  C   UNL A   1      38.801  24.666  26.875  1.00  0.00     0.014 A 
ATOM     39  C   UNL A   1      40.903  23.705  27.611  1.00  0.00     0.014 A 
ATOM     40  C   UNL A   1      39.216  25.905  27.362  1.00  0.00     0.010 A 
ATOM     41  C   UNL A   1      41.243  24.880  28.226  1.00  0.00     0.010 A 
ATOM     42  C   UNL A   1      40.432  25.998  28.056  1.00  0.00    -0.014 A 
BRANCH  42  43
ATOM     43  C   UNL A   1      40.836  27.233  28.721  1.00  0.00     0.031 A 
ATOM     44  C   UNL A   1      41.931  27.980  28.044  1.00  0.00     0.074 A 
ATOM     45  C   UNL A   1      40.105  27.789  29.713  1.00  0.00     0.049 A 
ATOM     46  N   UNL A   1      43.115  28.222  28.497  1.00  0.00    -0.248 NA
ATOM     47  C   UNL A   1      41.726  28.414  26.652  1.00  0.00     0.031 C 
ATOM     48  C   UNL A   1      38.816  27.335  30.254  1.00  0.00     0.029 A 
ATOM     49  N   UNL A   1      40.294  28.971  30.359  1.00  0.00    -0.354 N 
ATOM     50  C   UNL A   1      43.744  29.009  27.535  1.00  0.00     0.074 A 
ATOM     51  C   UNL A   1      42.916  28.945  26.358  1.00  0.00     0.031 C 
ATOM     52  C   UNL A   1      38.230  28.345  30.935  1.00  0.00     0.029 A 
ATOM     53  C   UNL A   1      39.173  29.441  31.034  1.00  0.00     0.049 A 
ATOM     54  H   UNL A   1      41.153  29.452  30.349  1.00  0.00     0.167 HD
ATOM     55  C   UNL A   1      44.762  29.854  27.865  1.00  0.00     0.031 A 
ATOM     56  C   UNL A   1      39.019  30.659  31.608  1.00  0.00     0.031 A 
ATOM     57  C   UNL A   1      45.280  29.569  29.179  1.00  0.00     0.049 A 
ATOM     58  C   UNL A   1      40.371  31.230  31.802  1.00  0.00     0.074 A 
ATOM     59  C   UNL A   1      45.859  28.473  29.785  1.00  0.00     0.029 A 
ATOM     60  N   UNL A   1      44.858  30.387  30.201  1.00  0.00    -0.354 N 
ATOM     61  N   UNL A   1      41.242  30.733  32.632  1.00  0.00    -0.248 NA
ATOM     62  C   UNL A   1      40.918  32.065  30.745  1.00  0.00     0.031 C 
ATOM     63  C   UNL A   1      45.316  28.458  31.103  1.00  0.00     0.029 A 
ATOM     64  C   UNL A   1      44.507  29.585  31.253  1.00  0.00     0.049 A 
ATOM     65  H   UNL A   1      44.816  31.371  30.179  1.00  0.00     0.167 HD
ATOM     66  C   UNL A   1      42.450  30.805  31.954  1.00  0.00     0.074 A 
ATOM     67  C   UNL A   1      42.207  31.730  30.848  1.00  0.00     0.031 C 
ATOM     68  C   UNL A   1      43.439  29.891  32.180  1.00  0.00     0.031 A 
BRANCH  55  69
ATOM     69  C   UNL A   1      44.993  31.195  27.205  1.00  0.00    -0.014 A 
ATOM     70  C   UNL A   1      46.304  31.535  26.818  1.00  0.00     0.009 A 
ATOM     71  C   UNL A   1      44.051  32.240  27.223  1.00  0.00     0.009 A 
ATOM     72  C   UNL A   1      46.669  32.861  26.559  1.00  0.00     0.001 A 
ATOM     73  C   UNL A   1      44.403  33.559  26.922  1.00  0.00     0.001 A 
ATOM     74  C   UNL A   1      45.719  33.874  26.622  1.00  0.00     0.000 A 
ENDBRANCH  55  69
BRANCH  56  75
ATOM     75  C   UNL A   1      37.792  31.468  31.763  1.00  0.00    -0.014 A 
ATOM     76  C   UNL A   1      36.949  31.719  30.668  1.00  0.00     0.009 A 
ATOM     77  C   UNL A   1      37.299  31.763  33.048  1.00  0.00     0.009 A 
ATOM     78  C   UNL A   1      35.649  32.209  30.856  1.00  0.00     0.001 A 
ATOM     79  C   UNL A   1      36.001  32.253  33.235  1.00  0.00     0.001 A 
ATOM     80  C   UNL A   1      35.170  32.461  32.140  1.00  0.00     0.000 A 
ENDBRANCH  56  75
BRANCH  68  81
ATOM     81  C   UNL A   1      43.284  28.950  33.350  1.00  0.00    -0.014 A 
ATOM     82  C   UNL A   1      42.493  27.787  33.310  1.00  0.00     0.009 A 
ATOM     83  C   UNL A   1      44.097  29.161  34.473  1.00  0.00     0.009 A 
ATOM     84  C   UNL A   1      42.501  26.878  34.374  1.00  0.00     0.001 A 
ATOM     85  C   UNL A   1      44.121  28.244  35.525  1.00  0.00     0.001 A 
ATOM     86  C   UNL A   1      43.319  27.105  35.479  1.00  0.00     0.000 A 
ENDBRANCH  68  81
ENDBRANCH  42  43
ENDBRANCH  34  37
ENDBRANCH  32  33
ENDBRANCH  31  32
ENDBRANCH   1  31
TORSDOF 15
ENDMDL
