MODEL 1
REMARK VINA RESULT:     -12.8      0.000      0.000
REMARK SMILES Cc1c(-c2nn(-c3ccccc3)cc2/C=N/O)nnn1-c1ccc(C(=O)NCCCCNC(=O)c2ccc(-c3c4nc(c(-c5ccccc5)c5ccc([nH]5)c(-c5ccccc5)c5nc(c(-c6ccccc6)c6ccc3[nH]6)C=C5)C=C4)cc2)cc1
REMARK SMILES IDX 28 1 27 2 25 3 26 4 24 6 21 7 22 8 84 9 23 10 83 11 20 12
REMARK SMILES IDX 1 13 2 14 3 15 18 16 19 17 4 18 5 19 14 20 6 21 13 22 15 23
REMARK SMILES IDX 16 24 17 25 7 27 8 28 12 29 9 30 11 31 10 32 29 33 30 34
REMARK SMILES IDX 31 35 32 36 33 37 34 39 35 40 36 41 82 42 37 43 81 44 38 45
REMARK SMILES IDX 39 46 40 47 75 48 41 49 80 50 74 51 76 52 42 53 79 54 73 55
REMARK SMILES IDX 72 56 43 58 65 59 50 60 64 61 51 62 54 63 63 64 77 65 52 66
REMARK SMILES IDX 53 67 62 69 78 70 55 71 44 72 45 73 49 74 46 75 48 76 47 77
REMARK SMILES IDX 66 78 67 79 71 80 68 81 70 82 69 83 56 84 57 85 61 86 58 87
REMARK SMILES IDX 60 88 59 89
REMARK H PARENT 27 5 17 26 32 38 76 57 54 68
REMARK Flexibility Score: inf
ROOT
ATOM      1  C   UNL A   1      35.553  18.323  24.400  1.00  0.00     0.116 C 
ENDROOT
BRANCH   1   2
ATOM      2  N   UNL A   1      34.232  18.093  24.948  1.00  0.00    -0.352 N 
ATOM      3  C   UNL A   1      33.180  18.909  25.276  1.00  0.00     0.251 C 
ATOM      4  O   UNL A   1      32.165  18.344  25.692  1.00  0.00    -0.269 OA
ATOM      5  H   UNL A   1      34.050  17.141  25.123  1.00  0.00     0.163 HD
BRANCH   3   6
ATOM      6  C   UNL A   1      33.166  20.397  25.126  1.00  0.00     0.039 A 
ATOM      7  C   UNL A   1      33.105  23.218  25.081  1.00  0.00     0.067 A 
ATOM      8  C   UNL A   1      33.440  22.554  26.261  1.00  0.00     0.029 A 
ATOM      9  C   UNL A   1      32.862  22.488  23.914  1.00  0.00     0.029 A 
ATOM     10  C   UNL A   1      33.434  21.154  26.284  1.00  0.00     0.016 A 
ATOM     11  C   UNL A   1      32.940  21.089  23.933  1.00  0.00     0.016 A 
BRANCH   7  12
ATOM     12  N   UNL A   1      33.063  24.629  25.055  1.00  0.00    -0.217 N 
ATOM     13  C   UNL A   1      30.739  25.071  25.983  1.00  0.00     0.069 C 
ATOM     14  C   UNL A   1      31.996  25.470  25.307  1.00  0.00     0.071 A 
ATOM     15  C   UNL A   1      32.462  26.702  24.894  1.00  0.00     0.137 A 
ATOM     16  N   UNL A   1      33.777  26.612  24.542  1.00  0.00    -0.128 NA
ATOM     17  N   UNL A   1      34.159  25.353  24.723  1.00  0.00    -0.061 NA
BRANCH  15  18
ATOM     18  C   UNL A   1      31.768  27.982  24.920  1.00  0.00     0.124 A 
ATOM     19  N   UNL A   1      30.861  28.304  23.989  1.00  0.00    -0.165 NA
ATOM     20  C   UNL A   1      31.988  29.027  25.845  1.00  0.00     0.044 A 
ATOM     21  N   UNL A   1      30.567  29.597  24.238  1.00  0.00    -0.240 N 
ATOM     22  C   UNL A   1      31.226  30.069  25.350  1.00  0.00     0.125 A 
BRANCH  20  23
ATOM     23  C   UNL A   1      32.793  29.098  27.040  1.00  0.00     0.166 C 
ATOM     24  N   UNL A   1      34.065  29.307  26.956  1.00  0.00    -0.097 NA
BRANCH  24  25
ATOM     25  O   UNL A   1      34.615  29.300  28.244  1.00  0.00    -0.411 OA
ATOM     26  H   UNL A   1      34.623  28.508  28.745  1.00  0.00     0.330 HD
ENDBRANCH  24  25
ENDBRANCH  20  23
BRANCH  21  27
ATOM     27  C   UNL A   1      29.709  30.317  23.375  1.00  0.00     0.065 A 
ATOM     28  C   UNL A   1      29.016  31.427  23.873  1.00  0.00     0.028 A 
ATOM     29  C   UNL A   1      29.527  29.907  22.049  1.00  0.00     0.028 A 
ATOM     30  C   UNL A   1      28.159  32.142  23.037  1.00  0.00     0.002 A 
ATOM     31  C   UNL A   1      28.627  30.597  21.234  1.00  0.00     0.002 A 
ATOM     32  C   UNL A   1      27.954  31.718  21.724  1.00  0.00     0.000 A 
ENDBRANCH  21  27
ENDBRANCH  15  18
ENDBRANCH   7  12
ENDBRANCH   3   6
ENDBRANCH   1   2
BRANCH   1  33
ATOM     33  C   UNL A   1      36.240  19.527  25.055  1.00  0.00     0.023 C 
BRANCH  33  34
ATOM     34  C   UNL A   1      37.655  19.837  24.537  1.00  0.00     0.023 C 
BRANCH  34  35
ATOM     35  C   UNL A   1      38.687  20.179  25.609  1.00  0.00     0.116 C 
BRANCH  35  36
ATOM     36  N   UNL A   1      39.746  19.173  25.732  1.00  0.00    -0.352 N 
ATOM     37  C   UNL A   1      41.105  19.360  25.913  1.00  0.00     0.251 C 
ATOM     38  H   UNL A   1      39.449  18.237  25.678  1.00  0.00     0.163 HD
ATOM     39  O   UNL A   1      41.908  18.488  25.614  1.00  0.00    -0.269 OA
BRANCH  37  40
ATOM     40  C   UNL A   1      41.574  20.623  26.507  1.00  0.00     0.039 A 
ATOM     41  C   UNL A   1      42.249  21.595  25.762  1.00  0.00     0.014 A 
ATOM     42  C   UNL A   1      41.304  20.823  27.856  1.00  0.00     0.014 A 
ATOM     43  C   UNL A   1      42.570  22.807  26.371  1.00  0.00     0.010 A 
ATOM     44  C   UNL A   1      41.468  22.065  28.405  1.00  0.00     0.010 A 
ATOM     45  C   UNL A   1      42.161  23.037  27.693  1.00  0.00    -0.014 A 
BRANCH  45  46
ATOM     46  C   UNL A   1      42.349  24.326  28.344  1.00  0.00     0.031 A 
ATOM     47  C   UNL A   1      41.270  25.317  28.098  1.00  0.00     0.074 A 
ATOM     48  C   UNL A   1      43.255  24.500  29.331  1.00  0.00     0.049 A 
ATOM     49  N   UNL A   1      41.356  26.434  27.458  1.00  0.00    -0.248 NA
ATOM     50  C   UNL A   1      39.900  24.969  28.512  1.00  0.00     0.031 C 
ATOM     51  C   UNL A   1      44.142  23.493  29.931  1.00  0.00     0.029 A 
ATOM     52  N   UNL A   1      43.470  25.587  30.117  1.00  0.00    -0.354 N 
ATOM     53  C   UNL A   1      40.104  27.035  27.572  1.00  0.00     0.074 A 
ATOM     54  C   UNL A   1      39.209  26.007  28.039  1.00  0.00     0.031 C 
ATOM     55  C   UNL A   1      44.594  23.941  31.122  1.00  0.00     0.029 A 
ATOM     56  C   UNL A   1      44.176  25.320  31.285  1.00  0.00     0.049 A 
ATOM     57  H   UNL A   1      43.152  26.489  29.881  1.00  0.00     0.167 HD
ATOM     58  C   UNL A   1      39.966  28.391  27.549  1.00  0.00     0.031 A 
ATOM     59  C   UNL A   1      44.372  26.163  32.329  1.00  0.00     0.031 A 
ATOM     60  C   UNL A   1      41.171  29.037  27.089  1.00  0.00     0.049 A 
ATOM     61  C   UNL A   1      44.097  27.536  31.848  1.00  0.00     0.074 A 
ATOM     62  C   UNL A   1      41.946  28.966  25.947  1.00  0.00     0.029 A 
ATOM     63  N   UNL A   1      41.969  29.616  28.046  1.00  0.00    -0.354 N 
ATOM     64  N   UNL A   1      44.847  28.155  30.985  1.00  0.00    -0.248 NA
ATOM     65  C   UNL A   1      42.745  28.053  31.983  1.00  0.00     0.031 C 
ATOM     66  C   UNL A   1      43.293  29.042  26.414  1.00  0.00     0.029 A 
ATOM     67  C   UNL A   1      43.262  29.238  27.797  1.00  0.00     0.049 A 
ATOM     68  H   UNL A   1      41.666  30.199  28.781  1.00  0.00     0.167 HD
ATOM     69  C   UNL A   1      43.953  28.807  30.149  1.00  0.00     0.074 A 
ATOM     70  C   UNL A   1      42.687  28.809  30.883  1.00  0.00     0.031 C 
ATOM     71  C   UNL A   1      44.247  29.014  28.830  1.00  0.00     0.031 A 
BRANCH  58  72
ATOM     72  C   UNL A   1      38.930  29.145  28.357  1.00  0.00    -0.014 A 
ATOM     73  C   UNL A   1      38.079  30.041  27.682  1.00  0.00     0.009 A 
ATOM     74  C   UNL A   1      38.945  29.233  29.762  1.00  0.00     0.009 A 
ATOM     75  C   UNL A   1      37.368  31.032  28.370  1.00  0.00     0.001 A 
ATOM     76  C   UNL A   1      38.200  30.191  30.455  1.00  0.00     0.001 A 
ATOM     77  C   UNL A   1      37.438  31.114  29.756  1.00  0.00     0.000 A 
ENDBRANCH  58  72
BRANCH  59  78
ATOM     78  C   UNL A   1      44.562  25.863  33.762  1.00  0.00    -0.014 A 
ATOM     79  C   UNL A   1      43.538  25.259  34.509  1.00  0.00     0.009 A 
ATOM     80  C   UNL A   1      45.847  25.914  34.333  1.00  0.00     0.009 A 
ATOM     81  C   UNL A   1      43.802  24.681  35.757  1.00  0.00     0.001 A 
ATOM     82  C   UNL A   1      46.109  25.340  35.582  1.00  0.00     0.001 A 
ATOM     83  C   UNL A   1      45.090  24.707  36.286  1.00  0.00     0.000 A 
ENDBRANCH  59  78
BRANCH  71  84
ATOM     84  C   UNL A   1      45.663  28.745  28.376  1.00  0.00    -0.014 A 
ATOM     85  C   UNL A   1      46.651  29.744  28.279  1.00  0.00     0.009 A 
ATOM     86  C   UNL A   1      46.046  27.416  28.150  1.00  0.00     0.009 A 
ATOM     87  C   UNL A   1      47.964  29.425  27.918  1.00  0.00     0.001 A 
ATOM     88  C   UNL A   1      47.363  27.094  27.815  1.00  0.00     0.001 A 
ATOM     89  C   UNL A   1      48.320  28.098  27.688  1.00  0.00     0.000 A 
ENDBRANCH  71  84
ENDBRANCH  45  46
ENDBRANCH  37  40
ENDBRANCH  35  36
ENDBRANCH  34  35
ENDBRANCH  33  34
ENDBRANCH   1  33
TORSDOF 16
ENDMDL
MODEL 2
REMARK VINA RESULT:     -12.5      2.310      5.356
REMARK SMILES Cc1c(-c2nn(-c3ccccc3)cc2/C=N/O)nnn1-c1ccc(C(=O)NCCCCNC(=O)c2ccc(-c3c4nc(c(-c5ccccc5)c5ccc([nH]5)c(-c5ccccc5)c5nc(c(-c6ccccc6)c6ccc3[nH]6)C=C5)C=C4)cc2)cc1
REMARK SMILES IDX 28 1 27 2 25 3 26 4 24 6 21 7 22 8 84 9 23 10 83 11 20 12
REMARK SMILES IDX 1 13 2 14 3 15 18 16 19 17 4 18 5 19 14 20 6 21 13 22 15 23
REMARK SMILES IDX 16 24 17 25 7 27 8 28 12 29 9 30 11 31 10 32 29 33 30 34
REMARK SMILES IDX 31 35 32 36 33 37 34 39 35 40 36 41 82 42 37 43 81 44 38 45
REMARK SMILES IDX 39 46 40 47 75 48 41 49 80 50 74 51 76 52 42 53 79 54 73 55
REMARK SMILES IDX 72 56 43 58 65 59 50 60 64 61 51 62 54 63 63 64 77 65 52 66
REMARK SMILES IDX 53 67 62 69 78 70 55 71 44 72 45 73 49 74 46 75 48 76 47 77
REMARK SMILES IDX 66 78 67 79 71 80 68 81 70 82 69 83 56 84 57 85 61 86 58 87
REMARK SMILES IDX 60 88 59 89
REMARK H PARENT 27 5 17 26 32 38 76 57 54 68
REMARK Flexibility Score: inf
ROOT
ATOM      1  C   UNL A   1      35.860  19.609  24.698  1.00  0.00     0.116 C 
ENDROOT
BRANCH   1   2
ATOM      2  N   UNL A   1      34.518  19.167  25.020  1.00  0.00    -0.352 N 
ATOM      3  C   UNL A   1      33.346  19.814  25.315  1.00  0.00     0.251 C 
ATOM      4  O   UNL A   1      32.362  19.095  25.502  1.00  0.00    -0.269 OA
ATOM      5  H   UNL A   1      34.430  18.186  25.031  1.00  0.00     0.163 HD
BRANCH   3   6
ATOM      6  C   UNL A   1      33.176  21.299  25.379  1.00  0.00     0.039 A 
ATOM      7  C   UNL A   1      32.943  24.110  25.275  1.00  0.00     0.067 A 
ATOM      8  C   UNL A   1      32.968  23.376  24.090  1.00  0.00     0.029 A 
ATOM      9  C   UNL A   1      32.970  23.449  26.506  1.00  0.00     0.029 A 
ATOM     10  C   UNL A   1      33.119  21.985  24.148  1.00  0.00     0.016 A 
ATOM     11  C   UNL A   1      33.038  22.050  26.550  1.00  0.00     0.016 A 
BRANCH   7  12
ATOM     12  N   UNL A   1      32.836  25.517  25.229  1.00  0.00    -0.217 N 
ATOM     13  C   UNL A   1      30.370  25.842  25.751  1.00  0.00     0.069 C 
ATOM     14  C   UNL A   1      31.701  26.304  25.291  1.00  0.00     0.071 A 
ATOM     15  C   UNL A   1      32.169  27.557  24.950  1.00  0.00     0.137 A 
ATOM     16  N   UNL A   1      33.527  27.533  24.824  1.00  0.00    -0.128 NA
ATOM     17  N   UNL A   1      33.934  26.295  25.077  1.00  0.00    -0.061 NA
BRANCH  15  18
ATOM     18  C   UNL A   1      31.417  28.800  24.847  1.00  0.00     0.124 A 
ATOM     19  N   UNL A   1      30.555  29.015  23.846  1.00  0.00    -0.165 NA
ATOM     20  C   UNL A   1      31.533  29.914  25.710  1.00  0.00     0.044 A 
ATOM     21  N   UNL A   1      30.188  30.306  23.987  1.00  0.00    -0.240 N 
ATOM     22  C   UNL A   1      30.756  30.882  25.100  1.00  0.00     0.125 A 
BRANCH  20  23
ATOM     23  C   UNL A   1      32.260  30.104  26.940  1.00  0.00     0.166 C 
ATOM     24  N   UNL A   1      33.517  30.399  26.915  1.00  0.00    -0.097 NA
BRANCH  24  25
ATOM     25  O   UNL A   1      33.991  30.497  28.229  1.00  0.00    -0.411 OA
ATOM     26  H   UNL A   1      33.973  29.747  28.790  1.00  0.00     0.330 HD
ENDBRANCH  24  25
ENDBRANCH  20  23
BRANCH  21  27
ATOM     27  C   UNL A   1      29.352  30.923  23.029  1.00  0.00     0.065 A 
ATOM     28  C   UNL A   1      28.957  30.197  21.899  1.00  0.00     0.028 A 
ATOM     29  C   UNL A   1      28.949  32.254  23.190  1.00  0.00     0.028 A 
ATOM     30  C   UNL A   1      28.139  30.795  20.942  1.00  0.00     0.002 A 
ATOM     31  C   UNL A   1      28.174  32.861  22.200  1.00  0.00     0.002 A 
ATOM     32  C   UNL A   1      27.761  32.131  21.084  1.00  0.00     0.000 A 
ENDBRANCH  21  27
ENDBRANCH  15  18
ENDBRANCH   7  12
ENDBRANCH   3   6
ENDBRANCH   1   2
BRANCH   1  33
ATOM     33  C   UNL A   1      36.298  20.788  25.574  1.00  0.00     0.023 C 
BRANCH  33  34
ATOM     34  C   UNL A   1      36.954  21.957  24.820  1.00  0.00     0.023 C 
BRANCH  34  35
ATOM     35  C   UNL A   1      37.960  22.777  25.625  1.00  0.00     0.116 C 
BRANCH  35  36
ATOM     36  N   UNL A   1      38.904  21.950  26.382  1.00  0.00    -0.352 N 
ATOM     37  C   UNL A   1      40.067  22.329  27.029  1.00  0.00     0.251 C 
ATOM     38  H   UNL A   1      38.680  20.993  26.436  1.00  0.00     0.163 HD
ATOM     39  O   UNL A   1      40.945  21.516  27.279  1.00  0.00    -0.269 OA
BRANCH  37  40
ATOM     40  C   UNL A   1      40.220  23.733  27.447  1.00  0.00     0.039 A 
ATOM     41  C   UNL A   1      39.171  24.655  27.368  1.00  0.00     0.014 A 
ATOM     42  C   UNL A   1      41.461  24.110  27.946  1.00  0.00     0.014 A 
ATOM     43  C   UNL A   1      39.364  25.938  27.878  1.00  0.00     0.010 A 
ATOM     44  C   UNL A   1      41.599  25.307  28.593  1.00  0.00     0.010 A 
ATOM     45  C   UNL A   1      40.581  26.250  28.503  1.00  0.00    -0.014 A 
BRANCH  45  46
ATOM     46  C   UNL A   1      40.800  27.526  29.170  1.00  0.00     0.031 A 
ATOM     47  C   UNL A   1      41.766  28.429  28.493  1.00  0.00     0.074 A 
ATOM     48  C   UNL A   1      39.972  27.975  30.137  1.00  0.00     0.049 A 
ATOM     49  N   UNL A   1      42.918  28.820  28.926  1.00  0.00    -0.248 NA
ATOM     50  C   UNL A   1      41.468  28.859  27.116  1.00  0.00     0.031 C 
ATOM     51  C   UNL A   1      38.751  27.337  30.649  1.00  0.00     0.029 A 
ATOM     52  N   UNL A   1      39.961  29.180  30.767  1.00  0.00    -0.354 N 
ATOM     53  C   UNL A   1      43.398  29.716  27.974  1.00  0.00     0.074 A 
ATOM     54  C   UNL A   1      42.575  29.536  26.805  1.00  0.00     0.031 C 
ATOM     55  C   UNL A   1      38.002  28.253  31.302  1.00  0.00     0.029 A 
ATOM     56  C   UNL A   1      38.763  29.483  31.404  1.00  0.00     0.049 A 
ATOM     57  H   UNL A   1      40.736  29.787  30.771  1.00  0.00     0.167 HD
ATOM     58  C   UNL A   1      44.244  30.728  28.318  1.00  0.00     0.031 A 
ATOM     59  C   UNL A   1      38.408  30.674  31.946  1.00  0.00     0.031 A 
ATOM     60  C   UNL A   1      44.783  30.538  29.643  1.00  0.00     0.049 A 
ATOM     61  C   UNL A   1      39.647  31.459  32.141  1.00  0.00     0.074 A 
ATOM     62  C   UNL A   1      45.507  29.544  30.273  1.00  0.00     0.029 A 
ATOM     63  N   UNL A   1      44.236  31.297  30.650  1.00  0.00    -0.354 N 
ATOM     64  N   UNL A   1      40.565  31.144  33.006  1.00  0.00    -0.248 NA
ATOM     65  C   UNL A   1      40.079  32.339  31.066  1.00  0.00     0.031 C 
ATOM     66  C   UNL A   1      44.954  29.466  31.587  1.00  0.00     0.029 A 
ATOM     67  C   UNL A   1      43.987  30.466  31.710  1.00  0.00     0.049 A 
ATOM     68  H   UNL A   1      44.056  32.265  30.616  1.00  0.00     0.167 HD
ATOM     69  C   UNL A   1      41.762  31.383  32.348  1.00  0.00     0.074 A 
ATOM     70  C   UNL A   1      41.403  32.230  31.210  1.00  0.00     0.031 C 
ATOM     71  C   UNL A   1      42.873  30.632  32.616  1.00  0.00     0.031 A 
BRANCH  58  72
ATOM     72  C   UNL A   1      44.233  32.093  27.663  1.00  0.00    -0.014 A 
ATOM     73  C   UNL A   1      43.639  33.163  28.359  1.00  0.00     0.009 A 
ATOM     74  C   UNL A   1      44.511  32.311  26.300  1.00  0.00     0.009 A 
ATOM     75  C   UNL A   1      43.255  34.339  27.703  1.00  0.00     0.001 A 
ATOM     76  C   UNL A   1      44.171  33.501  25.652  1.00  0.00     0.001 A 
ATOM     77  C   UNL A   1      43.509  34.503  26.345  1.00  0.00     0.000 A 
ENDBRANCH  58  72
BRANCH  59  78
ATOM     78  C   UNL A   1      37.070  31.277  32.106  1.00  0.00    -0.014 A 
ATOM     79  C   UNL A   1      36.729  31.958  33.286  1.00  0.00     0.009 A 
ATOM     80  C   UNL A   1      36.222  31.428  30.994  1.00  0.00     0.009 A 
ATOM     81  C   UNL A   1      35.609  32.799  33.334  1.00  0.00     0.001 A 
ATOM     82  C   UNL A   1      35.101  32.265  31.044  1.00  0.00     0.001 A 
ATOM     83  C   UNL A   1      34.807  32.965  32.209  1.00  0.00     0.000 A 
ENDBRANCH  59  78
BRANCH  71  84
ATOM     84  C   UNL A   1      42.829  29.716  33.817  1.00  0.00    -0.014 A 
ATOM     85  C   UNL A   1      42.295  28.414  33.783  1.00  0.00     0.009 A 
ATOM     86  C   UNL A   1      43.456  30.140  34.997  1.00  0.00     0.009 A 
ATOM     87  C   UNL A   1      42.344  27.586  34.908  1.00  0.00     0.001 A 
ATOM     88  C   UNL A   1      43.528  29.304  36.114  1.00  0.00     0.001 A 
ATOM     89  C   UNL A   1      42.962  28.031  36.074  1.00  0.00     0.000 A 
ENDBRANCH  71  84
ENDBRANCH  45  46
ENDBRANCH  37  40
ENDBRANCH  35  36
ENDBRANCH  34  35
ENDBRANCH  33  34
ENDBRANCH   1  33
TORSDOF 16
ENDMDL
MODEL 3
REMARK VINA RESULT:     -12.2      3.285      9.155
REMARK SMILES Cc1c(-c2nn(-c3ccccc3)cc2/C=N/O)nnn1-c1ccc(C(=O)NCCCCNC(=O)c2ccc(-c3c4nc(c(-c5ccccc5)c5ccc([nH]5)c(-c5ccccc5)c5nc(c(-c6ccccc6)c6ccc3[nH]6)C=C5)C=C4)cc2)cc1
REMARK SMILES IDX 28 1 27 2 25 3 26 4 24 6 21 7 22 8 84 9 23 10 83 11 20 12
REMARK SMILES IDX 1 13 2 14 3 15 18 16 19 17 4 18 5 19 14 20 6 21 13 22 15 23
REMARK SMILES IDX 16 24 17 25 7 27 8 28 12 29 9 30 11 31 10 32 29 33 30 34
REMARK SMILES IDX 31 35 32 36 33 37 34 39 35 40 36 41 82 42 37 43 81 44 38 45
REMARK SMILES IDX 39 46 40 47 75 48 41 49 80 50 74 51 76 52 42 53 79 54 73 55
REMARK SMILES IDX 72 56 43 58 65 59 50 60 64 61 51 62 54 63 63 64 77 65 52 66
REMARK SMILES IDX 53 67 62 69 78 70 55 71 44 72 45 73 49 74 46 75 48 76 47 77
REMARK SMILES IDX 66 78 67 79 71 80 68 81 70 82 69 83 56 84 57 85 61 86 58 87
REMARK SMILES IDX 60 88 59 89
REMARK H PARENT 27 5 17 26 32 38 76 57 54 68
REMARK Flexibility Score: inf
ROOT
ATOM      1  C   UNL A   1      34.583  32.960  30.750  1.00  0.00     0.116 C 
ENDROOT
BRANCH   1   2
ATOM      2  N   UNL A   1      34.753  33.547  29.436  1.00  0.00    -0.352 N 
ATOM      3  C   UNL A   1      34.575  33.088  28.156  1.00  0.00     0.251 C 
ATOM      4  O   UNL A   1      34.784  33.903  27.254  1.00  0.00    -0.269 OA
ATOM      5  H   UNL A   1      35.067  34.480  29.470  1.00  0.00     0.163 HD
BRANCH   3   6
ATOM      6  C   UNL A   1      34.113  31.713  27.792  1.00  0.00     0.039 A 
ATOM      7  C   UNL A   1      33.015  29.201  27.118  1.00  0.00     0.067 A 
ATOM      8  C   UNL A   1      32.272  30.361  26.897  1.00  0.00     0.029 A 
ATOM      9  C   UNL A   1      34.320  29.292  27.612  1.00  0.00     0.029 A 
ATOM     10  C   UNL A   1      32.810  31.600  27.266  1.00  0.00     0.016 A 
ATOM     11  C   UNL A   1      34.875  30.546  27.900  1.00  0.00     0.016 A 
BRANCH   7  12
ATOM     12  N   UNL A   1      32.468  27.941  26.792  1.00  0.00    -0.217 N 
ATOM     13  C   UNL A   1      34.029  27.192  24.932  1.00  0.00     0.069 C 
ATOM     14  C   UNL A   1      32.795  27.097  25.748  1.00  0.00     0.071 A 
ATOM     15  C   UNL A   1      31.786  26.155  25.777  1.00  0.00     0.137 A 
ATOM     16  N   UNL A   1      30.984  26.360  26.861  1.00  0.00    -0.128 NA
ATOM     17  N   UNL A   1      31.459  27.409  27.523  1.00  0.00    -0.061 NA
BRANCH  15  18
ATOM     18  C   UNL A   1      31.604  25.005  24.903  1.00  0.00     0.124 A 
ATOM     19  N   UNL A   1      31.920  23.767  25.300  1.00  0.00    -0.165 NA
ATOM     20  C   UNL A   1      31.149  25.044  23.564  1.00  0.00     0.044 A 
ATOM     21  N   UNL A   1      31.779  23.010  24.193  1.00  0.00    -0.240 N 
ATOM     22  C   UNL A   1      31.314  23.744  23.125  1.00  0.00     0.125 A 
BRANCH  20  23
ATOM     23  C   UNL A   1      30.629  26.121  22.758  1.00  0.00     0.166 C 
ATOM     24  N   UNL A   1      31.408  27.072  22.362  1.00  0.00    -0.097 NA
BRANCH  24  25
ATOM     25  O   UNL A   1      30.659  28.001  21.629  1.00  0.00    -0.411 OA
ATOM     26  H   UNL A   1      29.767  28.170  21.860  1.00  0.00     0.330 HD
ENDBRANCH  24  25
ENDBRANCH  20  23
BRANCH  21  27
ATOM     27  C   UNL A   1      32.135  21.642  24.208  1.00  0.00     0.065 A 
ATOM     28  C   UNL A   1      32.540  21.056  25.413  1.00  0.00     0.028 A 
ATOM     29  C   UNL A   1      32.114  20.889  23.028  1.00  0.00     0.028 A 
ATOM     30  C   UNL A   1      32.902  19.710  25.442  1.00  0.00     0.002 A 
ATOM     31  C   UNL A   1      32.529  19.556  23.057  1.00  0.00     0.002 A 
ATOM     32  C   UNL A   1      32.911  18.965  24.262  1.00  0.00     0.000 A 
ENDBRANCH  21  27
ENDBRANCH  15  18
ENDBRANCH   7  12
ENDBRANCH   3   6
ENDBRANCH   1   2
BRANCH   1  33
ATOM     33  C   UNL A   1      35.727  32.001  31.098  1.00  0.00     0.023 C 
BRANCH  33  34
ATOM     34  C   UNL A   1      36.868  32.615  31.927  1.00  0.00     0.023 C 
BRANCH  34  35
ATOM     35  C   UNL A   1      37.936  33.359  31.127  1.00  0.00     0.116 C 
BRANCH  35  36
ATOM     36  N   UNL A   1      38.998  33.921  31.967  1.00  0.00    -0.352 N 
ATOM     37  C   UNL A   1      40.106  33.290  32.505  1.00  0.00     0.251 C 
ATOM     38  H   UNL A   1      38.910  34.878  32.178  1.00  0.00     0.163 HD
ATOM     39  O   UNL A   1      40.685  33.750  33.478  1.00  0.00    -0.269 OA
BRANCH  37  40
ATOM     40  C   UNL A   1      40.604  32.063  31.861  1.00  0.00     0.039 A 
ATOM     41  C   UNL A   1      41.599  32.084  30.879  1.00  0.00     0.014 A 
ATOM     42  C   UNL A   1      40.051  30.860  32.285  1.00  0.00     0.014 A 
ATOM     43  C   UNL A   1      42.090  30.874  30.392  1.00  0.00     0.010 A 
ATOM     44  C   UNL A   1      40.641  29.678  31.933  1.00  0.00     0.010 A 
ATOM     45  C   UNL A   1      41.612  29.673  30.938  1.00  0.00    -0.014 A 
BRANCH  45  46
ATOM     46  C   UNL A   1      42.173  28.381  30.568  1.00  0.00     0.031 A 
ATOM     47  C   UNL A   1      42.963  27.712  31.633  1.00  0.00     0.074 A 
ATOM     48  C   UNL A   1      41.756  27.710  29.472  1.00  0.00     0.049 A 
ATOM     49  N   UNL A   1      44.228  27.457  31.636  1.00  0.00    -0.248 NA
ATOM     50  C   UNL A   1      42.286  27.392  32.902  1.00  0.00     0.031 C 
ATOM     51  C   UNL A   1      40.703  28.098  28.523  1.00  0.00     0.029 A 
ATOM     52  N   UNL A   1      42.081  26.458  29.057  1.00  0.00    -0.354 N 
ATOM     53  C   UNL A   1      44.471  26.751  32.812  1.00  0.00     0.074 A 
ATOM     54  C   UNL A   1      43.300  26.928  33.633  1.00  0.00     0.031 C 
ATOM     55  C   UNL A   1      40.309  27.015  27.818  1.00  0.00     0.029 A 
ATOM     56  C   UNL A   1      41.193  25.910  28.137  1.00  0.00     0.049 A 
ATOM     57  H   UNL A   1      42.877  25.978  29.380  1.00  0.00     0.167 HD
ATOM     58  C   UNL A   1      45.488  25.848  32.898  1.00  0.00     0.031 A 
ATOM     59  C   UNL A   1      41.164  24.628  27.698  1.00  0.00     0.031 A 
ATOM     60  C   UNL A   1      46.401  25.974  31.788  1.00  0.00     0.049 A 
ATOM     61  C   UNL A   1      42.479  24.023  28.009  1.00  0.00     0.074 A 
ATOM     62  C   UNL A   1      47.176  26.993  31.267  1.00  0.00     0.029 A 
ATOM     63  N   UNL A   1      46.295  25.037  30.787  1.00  0.00    -0.354 N 
ATOM     64  N   UNL A   1      43.586  24.379  27.428  1.00  0.00    -0.248 NA
ATOM     65  C   UNL A   1      42.635  23.339  29.283  1.00  0.00     0.031 C 
ATOM     66  C   UNL A   1      47.071  26.845  29.851  1.00  0.00     0.029 A 
ATOM     67  C   UNL A   1      46.311  25.702  29.589  1.00  0.00     0.049 A 
ATOM     68  H   UNL A   1      46.221  24.062  30.909  1.00  0.00     0.167 HD
ATOM     69  C   UNL A   1      44.526  24.396  28.448  1.00  0.00     0.074 A 
ATOM     70  C   UNL A   1      43.914  23.631  29.535  1.00  0.00     0.031 C 
ATOM     71  C   UNL A   1      45.574  25.274  28.423  1.00  0.00     0.031 A 
BRANCH  58  72
ATOM     72  C   UNL A   1      45.417  24.574  33.714  1.00  0.00    -0.014 A 
ATOM     73  C   UNL A   1      46.558  24.179  34.438  1.00  0.00     0.009 A 
ATOM     74  C   UNL A   1      44.399  23.611  33.576  1.00  0.00     0.009 A 
ATOM     75  C   UNL A   1      46.711  22.867  34.903  1.00  0.00     0.001 A 
ATOM     76  C   UNL A   1      44.529  22.314  34.079  1.00  0.00     0.001 A 
ATOM     77  C   UNL A   1      45.701  21.931  34.712  1.00  0.00     0.000 A 
ENDBRANCH  58  72
BRANCH  59  78
ATOM     78  C   UNL A   1      40.024  23.815  27.229  1.00  0.00    -0.014 A 
ATOM     79  C   UNL A   1      38.813  24.425  26.863  1.00  0.00     0.009 A 
ATOM     80  C   UNL A   1      40.212  22.467  26.875  1.00  0.00     0.009 A 
ATOM     81  C   UNL A   1      37.849  23.727  26.125  1.00  0.00     0.001 A 
ATOM     82  C   UNL A   1      39.247  21.768  26.141  1.00  0.00     0.001 A 
ATOM     83  C   UNL A   1      38.073  22.405  25.751  1.00  0.00     0.000 A 
ENDBRANCH  59  78
BRANCH  71  84
ATOM     84  C   UNL A   1      45.819  26.038  27.143  1.00  0.00    -0.014 A 
ATOM     85  C   UNL A   1      46.719  25.616  26.146  1.00  0.00     0.009 A 
ATOM     86  C   UNL A   1      45.025  27.163  26.879  1.00  0.00     0.009 A 
ATOM     87  C   UNL A   1      46.855  26.328  24.950  1.00  0.00     0.001 A 
ATOM     88  C   UNL A   1      45.142  27.860  25.674  1.00  0.00     0.001 A 
ATOM     89  C   UNL A   1      46.064  27.450  24.714  1.00  0.00     0.000 A 
ENDBRANCH  71  84
ENDBRANCH  45  46
ENDBRANCH  37  40
ENDBRANCH  35  36
ENDBRANCH  34  35
ENDBRANCH  33  34
ENDBRANCH   1  33
TORSDOF 16
ENDMDL
