MODEL 1
REMARK VINA RESULT:     -11.1      0.000      0.000
REMARK SMILES CC(C)[NH2+][C@]1(C(=O)NCCCCNC(=O)c2ccc(-c3c4nc(c(-c5ccccc5)c5ccc([nH]5)c(-c5ccccc5)c5nc(c(-c6ccccc6)c6ccc3[nH]6)C=C5)C=C4)cc2)CCC[C@@H]1CCSc1cnccn1
REMARK SMILES IDX 9 1 8 2 6 3 7 4 5 6 64 7 67 8 65 9 66 10 4 11 2 14 1 15 3 16
REMARK SMILES IDX 68 17 69 18 70 19 71 20 72 21 76 22 73 23 75 24 74 25 10 26
REMARK SMILES IDX 11 27 12 28 13 29 14 30 15 32 16 33 17 34 63 35 18 36 62 37
REMARK SMILES IDX 19 38 20 39 21 40 56 41 22 42 61 43 55 44 57 45 23 46 60 47
REMARK SMILES IDX 54 48 53 49 24 51 46 52 31 53 45 54 32 55 35 56 44 57 58 58
REMARK SMILES IDX 33 59 34 60 43 62 59 63 36 64 25 65 26 66 30 67 27 68 29 69
REMARK SMILES IDX 28 70 47 71 48 72 52 73 49 74 51 75 50 76 37 77 38 78 42 79
REMARK SMILES IDX 39 80 41 81 40 82
REMARK H PARENT 8 5 4 12 4 13 13 31 57 50 35 61
REMARK Flexibility Score: inf
ROOT
ATOM      1  C   UNL A   1      33.282  29.636  26.413  1.00  0.00     0.116 C 
ENDROOT
BRANCH   1   2
ATOM      2  N   UNL A   1      33.574  29.672  24.994  1.00  0.00    -0.351 N 
ATOM      3  C   UNL A   1      33.369  28.740  24.016  1.00  0.00     0.281 C 
ATOM      4  O   UNL A   1      33.575  29.137  22.863  1.00  0.00    -0.268 OA
ATOM      5  H   UNL A   1      33.990  30.508  24.682  1.00  0.00     0.163 HD
BRANCH   3   6
ATOM      6  C   UNL A   1      33.004  27.224  24.321  1.00  0.00     0.178 C 
ATOM      7  C   UNL A   1      33.690  26.832  25.663  1.00  0.00     0.079 C 
ATOM      8  C   UNL A   1      31.471  27.218  24.720  1.00  0.00     0.061 C 
ATOM      9  C   UNL A   1      32.706  25.911  26.360  1.00  0.00     0.008 C 
ATOM     10  C   UNL A   1      31.371  26.583  26.110  1.00  0.00     0.011 C 
BRANCH   6  11
ATOM     11  N   UNL A   1      33.571  26.395  23.243  1.00  0.00    -0.331 N 
ATOM     12  H   UNL A   1      33.732  27.027  22.458  1.00  0.00     0.347 HD
ATOM     13  H   UNL A   1      34.362  25.959  23.716  1.00  0.00     0.347 HD
BRANCH  11  14
ATOM     14  C   UNL A   1      32.889  25.241  22.694  1.00  0.00     0.176 C 
ATOM     15  C   UNL A   1      32.694  25.532  21.197  1.00  0.00     0.075 C 
ATOM     16  C   UNL A   1      33.684  23.944  22.832  1.00  0.00     0.075 C 
ENDBRANCH  11  14
ENDBRANCH   6  11
BRANCH   8  17
ATOM     17  C   UNL A   1      30.316  26.938  23.732  1.00  0.00     0.022 C 
BRANCH  17  18
ATOM     18  C   UNL A   1      29.704  27.970  22.773  1.00  0.00     0.077 C 
BRANCH  18  19
ATOM     19  S   UNL A   1      27.973  28.500  23.045  1.00  0.00    -0.105 SA
BRANCH  19  20
ATOM     20  C   UNL A   1      27.958  30.163  22.428  1.00  0.00     0.114 A 
ATOM     21  C   UNL A   1      27.800  31.293  23.221  1.00  0.00     0.146 A 
ATOM     22  N   UNL A   1      28.114  30.283  21.087  1.00  0.00    -0.247 NA
ATOM     23  N   UNL A   1      27.871  32.562  22.734  1.00  0.00    -0.260 NA
ATOM     24  C   UNL A   1      28.182  31.538  20.595  1.00  0.00     0.132 A 
ATOM     25  C   UNL A   1      28.073  32.655  21.401  1.00  0.00     0.131 A 
ENDBRANCH  19  20
ENDBRANCH  18  19
ENDBRANCH  17  18
ENDBRANCH   8  17
ENDBRANCH   3   6
ENDBRANCH   1   2
BRANCH   1  26
ATOM     26  C   UNL A   1      31.886  30.129  26.767  1.00  0.00     0.023 C 
BRANCH  26  27
ATOM     27  C   UNL A   1      31.687  31.640  26.803  1.00  0.00     0.023 C 
BRANCH  27  28
ATOM     28  C   UNL A   1      32.866  32.456  27.313  1.00  0.00     0.116 C 
BRANCH  28  29
ATOM     29  N   UNL A   1      32.516  33.808  27.717  1.00  0.00    -0.352 N 
ATOM     30  C   UNL A   1      33.171  34.649  28.590  1.00  0.00     0.251 C 
ATOM     31  H   UNL A   1      31.698  34.174  27.311  1.00  0.00     0.163 HD
ATOM     32  O   UNL A   1      32.712  35.744  28.871  1.00  0.00    -0.269 OA
BRANCH  30  33
ATOM     33  C   UNL A   1      34.421  34.181  29.224  1.00  0.00     0.039 A 
ATOM     34  C   UNL A   1      34.337  33.426  30.396  1.00  0.00     0.014 A 
ATOM     35  C   UNL A   1      35.657  34.423  28.619  1.00  0.00     0.014 A 
ATOM     36  C   UNL A   1      35.488  32.835  30.915  1.00  0.00     0.010 A 
ATOM     37  C   UNL A   1      36.789  33.771  29.094  1.00  0.00     0.010 A 
ATOM     38  C   UNL A   1      36.714  32.966  30.241  1.00  0.00    -0.014 A 
BRANCH  38  39
ATOM     39  C   UNL A   1      37.930  32.260  30.715  1.00  0.00     0.031 A 
ATOM     40  C   UNL A   1      38.731  32.831  31.850  1.00  0.00     0.074 A 
ATOM     41  C   UNL A   1      38.351  31.151  30.078  1.00  0.00     0.049 A 
ATOM     42  N   UNL A   1      39.855  32.401  32.365  1.00  0.00    -0.248 NA
ATOM     43  C   UNL A   1      38.217  34.064  32.469  1.00  0.00     0.031 C 
ATOM     44  C   UNL A   1      37.690  30.525  28.930  1.00  0.00     0.029 A 
ATOM     45  N   UNL A   1      39.445  30.354  30.305  1.00  0.00    -0.354 N 
ATOM     46  C   UNL A   1      40.193  33.321  33.349  1.00  0.00     0.074 A 
ATOM     47  C   UNL A   1      39.184  34.357  33.327  1.00  0.00     0.031 C 
ATOM     48  C   UNL A   1      38.377  29.428  28.571  1.00  0.00     0.029 A 
ATOM     49  C   UNL A   1      39.541  29.291  29.439  1.00  0.00     0.049 A 
ATOM     50  H   UNL A   1      40.099  30.527  31.019  1.00  0.00     0.167 HD
ATOM     51  C   UNL A   1      41.238  33.296  34.209  1.00  0.00     0.031 A 
ATOM     52  C   UNL A   1      40.466  28.317  29.354  1.00  0.00     0.031 A 
ATOM     53  C   UNL A   1      42.229  32.256  34.245  1.00  0.00     0.049 A 
ATOM     54  C   UNL A   1      41.610  28.303  30.328  1.00  0.00     0.074 A 
ATOM     55  C   UNL A   1      43.292  32.107  35.119  1.00  0.00     0.029 A 
ATOM     56  N   UNL A   1      42.277  31.184  33.368  1.00  0.00    -0.354 N 
ATOM     57  N   UNL A   1      41.877  29.144  31.298  1.00  0.00    -0.248 NA
ATOM     58  C   UNL A   1      42.572  27.199  30.204  1.00  0.00     0.031 C 
ATOM     59  C   UNL A   1      44.005  30.964  34.746  1.00  0.00     0.029 A 
ATOM     60  C   UNL A   1      43.360  30.377  33.668  1.00  0.00     0.049 A 
ATOM     61  H   UNL A   1      41.636  31.021  32.639  1.00  0.00     0.167 HD
ATOM     62  C   UNL A   1      43.022  28.657  31.915  1.00  0.00     0.074 A 
ATOM     63  C   UNL A   1      43.389  27.441  31.219  1.00  0.00     0.031 C 
ATOM     64  C   UNL A   1      43.708  29.171  32.965  1.00  0.00     0.031 A 
BRANCH  51  65
ATOM     65  C   UNL A   1      41.354  34.436  35.181  1.00  0.00    -0.014 A 
ATOM     66  C   UNL A   1      40.692  34.403  36.420  1.00  0.00     0.009 A 
ATOM     67  C   UNL A   1      42.145  35.550  34.862  1.00  0.00     0.009 A 
ATOM     68  C   UNL A   1      40.790  35.480  37.301  1.00  0.00     0.001 A 
ATOM     69  C   UNL A   1      42.262  36.613  35.759  1.00  0.00     0.001 A 
ATOM     70  C   UNL A   1      41.577  36.582  36.972  1.00  0.00     0.000 A 
ENDBRANCH  51  65
BRANCH  52  71
ATOM     71  C   UNL A   1      40.337  27.254  28.323  1.00  0.00    -0.014 A 
ATOM     72  C   UNL A   1      39.594  26.094  28.591  1.00  0.00     0.009 A 
ATOM     73  C   UNL A   1      40.956  27.391  27.071  1.00  0.00     0.009 A 
ATOM     74  C   UNL A   1      39.495  25.081  27.635  1.00  0.00     0.001 A 
ATOM     75  C   UNL A   1      40.834  26.386  26.109  1.00  0.00     0.001 A 
ATOM     76  C   UNL A   1      40.112  25.229  26.394  1.00  0.00     0.000 A 
ENDBRANCH  52  71
BRANCH  64  77
ATOM     77  C   UNL A   1      44.904  28.402  33.443  1.00  0.00    -0.014 A 
ATOM     78  C   UNL A   1      44.779  27.386  34.403  1.00  0.00     0.009 A 
ATOM     79  C   UNL A   1      46.167  28.669  32.892  1.00  0.00     0.009 A 
ATOM     80  C   UNL A   1      45.902  26.673  34.823  1.00  0.00     0.001 A 
ATOM     81  C   UNL A   1      47.284  27.936  33.297  1.00  0.00     0.001 A 
ATOM     82  C   UNL A   1      47.151  26.945  34.267  1.00  0.00     0.000 A 
ENDBRANCH  64  77
ENDBRANCH  38  39
ENDBRANCH  30  33
ENDBRANCH  28  29
ENDBRANCH  27  28
ENDBRANCH  26  27
ENDBRANCH   1  26
TORSDOF 17
ENDMDL
MODEL 2
REMARK VINA RESULT:     -11.0      4.876      9.780
REMARK SMILES CC(C)[NH2+][C@]1(C(=O)NCCCCNC(=O)c2ccc(-c3c4nc(c(-c5ccccc5)c5ccc([nH]5)c(-c5ccccc5)c5nc(c(-c6ccccc6)c6ccc3[nH]6)C=C5)C=C4)cc2)CCC[C@@H]1CCSc1cnccn1
REMARK SMILES IDX 9 1 8 2 6 3 7 4 5 6 64 7 67 8 65 9 66 10 4 11 2 14 1 15 3 16
REMARK SMILES IDX 68 17 69 18 70 19 71 20 72 21 76 22 73 23 75 24 74 25 10 26
REMARK SMILES IDX 11 27 12 28 13 29 14 30 15 32 16 33 17 34 63 35 18 36 62 37
REMARK SMILES IDX 19 38 20 39 21 40 56 41 22 42 61 43 55 44 57 45 23 46 60 47
REMARK SMILES IDX 54 48 53 49 24 51 46 52 31 53 45 54 32 55 35 56 44 57 58 58
REMARK SMILES IDX 33 59 34 60 43 62 59 63 36 64 25 65 26 66 30 67 27 68 29 69
REMARK SMILES IDX 28 70 47 71 48 72 52 73 49 74 51 75 50 76 37 77 38 78 42 79
REMARK SMILES IDX 39 80 41 81 40 82
REMARK H PARENT 8 5 4 12 4 13 13 31 57 50 35 61
REMARK Flexibility Score: inf
ROOT
ATOM      1  C   UNL A   1      36.663  23.259  25.225  1.00  0.00     0.116 C 
ENDROOT
BRANCH   1   2
ATOM      2  N   UNL A   1      35.866  22.795  26.344  1.00  0.00    -0.351 N 
ATOM      3  C   UNL A   1      34.517  22.830  26.554  1.00  0.00     0.281 C 
ATOM      4  O   UNL A   1      34.125  22.199  27.543  1.00  0.00    -0.268 OA
ATOM      5  H   UNL A   1      36.385  22.387  27.074  1.00  0.00     0.163 HD
BRANCH   3   6
ATOM      6  C   UNL A   1      33.521  23.701  25.674  1.00  0.00     0.178 C 
ATOM      7  C   UNL A   1      34.253  25.022  25.298  1.00  0.00     0.079 C 
ATOM      8  C   UNL A   1      33.422  22.967  24.274  1.00  0.00     0.061 C 
ATOM      9  C   UNL A   1      33.803  25.339  23.884  1.00  0.00     0.008 C 
ATOM     10  C   UNL A   1      33.828  23.985  23.204  1.00  0.00     0.011 C 
BRANCH   6  11
ATOM     11  N   UNL A   1      32.351  24.032  26.508  1.00  0.00    -0.331 N 
ATOM     12  H   UNL A   1      32.303  23.309  27.225  1.00  0.00     0.347 HD
ATOM     13  H   UNL A   1      32.555  24.997  26.770  1.00  0.00     0.347 HD
BRANCH  11  14
ATOM     14  C   UNL A   1      31.010  24.155  25.972  1.00  0.00     0.176 C 
ATOM     15  C   UNL A   1      30.110  23.297  26.875  1.00  0.00     0.075 C 
ATOM     16  C   UNL A   1      30.480  25.587  25.985  1.00  0.00     0.075 C 
ENDBRANCH  11  14
ENDBRANCH   6  11
BRANCH   8  17
ATOM     17  C   UNL A   1      32.319  21.952  23.900  1.00  0.00     0.022 C 
BRANCH  17  18
ATOM     18  C   UNL A   1      32.463  20.425  23.968  1.00  0.00     0.077 C 
BRANCH  18  19
ATOM     19  S   UNL A   1      34.016  19.720  24.634  1.00  0.00    -0.105 SA
BRANCH  19  20
ATOM     20  C   UNL A   1      33.636  17.996  24.806  1.00  0.00     0.114 A 
ATOM     21  C   UNL A   1      34.417  16.966  24.295  1.00  0.00     0.146 A 
ATOM     22  N   UNL A   1      32.497  17.720  25.487  1.00  0.00    -0.247 NA
ATOM     23  N   UNL A   1      34.146  15.649  24.507  1.00  0.00    -0.260 NA
ATOM     24  C   UNL A   1      32.220  16.416  25.700  1.00  0.00     0.132 A 
ATOM     25  C   UNL A   1      33.030  15.401  25.229  1.00  0.00     0.131 A 
ENDBRANCH  19  20
ENDBRANCH  18  19
ENDBRANCH  17  18
ENDBRANCH   8  17
ENDBRANCH   3   6
ENDBRANCH   1   2
BRANCH   1  26
ATOM     26  C   UNL A   1      37.045  22.158  24.245  1.00  0.00     0.023 C 
BRANCH  26  27
ATOM     27  C   UNL A   1      37.581  20.865  24.850  1.00  0.00     0.023 C 
BRANCH  27  28
ATOM     28  C   UNL A   1      38.794  21.006  25.759  1.00  0.00     0.116 C 
BRANCH  28  29
ATOM     29  N   UNL A   1      39.699  19.870  25.714  1.00  0.00    -0.352 N 
ATOM     30  C   UNL A   1      41.027  19.804  26.077  1.00  0.00     0.251 C 
ATOM     31  H   UNL A   1      39.311  19.031  25.377  1.00  0.00     0.163 HD
ATOM     32  O   UNL A   1      41.670  18.778  25.923  1.00  0.00    -0.269 OA
BRANCH  30  33
ATOM     33  C   UNL A   1      41.678  21.016  26.613  1.00  0.00     0.039 A 
ATOM     34  C   UNL A   1      42.188  21.957  25.715  1.00  0.00     0.014 A 
ATOM     35  C   UNL A   1      41.711  21.255  27.990  1.00  0.00     0.014 A 
ATOM     36  C   UNL A   1      42.652  23.181  26.195  1.00  0.00     0.010 A 
ATOM     37  C   UNL A   1      42.101  22.504  28.457  1.00  0.00     0.010 A 
ATOM     38  C   UNL A   1      42.569  23.480  27.565  1.00  0.00    -0.014 A 
BRANCH  38  39
ATOM     39  C   UNL A   1      42.959  24.814  28.084  1.00  0.00     0.031 A 
ATOM     40  C   UNL A   1      41.907  25.858  28.333  1.00  0.00     0.074 A 
ATOM     41  C   UNL A   1      44.261  25.109  28.260  1.00  0.00     0.049 A 
ATOM     42  N   UNL A   1      42.051  27.099  28.721  1.00  0.00    -0.248 NA
ATOM     43  C   UNL A   1      40.511  25.462  28.084  1.00  0.00     0.031 C 
ATOM     44  C   UNL A   1      45.382  24.201  28.006  1.00  0.00     0.029 A 
ATOM     45  N   UNL A   1      44.863  26.265  28.691  1.00  0.00    -0.354 N 
ATOM     46  C   UNL A   1      40.771  27.637  28.740  1.00  0.00     0.074 A 
ATOM     47  C   UNL A   1      39.869  26.605  28.278  1.00  0.00     0.031 C 
ATOM     48  C   UNL A   1      46.532  24.824  28.310  1.00  0.00     0.029 A 
ATOM     49  C   UNL A   1      46.234  26.183  28.749  1.00  0.00     0.049 A 
ATOM     50  H   UNL A   1      44.362  27.075  28.935  1.00  0.00     0.167 HD
ATOM     51  C   UNL A   1      40.378  28.873  29.128  1.00  0.00     0.031 A 
ATOM     52  C   UNL A   1      47.147  27.102  29.113  1.00  0.00     0.031 A 
ATOM     53  C   UNL A   1      41.271  29.892  29.606  1.00  0.00     0.049 A 
ATOM     54  C   UNL A   1      46.685  28.463  29.552  1.00  0.00     0.074 A 
ATOM     55  C   UNL A   1      40.964  31.155  30.081  1.00  0.00     0.029 A 
ATOM     56  N   UNL A   1      42.649  29.761  29.673  1.00  0.00    -0.354 N 
ATOM     57  N   UNL A   1      45.464  28.934  29.630  1.00  0.00    -0.248 NA
ATOM     58  C   UNL A   1      47.726  29.415  29.964  1.00  0.00     0.031 C 
ATOM     59  C   UNL A   1      42.161  31.803  30.400  1.00  0.00     0.029 A 
ATOM     60  C   UNL A   1      43.210  30.926  30.166  1.00  0.00     0.049 A 
ATOM     61  H   UNL A   1      43.154  28.959  29.409  1.00  0.00     0.167 HD
ATOM     62  C   UNL A   1      45.588  30.226  30.124  1.00  0.00     0.074 A 
ATOM     63  C   UNL A   1      47.001  30.459  30.340  1.00  0.00     0.031 C 
ATOM     64  C   UNL A   1      44.618  31.138  30.376  1.00  0.00     0.031 A 
BRANCH  51  65
ATOM     65  C   UNL A   1      38.910  29.182  29.045  1.00  0.00    -0.014 A 
ATOM     66  C   UNL A   1      38.070  29.019  30.160  1.00  0.00     0.009 A 
ATOM     67  C   UNL A   1      38.361  29.658  27.845  1.00  0.00     0.009 A 
ATOM     68  C   UNL A   1      36.704  29.287  30.061  1.00  0.00     0.001 A 
ATOM     69  C   UNL A   1      36.999  29.951  27.758  1.00  0.00     0.001 A 
ATOM     70  C   UNL A   1      36.171  29.756  28.862  1.00  0.00     0.000 A 
ENDBRANCH  51  65
BRANCH  52  71
ATOM     71  C   UNL A   1      48.593  26.760  29.106  1.00  0.00    -0.014 A 
ATOM     72  C   UNL A   1      49.202  26.233  30.255  1.00  0.00     0.009 A 
ATOM     73  C   UNL A   1      49.372  26.962  27.956  1.00  0.00     0.009 A 
ATOM     74  C   UNL A   1      50.567  25.938  30.259  1.00  0.00     0.001 A 
ATOM     75  C   UNL A   1      50.731  26.642  27.957  1.00  0.00     0.001 A 
ATOM     76  C   UNL A   1      51.330  26.139  29.110  1.00  0.00     0.000 A 
ENDBRANCH  52  71
BRANCH  64  77
ATOM     77  C   UNL A   1      45.050  32.458  30.944  1.00  0.00    -0.014 A 
ATOM     78  C   UNL A   1      45.309  33.558  30.112  1.00  0.00     0.009 A 
ATOM     79  C   UNL A   1      45.158  32.613  32.335  1.00  0.00     0.009 A 
ATOM     80  C   UNL A   1      45.695  34.780  30.663  1.00  0.00     0.001 A 
ATOM     81  C   UNL A   1      45.521  33.844  32.883  1.00  0.00     0.001 A 
ATOM     82  C   UNL A   1      45.797  34.924  32.046  1.00  0.00     0.000 A 
ENDBRANCH  64  77
ENDBRANCH  38  39
ENDBRANCH  30  33
ENDBRANCH  28  29
ENDBRANCH  27  28
ENDBRANCH  26  27
ENDBRANCH   1  26
TORSDOF 17
ENDMDL
MODEL 3
REMARK VINA RESULT:     -10.5      1.643      6.997
REMARK SMILES CC(C)[NH2+][C@]1(C(=O)NCCCCNC(=O)c2ccc(-c3c4nc(c(-c5ccccc5)c5ccc([nH]5)c(-c5ccccc5)c5nc(c(-c6ccccc6)c6ccc3[nH]6)C=C5)C=C4)cc2)CCC[C@@H]1CCSc1cnccn1
REMARK SMILES IDX 9 1 8 2 6 3 7 4 5 6 64 7 67 8 65 9 66 10 4 11 2 14 1 15 3 16
REMARK SMILES IDX 68 17 69 18 70 19 71 20 72 21 76 22 73 23 75 24 74 25 10 26
REMARK SMILES IDX 11 27 12 28 13 29 14 30 15 32 16 33 17 34 63 35 18 36 62 37
REMARK SMILES IDX 19 38 20 39 21 40 56 41 22 42 61 43 55 44 57 45 23 46 60 47
REMARK SMILES IDX 54 48 53 49 24 51 46 52 31 53 45 54 32 55 35 56 44 57 58 58
REMARK SMILES IDX 33 59 34 60 43 62 59 63 36 64 25 65 26 66 30 67 27 68 29 69
REMARK SMILES IDX 28 70 47 71 48 72 52 73 49 74 51 75 50 76 37 77 38 78 42 79
REMARK SMILES IDX 39 80 41 81 40 82
REMARK H PARENT 8 5 4 12 4 13 13 31 57 50 35 61
REMARK Flexibility Score: inf
ROOT
ATOM      1  C   UNL A   1      33.126  29.061  25.534  1.00  0.00     0.116 C 
ENDROOT
BRANCH   1   2
ATOM      2  N   UNL A   1      33.802  29.029  24.252  1.00  0.00    -0.351 N 
ATOM      3  C   UNL A   1      33.645  28.197  23.180  1.00  0.00     0.281 C 
ATOM      4  O   UNL A   1      34.260  28.533  22.161  1.00  0.00    -0.268 OA
ATOM      5  H   UNL A   1      34.490  29.724  24.134  1.00  0.00     0.163 HD
BRANCH   3   6
ATOM      6  C   UNL A   1      32.830  26.834  23.248  1.00  0.00     0.178 C 
ATOM      7  C   UNL A   1      32.699  26.288  21.796  1.00  0.00     0.079 C 
ATOM      8  C   UNL A   1      33.805  25.777  23.912  1.00  0.00     0.061 C 
ATOM      9  C   UNL A   1      32.815  24.780  21.925  1.00  0.00     0.008 C 
ATOM     10  C   UNL A   1      33.934  24.607  22.932  1.00  0.00     0.011 C 
BRANCH   6  11
ATOM     11  N   UNL A   1      31.482  27.137  23.760  1.00  0.00    -0.331 N 
ATOM     12  H   UNL A   1      31.251  26.383  24.406  1.00  0.00     0.347 HD
ATOM     13  H   UNL A   1      31.605  28.087  24.109  1.00  0.00     0.347 HD
BRANCH  11  14
ATOM     14  C   UNL A   1      30.327  27.292  22.897  1.00  0.00     0.176 C 
ATOM     15  C   UNL A   1      29.147  26.651  23.645  1.00  0.00     0.075 C 
ATOM     16  C   UNL A   1      29.978  28.751  22.608  1.00  0.00     0.075 C 
ENDBRANCH  11  14
ENDBRANCH   6  11
BRANCH   8  17
ATOM     17  C   UNL A   1      33.826  25.440  25.420  1.00  0.00     0.022 C 
BRANCH  17  18
ATOM     18  C   UNL A   1      32.586  25.142  26.276  1.00  0.00     0.077 C 
BRANCH  18  19
ATOM     19  S   UNL A   1      31.310  24.012  25.607  1.00  0.00    -0.105 SA
BRANCH  19  20
ATOM     20  C   UNL A   1      32.178  22.474  25.444  1.00  0.00     0.114 A 
ATOM     21  C   UNL A   1      32.168  21.685  24.299  1.00  0.00     0.146 A 
ATOM     22  N   UNL A   1      32.879  22.088  26.537  1.00  0.00    -0.247 NA
ATOM     23  N   UNL A   1      32.906  20.548  24.172  1.00  0.00    -0.260 NA
ATOM     24  C   UNL A   1      33.611  20.959  26.420  1.00  0.00     0.132 A 
ATOM     25  C   UNL A   1      33.633  20.210  25.260  1.00  0.00     0.131 A 
ENDBRANCH  19  20
ENDBRANCH  18  19
ENDBRANCH  17  18
ENDBRANCH   8  17
ENDBRANCH   3   6
ENDBRANCH   1   2
BRANCH   1  26
ATOM     26  C   UNL A   1      32.061  30.144  25.641  1.00  0.00     0.023 C 
BRANCH  26  27
ATOM     27  C   UNL A   1      31.979  30.888  26.968  1.00  0.00     0.023 C 
BRANCH  27  28
ATOM     28  C   UNL A   1      33.098  31.881  27.247  1.00  0.00     0.116 C 
BRANCH  28  29
ATOM     29  N   UNL A   1      32.631  33.204  27.628  1.00  0.00    -0.352 N 
ATOM     30  C   UNL A   1      33.220  34.123  28.469  1.00  0.00     0.251 C 
ATOM     31  H   UNL A   1      31.775  33.483  27.231  1.00  0.00     0.163 HD
ATOM     32  O   UNL A   1      32.666  35.178  28.734  1.00  0.00    -0.269 OA
BRANCH  30  33
ATOM     33  C   UNL A   1      34.519  33.789  29.087  1.00  0.00     0.039 A 
ATOM     34  C   UNL A   1      34.530  33.005  30.243  1.00  0.00     0.014 A 
ATOM     35  C   UNL A   1      35.716  34.184  28.483  1.00  0.00     0.014 A 
ATOM     36  C   UNL A   1      35.745  32.539  30.744  1.00  0.00     0.010 A 
ATOM     37  C   UNL A   1      36.918  33.656  28.939  1.00  0.00     0.010 A 
ATOM     38  C   UNL A   1      36.943  32.824  30.068  1.00  0.00    -0.014 A 
BRANCH  38  39
ATOM     39  C   UNL A   1      38.235  32.253  30.523  1.00  0.00     0.031 A 
ATOM     40  C   UNL A   1      38.729  30.960  29.939  1.00  0.00     0.074 A 
ATOM     41  C   UNL A   1      38.924  32.857  31.511  1.00  0.00     0.049 A 
ATOM     42  N   UNL A   1      39.796  30.268  30.250  1.00  0.00    -0.248 NA
ATOM     43  C   UNL A   1      37.900  30.349  28.887  1.00  0.00     0.031 C 
ATOM     44  C   UNL A   1      38.525  34.090  32.196  1.00  0.00     0.029 A 
ATOM     45  N   UNL A   1      40.105  32.510  32.115  1.00  0.00    -0.354 N 
ATOM     46  C   UNL A   1      39.752  29.133  29.450  1.00  0.00     0.074 A 
ATOM     47  C   UNL A   1      38.532  29.204  28.677  1.00  0.00     0.031 C 
ATOM     48  C   UNL A   1      39.458  34.408  33.106  1.00  0.00     0.029 A 
ATOM     49  C   UNL A   1      40.503  33.390  33.094  1.00  0.00     0.049 A 
ATOM     50  H   UNL A   1      40.620  31.708  31.872  1.00  0.00     0.167 HD
ATOM     51  C   UNL A   1      40.657  28.131  29.352  1.00  0.00     0.031 A 
ATOM     52  C   UNL A   1      41.586  33.375  33.891  1.00  0.00     0.031 A 
ATOM     53  C   UNL A   1      41.880  28.071  30.105  1.00  0.00     0.049 A 
ATOM     54  C   UNL A   1      42.583  32.259  33.755  1.00  0.00     0.074 A 
ATOM     55  C   UNL A   1      42.892  27.130  30.033  1.00  0.00     0.029 A 
ATOM     56  N   UNL A   1      42.257  28.994  31.068  1.00  0.00    -0.354 N 
ATOM     57  N   UNL A   1      42.562  31.228  32.945  1.00  0.00    -0.248 NA
ATOM     58  C   UNL A   1      43.760  32.312  34.633  1.00  0.00     0.031 C 
ATOM     59  C   UNL A   1      43.865  27.464  30.980  1.00  0.00     0.029 A 
ATOM     60  C   UNL A   1      43.480  28.638  31.609  1.00  0.00     0.049 A 
ATOM     61  H   UNL A   1      41.734  29.786  31.327  1.00  0.00     0.167 HD
ATOM     62  C   UNL A   1      43.732  30.525  33.198  1.00  0.00     0.074 A 
ATOM     63  C   UNL A   1      44.446  31.253  34.226  1.00  0.00     0.031 C 
ATOM     64  C   UNL A   1      44.175  29.377  32.630  1.00  0.00     0.031 A 
BRANCH  51  65
ATOM     65  C   UNL A   1      40.348  27.019  28.391  1.00  0.00    -0.014 A 
ATOM     66  C   UNL A   1      39.544  25.932  28.773  1.00  0.00     0.009 A 
ATOM     67  C   UNL A   1      40.851  27.065  27.082  1.00  0.00     0.009 A 
ATOM     68  C   UNL A   1      39.287  24.895  27.876  1.00  0.00     0.001 A 
ATOM     69  C   UNL A   1      40.568  26.039  26.179  1.00  0.00     0.001 A 
ATOM     70  C   UNL A   1      39.795  24.951  26.580  1.00  0.00     0.000 A 
ENDBRANCH  51  65
BRANCH  52  71
ATOM     71  C   UNL A   1      41.803  34.467  34.876  1.00  0.00    -0.014 A 
ATOM     72  C   UNL A   1      42.500  35.627  34.505  1.00  0.00     0.009 A 
ATOM     73  C   UNL A   1      41.319  34.356  36.188  1.00  0.00     0.009 A 
ATOM     74  C   UNL A   1      42.730  36.642  35.436  1.00  0.00     0.001 A 
ATOM     75  C   UNL A   1      41.529  35.384  37.109  1.00  0.00     0.001 A 
ATOM     76  C   UNL A   1      42.242  36.522  36.736  1.00  0.00     0.000 A 
ENDBRANCH  52  71
BRANCH  64  77
ATOM     77  C   UNL A   1      45.508  28.858  33.085  1.00  0.00    -0.014 A 
ATOM     78  C   UNL A   1      45.609  27.944  34.145  1.00  0.00     0.009 A 
ATOM     79  C   UNL A   1      46.674  29.258  32.414  1.00  0.00     0.009 A 
ATOM     80  C   UNL A   1      46.857  27.463  34.542  1.00  0.00     0.001 A 
ATOM     81  C   UNL A   1      47.918  28.755  32.797  1.00  0.00     0.001 A 
ATOM     82  C   UNL A   1      48.008  27.865  33.866  1.00  0.00     0.000 A 
ENDBRANCH  64  77
ENDBRANCH  38  39
ENDBRANCH  30  33
ENDBRANCH  28  29
ENDBRANCH  27  28
ENDBRANCH  26  27
ENDBRANCH   1  26
TORSDOF 17
ENDMDL
