MODEL 1
REMARK VINA RESULT:     -11.2      0.000      0.000
REMARK SMILES CC(C)c1ccc(C(=O)NC[C@H]2CC[C@@H](C(=O)NCCCCNC(=O)c3ccc(-c4c5nc(c(-c6ccccc6)c6ccc([nH]6)c(-c6ccccc6)c6nc(c(-c7ccccc7)c7ccc4[nH]7)C=C6)C=C5)cc3)O2)cc1
REMARK SMILES IDX 19 1 18 2 16 3 17 4 15 6 12 7 13 8 74 9 14 10 11 11 10 12
REMARK SMILES IDX 8 13 9 14 7 16 4 17 5 18 76 19 6 20 75 21 2 22 1 23 3 24
REMARK SMILES IDX 20 25 21 26 22 27 23 28 24 29 25 31 26 32 27 33 73 34 28 35
REMARK SMILES IDX 72 36 29 37 30 38 31 39 66 40 32 41 71 42 65 43 67 44 33 45
REMARK SMILES IDX 70 46 64 47 63 48 34 50 56 51 41 52 55 53 42 54 45 55 54 56
REMARK SMILES IDX 68 57 43 58 44 59 53 61 69 62 46 63 35 64 36 65 40 66 37 67
REMARK SMILES IDX 39 68 38 69 57 70 58 71 62 72 59 73 61 74 60 75 47 76 48 77
REMARK SMILES IDX 52 78 49 79 51 80 50 81
REMARK H PARENT 18 5 10 15 23 30 67 49 45 60
REMARK Flexibility Score: inf
ROOT
ATOM      1  C   UNL A   1      34.418  32.042  28.289  1.00  0.00     0.116 C 
ENDROOT
BRANCH   1   2
ATOM      2  N   UNL A   1      33.129  31.881  27.642  1.00  0.00    -0.354 N 
ATOM      3  C   UNL A   1      32.657  30.843  26.890  1.00  0.00     0.249 C 
ATOM      4  O   UNL A   1      31.559  30.986  26.346  1.00  0.00    -0.272 OA
ATOM      5  H   UNL A   1      32.503  32.631  27.764  1.00  0.00     0.163 HD
BRANCH   3   6
ATOM      6  C   UNL A   1      33.466  29.541  26.780  1.00  0.00     0.207 C 
ATOM      7  C   UNL A   1      32.905  27.255  26.819  1.00  0.00     0.138 C 
ATOM      8  C   UNL A   1      33.759  27.536  25.591  1.00  0.00     0.037 C 
ATOM      9  O   UNL A   1      32.868  28.491  27.565  1.00  0.00    -0.363 OA
ATOM     10  C   UNL A   1      33.529  29.008  25.359  1.00  0.00     0.045 C 
BRANCH   7  11
ATOM     11  C   UNL A   1      31.486  26.766  26.448  1.00  0.00     0.148 C 
BRANCH  11  12
ATOM     12  N   UNL A   1      31.488  25.962  25.230  1.00  0.00    -0.349 N 
ATOM     13  C   UNL A   1      30.976  26.139  23.971  1.00  0.00     0.251 C 
ATOM     14  O   UNL A   1      31.291  25.302  23.121  1.00  0.00    -0.269 OA
ATOM     15  H   UNL A   1      31.958  25.104  25.336  1.00  0.00     0.163 HD
BRANCH  13  16
ATOM     16  C   UNL A   1      30.104  27.276  23.567  1.00  0.00     0.039 A 
ATOM     17  C   UNL A   1      28.577  29.515  22.685  1.00  0.00    -0.045 A 
ATOM     18  C   UNL A   1      29.977  29.535  22.645  1.00  0.00     0.005 A 
ATOM     19  C   UNL A   1      27.963  28.337  23.137  1.00  0.00     0.005 A 
ATOM     20  C   UNL A   1      30.728  28.434  23.082  1.00  0.00     0.014 A 
ATOM     21  C   UNL A   1      28.716  27.233  23.558  1.00  0.00     0.014 A 
BRANCH  17  22
ATOM     22  C   UNL A   1      27.706  30.676  22.214  1.00  0.00     0.013 C 
ATOM     23  C   UNL A   1      27.701  31.831  23.228  1.00  0.00     0.012 C 
ATOM     24  C   UNL A   1      28.064  31.241  20.834  1.00  0.00     0.012 C 
ENDBRANCH  17  22
ENDBRANCH  13  16
ENDBRANCH  11  12
ENDBRANCH   7  11
ENDBRANCH   3   6
ENDBRANCH   1   2
BRANCH   1  25
ATOM     25  C   UNL A   1      34.523  33.403  28.982  1.00  0.00     0.023 C 
BRANCH  25  26
ATOM     26  C   UNL A   1      33.254  34.262  28.909  1.00  0.00     0.023 C 
BRANCH  26  27
ATOM     27  C   UNL A   1      33.427  35.726  29.304  1.00  0.00     0.116 C 
BRANCH  27  28
ATOM     28  N   UNL A   1      32.530  36.140  30.372  1.00  0.00    -0.352 N 
ATOM     29  C   UNL A   1      32.589  35.848  31.717  1.00  0.00     0.251 C 
ATOM     30  H   UNL A   1      31.776  36.709  30.094  1.00  0.00     0.163 HD
ATOM     31  O   UNL A   1      31.683  36.180  32.462  1.00  0.00    -0.269 OA
BRANCH  29  32
ATOM     32  C   UNL A   1      33.746  35.093  32.248  1.00  0.00     0.039 A 
ATOM     33  C   UNL A   1      33.542  33.795  32.728  1.00  0.00     0.014 A 
ATOM     34  C   UNL A   1      35.026  35.652  32.255  1.00  0.00     0.014 A 
ATOM     35  C   UNL A   1      34.635  33.028  33.141  1.00  0.00     0.010 A 
ATOM     36  C   UNL A   1      36.120  34.868  32.609  1.00  0.00     0.010 A 
ATOM     37  C   UNL A   1      35.938  33.545  33.046  1.00  0.00    -0.014 A 
BRANCH  37  38
ATOM     38  C   UNL A   1      37.131  32.729  33.386  1.00  0.00     0.031 A 
ATOM     39  C   UNL A   1      37.866  32.977  34.673  1.00  0.00     0.074 A 
ATOM     40  C   UNL A   1      37.607  31.832  32.500  1.00  0.00     0.049 A 
ATOM     41  N   UNL A   1      39.010  32.488  35.079  1.00  0.00    -0.248 NA
ATOM     42  C   UNL A   1      37.241  33.917  35.618  1.00  0.00     0.031 C 
ATOM     43  C   UNL A   1      37.001  31.507  31.207  1.00  0.00     0.029 A 
ATOM     44  N   UNL A   1      38.730  31.042  32.547  1.00  0.00    -0.354 N 
ATOM     45  C   UNL A   1      39.251  33.073  36.315  1.00  0.00     0.074 A 
ATOM     46  C   UNL A   1      38.157  33.984  36.574  1.00  0.00     0.031 C 
ATOM     47  C   UNL A   1      37.755  30.583  30.588  1.00  0.00     0.029 A 
ATOM     48  C   UNL A   1      38.920  30.285  31.417  1.00  0.00     0.049 A 
ATOM     49  H   UNL A   1      39.341  31.021  33.320  1.00  0.00     0.167 HD
ATOM     50  C   UNL A   1      40.283  32.862  37.166  1.00  0.00     0.031 A 
ATOM     51  C   UNL A   1      39.928  29.462  31.073  1.00  0.00     0.031 A 
ATOM     52  C   UNL A   1      41.368  31.953  36.917  1.00  0.00     0.049 A 
ATOM     53  C   UNL A   1      41.080  29.269  32.022  1.00  0.00     0.074 A 
ATOM     54  C   UNL A   1      42.448  31.655  37.730  1.00  0.00     0.029 A 
ATOM     55  N   UNL A   1      41.508  31.192  35.768  1.00  0.00    -0.354 N 
ATOM     56  N   UNL A   1      41.277  29.809  33.200  1.00  0.00    -0.248 NA
ATOM     57  C   UNL A   1      42.144  28.350  31.594  1.00  0.00     0.031 C 
ATOM     58  C   UNL A   1      43.261  30.737  37.058  1.00  0.00     0.029 A 
ATOM     59  C   UNL A   1      42.661  30.430  35.847  1.00  0.00     0.049 A 
ATOM     60  H   UNL A   1      40.882  31.192  35.009  1.00  0.00     0.167 HD
ATOM     61  C   UNL A   1      42.469  29.270  33.667  1.00  0.00     0.074 A 
ATOM     62  C   UNL A   1      42.945  28.355  32.650  1.00  0.00     0.031 C 
ATOM     63  C   UNL A   1      43.111  29.511  34.836  1.00  0.00     0.031 A 
BRANCH  50  64
ATOM     64  C   UNL A   1      40.283  33.634  38.455  1.00  0.00    -0.014 A 
ATOM     65  C   UNL A   1      40.927  34.878  38.551  1.00  0.00     0.009 A 
ATOM     66  C   UNL A   1      39.599  33.134  39.574  1.00  0.00     0.009 A 
ATOM     67  C   UNL A   1      40.916  35.589  39.753  1.00  0.00     0.001 A 
ATOM     68  C   UNL A   1      39.567  33.859  40.766  1.00  0.00     0.001 A 
ATOM     69  C   UNL A   1      40.231  35.081  40.857  1.00  0.00     0.000 A 
ENDBRANCH  50  64
BRANCH  51  70
ATOM     70  C   UNL A   1      39.908  28.757  29.765  1.00  0.00    -0.014 A 
ATOM     71  C   UNL A   1      39.386  27.458  29.665  1.00  0.00     0.009 A 
ATOM     72  C   UNL A   1      40.436  29.367  28.616  1.00  0.00     0.009 A 
ATOM     73  C   UNL A   1      39.422  26.772  28.448  1.00  0.00     0.001 A 
ATOM     74  C   UNL A   1      40.444  28.689  27.395  1.00  0.00     0.001 A 
ATOM     75  C   UNL A   1      39.948  27.389  27.315  1.00  0.00     0.000 A 
ENDBRANCH  51  70
BRANCH  63  76
ATOM     76  C   UNL A   1      44.369  28.736  35.104  1.00  0.00    -0.014 A 
ATOM     77  C   UNL A   1      44.333  27.477  35.721  1.00  0.00     0.009 A 
ATOM     78  C   UNL A   1      45.603  29.253  34.678  1.00  0.00     0.009 A 
ATOM     79  C   UNL A   1      45.513  26.761  35.930  1.00  0.00     0.001 A 
ATOM     80  C   UNL A   1      46.777  28.525  34.866  1.00  0.00     0.001 A 
ATOM     81  C   UNL A   1      46.733  27.282  35.496  1.00  0.00     0.000 A 
ENDBRANCH  63  76
ENDBRANCH  37  38
ENDBRANCH  29  32
ENDBRANCH  27  28
ENDBRANCH  26  27
ENDBRANCH  25  26
ENDBRANCH   1  25
TORSDOF 15
ENDMDL
MODEL 2
REMARK VINA RESULT:     -11.1      1.663      2.466
REMARK SMILES CC(C)c1ccc(C(=O)NC[C@H]2CC[C@@H](C(=O)NCCCCNC(=O)c3ccc(-c4c5nc(c(-c6ccccc6)c6ccc([nH]6)c(-c6ccccc6)c6nc(c(-c7ccccc7)c7ccc4[nH]7)C=C6)C=C5)cc3)O2)cc1
REMARK SMILES IDX 19 1 18 2 16 3 17 4 15 6 12 7 13 8 74 9 14 10 11 11 10 12
REMARK SMILES IDX 8 13 9 14 7 16 4 17 5 18 76 19 6 20 75 21 2 22 1 23 3 24
REMARK SMILES IDX 20 25 21 26 22 27 23 28 24 29 25 31 26 32 27 33 73 34 28 35
REMARK SMILES IDX 72 36 29 37 30 38 31 39 66 40 32 41 71 42 65 43 67 44 33 45
REMARK SMILES IDX 70 46 64 47 63 48 34 50 56 51 41 52 55 53 42 54 45 55 54 56
REMARK SMILES IDX 68 57 43 58 44 59 53 61 69 62 46 63 35 64 36 65 40 66 37 67
REMARK SMILES IDX 39 68 38 69 57 70 58 71 62 72 59 73 61 74 60 75 47 76 48 77
REMARK SMILES IDX 52 78 49 79 51 80 50 81
REMARK H PARENT 18 5 10 15 23 30 67 49 45 60
REMARK Flexibility Score: inf
ROOT
ATOM      1  C   UNL A   1      32.954  30.158  26.255  1.00  0.00     0.116 C 
ENDROOT
BRANCH   1   2
ATOM      2  N   UNL A   1      33.379  29.550  25.008  1.00  0.00    -0.354 N 
ATOM      3  C   UNL A   1      33.730  28.256  24.746  1.00  0.00     0.249 C 
ATOM      4  O   UNL A   1      34.168  28.001  23.622  1.00  0.00    -0.272 OA
ATOM      5  H   UNL A   1      33.420  30.160  24.236  1.00  0.00     0.163 HD
BRANCH   3   6
ATOM      6  C   UNL A   1      33.533  27.173  25.818  1.00  0.00     0.207 C 
ATOM      7  C   UNL A   1      31.772  25.708  26.363  1.00  0.00     0.138 C 
ATOM      8  C   UNL A   1      33.058  24.907  26.219  1.00  0.00     0.037 C 
ATOM      9  O   UNL A   1      32.153  27.095  26.228  1.00  0.00    -0.363 OA
ATOM     10  C   UNL A   1      33.894  25.783  25.320  1.00  0.00     0.045 C 
BRANCH   7  11
ATOM     11  C   UNL A   1      30.707  25.303  25.319  1.00  0.00     0.148 C 
BRANCH  11  12
ATOM     12  N   UNL A   1      31.251  25.286  23.964  1.00  0.00    -0.349 N 
ATOM     13  C   UNL A   1      31.190  26.150  22.902  1.00  0.00     0.251 C 
ATOM     14  O   UNL A   1      31.900  25.884  21.929  1.00  0.00    -0.269 OA
ATOM     15  H   UNL A   1      31.775  24.476  23.771  1.00  0.00     0.163 HD
BRANCH  13  16
ATOM     16  C   UNL A   1      30.355  27.382  22.864  1.00  0.00     0.039 A 
ATOM     17  C   UNL A   1      28.872  29.807  22.653  1.00  0.00    -0.045 A 
ATOM     18  C   UNL A   1      30.203  29.735  22.224  1.00  0.00     0.005 A 
ATOM     19  C   UNL A   1      28.292  28.630  23.150  1.00  0.00     0.005 A 
ATOM     20  C   UNL A   1      30.934  28.542  22.331  1.00  0.00     0.014 A 
ATOM     21  C   UNL A   1      29.020  27.436  23.241  1.00  0.00     0.014 A 
BRANCH  17  22
ATOM     22  C   UNL A   1      28.024  31.071  22.553  1.00  0.00     0.013 C 
ATOM     23  C   UNL A   1      27.336  31.401  23.886  1.00  0.00     0.012 C 
ATOM     24  C   UNL A   1      28.770  32.319  22.067  1.00  0.00     0.012 C 
ENDBRANCH  17  22
ENDBRANCH  13  16
ENDBRANCH  11  12
ENDBRANCH   7  11
ENDBRANCH   3   6
ENDBRANCH   1   2
BRANCH   1  25
ATOM     25  C   UNL A   1      31.522  30.689  26.152  1.00  0.00     0.023 C 
BRANCH  25  26
ATOM     26  C   UNL A   1      31.329  32.123  26.660  1.00  0.00     0.023 C 
BRANCH  26  27
ATOM     27  C   UNL A   1      32.581  32.800  27.213  1.00  0.00     0.116 C 
BRANCH  27  28
ATOM     28  N   UNL A   1      32.360  34.185  27.597  1.00  0.00    -0.352 N 
ATOM     29  C   UNL A   1      33.019  34.939  28.543  1.00  0.00     0.251 C 
ATOM     30  H   UNL A   1      31.639  34.648  27.113  1.00  0.00     0.163 HD
ATOM     31  O   UNL A   1      32.626  36.059  28.826  1.00  0.00    -0.269 OA
BRANCH  29  32
ATOM     32  C   UNL A   1      34.190  34.366  29.245  1.00  0.00     0.039 A 
ATOM     33  C   UNL A   1      33.984  33.651  30.429  1.00  0.00     0.014 A 
ATOM     34  C   UNL A   1      35.479  34.515  28.729  1.00  0.00     0.014 A 
ATOM     35  C   UNL A   1      35.062  33.017  31.054  1.00  0.00     0.010 A 
ATOM     36  C   UNL A   1      36.541  33.834  29.317  1.00  0.00     0.010 A 
ATOM     37  C   UNL A   1      36.342  33.070  30.479  1.00  0.00    -0.014 A 
BRANCH  37  38
ATOM     38  C   UNL A   1      37.493  32.333  31.061  1.00  0.00     0.031 A 
ATOM     39  C   UNL A   1      38.177  32.863  32.290  1.00  0.00     0.074 A 
ATOM     40  C   UNL A   1      37.979  31.243  30.436  1.00  0.00     0.049 A 
ATOM     41  N   UNL A   1      39.285  32.460  32.857  1.00  0.00    -0.248 NA
ATOM     42  C   UNL A   1      37.540  34.011  32.955  1.00  0.00     0.031 C 
ATOM     43  C   UNL A   1      37.421  30.635  29.226  1.00  0.00     0.029 A 
ATOM     44  N   UNL A   1      39.073  30.465  30.724  1.00  0.00    -0.354 N 
ATOM     45  C   UNL A   1      39.490  33.316  33.932  1.00  0.00     0.074 A 
ATOM     46  C   UNL A   1      38.414  34.284  33.914  1.00  0.00     0.031 C 
ATOM     47  C   UNL A   1      38.173  29.576  28.881  1.00  0.00     0.029 A 
ATOM     48  C   UNL A   1      39.289  29.458  29.814  1.00  0.00     0.049 A 
ATOM     49  H   UNL A   1      39.648  30.614  31.510  1.00  0.00     0.167 HD
ATOM     50  C   UNL A   1      40.476  33.290  34.860  1.00  0.00     0.031 A 
ATOM     51  C   UNL A   1      40.285  28.557  29.725  1.00  0.00     0.031 A 
ATOM     52  C   UNL A   1      41.541  32.326  34.886  1.00  0.00     0.049 A 
ATOM     53  C   UNL A   1      41.386  28.570  30.750  1.00  0.00     0.074 A 
ATOM     54  C   UNL A   1      42.574  32.206  35.801  1.00  0.00     0.029 A 
ATOM     55  N   UNL A   1      41.709  31.313  33.957  1.00  0.00    -0.354 N 
ATOM     56  N   UNL A   1      41.548  29.368  31.777  1.00  0.00    -0.248 NA
ATOM     57  C   UNL A   1      42.440  27.554  30.604  1.00  0.00     0.031 C 
ATOM     58  C   UNL A   1      43.386  31.139  35.404  1.00  0.00     0.029 A 
ATOM     59  C   UNL A   1      42.832  30.567  34.271  1.00  0.00     0.049 A 
ATOM     60  H   UNL A   1      41.117  31.147  33.188  1.00  0.00     0.167 HD
ATOM     61  C   UNL A   1      42.701  28.931  32.417  1.00  0.00     0.074 A 
ATOM     62  C   UNL A   1      43.192  27.792  31.669  1.00  0.00     0.031 C 
ATOM     63  C   UNL A   1      43.298  29.427  33.527  1.00  0.00     0.031 A 
BRANCH  50  64
ATOM     64  C   UNL A   1      40.442  34.344  35.931  1.00  0.00    -0.014 A 
ATOM     65  C   UNL A   1      39.741  34.134  37.128  1.00  0.00     0.009 A 
ATOM     66  C   UNL A   1      41.149  35.543  35.757  1.00  0.00     0.009 A 
ATOM     67  C   UNL A   1      39.720  35.119  38.118  1.00  0.00     0.001 A 
ATOM     68  C   UNL A   1      41.150  36.515  36.759  1.00  0.00     0.001 A 
ATOM     69  C   UNL A   1      40.430  36.306  37.935  1.00  0.00     0.000 A 
ENDBRANCH  50  64
BRANCH  51  70
ATOM     70  C   UNL A   1      40.301  27.564  28.619  1.00  0.00    -0.014 A 
ATOM     71  C   UNL A   1      40.942  27.861  27.406  1.00  0.00     0.009 A 
ATOM     72  C   UNL A   1      39.652  26.327  28.759  1.00  0.00     0.009 A 
ATOM     73  C   UNL A   1      40.906  26.952  26.345  1.00  0.00     0.001 A 
ATOM     74  C   UNL A   1      39.641  25.410  27.706  1.00  0.00     0.001 A 
ATOM     75  C   UNL A   1      40.258  25.727  26.497  1.00  0.00     0.000 A 
ENDBRANCH  51  70
BRANCH  63  76
ATOM     76  C   UNL A   1      44.517  28.712  34.033  1.00  0.00    -0.014 A 
ATOM     77  C   UNL A   1      44.413  27.630  34.920  1.00  0.00     0.009 A 
ATOM     78  C   UNL A   1      45.785  29.094  33.567  1.00  0.00     0.009 A 
ATOM     79  C   UNL A   1      45.560  26.960  35.350  1.00  0.00     0.001 A 
ATOM     80  C   UNL A   1      46.926  28.407  33.980  1.00  0.00     0.001 A 
ATOM     81  C   UNL A   1      46.814  27.345  34.875  1.00  0.00     0.000 A 
ENDBRANCH  63  76
ENDBRANCH  37  38
ENDBRANCH  29  32
ENDBRANCH  27  28
ENDBRANCH  26  27
ENDBRANCH  25  26
ENDBRANCH   1  25
TORSDOF 15
ENDMDL
MODEL 3
REMARK VINA RESULT:     -11.0      1.511      6.220
REMARK SMILES CC(C)c1ccc(C(=O)NC[C@H]2CC[C@@H](C(=O)NCCCCNC(=O)c3ccc(-c4c5nc(c(-c6ccccc6)c6ccc([nH]6)c(-c6ccccc6)c6nc(c(-c7ccccc7)c7ccc4[nH]7)C=C6)C=C5)cc3)O2)cc1
REMARK SMILES IDX 19 1 18 2 16 3 17 4 15 6 12 7 13 8 74 9 14 10 11 11 10 12
REMARK SMILES IDX 8 13 9 14 7 16 4 17 5 18 76 19 6 20 75 21 2 22 1 23 3 24
REMARK SMILES IDX 20 25 21 26 22 27 23 28 24 29 25 31 26 32 27 33 73 34 28 35
REMARK SMILES IDX 72 36 29 37 30 38 31 39 66 40 32 41 71 42 65 43 67 44 33 45
REMARK SMILES IDX 70 46 64 47 63 48 34 50 56 51 41 52 55 53 42 54 45 55 54 56
REMARK SMILES IDX 68 57 43 58 44 59 53 61 69 62 46 63 35 64 36 65 40 66 37 67
REMARK SMILES IDX 39 68 38 69 57 70 58 71 62 72 59 73 61 74 60 75 47 76 48 77
REMARK SMILES IDX 52 78 49 79 51 80 50 81
REMARK H PARENT 18 5 10 15 23 30 67 49 45 60
REMARK Flexibility Score: inf
ROOT
ATOM      1  C   UNL A   1      33.275  30.083  26.137  1.00  0.00     0.116 C 
ENDROOT
BRANCH   1   2
ATOM      2  N   UNL A   1      33.511  29.390  24.885  1.00  0.00    -0.354 N 
ATOM      3  C   UNL A   1      33.737  28.063  24.654  1.00  0.00     0.249 C 
ATOM      4  O   UNL A   1      34.026  27.725  23.503  1.00  0.00    -0.272 OA
ATOM      5  H   UNL A   1      33.506  29.961  24.082  1.00  0.00     0.163 HD
BRANCH   3   6
ATOM      6  C   UNL A   1      33.588  27.046  25.796  1.00  0.00     0.207 C 
ATOM      7  C   UNL A   1      31.855  25.617  26.503  1.00  0.00     0.138 C 
ATOM      8  C   UNL A   1      33.136  24.809  26.353  1.00  0.00     0.037 C 
ATOM      9  O   UNL A   1      32.228  26.993  26.269  1.00  0.00    -0.363 OA
ATOM     10  C   UNL A   1      33.932  25.629  25.369  1.00  0.00     0.045 C 
BRANCH   7  11
ATOM     11  C   UNL A   1      30.748  25.150  25.531  1.00  0.00     0.148 C 
BRANCH  11  12
ATOM     12  N   UNL A   1      31.227  25.079  24.153  1.00  0.00    -0.349 N 
ATOM     13  C   UNL A   1      31.089  25.885  23.054  1.00  0.00     0.251 C 
ATOM     14  O   UNL A   1      31.759  25.591  22.062  1.00  0.00    -0.269 OA
ATOM     15  H   UNL A   1      31.766  24.275  23.975  1.00  0.00     0.163 HD
BRANCH  13  16
ATOM     16  C   UNL A   1      30.217  27.091  22.996  1.00  0.00     0.039 A 
ATOM     17  C   UNL A   1      28.653  29.460  22.739  1.00  0.00    -0.045 A 
ATOM     18  C   UNL A   1      29.965  29.404  22.252  1.00  0.00     0.005 A 
ATOM     19  C   UNL A   1      28.132  28.293  23.318  1.00  0.00     0.005 A 
ATOM     20  C   UNL A   1      30.735  28.239  22.381  1.00  0.00     0.014 A 
ATOM     21  C   UNL A   1      28.899  27.126  23.432  1.00  0.00     0.014 A 
BRANCH  17  22
ATOM     22  C   UNL A   1      27.763  30.693  22.618  1.00  0.00     0.013 C 
ATOM     23  C   UNL A   1      27.844  31.578  23.871  1.00  0.00     0.012 C 
ATOM     24  C   UNL A   1      28.027  31.568  21.386  1.00  0.00     0.012 C 
ENDBRANCH  17  22
ENDBRANCH  13  16
ENDBRANCH  11  12
ENDBRANCH   7  11
ENDBRANCH   3   6
ENDBRANCH   1   2
BRANCH   1  25
ATOM     25  C   UNL A   1      31.795  30.436  26.304  1.00  0.00     0.023 C 
BRANCH  25  26
ATOM     26  C   UNL A   1      31.516  31.913  26.614  1.00  0.00     0.023 C 
BRANCH  26  27
ATOM     27  C   UNL A   1      32.631  32.653  27.348  1.00  0.00     0.116 C 
BRANCH  27  28
ATOM     28  N   UNL A   1      32.309  34.044  27.625  1.00  0.00    -0.352 N 
ATOM     29  C   UNL A   1      32.910  34.916  28.505  1.00  0.00     0.251 C 
ATOM     30  H   UNL A   1      31.555  34.414  27.110  1.00  0.00     0.163 HD
ATOM     31  O   UNL A   1      32.436  36.022  28.702  1.00  0.00    -0.269 OA
BRANCH  29  32
ATOM     32  C   UNL A   1      34.120  34.486  29.243  1.00  0.00     0.039 A 
ATOM     33  C   UNL A   1      33.971  33.926  30.516  1.00  0.00     0.014 A 
ATOM     34  C   UNL A   1      35.390  34.618  28.677  1.00  0.00     0.014 A 
ATOM     35  C   UNL A   1      35.089  33.423  31.187  1.00  0.00     0.010 A 
ATOM     36  C   UNL A   1      36.493  34.063  29.319  1.00  0.00     0.010 A 
ATOM     37  C   UNL A   1      36.353  33.451  30.576  1.00  0.00    -0.014 A 
BRANCH  37  38
ATOM     38  C   UNL A   1      37.546  32.843  31.217  1.00  0.00     0.031 A 
ATOM     39  C   UNL A   1      38.219  31.661  30.579  1.00  0.00     0.074 A 
ATOM     40  C   UNL A   1      37.969  33.293  32.415  1.00  0.00     0.049 A 
ATOM     41  N   UNL A   1      39.166  30.893  31.053  1.00  0.00    -0.248 NA
ATOM     42  C   UNL A   1      37.747  31.279  29.238  1.00  0.00     0.031 C 
ATOM     43  C   UNL A   1      37.395  34.421  33.153  1.00  0.00     0.029 A 
ATOM     44  N   UNL A   1      38.972  32.837  33.235  1.00  0.00    -0.354 N 
ATOM     45  C   UNL A   1      39.391  29.928  30.080  1.00  0.00     0.074 A 
ATOM     46  C   UNL A   1      38.453  30.181  29.007  1.00  0.00     0.031 C 
ATOM     47  C   UNL A   1      38.059  34.571  34.311  1.00  0.00     0.029 A 
ATOM     48  C   UNL A   1      39.071  33.525  34.420  1.00  0.00     0.049 A 
ATOM     49  H   UNL A   1      39.564  32.087  32.995  1.00  0.00     0.167 HD
ATOM     50  C   UNL A   1      40.304  28.928  30.072  1.00  0.00     0.031 A 
ATOM     51  C   UNL A   1      39.869  33.324  35.485  1.00  0.00     0.031 A 
ATOM     52  C   UNL A   1      41.243  28.677  31.132  1.00  0.00     0.049 A 
ATOM     53  C   UNL A   1      40.854  32.185  35.465  1.00  0.00     0.074 A 
ATOM     54  C   UNL A   1      42.222  27.702  31.204  1.00  0.00     0.029 A 
ATOM     55  N   UNL A   1      41.321  29.412  32.304  1.00  0.00    -0.354 N 
ATOM     56  N   UNL A   1      41.072  31.300  34.525  1.00  0.00    -0.248 NA
ATOM     57  C   UNL A   1      41.704  32.024  36.654  1.00  0.00     0.031 C 
ATOM     58  C   UNL A   1      42.871  27.825  32.436  1.00  0.00     0.029 A 
ATOM     59  C   UNL A   1      42.327  28.906  33.109  1.00  0.00     0.049 A 
ATOM     60  H   UNL A   1      40.747  30.179  32.530  1.00  0.00     0.167 HD
ATOM     61  C   UNL A   1      42.105  30.498  34.993  1.00  0.00     0.074 A 
ATOM     62  C   UNL A   1      42.476  31.008  36.297  1.00  0.00     0.031 C 
ATOM     63  C   UNL A   1      42.695  29.435  34.395  1.00  0.00     0.031 A 
BRANCH  50  64
ATOM     64  C   UNL A   1      40.331  28.028  28.869  1.00  0.00    -0.014 A 
ATOM     65  C   UNL A   1      41.073  28.371  27.728  1.00  0.00     0.009 A 
ATOM     66  C   UNL A   1      39.640  26.807  28.890  1.00  0.00     0.009 A 
ATOM     67  C   UNL A   1      41.093  27.524  26.618  1.00  0.00     0.001 A 
ATOM     68  C   UNL A   1      39.684  25.950  27.790  1.00  0.00     0.001 A 
ATOM     69  C   UNL A   1      40.404  26.312  26.652  1.00  0.00     0.000 A 
ENDBRANCH  50  64
BRANCH  51  70
ATOM     70  C   UNL A   1      39.772  34.211  36.673  1.00  0.00    -0.014 A 
ATOM     71  C   UNL A   1      40.505  35.407  36.729  1.00  0.00     0.009 A 
ATOM     72  C   UNL A   1      38.971  33.854  37.769  1.00  0.00     0.009 A 
ATOM     73  C   UNL A   1      40.461  36.212  37.870  1.00  0.00     0.001 A 
ATOM     74  C   UNL A   1      38.907  34.675  38.897  1.00  0.00     0.001 A 
ATOM     75  C   UNL A   1      39.661  35.847  38.951  1.00  0.00     0.000 A 
ENDBRANCH  51  70
BRANCH  63  76
ATOM     76  C   UNL A   1      43.839  28.784  35.118  1.00  0.00    -0.014 A 
ATOM     77  C   UNL A   1      45.160  29.221  34.938  1.00  0.00     0.009 A 
ATOM     78  C   UNL A   1      43.579  27.755  36.037  1.00  0.00     0.009 A 
ATOM     79  C   UNL A   1      46.202  28.622  35.647  1.00  0.00     0.001 A 
ATOM     80  C   UNL A   1      44.620  27.175  36.762  1.00  0.00     0.001 A 
ATOM     81  C   UNL A   1      45.931  27.604  36.562  1.00  0.00     0.000 A 
ENDBRANCH  63  76
ENDBRANCH  37  38
ENDBRANCH  29  32
ENDBRANCH  27  28
ENDBRANCH  26  27
ENDBRANCH  25  26
ENDBRANCH   1  25
TORSDOF 15
ENDMDL
