MODEL 1
REMARK VINA RESULT:     -12.5      0.000      0.000
REMARK SMILES CCCn1nc(C(=O)NCCCCNC(=O)c2ccc(-c3c4nc(c(-c5ccccc5)c5ccc([nH]5)c(-c5ccccc5)c5nc(c(-c6ccccc6)c6ccc3[nH]6)C=C5)C=C4)cc2)c2c1CC[C@@H]([NH+]1CC[NH+](Cc3ccccn3)CC1)C2
REMARK SMILES IDX 11 1 10 2 9 3 7 4 8 5 6 7 4 8 5 9 66 10 65 11 67 12 83 13
REMARK SMILES IDX 68 14 69 15 3 16 2 17 1 18 70 19 71 20 82 21 72 23 81 24
REMARK SMILES IDX 73 25 74 27 75 28 76 29 80 30 77 31 79 32 78 33 12 34 13 35
REMARK SMILES IDX 14 36 15 37 16 39 17 40 18 41 64 42 19 43 63 44 20 45 21 46
REMARK SMILES IDX 22 47 57 48 23 49 62 50 56 51 58 52 24 53 61 54 55 55 54 56
REMARK SMILES IDX 25 58 47 59 32 60 46 61 33 62 36 63 45 64 59 65 34 66 35 67
REMARK SMILES IDX 44 69 60 70 37 71 26 72 27 73 31 74 28 75 30 76 29 77 48 78
REMARK SMILES IDX 49 79 53 80 50 81 52 82 51 83 38 84 39 85 43 86 40 87 42 88
REMARK SMILES IDX 41 89
REMARK H PARENT 9 6 70 22 73 26 14 38 58 57 36 68
REMARK Flexibility Score: inf
ROOT
ATOM      1  C   UNL A   1      33.871  32.687  28.167  1.00  0.00     0.023 C 
ENDROOT
BRANCH   1   2
ATOM      2  C   UNL A   1      33.030  31.588  27.483  1.00  0.00     0.116 C 
BRANCH   2   3
ATOM      3  N   UNL A   1      33.715  30.302  27.403  1.00  0.00    -0.351 N 
ATOM      4  C   UNL A   1      33.600  29.130  26.674  1.00  0.00     0.272 C 
ATOM      5  O   UNL A   1      34.563  28.367  26.841  1.00  0.00    -0.267 OA
ATOM      6  H   UNL A   1      34.462  30.254  28.041  1.00  0.00     0.163 HD
BRANCH   4   7
ATOM      7  C   UNL A   1      32.470  28.746  25.775  1.00  0.00     0.153 A 
ATOM      8  N   UNL A   1      31.305  28.826  23.949  1.00  0.00    -0.269 N 
ATOM      9  N   UNL A   1      32.258  29.472  24.644  1.00  0.00    -0.167 NA
ATOM     10  C   UNL A   1      30.760  27.796  24.662  1.00  0.00     0.043 A 
ATOM     11  C   UNL A   1      31.563  27.651  25.772  1.00  0.00     0.012 A 
ATOM     12  C   UNL A   1      29.708  26.850  24.200  1.00  0.00     0.062 C 
ATOM     13  C   UNL A   1      31.492  26.441  26.605  1.00  0.00     0.105 C 
ATOM     14  C   UNL A   1      29.569  25.665  25.175  1.00  0.00     0.072 C 
ATOM     15  C   UNL A   1      30.853  25.225  25.919  1.00  0.00     0.189 C 
BRANCH   8  16
ATOM     16  C   UNL A   1      31.146  29.027  22.516  1.00  0.00     0.144 C 
BRANCH  16  17
ATOM     17  C   UNL A   1      29.990  29.903  22.039  1.00  0.00     0.020 C 
ATOM     18  C   UNL A   1      29.052  30.332  23.160  1.00  0.00     0.006 C 
ENDBRANCH  16  17
ENDBRANCH   8  16
BRANCH  15  19
ATOM     19  N   UNL A   1      31.889  24.423  25.218  1.00  0.00    -0.323 N 
ATOM     20  C   UNL A   1      31.413  23.498  24.190  1.00  0.00     0.324 C 
ATOM     21  C   UNL A   1      32.878  23.864  26.151  1.00  0.00     0.324 C 
ATOM     22  H   UNL A   1      32.387  25.101  24.642  1.00  0.00     0.348 HD
ATOM     23  C   UNL A   1      32.454  22.501  23.650  1.00  0.00     0.324 C 
ATOM     24  C   UNL A   1      33.834  22.787  25.582  1.00  0.00     0.324 C 
ATOM     25  N   UNL A   1      33.230  21.805  24.675  1.00  0.00    -0.321 N 
ATOM     26  H   UNL A   1      33.983  21.312  24.196  1.00  0.00     0.348 HD
BRANCH  25  27
ATOM     27  C   UNL A   1      32.564  20.666  25.334  1.00  0.00     0.319 C 
BRANCH  27  28
ATOM     28  C   UNL A   1      33.039  19.241  25.082  1.00  0.00     0.095 A 
ATOM     29  C   UNL A   1      34.300  18.988  24.542  1.00  0.00     0.030 A 
ATOM     30  N   UNL A   1      32.204  18.229  25.442  1.00  0.00    -0.255 NA
ATOM     31  C   UNL A   1      34.696  17.666  24.329  1.00  0.00     0.004 A 
ATOM     32  C   UNL A   1      32.606  16.959  25.208  1.00  0.00     0.111 A 
ATOM     33  C   UNL A   1      33.829  16.631  24.655  1.00  0.00     0.020 A 
ENDBRANCH  27  28
ENDBRANCH  25  27
ENDBRANCH  15  19
ENDBRANCH   4   7
ENDBRANCH   2   3
ENDBRANCH   1   2
BRANCH   1  34
ATOM     34  C   UNL A   1      33.257  34.086  28.250  1.00  0.00     0.023 C 
BRANCH  34  35
ATOM     35  C   UNL A   1      34.027  35.044  29.156  1.00  0.00     0.116 C 
BRANCH  35  36
ATOM     36  N   UNL A   1      33.271  35.466  30.337  1.00  0.00    -0.352 N 
ATOM     37  C   UNL A   1      33.314  34.893  31.592  1.00  0.00     0.251 C 
ATOM     38  H   UNL A   1      32.668  36.237  30.224  1.00  0.00     0.163 HD
ATOM     39  O   UNL A   1      32.418  35.046  32.414  1.00  0.00    -0.269 OA
BRANCH  37  40
ATOM     40  C   UNL A   1      34.495  34.085  31.920  1.00  0.00     0.039 A 
ATOM     41  C   UNL A   1      34.473  32.700  31.762  1.00  0.00     0.014 A 
ATOM     42  C   UNL A   1      35.671  34.768  32.236  1.00  0.00     0.014 A 
ATOM     43  C   UNL A   1      35.677  32.003  31.819  1.00  0.00     0.010 A 
ATOM     44  C   UNL A   1      36.869  34.082  32.221  1.00  0.00     0.010 A 
ATOM     45  C   UNL A   1      36.883  32.699  32.009  1.00  0.00    -0.014 A 
BRANCH  45  46
ATOM     46  C   UNL A   1      38.154  31.993  31.816  1.00  0.00     0.031 A 
ATOM     47  C   UNL A   1      38.928  31.663  33.053  1.00  0.00     0.074 A 
ATOM     48  C   UNL A   1      38.547  31.432  30.653  1.00  0.00     0.049 A 
ATOM     49  N   UNL A   1      40.125  32.042  33.367  1.00  0.00    -0.248 NA
ATOM     50  C   UNL A   1      38.275  30.841  34.084  1.00  0.00     0.031 C 
ATOM     51  C   UNL A   1      37.797  31.338  29.397  1.00  0.00     0.029 A 
ATOM     52  N   UNL A   1      39.672  30.703  30.395  1.00  0.00    -0.354 N 
ATOM     53  C   UNL A   1      40.449  31.380  34.550  1.00  0.00     0.074 A 
ATOM     54  C   UNL A   1      39.236  30.747  35.005  1.00  0.00     0.031 C 
ATOM     55  C   UNL A   1      38.365  30.401  28.607  1.00  0.00     0.029 A 
ATOM     56  C   UNL A   1      39.606  29.966  29.223  1.00  0.00     0.049 A 
ATOM     57  H   UNL A   1      40.459  30.701  30.987  1.00  0.00     0.167 HD
ATOM     58  C   UNL A   1      41.739  31.227  34.962  1.00  0.00     0.031 A 
ATOM     59  C   UNL A   1      40.488  29.043  28.780  1.00  0.00     0.031 A 
ATOM     60  C   UNL A   1      42.643  32.103  34.266  1.00  0.00     0.049 A 
ATOM     61  C   UNL A   1      41.776  29.269  29.467  1.00  0.00     0.074 A 
ATOM     62  C   UNL A   1      42.763  33.467  34.097  1.00  0.00     0.029 A 
ATOM     63  N   UNL A   1      43.448  31.536  33.308  1.00  0.00    -0.354 N 
ATOM     64  N   UNL A   1      42.528  30.311  29.259  1.00  0.00    -0.248 NA
ATOM     65  C   UNL A   1      42.079  28.514  30.671  1.00  0.00     0.031 C 
ATOM     66  C   UNL A   1      43.236  33.630  32.760  1.00  0.00     0.029 A 
ATOM     67  C   UNL A   1      43.413  32.357  32.214  1.00  0.00     0.049 A 
ATOM     68  H   UNL A   1      43.955  30.696  33.393  1.00  0.00     0.167 HD
ATOM     69  C   UNL A   1      43.086  30.594  30.495  1.00  0.00     0.074 A 
ATOM     70  C   UNL A   1      42.895  29.379  31.279  1.00  0.00     0.031 C 
ATOM     71  C   UNL A   1      43.387  31.880  30.851  1.00  0.00     0.031 A 
BRANCH  58  72
ATOM     72  C   UNL A   1      42.252  30.012  35.704  1.00  0.00    -0.014 A 
ATOM     73  C   UNL A   1      43.308  30.174  36.623  1.00  0.00     0.009 A 
ATOM     74  C   UNL A   1      41.957  28.694  35.309  1.00  0.00     0.009 A 
ATOM     75  C   UNL A   1      44.081  29.087  37.049  1.00  0.00     0.001 A 
ATOM     76  C   UNL A   1      42.698  27.601  35.769  1.00  0.00     0.001 A 
ATOM     77  C   UNL A   1      43.781  27.801  36.614  1.00  0.00     0.000 A 
ENDBRANCH  58  72
BRANCH  59  78
ATOM     78  C   UNL A   1      40.244  27.880  27.908  1.00  0.00    -0.014 A 
ATOM     79  C   UNL A   1      40.965  27.700  26.720  1.00  0.00     0.009 A 
ATOM     80  C   UNL A   1      39.452  26.812  28.371  1.00  0.00     0.009 A 
ATOM     81  C   UNL A   1      40.918  26.479  26.034  1.00  0.00     0.001 A 
ATOM     82  C   UNL A   1      39.403  25.596  27.683  1.00  0.00     0.001 A 
ATOM     83  C   UNL A   1      40.147  25.425  26.522  1.00  0.00     0.000 A 
ENDBRANCH  59  78
BRANCH  71  84
ATOM     84  C   UNL A   1      43.391  32.931  29.770  1.00  0.00    -0.014 A 
ATOM     85  C   UNL A   1      42.344  33.851  29.594  1.00  0.00     0.009 A 
ATOM     86  C   UNL A   1      44.553  33.090  28.998  1.00  0.00     0.009 A 
ATOM     87  C   UNL A   1      42.438  34.873  28.644  1.00  0.00     0.001 A 
ATOM     88  C   UNL A   1      44.658  34.126  28.068  1.00  0.00     0.001 A 
ATOM     89  C   UNL A   1      43.598  35.012  27.885  1.00  0.00     0.000 A 
ENDBRANCH  71  84
ENDBRANCH  45  46
ENDBRANCH  37  40
ENDBRANCH  35  36
ENDBRANCH  34  35
ENDBRANCH   1  34
TORSDOF 16
ENDMDL
MODEL 2
REMARK VINA RESULT:     -12.4      3.585      9.799
REMARK SMILES CCCn1nc(C(=O)NCCCCNC(=O)c2ccc(-c3c4nc(c(-c5ccccc5)c5ccc([nH]5)c(-c5ccccc5)c5nc(c(-c6ccccc6)c6ccc3[nH]6)C=C5)C=C4)cc2)c2c1CC[C@@H]([NH+]1CC[NH+](Cc3ccccn3)CC1)C2
REMARK SMILES IDX 11 1 10 2 9 3 7 4 8 5 6 7 4 8 5 9 66 10 65 11 67 12 83 13
REMARK SMILES IDX 68 14 69 15 3 16 2 17 1 18 70 19 71 20 82 21 72 23 81 24
REMARK SMILES IDX 73 25 74 27 75 28 76 29 80 30 77 31 79 32 78 33 12 34 13 35
REMARK SMILES IDX 14 36 15 37 16 39 17 40 18 41 64 42 19 43 63 44 20 45 21 46
REMARK SMILES IDX 22 47 57 48 23 49 62 50 56 51 58 52 24 53 61 54 55 55 54 56
REMARK SMILES IDX 25 58 47 59 32 60 46 61 33 62 36 63 45 64 59 65 34 66 35 67
REMARK SMILES IDX 44 69 60 70 37 71 26 72 27 73 31 74 28 75 30 76 29 77 48 78
REMARK SMILES IDX 49 79 53 80 50 81 52 82 51 83 38 84 39 85 43 86 40 87 42 88
REMARK SMILES IDX 41 89
REMARK H PARENT 9 6 70 22 73 26 14 38 58 57 36 68
REMARK Flexibility Score: inf
ROOT
ATOM      1  C   UNL A   1      40.064  21.298  26.438  1.00  0.00     0.023 C 
ENDROOT
BRANCH   1   2
ATOM      2  C   UNL A   1      38.682  21.371  25.754  1.00  0.00     0.116 C 
BRANCH   2   3
ATOM      3  N   UNL A   1      37.985  22.631  25.994  1.00  0.00    -0.351 N 
ATOM      4  C   UNL A   1      36.695  23.120  25.876  1.00  0.00     0.272 C 
ATOM      5  O   UNL A   1      36.559  24.238  26.394  1.00  0.00    -0.267 OA
ATOM      6  H   UNL A   1      38.600  23.322  26.330  1.00  0.00     0.163 HD
BRANCH   4   7
ATOM      7  C   UNL A   1      35.544  22.445  25.205  1.00  0.00     0.153 A 
ATOM      8  N   UNL A   1      33.898  21.039  25.080  1.00  0.00    -0.269 N 
ATOM      9  N   UNL A   1      35.000  21.343  25.789  1.00  0.00    -0.167 NA
ATOM     10  C   UNL A   1      33.792  21.797  23.948  1.00  0.00     0.043 A 
ATOM     11  C   UNL A   1      34.756  22.774  24.068  1.00  0.00     0.012 A 
ATOM     12  C   UNL A   1      32.692  21.755  22.947  1.00  0.00     0.062 C 
ATOM     13  C   UNL A   1      34.735  23.968  23.209  1.00  0.00     0.105 C 
ATOM     14  C   UNL A   1      32.786  22.950  21.978  1.00  0.00     0.072 C 
ATOM     15  C   UNL A   1      33.379  24.261  22.550  1.00  0.00     0.189 C 
BRANCH   8  16
ATOM     16  C   UNL A   1      32.827  20.237  25.653  1.00  0.00     0.144 C 
BRANCH  16  17
ATOM     17  C   UNL A   1      32.959  18.717  25.594  1.00  0.00     0.020 C 
ATOM     18  C   UNL A   1      32.428  18.112  24.302  1.00  0.00     0.006 C 
ENDBRANCH  16  17
ENDBRANCH   8  16
BRANCH  15  19
ATOM     19  N   UNL A   1      32.558  25.137  23.424  1.00  0.00    -0.323 N 
ATOM     20  C   UNL A   1      31.109  25.086  23.225  1.00  0.00     0.324 C 
ATOM     21  C   UNL A   1      33.124  26.490  23.537  1.00  0.00     0.324 C 
ATOM     22  H   UNL A   1      32.633  24.715  24.349  1.00  0.00     0.348 HD
ATOM     23  C   UNL A   1      30.293  26.169  23.952  1.00  0.00     0.324 C 
ATOM     24  C   UNL A   1      32.219  27.566  24.183  1.00  0.00     0.324 C 
ATOM     25  N   UNL A   1      30.803  27.530  23.802  1.00  0.00    -0.321 N 
ATOM     26  H   UNL A   1      30.285  28.117  24.456  1.00  0.00     0.348 HD
BRANCH  25  27
ATOM     27  C   UNL A   1      30.474  28.213  22.536  1.00  0.00     0.319 C 
BRANCH  27  28
ATOM     28  C   UNL A   1      29.654  29.496  22.541  1.00  0.00     0.095 A 
ATOM     29  C   UNL A   1      29.537  30.272  23.694  1.00  0.00     0.030 A 
ATOM     30  N   UNL A   1      29.076  29.875  21.368  1.00  0.00    -0.255 NA
ATOM     31  C   UNL A   1      28.777  31.442  23.652  1.00  0.00     0.004 A 
ATOM     32  C   UNL A   1      28.331  31.003  21.361  1.00  0.00     0.111 A 
ATOM     33  C   UNL A   1      28.150  31.809  22.468  1.00  0.00     0.020 A 
ENDBRANCH  27  28
ENDBRANCH  25  27
ENDBRANCH  15  19
ENDBRANCH   4   7
ENDBRANCH   2   3
ENDBRANCH   1   2
BRANCH   1  34
ATOM     34  C   UNL A   1      40.887  20.026  26.215  1.00  0.00     0.023 C 
BRANCH  34  35
ATOM     35  C   UNL A   1      42.299  20.098  26.791  1.00  0.00     0.116 C 
BRANCH  35  36
ATOM     36  N   UNL A   1      43.341  19.735  25.829  1.00  0.00    -0.352 N 
ATOM     37  C   UNL A   1      44.065  20.600  25.033  1.00  0.00     0.251 C 
ATOM     38  H   UNL A   1      43.546  18.776  25.739  1.00  0.00     0.163 HD
ATOM     39  O   UNL A   1      44.641  20.228  24.016  1.00  0.00    -0.269 OA
BRANCH  37  40
ATOM     40  C   UNL A   1      44.132  22.004  25.455  1.00  0.00     0.039 A 
ATOM     41  C   UNL A   1      43.193  22.927  24.997  1.00  0.00     0.014 A 
ATOM     42  C   UNL A   1      45.061  22.333  26.443  1.00  0.00     0.014 A 
ATOM     43  C   UNL A   1      43.119  24.170  25.621  1.00  0.00     0.010 A 
ATOM     44  C   UNL A   1      44.937  23.538  27.105  1.00  0.00     0.010 A 
ATOM     45  C   UNL A   1      43.966  24.463  26.704  1.00  0.00    -0.014 A 
BRANCH  45  46
ATOM     46  C   UNL A   1      43.711  25.663  27.507  1.00  0.00     0.031 A 
ATOM     47  C   UNL A   1      44.671  26.797  27.335  1.00  0.00     0.074 A 
ATOM     48  C   UNL A   1      42.572  25.895  28.194  1.00  0.00     0.049 A 
ATOM     49  N   UNL A   1      45.421  27.348  28.235  1.00  0.00    -0.248 NA
ATOM     50  C   UNL A   1      44.847  27.362  25.988  1.00  0.00     0.031 C 
ATOM     51  C   UNL A   1      41.358  25.074  28.232  1.00  0.00     0.029 A 
ATOM     52  N   UNL A   1      42.218  27.002  28.910  1.00  0.00    -0.354 N 
ATOM     53  C   UNL A   1      46.040  28.434  27.620  1.00  0.00     0.074 A 
ATOM     54  C   UNL A   1      45.741  28.326  26.213  1.00  0.00     0.031 C 
ATOM     55  C   UNL A   1      40.336  25.812  28.716  1.00  0.00     0.029 A 
ATOM     56  C   UNL A   1      40.861  27.083  29.182  1.00  0.00     0.049 A 
ATOM     57  H   UNL A   1      42.867  27.681  29.207  1.00  0.00     0.167 HD
ATOM     58  C   UNL A   1      46.582  29.459  28.336  1.00  0.00     0.031 A 
ATOM     59  C   UNL A   1      40.193  28.120  29.734  1.00  0.00     0.031 A 
ATOM     60  C   UNL A   1      46.758  29.123  29.724  1.00  0.00     0.049 A 
ATOM     61  C   UNL A   1      41.167  28.966  30.452  1.00  0.00     0.074 A 
ATOM     62  C   UNL A   1      47.442  28.151  30.425  1.00  0.00     0.029 A 
ATOM     63  N   UNL A   1      45.874  29.676  30.617  1.00  0.00    -0.354 N 
ATOM     64  N   UNL A   1      41.785  28.591  31.535  1.00  0.00    -0.248 NA
ATOM     65  C   UNL A   1      41.744  30.115  29.774  1.00  0.00     0.031 C 
ATOM     66  C   UNL A   1      46.604  27.846  31.540  1.00  0.00     0.029 A 
ATOM     67  C   UNL A   1      45.485  28.679  31.470  1.00  0.00     0.049 A 
ATOM     68  H   UNL A   1      45.577  30.614  30.641  1.00  0.00     0.167 HD
ATOM     69  C   UNL A   1      43.047  29.153  31.432  1.00  0.00     0.074 A 
ATOM     70  C   UNL A   1      42.913  30.191  30.416  1.00  0.00     0.031 C 
ATOM     71  C   UNL A   1      44.138  28.530  31.971  1.00  0.00     0.031 A 
BRANCH  58  72
ATOM     72  C   UNL A   1      46.582  30.903  27.881  1.00  0.00    -0.014 A 
ATOM     73  C   UNL A   1      45.346  31.546  27.666  1.00  0.00     0.009 A 
ATOM     74  C   UNL A   1      47.723  31.541  27.363  1.00  0.00     0.009 A 
ATOM     75  C   UNL A   1      45.252  32.713  26.898  1.00  0.00     0.001 A 
ATOM     76  C   UNL A   1      47.637  32.732  26.635  1.00  0.00     0.001 A 
ATOM     77  C   UNL A   1      46.398  33.300  26.374  1.00  0.00     0.000 A 
ENDBRANCH  58  72
BRANCH  59  78
ATOM     78  C   UNL A   1      38.783  28.507  29.552  1.00  0.00    -0.014 A 
ATOM     79  C   UNL A   1      37.943  28.728  30.652  1.00  0.00     0.009 A 
ATOM     80  C   UNL A   1      38.321  28.891  28.278  1.00  0.00     0.009 A 
ATOM     81  C   UNL A   1      36.694  29.341  30.486  1.00  0.00     0.001 A 
ATOM     82  C   UNL A   1      37.073  29.498  28.113  1.00  0.00     0.001 A 
ATOM     83  C   UNL A   1      36.265  29.735  29.219  1.00  0.00     0.000 A 
ENDBRANCH  59  78
BRANCH  71  84
ATOM     84  C   UNL A   1      43.902  27.395  32.935  1.00  0.00    -0.014 A 
ATOM     85  C   UNL A   1      43.268  27.566  34.178  1.00  0.00     0.009 A 
ATOM     86  C   UNL A   1      44.200  26.090  32.514  1.00  0.00     0.009 A 
ATOM     87  C   UNL A   1      42.979  26.467  34.993  1.00  0.00     0.001 A 
ATOM     88  C   UNL A   1      43.888  24.990  33.317  1.00  0.00     0.001 A 
ATOM     89  C   UNL A   1      43.286  25.179  34.560  1.00  0.00     0.000 A 
ENDBRANCH  71  84
ENDBRANCH  45  46
ENDBRANCH  37  40
ENDBRANCH  35  36
ENDBRANCH  34  35
ENDBRANCH   1  34
TORSDOF 16
ENDMDL
MODEL 3
REMARK VINA RESULT:     -12.1      1.496      5.089
REMARK SMILES CCCn1nc(C(=O)NCCCCNC(=O)c2ccc(-c3c4nc(c(-c5ccccc5)c5ccc([nH]5)c(-c5ccccc5)c5nc(c(-c6ccccc6)c6ccc3[nH]6)C=C5)C=C4)cc2)c2c1CC[C@@H]([NH+]1CC[NH+](Cc3ccccn3)CC1)C2
REMARK SMILES IDX 11 1 10 2 9 3 7 4 8 5 6 7 4 8 5 9 66 10 65 11 67 12 83 13
REMARK SMILES IDX 68 14 69 15 3 16 2 17 1 18 70 19 71 20 82 21 72 23 81 24
REMARK SMILES IDX 73 25 74 27 75 28 76 29 80 30 77 31 79 32 78 33 12 34 13 35
REMARK SMILES IDX 14 36 15 37 16 39 17 40 18 41 64 42 19 43 63 44 20 45 21 46
REMARK SMILES IDX 22 47 57 48 23 49 62 50 56 51 58 52 24 53 61 54 55 55 54 56
REMARK SMILES IDX 25 58 47 59 32 60 46 61 33 62 36 63 45 64 59 65 34 66 35 67
REMARK SMILES IDX 44 69 60 70 37 71 26 72 27 73 31 74 28 75 30 76 29 77 48 78
REMARK SMILES IDX 49 79 53 80 50 81 52 82 51 83 38 84 39 85 43 86 40 87 42 88
REMARK SMILES IDX 41 89
REMARK H PARENT 9 6 70 22 73 26 14 38 58 57 36 68
REMARK Flexibility Score: inf
ROOT
ATOM      1  C   UNL A   1      34.384  31.193  27.463  1.00  0.00     0.023 C 
ENDROOT
BRANCH   1   2
ATOM      2  C   UNL A   1      34.110  29.688  27.254  1.00  0.00     0.116 C 
BRANCH   2   3
ATOM      3  N   UNL A   1      34.444  29.220  25.913  1.00  0.00    -0.351 N 
ATOM      4  C   UNL A   1      33.793  28.607  24.855  1.00  0.00     0.272 C 
ATOM      5  O   UNL A   1      34.479  28.579  23.824  1.00  0.00    -0.267 OA
ATOM      6  H   UNL A   1      35.391  29.385  25.702  1.00  0.00     0.163 HD
BRANCH   4   7
ATOM      7  C   UNL A   1      32.424  28.011  24.877  1.00  0.00     0.153 A 
ATOM      8  N   UNL A   1      30.397  27.729  24.161  1.00  0.00    -0.269 N 
ATOM      9  N   UNL A   1      31.466  28.540  24.069  1.00  0.00    -0.167 NA
ATOM     10  C   UNL A   1      30.555  26.781  25.132  1.00  0.00     0.043 A 
ATOM     11  C   UNL A   1      31.876  26.864  25.516  1.00  0.00     0.012 A 
ATOM     12  C   UNL A   1      29.595  25.702  25.490  1.00  0.00     0.062 C 
ATOM     13  C   UNL A   1      32.505  25.793  26.302  1.00  0.00     0.105 C 
ATOM     14  C   UNL A   1      30.252  24.670  26.428  1.00  0.00     0.072 C 
ATOM     15  C   UNL A   1      31.774  24.443  26.250  1.00  0.00     0.189 C 
BRANCH   8  16
ATOM     16  C   UNL A   1      29.378  27.699  23.122  1.00  0.00     0.144 C 
BRANCH  16  17
ATOM     17  C   UNL A   1      28.628  28.994  22.817  1.00  0.00     0.020 C 
ATOM     18  C   UNL A   1      29.440  29.987  21.997  1.00  0.00     0.006 C 
ENDBRANCH  16  17
ENDBRANCH   8  16
BRANCH  15  19
ATOM     19  N   UNL A   1      32.282  23.623  25.121  1.00  0.00    -0.323 N 
ATOM     20  C   UNL A   1      31.564  22.378  24.842  1.00  0.00     0.324 C 
ATOM     21  C   UNL A   1      33.748  23.505  25.142  1.00  0.00     0.324 C 
ATOM     22  H   UNL A   1      32.048  24.163  24.289  1.00  0.00     0.348 HD
ATOM     23  C   UNL A   1      32.242  21.422  23.845  1.00  0.00     0.324 C 
ATOM     24  C   UNL A   1      34.371  22.453  24.193  1.00  0.00     0.324 C 
ATOM     25  N   UNL A   1      33.660  21.173  24.096  1.00  0.00    -0.321 N 
ATOM     26  H   UNL A   1      34.023  20.671  23.285  1.00  0.00     0.348 HD
BRANCH  25  27
ATOM     27  C   UNL A   1      33.972  20.197  25.157  1.00  0.00     0.319 C 
BRANCH  27  28
ATOM     28  C   UNL A   1      33.682  18.716  24.954  1.00  0.00     0.095 A 
ATOM     29  C   UNL A   1      34.480  17.934  24.119  1.00  0.00     0.030 A 
ATOM     30  N   UNL A   1      32.643  18.180  25.651  1.00  0.00    -0.255 NA
ATOM     31  C   UNL A   1      34.179  16.580  23.964  1.00  0.00     0.004 A 
ATOM     32  C   UNL A   1      32.364  16.869  25.468  1.00  0.00     0.111 A 
ATOM     33  C   UNL A   1      33.093  16.038  24.640  1.00  0.00     0.020 A 
ENDBRANCH  27  28
ENDBRANCH  25  27
ENDBRANCH  15  19
ENDBRANCH   4   7
ENDBRANCH   2   3
ENDBRANCH   1   2
BRANCH   1  34
ATOM     34  C   UNL A   1      33.222  32.050  27.971  1.00  0.00     0.023 C 
BRANCH  34  35
ATOM     35  C   UNL A   1      33.192  33.458  27.381  1.00  0.00     0.116 C 
BRANCH  35  36
ATOM     36  N   UNL A   1      32.652  34.464  28.297  1.00  0.00    -0.352 N 
ATOM     37  C   UNL A   1      33.124  34.769  29.558  1.00  0.00     0.251 C 
ATOM     38  H   UNL A   1      31.871  34.974  27.982  1.00  0.00     0.163 HD
ATOM     39  O   UNL A   1      32.433  35.337  30.397  1.00  0.00    -0.269 OA
BRANCH  37  40
ATOM     40  C   UNL A   1      34.509  34.393  29.865  1.00  0.00     0.039 A 
ATOM     41  C   UNL A   1      34.792  33.539  30.930  1.00  0.00     0.014 A 
ATOM     42  C   UNL A   1      35.497  34.790  28.962  1.00  0.00     0.014 A 
ATOM     43  C   UNL A   1      36.068  32.991  31.025  1.00  0.00     0.010 A 
ATOM     44  C   UNL A   1      36.739  34.190  29.020  1.00  0.00     0.010 A 
ATOM     45  C   UNL A   1      37.033  33.284  30.046  1.00  0.00    -0.014 A 
BRANCH  45  46
ATOM     46  C   UNL A   1      38.279  32.511  30.015  1.00  0.00     0.031 A 
ATOM     47  C   UNL A   1      38.188  31.121  29.470  1.00  0.00     0.074 A 
ATOM     48  C   UNL A   1      39.507  33.033  30.221  1.00  0.00     0.049 A 
ATOM     49  N   UNL A   1      38.471  30.011  30.072  1.00  0.00    -0.248 NA
ATOM     50  C   UNL A   1      37.682  30.943  28.100  1.00  0.00     0.031 C 
ATOM     51  C   UNL A   1      39.867  34.438  30.436  1.00  0.00     0.029 A 
ATOM     52  N   UNL A   1      40.721  32.412  30.147  1.00  0.00    -0.354 N 
ATOM     53  C   UNL A   1      38.345  29.003  29.118  1.00  0.00     0.074 A 
ATOM     54  C   UNL A   1      37.748  29.617  27.957  1.00  0.00     0.031 C 
ATOM     55  C   UNL A   1      41.192  34.596  30.230  1.00  0.00     0.029 A 
ATOM     56  C   UNL A   1      41.792  33.286  30.046  1.00  0.00     0.049 A 
ATOM     57  H   UNL A   1      40.826  31.433  30.164  1.00  0.00     0.167 HD
ATOM     58  C   UNL A   1      38.930  27.782  29.274  1.00  0.00     0.031 A 
ATOM     59  C   UNL A   1      43.086  32.977  29.810  1.00  0.00     0.031 A 
ATOM     60  C   UNL A   1      39.352  27.547  30.628  1.00  0.00     0.049 A 
ATOM     61  C   UNL A   1      43.291  31.556  30.152  1.00  0.00     0.074 A 
ATOM     62  C   UNL A   1      38.735  27.511  31.863  1.00  0.00     0.029 A 
ATOM     63  N   UNL A   1      40.698  27.628  30.886  1.00  0.00    -0.354 N 
ATOM     64  N   UNL A   1      43.245  31.095  31.369  1.00  0.00    -0.248 NA
ATOM     65  C   UNL A   1      43.194  30.554  29.104  1.00  0.00     0.031 C 
ATOM     66  C   UNL A   1      39.695  28.059  32.767  1.00  0.00     0.029 A 
ATOM     67  C   UNL A   1      40.847  28.355  32.035  1.00  0.00     0.049 A 
ATOM     68  H   UNL A   1      41.421  27.235  30.345  1.00  0.00     0.167 HD
ATOM     69  C   UNL A   1      42.678  29.837  31.248  1.00  0.00     0.074 A 
ATOM     70  C   UNL A   1      42.809  29.503  29.833  1.00  0.00     0.031 C 
ATOM     71  C   UNL A   1      41.904  29.317  32.247  1.00  0.00     0.031 A 
BRANCH  58  72
ATOM     72  C   UNL A   1      39.488  26.958  28.133  1.00  0.00    -0.014 A 
ATOM     73  C   UNL A   1      39.361  25.556  28.184  1.00  0.00     0.009 A 
ATOM     74  C   UNL A   1      40.391  27.476  27.187  1.00  0.00     0.009 A 
ATOM     75  C   UNL A   1      40.161  24.719  27.396  1.00  0.00     0.001 A 
ATOM     76  C   UNL A   1      41.159  26.643  26.366  1.00  0.00     0.001 A 
ATOM     77  C   UNL A   1      41.067  25.264  26.493  1.00  0.00     0.000 A 
ENDBRANCH  58  72
BRANCH  59  78
ATOM     78  C   UNL A   1      44.125  33.799  29.163  1.00  0.00    -0.014 A 
ATOM     79  C   UNL A   1      44.106  34.039  27.783  1.00  0.00     0.009 A 
ATOM     80  C   UNL A   1      45.017  34.550  29.953  1.00  0.00     0.009 A 
ATOM     81  C   UNL A   1      44.931  35.018  27.216  1.00  0.00     0.001 A 
ATOM     82  C   UNL A   1      45.843  35.524  29.386  1.00  0.00     0.001 A 
ATOM     83  C   UNL A   1      45.789  35.768  28.019  1.00  0.00     0.000 A 
ENDBRANCH  59  78
BRANCH  71  84
ATOM     84  C   UNL A   1      41.935  29.995  33.593  1.00  0.00    -0.014 A 
ATOM     85  C   UNL A   1      41.119  31.094  33.915  1.00  0.00     0.009 A 
ATOM     86  C   UNL A   1      42.707  29.419  34.613  1.00  0.00     0.009 A 
ATOM     87  C   UNL A   1      41.109  31.626  35.208  1.00  0.00     0.001 A 
ATOM     88  C   UNL A   1      42.677  29.934  35.911  1.00  0.00     0.001 A 
ATOM     89  C   UNL A   1      41.885  31.042  36.206  1.00  0.00     0.000 A 
ENDBRANCH  71  84
ENDBRANCH  45  46
ENDBRANCH  37  40
ENDBRANCH  35  36
ENDBRANCH  34  35
ENDBRANCH   1  34
TORSDOF 16
ENDMDL
