MODEL 1
REMARK VINA RESULT:     -11.2      0.000      0.000
REMARK SMILES O=C(C[C@@H]1CN(C(=O)Nc2ccccc2)CCO1)NCCCCNC(=O)c1ccc(-c2c3nc(c(-c4ccccc4)c4ccc([nH]4)c(-c4ccccc4)c4nc(c(-c5ccccc5)c5ccc2[nH]5)C=C4)C=C3)cc1
REMARK SMILES IDX 21 1 20 2 19 3 1 4 2 5 3 7 4 8 5 9 18 10 6 11 17 12 16 13
REMARK SMILES IDX 7 14 8 15 9 16 10 18 11 19 15 20 12 21 14 22 13 23 22 24
REMARK SMILES IDX 23 25 24 26 25 27 26 29 27 30 28 31 74 32 29 33 73 34 30 35
REMARK SMILES IDX 31 36 32 37 67 38 33 39 72 40 66 41 68 42 34 43 71 44 65 45
REMARK SMILES IDX 64 46 35 48 57 49 42 50 56 51 43 52 46 53 55 54 69 55 44 56
REMARK SMILES IDX 45 57 54 59 70 60 47 61 36 62 37 63 41 64 38 65 40 66 39 67
REMARK SMILES IDX 58 68 59 69 63 70 60 71 62 72 61 73 48 74 49 75 53 76 50 77
REMARK SMILES IDX 52 78 51 79
REMARK H PARENT 19 6 9 17 24 28 68 47 46 58
REMARK Flexibility Score: inf
ROOT
ATOM      1  C   UNL A   1      33.662  28.557  24.810  1.00  0.00     0.023 C 
ENDROOT
BRANCH   1   2
ATOM      2  C   UNL A   1      33.140  27.988  23.492  1.00  0.00     0.116 C 
BRANCH   2   3
ATOM      3  N   UNL A   1      32.914  26.564  23.576  1.00  0.00    -0.356 N 
ATOM      4  O   UNL A   1      33.703  26.025  21.489  1.00  0.00    -0.275 OA
ATOM      5  C   UNL A   1      33.215  25.690  22.563  1.00  0.00     0.222 C 
ATOM      6  H   UNL A   1      32.523  26.202  24.404  1.00  0.00     0.163 HD
BRANCH   5   7
ATOM      7  C   UNL A   1      32.761  24.275  22.825  1.00  0.00     0.133 C 
BRANCH   7   8
ATOM      8  C   UNL A   1      33.766  23.330  23.486  1.00  0.00     0.147 C 
ATOM      9  C   UNL A   1      33.686  23.415  25.023  1.00  0.00     0.154 C 
ATOM     10  O   UNL A   1      35.142  23.581  23.123  1.00  0.00    -0.374 OA
ATOM     11  N   UNL A   1      34.481  22.317  25.581  1.00  0.00    -0.320 N 
ATOM     12  C   UNL A   1      35.995  22.532  23.637  1.00  0.00     0.182 C 
ATOM     13  C   UNL A   1      35.886  22.402  25.165  1.00  0.00     0.150 C 
BRANCH  11  14
ATOM     14  C   UNL A   1      34.112  21.363  26.495  1.00  0.00     0.322 C 
ATOM     15  O   UNL A   1      34.324  21.519  27.701  1.00  0.00    -0.248 OA
ATOM     16  N   UNL A   1      33.391  20.269  26.138  1.00  0.00    -0.308 N 
ATOM     17  H   UNL A   1      32.829  19.917  26.865  1.00  0.00     0.171 HD
BRANCH  16  18
ATOM     18  C   UNL A   1      33.283  19.538  24.948  1.00  0.00     0.042 A 
ATOM     19  C   UNL A   1      34.072  18.393  24.821  1.00  0.00     0.026 A 
ATOM     20  C   UNL A   1      32.417  19.895  23.912  1.00  0.00     0.026 A 
ATOM     21  C   UNL A   1      33.887  17.534  23.736  1.00  0.00     0.002 A 
ATOM     22  C   UNL A   1      32.233  19.036  22.826  1.00  0.00     0.002 A 
ATOM     23  C   UNL A   1      32.949  17.843  22.753  1.00  0.00     0.000 A 
ENDBRANCH  16  18
ENDBRANCH  11  14
ENDBRANCH   7   8
ENDBRANCH   5   7
ENDBRANCH   2   3
ENDBRANCH   1   2
BRANCH   1  24
ATOM     24  C   UNL A   1      32.816  28.222  26.042  1.00  0.00     0.023 C 
BRANCH  24  25
ATOM     25  C   UNL A   1      33.455  28.550  27.388  1.00  0.00     0.116 C 
BRANCH  25  26
ATOM     26  N   UNL A   1      33.505  29.978  27.656  1.00  0.00    -0.352 N 
ATOM     27  C   UNL A   1      34.526  30.743  28.170  1.00  0.00     0.251 C 
ATOM     28  H   UNL A   1      32.683  30.473  27.436  1.00  0.00     0.163 HD
ATOM     29  O   UNL A   1      34.323  31.915  28.462  1.00  0.00    -0.269 OA
BRANCH  27  30
ATOM     30  C   UNL A   1      35.863  30.149  28.400  1.00  0.00     0.039 A 
ATOM     31  C   UNL A   1      36.780  30.135  27.346  1.00  0.00     0.014 A 
ATOM     32  C   UNL A   1      36.212  29.598  29.636  1.00  0.00     0.014 A 
ATOM     33  C   UNL A   1      38.069  29.634  27.550  1.00  0.00     0.010 A 
ATOM     34  C   UNL A   1      37.519  29.169  29.860  1.00  0.00     0.010 A 
ATOM     35  C   UNL A   1      38.462  29.183  28.820  1.00  0.00    -0.014 A 
BRANCH  35  36
ATOM     36  C   UNL A   1      39.857  28.740  29.082  1.00  0.00     0.031 A 
ATOM     37  C   UNL A   1      40.848  29.674  29.722  1.00  0.00     0.074 A 
ATOM     38  C   UNL A   1      40.252  27.513  28.688  1.00  0.00     0.049 A 
ATOM     39  N   UNL A   1      42.118  29.481  29.979  1.00  0.00    -0.248 NA
ATOM     40  C   UNL A   1      40.355  31.007  30.103  1.00  0.00     0.031 C 
ATOM     41  C   UNL A   1      39.402  26.519  28.027  1.00  0.00     0.029 A 
ATOM     42  N   UNL A   1      41.474  26.893  28.782  1.00  0.00    -0.354 N 
ATOM     43  C   UNL A   1      42.577  30.670  30.533  1.00  0.00     0.074 A 
ATOM     44  C   UNL A   1      41.464  31.594  30.531  1.00  0.00     0.031 C 
ATOM     45  C   UNL A   1      40.119  25.405  27.805  1.00  0.00     0.029 A 
ATOM     46  C   UNL A   1      41.488  25.621  28.263  1.00  0.00     0.049 A 
ATOM     47  H   UNL A   1      42.264  27.319  29.183  1.00  0.00     0.167 HD
ATOM     48  C   UNL A   1      43.809  30.963  31.015  1.00  0.00     0.031 A 
ATOM     49  C   UNL A   1      42.491  24.727  28.157  1.00  0.00     0.031 A 
ATOM     50  C   UNL A   1      44.916  30.043  31.024  1.00  0.00     0.049 A 
ATOM     51  C   UNL A   1      43.856  25.090  28.673  1.00  0.00     0.074 A 
ATOM     52  C   UNL A   1      46.185  30.229  31.546  1.00  0.00     0.029 A 
ATOM     53  N   UNL A   1      44.890  28.769  30.482  1.00  0.00    -0.354 N 
ATOM     54  N   UNL A   1      44.253  26.192  29.259  1.00  0.00    -0.248 NA
ATOM     55  C   UNL A   1      44.909  24.076  28.521  1.00  0.00     0.031 C 
ATOM     56  C   UNL A   1      46.945  29.090  31.264  1.00  0.00     0.029 A 
ATOM     57  C   UNL A   1      46.130  28.168  30.627  1.00  0.00     0.049 A 
ATOM     58  H   UNL A   1      44.106  28.351  30.057  1.00  0.00     0.167 HD
ATOM     59  C   UNL A   1      45.592  25.993  29.574  1.00  0.00     0.074 A 
ATOM     60  C   UNL A   1      45.933  24.657  29.128  1.00  0.00     0.031 C 
ATOM     61  C   UNL A   1      46.459  26.840  30.181  1.00  0.00     0.031 A 
BRANCH  48  62
ATOM     62  C   UNL A   1      44.030  32.347  31.563  1.00  0.00    -0.014 A 
ATOM     63  C   UNL A   1      43.819  32.638  32.921  1.00  0.00     0.009 A 
ATOM     64  C   UNL A   1      44.498  33.365  30.717  1.00  0.00     0.009 A 
ATOM     65  C   UNL A   1      44.037  33.928  33.410  1.00  0.00     0.001 A 
ATOM     66  C   UNL A   1      44.746  34.645  31.215  1.00  0.00     0.001 A 
ATOM     67  C   UNL A   1      44.505  34.929  32.559  1.00  0.00     0.000 A 
ENDBRANCH  48  62
BRANCH  49  68
ATOM     68  C   UNL A   1      42.245  23.394  27.545  1.00  0.00    -0.014 A 
ATOM     69  C   UNL A   1      42.615  23.142  26.216  1.00  0.00     0.009 A 
ATOM     70  C   UNL A   1      41.624  22.373  28.280  1.00  0.00     0.009 A 
ATOM     71  C   UNL A   1      42.340  21.907  25.625  1.00  0.00     0.001 A 
ATOM     72  C   UNL A   1      41.379  21.127  27.697  1.00  0.00     0.001 A 
ATOM     73  C   UNL A   1      41.726  20.900  26.368  1.00  0.00     0.000 A 
ENDBRANCH  49  68
BRANCH  61  74
ATOM     74  C   UNL A   1      47.852  26.333  30.438  1.00  0.00    -0.014 A 
ATOM     75  C   UNL A   1      48.859  26.429  29.464  1.00  0.00     0.009 A 
ATOM     76  C   UNL A   1      48.169  25.787  31.691  1.00  0.00     0.009 A 
ATOM     77  C   UNL A   1      50.145  25.955  29.730  1.00  0.00     0.001 A 
ATOM     78  C   UNL A   1      49.464  25.344  31.965  1.00  0.00     0.001 A 
ATOM     79  C   UNL A   1      50.448  25.418  30.980  1.00  0.00     0.000 A 
ENDBRANCH  61  74
ENDBRANCH  35  36
ENDBRANCH  27  30
ENDBRANCH  25  26
ENDBRANCH  24  25
ENDBRANCH   1  24
TORSDOF 14
ENDMDL
MODEL 2
REMARK VINA RESULT:     -11.1      1.372      2.187
REMARK SMILES O=C(C[C@@H]1CN(C(=O)Nc2ccccc2)CCO1)NCCCCNC(=O)c1ccc(-c2c3nc(c(-c4ccccc4)c4ccc([nH]4)c(-c4ccccc4)c4nc(c(-c5ccccc5)c5ccc2[nH]5)C=C4)C=C3)cc1
REMARK SMILES IDX 21 1 20 2 19 3 1 4 2 5 3 7 4 8 5 9 18 10 6 11 17 12 16 13
REMARK SMILES IDX 7 14 8 15 9 16 10 18 11 19 15 20 12 21 14 22 13 23 22 24
REMARK SMILES IDX 23 25 24 26 25 27 26 29 27 30 28 31 74 32 29 33 73 34 30 35
REMARK SMILES IDX 31 36 32 37 67 38 33 39 72 40 66 41 68 42 34 43 71 44 65 45
REMARK SMILES IDX 64 46 35 48 57 49 42 50 56 51 43 52 46 53 55 54 69 55 44 56
REMARK SMILES IDX 45 57 54 59 70 60 47 61 36 62 37 63 41 64 38 65 40 66 39 67
REMARK SMILES IDX 58 68 59 69 63 70 60 71 62 72 61 73 48 74 49 75 53 76 50 77
REMARK SMILES IDX 52 78 51 79
REMARK H PARENT 19 6 9 17 24 28 68 47 46 58
REMARK Flexibility Score: inf
ROOT
ATOM      1  C   UNL A   1      33.320  29.176  24.740  1.00  0.00     0.023 C 
ENDROOT
BRANCH   1   2
ATOM      2  C   UNL A   1      32.562  28.906  23.442  1.00  0.00     0.116 C 
BRANCH   2   3
ATOM      3  N   UNL A   1      32.494  27.494  23.146  1.00  0.00    -0.356 N 
ATOM      4  O   UNL A   1      30.272  27.430  22.567  1.00  0.00    -0.275 OA
ATOM      5  C   UNL A   1      31.348  26.864  22.729  1.00  0.00     0.222 C 
ATOM      6  H   UNL A   1      33.312  26.956  23.248  1.00  0.00     0.163 HD
BRANCH   5   7
ATOM      7  C   UNL A   1      31.485  25.365  22.617  1.00  0.00     0.133 C 
BRANCH   7   8
ATOM      8  C   UNL A   1      31.790  24.594  23.903  1.00  0.00     0.147 C 
ATOM      9  C   UNL A   1      31.261  23.149  23.825  1.00  0.00     0.154 C 
ATOM     10  O   UNL A   1      31.226  25.184  25.095  1.00  0.00    -0.374 OA
ATOM     11  N   UNL A   1      31.804  22.405  24.967  1.00  0.00    -0.320 N 
ATOM     12  C   UNL A   1      31.720  24.503  26.271  1.00  0.00     0.182 C 
ATOM     13  C   UNL A   1      31.395  23.001  26.244  1.00  0.00     0.150 C 
BRANCH  11  14
ATOM     14  C   UNL A   1      32.490  21.217  24.973  1.00  0.00     0.322 C 
ATOM     15  O   UNL A   1      31.910  20.145  25.170  1.00  0.00    -0.248 OA
ATOM     16  N   UNL A   1      33.805  21.147  24.643  1.00  0.00    -0.308 N 
ATOM     17  H   UNL A   1      34.068  20.279  24.261  1.00  0.00     0.171 HD
BRANCH  16  18
ATOM     18  C   UNL A   1      34.867  22.056  24.736  1.00  0.00     0.042 A 
ATOM     19  C   UNL A   1      35.181  22.553  26.003  1.00  0.00     0.026 A 
ATOM     20  C   UNL A   1      35.621  22.461  23.632  1.00  0.00     0.026 A 
ATOM     21  C   UNL A   1      36.329  23.328  26.185  1.00  0.00     0.002 A 
ATOM     22  C   UNL A   1      36.767  23.237  23.814  1.00  0.00     0.002 A 
ATOM     23  C   UNL A   1      37.135  23.647  25.095  1.00  0.00     0.000 A 
ENDBRANCH  16  18
ENDBRANCH  11  14
ENDBRANCH   7   8
ENDBRANCH   5   7
ENDBRANCH   2   3
ENDBRANCH   1   2
BRANCH   1  24
ATOM     24  C   UNL A   1      32.776  28.450  25.974  1.00  0.00     0.023 C 
BRANCH  24  25
ATOM     25  C   UNL A   1      33.575  28.646  27.258  1.00  0.00     0.116 C 
BRANCH  25  26
ATOM     26  N   UNL A   1      33.595  30.029  27.705  1.00  0.00    -0.352 N 
ATOM     27  C   UNL A   1      34.593  30.739  28.331  1.00  0.00     0.251 C 
ATOM     28  H   UNL A   1      32.768  30.535  27.534  1.00  0.00     0.163 HD
ATOM     29  O   UNL A   1      34.364  31.862  28.765  1.00  0.00    -0.269 OA
BRANCH  27  30
ATOM     30  C   UNL A   1      35.936  30.143  28.511  1.00  0.00     0.039 A 
ATOM     31  C   UNL A   1      36.840  30.195  27.447  1.00  0.00     0.014 A 
ATOM     32  C   UNL A   1      36.305  29.524  29.708  1.00  0.00     0.014 A 
ATOM     33  C   UNL A   1      38.134  29.693  27.606  1.00  0.00     0.010 A 
ATOM     34  C   UNL A   1      37.617  29.091  29.892  1.00  0.00     0.010 A 
ATOM     35  C   UNL A   1      38.547  29.172  28.843  1.00  0.00    -0.014 A 
BRANCH  35  36
ATOM     36  C   UNL A   1      39.947  28.724  29.061  1.00  0.00     0.031 A 
ATOM     37  C   UNL A   1      40.965  29.661  29.653  1.00  0.00     0.074 A 
ATOM     38  C   UNL A   1      40.321  27.489  28.671  1.00  0.00     0.049 A 
ATOM     39  N   UNL A   1      42.242  29.463  29.869  1.00  0.00    -0.248 NA
ATOM     40  C   UNL A   1      40.493  31.002  30.033  1.00  0.00     0.031 C 
ATOM     41  C   UNL A   1      39.443  26.491  28.054  1.00  0.00     0.029 A 
ATOM     42  N   UNL A   1      41.542  26.863  28.731  1.00  0.00    -0.354 N 
ATOM     43  C   UNL A   1      42.727  30.657  30.390  1.00  0.00     0.074 A 
ATOM     44  C   UNL A   1      41.620  31.588  30.414  1.00  0.00     0.031 C 
ATOM     45  C   UNL A   1      40.146  25.371  27.823  1.00  0.00     0.029 A 
ATOM     46  C   UNL A   1      41.532  25.584  28.228  1.00  0.00     0.049 A 
ATOM     47  H   UNL A   1      42.349  27.290  29.098  1.00  0.00     0.167 HD
ATOM     48  C   UNL A   1      43.977  30.949  30.825  1.00  0.00     0.031 A 
ATOM     49  C   UNL A   1      42.526  24.683  28.100  1.00  0.00     0.031 A 
ATOM     50  C   UNL A   1      45.078  30.023  30.807  1.00  0.00     0.049 A 
ATOM     51  C   UNL A   1      43.909  25.044  28.563  1.00  0.00     0.074 A 
ATOM     52  C   UNL A   1      46.366  30.209  31.282  1.00  0.00     0.029 A 
ATOM     53  N   UNL A   1      45.026  28.742  30.284  1.00  0.00    -0.354 N 
ATOM     54  N   UNL A   1      44.333  26.153  29.119  1.00  0.00    -0.248 NA
ATOM     55  C   UNL A   1      44.951  24.022  28.388  1.00  0.00     0.031 C 
ATOM     56  C   UNL A   1      47.109  29.061  30.989  1.00  0.00     0.029 A 
ATOM     57  C   UNL A   1      46.268  28.136  30.394  1.00  0.00     0.049 A 
ATOM     58  H   UNL A   1      44.226  28.323  29.892  1.00  0.00     0.167 HD
ATOM     59  C   UNL A   1      45.680  25.950  29.391  1.00  0.00     0.074 A 
ATOM     60  C   UNL A   1      45.999  24.606  28.951  1.00  0.00     0.031 C 
ATOM     61  C   UNL A   1      46.574  26.800  29.955  1.00  0.00     0.031 A 
BRANCH  48  62
ATOM     62  C   UNL A   1      44.225  32.339  31.345  1.00  0.00    -0.014 A 
ATOM     63  C   UNL A   1      44.038  32.656  32.700  1.00  0.00     0.009 A 
ATOM     64  C   UNL A   1      44.694  33.336  30.474  1.00  0.00     0.009 A 
ATOM     65  C   UNL A   1      44.280  33.951  33.164  1.00  0.00     0.001 A 
ATOM     66  C   UNL A   1      44.965  34.621  30.947  1.00  0.00     0.001 A 
ATOM     67  C   UNL A   1      44.749  34.931  32.289  1.00  0.00     0.000 A 
ENDBRANCH  48  62
BRANCH  49  68
ATOM     68  C   UNL A   1      42.251  23.343  27.516  1.00  0.00    -0.014 A 
ATOM     69  C   UNL A   1      41.811  22.289  28.330  1.00  0.00     0.009 A 
ATOM     70  C   UNL A   1      42.442  23.107  26.146  1.00  0.00     0.009 A 
ATOM     71  C   UNL A   1      41.601  21.017  27.792  1.00  0.00     0.001 A 
ATOM     72  C   UNL A   1      42.200  21.842  25.604  1.00  0.00     0.001 A 
ATOM     73  C   UNL A   1      41.791  20.797  26.429  1.00  0.00     0.000 A 
ENDBRANCH  49  68
BRANCH  61  74
ATOM     74  C   UNL A   1      47.972  26.288  30.169  1.00  0.00    -0.014 A 
ATOM     75  C   UNL A   1      48.936  26.339  29.151  1.00  0.00     0.009 A 
ATOM     76  C   UNL A   1      48.338  25.783  31.427  1.00  0.00     0.009 A 
ATOM     77  C   UNL A   1      50.229  25.862  29.378  1.00  0.00     0.001 A 
ATOM     78  C   UNL A   1      49.640  25.337  31.661  1.00  0.00     0.001 A 
ATOM     79  C   UNL A   1      50.581  25.367  30.633  1.00  0.00     0.000 A 
ENDBRANCH  61  74
ENDBRANCH  35  36
ENDBRANCH  27  30
ENDBRANCH  25  26
ENDBRANCH  24  25
ENDBRANCH   1  24
TORSDOF 14
ENDMDL
MODEL 3
REMARK VINA RESULT:     -11.0      2.699      8.300
REMARK SMILES O=C(C[C@@H]1CN(C(=O)Nc2ccccc2)CCO1)NCCCCNC(=O)c1ccc(-c2c3nc(c(-c4ccccc4)c4ccc([nH]4)c(-c4ccccc4)c4nc(c(-c5ccccc5)c5ccc2[nH]5)C=C4)C=C3)cc1
REMARK SMILES IDX 21 1 20 2 19 3 1 4 2 5 3 7 4 8 5 9 18 10 6 11 17 12 16 13
REMARK SMILES IDX 7 14 8 15 9 16 10 18 11 19 15 20 12 21 14 22 13 23 22 24
REMARK SMILES IDX 23 25 24 26 25 27 26 29 27 30 28 31 74 32 29 33 73 34 30 35
REMARK SMILES IDX 31 36 32 37 67 38 33 39 72 40 66 41 68 42 34 43 71 44 65 45
REMARK SMILES IDX 64 46 35 48 57 49 42 50 56 51 43 52 46 53 55 54 69 55 44 56
REMARK SMILES IDX 45 57 54 59 70 60 47 61 36 62 37 63 41 64 38 65 40 66 39 67
REMARK SMILES IDX 58 68 59 69 63 70 60 71 62 72 61 73 48 74 49 75 53 76 50 77
REMARK SMILES IDX 52 78 51 79
REMARK H PARENT 19 6 9 17 24 28 68 47 46 58
REMARK Flexibility Score: inf
ROOT
ATOM      1  C   UNL A   1      34.559  22.809  27.142  1.00  0.00     0.023 C 
ENDROOT
BRANCH   1   2
ATOM      2  C   UNL A   1      33.074  22.474  27.024  1.00  0.00     0.116 C 
BRANCH   2   3
ATOM      3  N   UNL A   1      32.272  23.660  26.835  1.00  0.00    -0.356 N 
ATOM      4  O   UNL A   1      30.383  22.609  26.060  1.00  0.00    -0.275 OA
ATOM      5  C   UNL A   1      30.983  23.634  26.366  1.00  0.00     0.222 C 
ATOM      6  H   UNL A   1      32.671  24.533  27.054  1.00  0.00     0.163 HD
BRANCH   5   7
ATOM      7  C   UNL A   1      30.397  25.003  26.120  1.00  0.00     0.133 C 
BRANCH   7   8
ATOM      8  C   UNL A   1      31.077  25.873  25.060  1.00  0.00     0.147 C 
ATOM      9  C   UNL A   1      30.051  26.750  24.316  1.00  0.00     0.154 C 
ATOM     10  O   UNL A   1      31.798  25.126  24.055  1.00  0.00    -0.374 OA
ATOM     11  N   UNL A   1      30.789  27.726  23.507  1.00  0.00    -0.320 N 
ATOM     12  C   UNL A   1      32.560  26.025  23.215  1.00  0.00     0.182 C 
ATOM     13  C   UNL A   1      31.662  27.067  22.529  1.00  0.00     0.150 C 
BRANCH  11  14
ATOM     14  C   UNL A   1      30.660  29.090  23.475  1.00  0.00     0.322 C 
ATOM     15  O   UNL A   1      29.983  29.648  22.605  1.00  0.00    -0.248 OA
ATOM     16  N   UNL A   1      31.161  29.882  24.458  1.00  0.00    -0.308 N 
ATOM     17  H   UNL A   1      30.663  30.723  24.576  1.00  0.00     0.171 HD
BRANCH  16  18
ATOM     18  C   UNL A   1      32.240  29.748  25.340  1.00  0.00     0.042 A 
ATOM     19  C   UNL A   1      32.284  30.606  26.441  1.00  0.00     0.026 A 
ATOM     20  C   UNL A   1      33.245  28.792  25.173  1.00  0.00     0.026 A 
ATOM     21  C   UNL A   1      33.238  30.412  27.442  1.00  0.00     0.002 A 
ATOM     22  C   UNL A   1      34.201  28.599  26.173  1.00  0.00     0.002 A 
ATOM     23  C   UNL A   1      34.179  29.392  27.319  1.00  0.00     0.000 A 
ENDBRANCH  16  18
ENDBRANCH  11  14
ENDBRANCH   7   8
ENDBRANCH   5   7
ENDBRANCH   2   3
ENDBRANCH   1   2
BRANCH   1  24
ATOM     24  C   UNL A   1      35.421  22.366  25.957  1.00  0.00     0.023 C 
BRANCH  24  25
ATOM     25  C   UNL A   1      36.716  23.147  25.757  1.00  0.00     0.116 C 
BRANCH  25  26
ATOM     26  N   UNL A   1      37.903  22.321  25.901  1.00  0.00    -0.352 N 
ATOM     27  C   UNL A   1      39.168  22.662  26.318  1.00  0.00     0.251 C 
ATOM     28  H   UNL A   1      37.782  21.373  25.666  1.00  0.00     0.163 HD
ATOM     29  O   UNL A   1      40.080  21.848  26.231  1.00  0.00    -0.269 OA
BRANCH  27  30
ATOM     30  C   UNL A   1      39.444  24.018  26.844  1.00  0.00     0.039 A 
ATOM     31  C   UNL A   1      39.065  24.318  28.155  1.00  0.00     0.014 A 
ATOM     32  C   UNL A   1      40.056  24.995  26.055  1.00  0.00     0.014 A 
ATOM     33  C   UNL A   1      39.363  25.571  28.698  1.00  0.00     0.010 A 
ATOM     34  C   UNL A   1      40.420  26.217  26.619  1.00  0.00     0.010 A 
ATOM     35  C   UNL A   1      40.079  26.518  27.947  1.00  0.00    -0.014 A 
BRANCH  35  36
ATOM     36  C   UNL A   1      40.493  27.817  28.540  1.00  0.00     0.031 A 
ATOM     37  C   UNL A   1      41.900  28.018  29.032  1.00  0.00     0.074 A 
ATOM     38  C   UNL A   1      39.583  28.800  28.691  1.00  0.00     0.049 A 
ATOM     39  N   UNL A   1      42.427  29.062  29.624  1.00  0.00    -0.248 NA
ATOM     40  C   UNL A   1      42.833  26.894  28.859  1.00  0.00     0.031 C 
ATOM     41  C   UNL A   1      38.177  28.726  28.286  1.00  0.00     0.029 A 
ATOM     42  N   UNL A   1      39.706  30.057  29.232  1.00  0.00    -0.354 N 
ATOM     43  C   UNL A   1      43.742  28.713  29.907  1.00  0.00     0.074 A 
ATOM     44  C   UNL A   1      43.920  27.346  29.468  1.00  0.00     0.031 C 
ATOM     45  C   UNL A   1      37.578  29.896  28.564  1.00  0.00     0.029 A 
ATOM     46  C   UNL A   1      38.540  30.784  29.208  1.00  0.00     0.049 A 
ATOM     47  H   UNL A   1      40.549  30.404  29.602  1.00  0.00     0.167 HD
ATOM     48  C   UNL A   1      44.719  29.466  30.468  1.00  0.00     0.031 A 
ATOM     49  C   UNL A   1      38.269  32.024  29.660  1.00  0.00     0.031 A 
ATOM     50  C   UNL A   1      44.546  30.828  30.901  1.00  0.00     0.049 A 
ATOM     51  C   UNL A   1      39.365  32.826  30.305  1.00  0.00     0.074 A 
ATOM     52  C   UNL A   1      45.493  31.691  31.425  1.00  0.00     0.029 A 
ATOM     53  N   UNL A   1      43.348  31.523  30.865  1.00  0.00    -0.354 N 
ATOM     54  N   UNL A   1      40.620  32.506  30.500  1.00  0.00    -0.248 NA
ATOM     55  C   UNL A   1      39.004  34.169  30.784  1.00  0.00     0.031 C 
ATOM     56  C   UNL A   1      44.853  32.887  31.764  1.00  0.00     0.029 A 
ATOM     57  C   UNL A   1      43.523  32.794  31.388  1.00  0.00     0.049 A 
ATOM     58  H   UNL A   1      42.497  31.167  30.518  1.00  0.00     0.167 HD
ATOM     59  C   UNL A   1      41.207  33.617  31.093  1.00  0.00     0.074 A 
ATOM     60  C   UNL A   1      40.173  34.625  31.212  1.00  0.00     0.031 C 
ATOM     61  C   UNL A   1      42.489  33.788  31.502  1.00  0.00     0.031 A 
BRANCH  48  62
ATOM     62  C   UNL A   1      46.066  28.825  30.661  1.00  0.00    -0.014 A 
ATOM     63  C   UNL A   1      46.381  28.126  31.839  1.00  0.00     0.009 A 
ATOM     64  C   UNL A   1      47.019  28.882  29.632  1.00  0.00     0.009 A 
ATOM     65  C   UNL A   1      47.635  27.532  31.996  1.00  0.00     0.001 A 
ATOM     66  C   UNL A   1      48.260  28.260  29.779  1.00  0.00     0.001 A 
ATOM     67  C   UNL A   1      48.571  27.594  30.964  1.00  0.00     0.000 A 
ENDBRANCH  48  62
BRANCH  49  68
ATOM     68  C   UNL A   1      36.904  32.594  29.510  1.00  0.00    -0.014 A 
ATOM     69  C   UNL A   1      35.961  32.460  30.540  1.00  0.00     0.009 A 
ATOM     70  C   UNL A   1      36.531  33.260  28.332  1.00  0.00     0.009 A 
ATOM     71  C   UNL A   1      34.662  32.951  30.381  1.00  0.00     0.001 A 
ATOM     72  C   UNL A   1      35.242  33.779  28.188  1.00  0.00     0.001 A 
ATOM     73  C   UNL A   1      34.307  33.614  29.207  1.00  0.00     0.000 A 
ENDBRANCH  49  68
BRANCH  61  74
ATOM     74  C   UNL A   1      42.857  35.128  32.077  1.00  0.00    -0.014 A 
ATOM     75  C   UNL A   1      42.637  35.431  33.430  1.00  0.00     0.009 A 
ATOM     76  C   UNL A   1      43.470  36.088  31.256  1.00  0.00     0.009 A 
ATOM     77  C   UNL A   1      42.993  36.682  33.939  1.00  0.00     0.001 A 
ATOM     78  C   UNL A   1      43.854  37.325  31.776  1.00  0.00     0.001 A 
ATOM     79  C   UNL A   1      43.605  37.625  33.115  1.00  0.00     0.000 A 
ENDBRANCH  61  74
ENDBRANCH  35  36
ENDBRANCH  27  30
ENDBRANCH  25  26
ENDBRANCH  24  25
ENDBRANCH   1  24
TORSDOF 14
ENDMDL
