MODEL 1
REMARK VINA RESULT:     -10.7      0.000      0.000
REMARK SMILES O=C(NCCCCNC(=O)c1cccc2nc(Cl)c(Cl)nc12)c1ccc(-c2c3nc(c(-c4ccccc4)c4ccc([nH]4)c(-c4ccccc4)c4nc(c(-c5ccccc5)c5ccc2[nH]5)C=C4)C=C3)cc1
REMARK SMILES IDX 4 1 3 2 1 3 2 4 23 6 24 7 70 8 25 9 69 10 26 11 27 12 28 13
REMARK SMILES IDX 63 14 29 15 68 16 62 17 64 18 30 19 67 20 61 21 60 22 31 24
REMARK SMILES IDX 53 25 38 26 52 27 39 28 42 29 51 30 65 31 40 32 41 33 50 35
REMARK SMILES IDX 66 36 43 37 32 38 33 39 37 40 34 41 36 42 35 43 54 44 55 45
REMARK SMILES IDX 59 46 56 47 58 48 57 49 44 50 45 51 49 52 46 53 48 54 47 55
REMARK SMILES IDX 5 56 6 57 7 58 8 59 9 60 10 62 11 63 12 64 22 65 13 66 15 67
REMARK SMILES IDX 21 68 14 69 16 70 19 71 17 72 20 73 18 74
REMARK H PARENT 3 5 64 23 42 34 8 61
REMARK Flexibility Score: inf
ROOT
ATOM      1  C   UNL A   1      39.221  19.834  26.178  1.00  0.00     0.116 C 
ENDROOT
BRANCH   1   2
ATOM      2  N   UNL A   1      40.457  19.194  25.761  1.00  0.00    -0.352 N 
ATOM      3  O   UNL A   1      42.656  19.005  25.316  1.00  0.00    -0.269 OA
ATOM      4  C   UNL A   1      41.747  19.663  25.817  1.00  0.00     0.251 C 
ATOM      5  H   UNL A   1      40.355  18.289  25.384  1.00  0.00     0.163 HD
BRANCH   4   6
ATOM      6  C   UNL A   1      42.048  20.969  26.446  1.00  0.00     0.039 A 
ATOM      7  C   UNL A   1      42.419  22.038  25.623  1.00  0.00     0.014 A 
ATOM      8  C   UNL A   1      41.980  21.149  27.829  1.00  0.00     0.014 A 
ATOM      9  C   UNL A   1      42.675  23.291  26.185  1.00  0.00     0.010 A 
ATOM     10  C   UNL A   1      42.144  22.418  28.377  1.00  0.00     0.010 A 
ATOM     11  C   UNL A   1      42.514  23.499  27.564  1.00  0.00    -0.014 A 
BRANCH  11  12
ATOM     12  C   UNL A   1      42.764  24.834  28.169  1.00  0.00     0.031 A 
ATOM     13  C   UNL A   1      44.154  25.228  28.589  1.00  0.00     0.074 A 
ATOM     14  C   UNL A   1      41.740  25.686  28.364  1.00  0.00     0.049 A 
ATOM     15  N   UNL A   1      44.568  26.350  29.124  1.00  0.00    -0.248 NA
ATOM     16  C   UNL A   1      45.217  24.224  28.408  1.00  0.00     0.031 C 
ATOM     17  C   UNL A   1      40.337  25.409  28.047  1.00  0.00     0.029 A 
ATOM     18  N   UNL A   1      41.722  26.964  28.865  1.00  0.00    -0.354 N 
ATOM     19  C   UNL A   1      45.929  26.182  29.345  1.00  0.00     0.074 A 
ATOM     20  C   UNL A   1      46.259  24.830  28.957  1.00  0.00     0.031 C 
ATOM     21  C   UNL A   1      39.605  26.501  28.316  1.00  0.00     0.029 A 
ATOM     22  C   UNL A   1      40.476  27.542  28.855  1.00  0.00     0.049 A 
ATOM     23  H   UNL A   1      42.526  27.423  29.201  1.00  0.00     0.167 HD
ATOM     24  C   UNL A   1      46.834  27.083  29.795  1.00  0.00     0.031 A 
ATOM     25  C   UNL A   1      40.077  28.774  29.223  1.00  0.00     0.031 A 
ATOM     26  C   UNL A   1      46.511  28.432  30.171  1.00  0.00     0.049 A 
ATOM     27  C   UNL A   1      41.095  29.761  29.720  1.00  0.00     0.074 A 
ATOM     28  C   UNL A   1      47.365  29.431  30.606  1.00  0.00     0.029 A 
ATOM     29  N   UNL A   1      45.235  28.974  30.154  1.00  0.00    -0.354 N 
ATOM     30  N   UNL A   1      42.388  29.604  29.874  1.00  0.00    -0.248 NA
ATOM     31  C   UNL A   1      40.604  31.100  30.077  1.00  0.00     0.031 C 
ATOM     32  C   UNL A   1      46.598  30.562  30.900  1.00  0.00     0.029 A 
ATOM     33  C   UNL A   1      45.276  30.289  30.587  1.00  0.00     0.049 A 
ATOM     34  H   UNL A   1      44.422  28.495  29.874  1.00  0.00     0.167 HD
ATOM     35  C   UNL A   1      42.867  30.822  30.338  1.00  0.00     0.074 A 
ATOM     36  C   UNL A   1      41.731  31.718  30.411  1.00  0.00     0.031 C 
ATOM     37  C   UNL A   1      44.134  31.165  30.677  1.00  0.00     0.031 A 
BRANCH  24  38
ATOM     38  C   UNL A   1      48.269  26.639  29.886  1.00  0.00    -0.014 A 
ATOM     39  C   UNL A   1      49.134  26.818  28.796  1.00  0.00     0.009 A 
ATOM     40  C   UNL A   1      48.755  25.998  31.038  1.00  0.00     0.009 A 
ATOM     41  C   UNL A   1      50.453  26.364  28.857  1.00  0.00     0.001 A 
ATOM     42  C   UNL A   1      50.083  25.575  31.109  1.00  0.00     0.001 A 
ATOM     43  C   UNL A   1      50.929  25.751  30.016  1.00  0.00     0.000 A 
ENDBRANCH  24  38
BRANCH  25  44
ATOM     44  C   UNL A   1      38.645  29.147  29.077  1.00  0.00    -0.014 A 
ATOM     45  C   UNL A   1      38.160  29.666  27.865  1.00  0.00     0.009 A 
ATOM     46  C   UNL A   1      37.771  29.047  30.170  1.00  0.00     0.009 A 
ATOM     47  C   UNL A   1      36.838  30.102  27.760  1.00  0.00     0.001 A 
ATOM     48  C   UNL A   1      36.441  29.459  30.052  1.00  0.00     0.001 A 
ATOM     49  C   UNL A   1      35.978  29.995  28.851  1.00  0.00     0.000 A 
ENDBRANCH  25  44
BRANCH  37  50
ATOM     50  C   UNL A   1      44.371  32.565  31.171  1.00  0.00    -0.014 A 
ATOM     51  C   UNL A   1      44.167  32.874  32.525  1.00  0.00     0.009 A 
ATOM     52  C   UNL A   1      44.713  33.596  30.283  1.00  0.00     0.009 A 
ATOM     53  C   UNL A   1      44.292  34.188  32.979  1.00  0.00     0.001 A 
ATOM     54  C   UNL A   1      44.868  34.905  30.745  1.00  0.00     0.001 A 
ATOM     55  C   UNL A   1      44.649  35.201  32.090  1.00  0.00     0.000 A 
ENDBRANCH  37  50
ENDBRANCH  11  12
ENDBRANCH   4   6
ENDBRANCH   1   2
BRANCH   1  56
ATOM     56  C   UNL A   1      38.904  21.106  25.400  1.00  0.00     0.023 C 
BRANCH  56  57
ATOM     57  C   UNL A   1      38.794  22.384  26.232  1.00  0.00     0.023 C 
BRANCH  57  58
ATOM     58  C   UNL A   1      37.694  23.352  25.805  1.00  0.00     0.116 C 
BRANCH  58  59
ATOM     59  N   UNL A   1      37.457  23.339  24.372  1.00  0.00    -0.352 N 
ATOM     60  C   UNL A   1      36.322  23.005  23.679  1.00  0.00     0.253 C 
ATOM     61  H   UNL A   1      38.222  23.612  23.817  1.00  0.00     0.163 HD
ATOM     62  O   UNL A   1      36.305  23.073  22.450  1.00  0.00    -0.269 OA
BRANCH  60  63
ATOM     63  C   UNL A   1      35.099  22.638  24.411  1.00  0.00     0.067 A 
ATOM     64  C   UNL A   1      34.893  21.281  24.704  1.00  0.00     0.016 A 
ATOM     65  C   UNL A   1      34.214  23.639  24.831  1.00  0.00     0.103 A 
ATOM     66  C   UNL A   1      33.748  20.897  25.382  1.00  0.00     0.003 A 
ATOM     67  C   UNL A   1      33.062  23.224  25.549  1.00  0.00     0.091 A 
ATOM     68  N   UNL A   1      34.412  24.957  24.569  1.00  0.00    -0.230 NA
ATOM     69  C   UNL A   1      32.844  21.874  25.795  1.00  0.00     0.031 A 
ATOM     70  N   UNL A   1      32.152  24.102  26.011  1.00  0.00    -0.231 NA
ATOM     71  C   UNL A   1      33.504  25.831  25.061  1.00  0.00     0.167 A 
ATOM     72  C   UNL A   1      32.395  25.411  25.769  1.00  0.00     0.167 A 
ATOM     73  Cl  UNL A   1      33.862  27.473  24.717  1.00  0.00    -0.059 Cl
ATOM     74  Cl  UNL A   1      31.205  26.463  26.417  1.00  0.00    -0.059 Cl
ENDBRANCH  60  63
ENDBRANCH  58  59
ENDBRANCH  57  58
ENDBRANCH  56  57
ENDBRANCH   1  56
TORSDOF 11
ENDMDL
MODEL 2
REMARK VINA RESULT:     -10.6      1.892      2.452
REMARK SMILES O=C(NCCCCNC(=O)c1cccc2nc(Cl)c(Cl)nc12)c1ccc(-c2c3nc(c(-c4ccccc4)c4ccc([nH]4)c(-c4ccccc4)c4nc(c(-c5ccccc5)c5ccc2[nH]5)C=C4)C=C3)cc1
REMARK SMILES IDX 4 1 3 2 1 3 2 4 23 6 24 7 70 8 25 9 69 10 26 11 27 12 28 13
REMARK SMILES IDX 63 14 29 15 68 16 62 17 64 18 30 19 67 20 61 21 60 22 31 24
REMARK SMILES IDX 53 25 38 26 52 27 39 28 42 29 51 30 65 31 40 32 41 33 50 35
REMARK SMILES IDX 66 36 43 37 32 38 33 39 37 40 34 41 36 42 35 43 54 44 55 45
REMARK SMILES IDX 59 46 56 47 58 48 57 49 44 50 45 51 49 52 46 53 48 54 47 55
REMARK SMILES IDX 5 56 6 57 7 58 8 59 9 60 10 62 11 63 12 64 22 65 13 66 15 67
REMARK SMILES IDX 21 68 14 69 16 70 19 71 17 72 20 73 18 74
REMARK H PARENT 3 5 64 23 42 34 8 61
REMARK Flexibility Score: inf
ROOT
ATOM      1  C   UNL A   1      39.147  19.789  25.810  1.00  0.00     0.116 C 
ENDROOT
BRANCH   1   2
ATOM      2  N   UNL A   1      40.283  18.885  25.750  1.00  0.00    -0.352 N 
ATOM      3  O   UNL A   1      42.446  18.257  25.751  1.00  0.00    -0.269 OA
ATOM      4  C   UNL A   1      41.618  19.144  25.949  1.00  0.00     0.251 C 
ATOM      5  H   UNL A   1      40.065  17.949  25.536  1.00  0.00     0.163 HD
BRANCH   4   6
ATOM      6  C   UNL A   1      42.071  20.490  26.366  1.00  0.00     0.039 A 
ATOM      7  C   UNL A   1      42.402  21.421  25.377  1.00  0.00     0.014 A 
ATOM      8  C   UNL A   1      42.185  20.839  27.714  1.00  0.00     0.014 A 
ATOM      9  C   UNL A   1      42.799  22.711  25.740  1.00  0.00     0.010 A 
ATOM     10  C   UNL A   1      42.491  22.149  28.072  1.00  0.00     0.010 A 
ATOM     11  C   UNL A   1      42.822  23.094  27.091  1.00  0.00    -0.014 A 
BRANCH  11  12
ATOM     12  C   UNL A   1      43.224  24.469  27.487  1.00  0.00     0.031 A 
ATOM     13  C   UNL A   1      44.668  24.885  27.423  1.00  0.00     0.074 A 
ATOM     14  C   UNL A   1      42.295  25.340  27.926  1.00  0.00     0.049 A 
ATOM     15  N   UNL A   1      45.208  26.042  27.718  1.00  0.00    -0.248 NA
ATOM     16  C   UNL A   1      45.640  23.865  26.996  1.00  0.00     0.031 C 
ATOM     17  C   UNL A   1      40.869  25.049  28.083  1.00  0.00     0.029 A 
ATOM     18  N   UNL A   1      42.411  26.653  28.312  1.00  0.00    -0.354 N 
ATOM     19  C   UNL A   1      46.573  25.883  27.517  1.00  0.00     0.074 A 
ATOM     20  C   UNL A   1      46.790  24.503  27.147  1.00  0.00     0.031 C 
ATOM     21  C   UNL A   1      40.237  26.163  28.485  1.00  0.00     0.029 A 
ATOM     22  C   UNL A   1      41.214  27.236  28.647  1.00  0.00     0.049 A 
ATOM     23  H   UNL A   1      43.272  27.131  28.346  1.00  0.00     0.167 HD
ATOM     24  C   UNL A   1      47.556  26.810  27.595  1.00  0.00     0.031 A 
ATOM     25  C   UNL A   1      40.927  28.495  29.029  1.00  0.00     0.031 A 
ATOM     26  C   UNL A   1      47.343  28.186  27.952  1.00  0.00     0.049 A 
ATOM     27  C   UNL A   1      42.031  29.511  29.109  1.00  0.00     0.074 A 
ATOM     28  C   UNL A   1      48.271  29.210  28.024  1.00  0.00     0.029 A 
ATOM     29  N   UNL A   1      46.115  28.733  28.292  1.00  0.00    -0.354 N 
ATOM     30  N   UNL A   1      43.311  29.357  28.865  1.00  0.00    -0.248 NA
ATOM     31  C   UNL A   1      41.652  30.875  29.501  1.00  0.00     0.031 C 
ATOM     32  C   UNL A   1      47.614  30.365  28.457  1.00  0.00     0.029 A 
ATOM     33  C   UNL A   1      46.265  30.077  28.592  1.00  0.00     0.049 A 
ATOM     34  H   UNL A   1      45.263  28.240  28.315  1.00  0.00     0.167 HD
ATOM     35  C   UNL A   1      43.889  30.604  29.065  1.00  0.00     0.074 A 
ATOM     36  C   UNL A   1      42.815  31.511  29.421  1.00  0.00     0.031 C 
ATOM     37  C   UNL A   1      45.192  30.964  28.967  1.00  0.00     0.031 A 
BRANCH  24  38
ATOM     38  C   UNL A   1      48.957  26.366  27.268  1.00  0.00    -0.014 A 
ATOM     39  C   UNL A   1      49.825  25.958  28.292  1.00  0.00     0.009 A 
ATOM     40  C   UNL A   1      49.433  26.396  25.947  1.00  0.00     0.009 A 
ATOM     41  C   UNL A   1      51.140  25.591  28.000  1.00  0.00     0.001 A 
ATOM     42  C   UNL A   1      50.739  25.996  25.654  1.00  0.00     0.001 A 
ATOM     43  C   UNL A   1      51.593  25.602  26.681  1.00  0.00     0.000 A 
ENDBRANCH  24  38
BRANCH  25  44
ATOM     44  C   UNL A   1      39.514  28.865  29.308  1.00  0.00    -0.014 A 
ATOM     45  C   UNL A   1      38.967  28.689  30.589  1.00  0.00     0.009 A 
ATOM     46  C   UNL A   1      38.687  29.334  28.275  1.00  0.00     0.009 A 
ATOM     47  C   UNL A   1      37.615  28.949  30.824  1.00  0.00     0.001 A 
ATOM     48  C   UNL A   1      37.342  29.619  28.521  1.00  0.00     0.001 A 
ATOM     49  C   UNL A   1      36.804  29.417  29.792  1.00  0.00     0.000 A 
ENDBRANCH  25  44
BRANCH  37  50
ATOM     50  C   UNL A   1      45.545  32.397  29.258  1.00  0.00    -0.014 A 
ATOM     51  C   UNL A   1      45.570  33.338  28.216  1.00  0.00     0.009 A 
ATOM     52  C   UNL A   1      45.936  32.797  30.545  1.00  0.00     0.009 A 
ATOM     53  C   UNL A   1      45.987  34.648  28.455  1.00  0.00     0.001 A 
ATOM     54  C   UNL A   1      46.323  34.117  30.787  1.00  0.00     0.001 A 
ATOM     55  C   UNL A   1      46.357  35.038  29.741  1.00  0.00     0.000 A 
ENDBRANCH  37  50
ENDBRANCH  11  12
ENDBRANCH   4   6
ENDBRANCH   1   2
BRANCH   1  56
ATOM     56  C   UNL A   1      38.147  19.583  24.679  1.00  0.00     0.023 C 
BRANCH  56  57
ATOM     57  C   UNL A   1      36.700  19.966  24.991  1.00  0.00     0.023 C 
BRANCH  57  58
ATOM     58  C   UNL A   1      36.494  21.388  25.505  1.00  0.00     0.116 C 
BRANCH  58  59
ATOM     59  N   UNL A   1      35.535  21.461  26.594  1.00  0.00    -0.352 N 
ATOM     60  C   UNL A   1      34.165  21.448  26.551  1.00  0.00     0.253 C 
ATOM     61  H   UNL A   1      35.926  21.527  27.494  1.00  0.00     0.163 HD
ATOM     62  O   UNL A   1      33.513  21.502  27.595  1.00  0.00    -0.269 OA
BRANCH  60  63
ATOM     63  C   UNL A   1      33.474  21.294  25.261  1.00  0.00     0.067 A 
ATOM     64  C   UNL A   1      32.986  20.021  24.927  1.00  0.00     0.016 A 
ATOM     65  C   UNL A   1      33.285  22.410  24.437  1.00  0.00     0.103 A 
ATOM     66  C   UNL A   1      32.341  19.835  23.715  1.00  0.00     0.003 A 
ATOM     67  C   UNL A   1      32.596  22.202  23.213  1.00  0.00     0.091 A 
ATOM     68  N   UNL A   1      33.737  23.651  24.757  1.00  0.00    -0.230 NA
ATOM     69  C   UNL A   1      32.155  20.929  22.871  1.00  0.00     0.031 A 
ATOM     70  N   UNL A   1      32.346  23.205  22.352  1.00  0.00    -0.231 NA
ATOM     71  C   UNL A   1      33.458  24.655  23.896  1.00  0.00     0.167 A 
ATOM     72  C   UNL A   1      32.775  24.436  22.714  1.00  0.00     0.167 A 
ATOM     73  Cl  UNL A   1      34.031  26.189  24.406  1.00  0.00    -0.059 Cl
ATOM     74  Cl  UNL A   1      32.391  25.662  21.577  1.00  0.00    -0.059 Cl
ENDBRANCH  60  63
ENDBRANCH  58  59
ENDBRANCH  57  58
ENDBRANCH  56  57
ENDBRANCH   1  56
TORSDOF 11
ENDMDL
MODEL 3
REMARK VINA RESULT:     -10.6      3.764      8.898
REMARK SMILES O=C(NCCCCNC(=O)c1cccc2nc(Cl)c(Cl)nc12)c1ccc(-c2c3nc(c(-c4ccccc4)c4ccc([nH]4)c(-c4ccccc4)c4nc(c(-c5ccccc5)c5ccc2[nH]5)C=C4)C=C3)cc1
REMARK SMILES IDX 4 1 3 2 1 3 2 4 23 6 24 7 70 8 25 9 69 10 26 11 27 12 28 13
REMARK SMILES IDX 63 14 29 15 68 16 62 17 64 18 30 19 67 20 61 21 60 22 31 24
REMARK SMILES IDX 53 25 38 26 52 27 39 28 42 29 51 30 65 31 40 32 41 33 50 35
REMARK SMILES IDX 66 36 43 37 32 38 33 39 37 40 34 41 36 42 35 43 54 44 55 45
REMARK SMILES IDX 59 46 56 47 58 48 57 49 44 50 45 51 49 52 46 53 48 54 47 55
REMARK SMILES IDX 5 56 6 57 7 58 8 59 9 60 10 62 11 63 12 64 22 65 13 66 15 67
REMARK SMILES IDX 21 68 14 69 16 70 19 71 17 72 20 73 18 74
REMARK H PARENT 3 5 64 23 42 34 8 61
REMARK Flexibility Score: inf
ROOT
ATOM      1  C   UNL A   1      32.874  32.920  26.963  1.00  0.00     0.116 C 
ENDROOT
BRANCH   1   2
ATOM      2  N   UNL A   1      32.535  34.009  27.864  1.00  0.00    -0.352 N 
ATOM      3  O   UNL A   1      32.711  35.355  29.661  1.00  0.00    -0.269 OA
ATOM      4  C   UNL A   1      33.217  34.481  28.960  1.00  0.00     0.251 C 
ATOM      5  H   UNL A   1      31.694  34.478  27.659  1.00  0.00     0.163 HD
BRANCH   4   6
ATOM      6  C   UNL A   1      34.540  33.925  29.323  1.00  0.00     0.039 A 
ATOM      7  C   UNL A   1      34.630  33.087  30.439  1.00  0.00     0.014 A 
ATOM      8  C   UNL A   1      35.688  34.227  28.587  1.00  0.00     0.014 A 
ATOM      9  C   UNL A   1      35.859  32.519  30.784  1.00  0.00     0.010 A 
ATOM     10  C   UNL A   1      36.891  33.589  28.877  1.00  0.00     0.010 A 
ATOM     11  C   UNL A   1      36.995  32.744  29.991  1.00  0.00    -0.014 A 
BRANCH  11  12
ATOM     12  C   UNL A   1      38.303  32.129  30.338  1.00  0.00     0.031 A 
ATOM     13  C   UNL A   1      39.220  32.802  31.323  1.00  0.00     0.074 A 
ATOM     14  C   UNL A   1      38.679  30.975  29.754  1.00  0.00     0.049 A 
ATOM     15  N   UNL A   1      40.394  32.413  31.757  1.00  0.00    -0.248 NA
ATOM     16  C   UNL A   1      38.777  34.093  31.875  1.00  0.00     0.031 C 
ATOM     17  C   UNL A   1      37.906  30.246  28.747  1.00  0.00     0.029 A 
ATOM     18  N   UNL A   1      39.804  30.208  29.931  1.00  0.00    -0.354 N 
ATOM     19  C   UNL A   1      40.824  33.410  32.624  1.00  0.00     0.074 A 
ATOM     20  C   UNL A   1      39.825  34.454  32.599  1.00  0.00     0.031 C 
ATOM     21  C   UNL A   1      38.556  29.114  28.433  1.00  0.00     0.029 A 
ATOM     22  C   UNL A   1      39.805  29.054  29.187  1.00  0.00     0.049 A 
ATOM     23  H   UNL A   1      40.541  30.462  30.533  1.00  0.00     0.167 HD
ATOM     24  C   UNL A   1      41.932  33.440  33.400  1.00  0.00     0.031 A 
ATOM     25  C   UNL A   1      40.701  28.050  29.126  1.00  0.00     0.031 A 
ATOM     26  C   UNL A   1      42.922  32.398  33.436  1.00  0.00     0.049 A 
ATOM     27  C   UNL A   1      41.925  28.099  29.996  1.00  0.00     0.074 A 
ATOM     28  C   UNL A   1      44.062  32.321  34.217  1.00  0.00     0.029 A 
ATOM     29  N   UNL A   1      42.889  31.250  32.660  1.00  0.00    -0.354 N 
ATOM     30  N   UNL A   1      42.291  29.025  30.850  1.00  0.00    -0.248 NA
ATOM     31  C   UNL A   1      42.849  26.960  29.908  1.00  0.00     0.031 C 
ATOM     32  C   UNL A   1      44.744  31.150  33.877  1.00  0.00     0.029 A 
ATOM     33  C   UNL A   1      43.997  30.465  32.931  1.00  0.00     0.049 A 
ATOM     34  H   UNL A   1      42.181  31.024  32.013  1.00  0.00     0.167 HD
ATOM     35  C   UNL A   1      43.483  28.579  31.406  1.00  0.00     0.074 A 
ATOM     36  C   UNL A   1      43.762  27.285  30.816  1.00  0.00     0.031 C 
ATOM     37  C   UNL A   1      44.276  29.189  32.321  1.00  0.00     0.031 A 
BRANCH  24  38
ATOM     38  C   UNL A   1      42.121  34.636  34.294  1.00  0.00    -0.014 A 
ATOM     39  C   UNL A   1      42.815  35.762  33.828  1.00  0.00     0.009 A 
ATOM     40  C   UNL A   1      41.651  34.629  35.618  1.00  0.00     0.009 A 
ATOM     41  C   UNL A   1      43.036  36.855  34.669  1.00  0.00     0.001 A 
ATOM     42  C   UNL A   1      41.844  35.737  36.446  1.00  0.00     0.001 A 
ATOM     43  C   UNL A   1      42.543  36.845  35.974  1.00  0.00     0.000 A 
ENDBRANCH  24  38
BRANCH  25  44
ATOM     44  C   UNL A   1      40.429  26.888  28.239  1.00  0.00    -0.014 A 
ATOM     45  C   UNL A   1      40.931  26.854  26.928  1.00  0.00     0.009 A 
ATOM     46  C   UNL A   1      39.609  25.836  28.678  1.00  0.00     0.009 A 
ATOM     47  C   UNL A   1      40.596  25.807  26.067  1.00  0.00     0.001 A 
ATOM     48  C   UNL A   1      39.300  24.776  27.823  1.00  0.00     0.001 A 
ATOM     49  C   UNL A   1      39.784  24.767  26.516  1.00  0.00     0.000 A 
ENDBRANCH  25  44
BRANCH  37  50
ATOM     50  C   UNL A   1      45.533  28.479  32.741  1.00  0.00    -0.014 A 
ATOM     51  C   UNL A   1      46.722  28.672  32.018  1.00  0.00     0.009 A 
ATOM     52  C   UNL A   1      45.523  27.555  33.797  1.00  0.00     0.009 A 
ATOM     53  C   UNL A   1      47.872  27.949  32.339  1.00  0.00     0.001 A 
ATOM     54  C   UNL A   1      46.683  26.856  34.135  1.00  0.00     0.001 A 
ATOM     55  C   UNL A   1      47.852  27.046  33.401  1.00  0.00     0.000 A 
ENDBRANCH  37  50
ENDBRANCH  11  12
ENDBRANCH   4   6
ENDBRANCH   1   2
BRANCH   1  56
ATOM     56  C   UNL A   1      33.038  31.579  27.667  1.00  0.00     0.023 C 
BRANCH  56  57
ATOM     57  C   UNL A   1      34.375  30.870  27.446  1.00  0.00     0.023 C 
BRANCH  57  58
ATOM     58  C   UNL A   1      34.295  29.357  27.273  1.00  0.00     0.116 C 
BRANCH  58  59
ATOM     59  N   UNL A   1      33.103  28.783  27.874  1.00  0.00    -0.352 N 
ATOM     60  C   UNL A   1      32.033  28.170  27.274  1.00  0.00     0.253 C 
ATOM     61  H   UNL A   1      33.058  28.841  28.855  1.00  0.00     0.163 HD
ATOM     62  O   UNL A   1      31.112  27.725  27.960  1.00  0.00    -0.269 OA
BRANCH  60  63
ATOM     63  C   UNL A   1      32.023  27.978  25.816  1.00  0.00     0.067 A 
ATOM     64  C   UNL A   1      31.420  28.969  25.027  1.00  0.00     0.016 A 
ATOM     65  C   UNL A   1      32.647  26.853  25.260  1.00  0.00     0.103 A 
ATOM     66  C   UNL A   1      31.382  28.816  23.651  1.00  0.00     0.003 A 
ATOM     67  C   UNL A   1      32.620  26.731  23.845  1.00  0.00     0.091 A 
ATOM     68  N   UNL A   1      33.249  25.895  26.011  1.00  0.00    -0.230 NA
ATOM     69  C   UNL A   1      31.981  27.697  23.076  1.00  0.00     0.031 A 
ATOM     70  N   UNL A   1      33.199  25.699  23.205  1.00  0.00    -0.231 NA
ATOM     71  C   UNL A   1      33.849  24.876  25.355  1.00  0.00     0.167 A 
ATOM     72  C   UNL A   1      33.825  24.781  23.976  1.00  0.00     0.167 A 
ATOM     73  Cl  UNL A   1      34.619  23.742  26.385  1.00  0.00    -0.059 Cl
ATOM     74  Cl  UNL A   1      34.561  23.516  23.081  1.00  0.00    -0.059 Cl
ENDBRANCH  60  63
ENDBRANCH  58  59
ENDBRANCH  57  58
ENDBRANCH  56  57
ENDBRANCH   1  56
TORSDOF 11
ENDMDL
