MODEL 1
REMARK VINA RESULT:     -10.9      0.000      0.000
REMARK SMILES CCC[C@]1(C(=O)NCCCCNC(=O)c2ccc(-c3c4nc(c(-c5ccccc5)c5ccc([nH]5)c(-c5ccccc5)c5nc(c(-c6ccccc6)c6ccc3[nH]6)C=C5)C=C4)cc2)CCN(C(=O)N[C@H]2CCOC2)C1
REMARK SMILES IDX 9 1 8 2 7 3 5 4 6 5 4 7 63 8 74 9 64 10 65 11 3 12 2 13 1 14
REMARK SMILES IDX 66 15 67 16 68 17 69 19 70 20 73 21 71 22 72 23 10 24 11 25
REMARK SMILES IDX 12 26 13 27 14 29 15 30 16 31 62 32 17 33 61 34 18 35 19 36
REMARK SMILES IDX 20 37 55 38 21 39 60 40 54 41 56 42 22 43 59 44 53 45 52 46
REMARK SMILES IDX 23 48 45 49 30 50 44 51 31 52 34 53 43 54 57 55 32 56 33 57
REMARK SMILES IDX 42 59 58 60 35 61 24 62 25 63 29 64 26 65 28 66 27 67 46 68
REMARK SMILES IDX 47 69 51 70 48 71 50 72 49 73 36 74 37 75 41 76 38 77 40 78
REMARK SMILES IDX 39 79
REMARK H PARENT 7 6 68 18 12 28 56 47 34 58
REMARK Flexibility Score: inf
ROOT
ATOM      1  C   UNL A   1      36.607  20.565  25.066  1.00  0.00     0.023 C 
ENDROOT
BRANCH   1   2
ATOM      2  C   UNL A   1      36.275  22.037  24.813  1.00  0.00     0.116 C 
BRANCH   2   3
ATOM      3  N   UNL A   1      35.156  22.219  23.899  1.00  0.00    -0.356 N 
ATOM      4  C   UNL A   1      33.803  22.126  24.069  1.00  0.00     0.228 C 
ATOM      5  O   UNL A   1      33.116  22.378  23.074  1.00  0.00    -0.274 OA
ATOM      6  H   UNL A   1      35.426  22.455  22.982  1.00  0.00     0.163 HD
BRANCH   4   7
ATOM      7  C   UNL A   1      33.154  21.718  25.407  1.00  0.00     0.068 C 
ATOM      8  C   UNL A   1      33.748  22.504  26.576  1.00  0.00     0.040 C 
ATOM      9  C   UNL A   1      31.660  22.114  25.425  1.00  0.00     0.138 C 
ATOM     10  C   UNL A   1      32.601  22.664  27.544  1.00  0.00     0.122 C 
ATOM     11  N   UNL A   1      31.428  22.780  26.712  1.00  0.00    -0.324 N 
BRANCH   7  12
ATOM     12  C   UNL A   1      33.228  20.173  25.633  1.00  0.00     0.018 C 
BRANCH  12  13
ATOM     13  C   UNL A   1      32.942  19.262  24.428  1.00  0.00    -0.002 C 
ATOM     14  C   UNL A   1      33.970  18.145  24.249  1.00  0.00     0.004 C 
ENDBRANCH  12  13
ENDBRANCH   7  12
BRANCH  11  15
ATOM     15  C   UNL A   1      30.229  23.362  26.938  1.00  0.00     0.317 C 
ATOM     16  O   UNL A   1      29.374  22.796  27.628  1.00  0.00    -0.249 OA
ATOM     17  N   UNL A   1      29.866  24.559  26.456  1.00  0.00    -0.333 N 
ATOM     18  H   UNL A   1      28.970  24.793  26.790  1.00  0.00     0.165 HD
BRANCH  17  19
ATOM     19  C   UNL A   1      30.367  25.628  25.598  1.00  0.00     0.112 C 
ATOM     20  C   UNL A   1      31.735  26.192  25.902  1.00  0.00     0.056 C 
ATOM     21  C   UNL A   1      30.334  25.353  24.104  1.00  0.00     0.185 C 
ATOM     22  C   UNL A   1      32.438  26.267  24.561  1.00  0.00     0.162 C 
ATOM     23  O   UNL A   1      31.512  25.924  23.527  1.00  0.00    -0.379 OA
ENDBRANCH  17  19
ENDBRANCH  11  15
ENDBRANCH   4   7
ENDBRANCH   2   3
ENDBRANCH   1   2
BRANCH   1  24
ATOM     24  C   UNL A   1      38.010  20.136  24.665  1.00  0.00     0.023 C 
BRANCH  24  25
ATOM     25  C   UNL A   1      39.048  20.246  25.767  1.00  0.00     0.116 C 
BRANCH  25  26
ATOM     26  N   UNL A   1      39.999  19.143  25.785  1.00  0.00    -0.352 N 
ATOM     27  C   UNL A   1      41.353  19.195  26.011  1.00  0.00     0.251 C 
ATOM     28  H   UNL A   1      39.624  18.249  25.612  1.00  0.00     0.163 HD
ATOM     29  O   UNL A   1      42.051  18.193  25.898  1.00  0.00    -0.269 OA
BRANCH  27  30
ATOM     30  C   UNL A   1      41.960  20.495  26.349  1.00  0.00     0.039 A 
ATOM     31  C   UNL A   1      42.326  21.360  25.317  1.00  0.00     0.014 A 
ATOM     32  C   UNL A   1      42.077  20.887  27.686  1.00  0.00     0.014 A 
ATOM     33  C   UNL A   1      42.741  22.655  25.626  1.00  0.00     0.010 A 
ATOM     34  C   UNL A   1      42.403  22.203  27.985  1.00  0.00     0.010 A 
ATOM     35  C   UNL A   1      42.742  23.098  26.959  1.00  0.00    -0.014 A 
BRANCH  35  36
ATOM     36  C   UNL A   1      43.100  24.493  27.310  1.00  0.00     0.031 A 
ATOM     37  C   UNL A   1      44.541  24.922  27.281  1.00  0.00     0.074 A 
ATOM     38  C   UNL A   1      42.144  25.345  27.730  1.00  0.00     0.049 A 
ATOM     39  N   UNL A   1      45.065  26.072  27.619  1.00  0.00    -0.248 NA
ATOM     40  C   UNL A   1      45.525  23.917  26.845  1.00  0.00     0.031 C 
ATOM     41  C   UNL A   1      40.719  25.030  27.858  1.00  0.00     0.029 A 
ATOM     42  N   UNL A   1      42.233  26.652  28.139  1.00  0.00    -0.354 N 
ATOM     43  C   UNL A   1      46.438  25.916  27.468  1.00  0.00     0.074 A 
ATOM     44  C   UNL A   1      46.669  24.552  27.051  1.00  0.00     0.031 C 
ATOM     45  C   UNL A   1      40.065  26.122  28.289  1.00  0.00     0.029 A 
ATOM     46  C   UNL A   1      41.025  27.198  28.503  1.00  0.00     0.049 A 
ATOM     47  H   UNL A   1      43.081  27.150  28.169  1.00  0.00     0.167 HD
ATOM     48  C   UNL A   1      47.416  26.835  27.640  1.00  0.00     0.031 A 
ATOM     49  C   UNL A   1      40.729  28.428  28.962  1.00  0.00     0.031 A 
ATOM     50  C   UNL A   1      47.181  28.200  28.019  1.00  0.00     0.049 A 
ATOM     51  C   UNL A   1      41.835  29.436  29.123  1.00  0.00     0.074 A 
ATOM     52  C   UNL A   1      48.096  29.232  28.132  1.00  0.00     0.029 A 
ATOM     53  N   UNL A   1      45.940  28.724  28.345  1.00  0.00    -0.354 N 
ATOM     54  N   UNL A   1      43.116  29.301  28.884  1.00  0.00    -0.248 NA
ATOM     55  C   UNL A   1      41.448  30.770  29.604  1.00  0.00     0.031 C 
ATOM     56  C   UNL A   1      47.415  30.370  28.573  1.00  0.00     0.029 A 
ATOM     57  C   UNL A   1      46.069  30.059  28.685  1.00  0.00     0.049 A 
ATOM     58  H   UNL A   1      45.094  28.221  28.336  1.00  0.00     0.167 HD
ATOM     59  C   UNL A   1      43.684  30.538  29.157  1.00  0.00     0.074 A 
ATOM     60  C   UNL A   1      42.606  31.415  29.564  1.00  0.00     0.031 C 
ATOM     61  C   UNL A   1      44.983  30.916  29.080  1.00  0.00     0.031 A 
BRANCH  48  62
ATOM     62  C   UNL A   1      48.833  26.389  27.422  1.00  0.00    -0.014 A 
ATOM     63  C   UNL A   1      49.415  26.405  26.144  1.00  0.00     0.009 A 
ATOM     64  C   UNL A   1      49.612  25.986  28.518  1.00  0.00     0.009 A 
ATOM     65  C   UNL A   1      50.737  25.996  25.964  1.00  0.00     0.001 A 
ATOM     66  C   UNL A   1      50.942  25.605  28.340  1.00  0.00     0.001 A 
ATOM     67  C   UNL A   1      51.502  25.603  27.062  1.00  0.00     0.000 A 
ENDBRANCH  48  62
BRANCH  49  68
ATOM     68  C   UNL A   1      39.326  28.790  29.290  1.00  0.00    -0.014 A 
ATOM     69  C   UNL A   1      38.494  29.370  28.319  1.00  0.00     0.009 A 
ATOM     70  C   UNL A   1      38.816  28.580  30.581  1.00  0.00     0.009 A 
ATOM     71  C   UNL A   1      37.194  29.763  28.644  1.00  0.00     0.001 A 
ATOM     72  C   UNL A   1      37.506  28.948  30.895  1.00  0.00     0.001 A 
ATOM     73  C   UNL A   1      36.700  29.549  29.929  1.00  0.00     0.000 A 
ENDBRANCH  49  68
BRANCH  61  74
ATOM     74  C   UNL A   1      45.302  32.347  29.405  1.00  0.00    -0.014 A 
ATOM     75  C   UNL A   1      45.244  33.346  28.422  1.00  0.00     0.009 A 
ATOM     76  C   UNL A   1      45.619  32.703  30.725  1.00  0.00     0.009 A 
ATOM     77  C   UNL A   1      45.531  34.672  28.751  1.00  0.00     0.001 A 
ATOM     78  C   UNL A   1      45.878  34.033  31.055  1.00  0.00     0.001 A 
ATOM     79  C   UNL A   1      45.842  35.015  30.067  1.00  0.00     0.000 A 
ENDBRANCH  61  74
ENDBRANCH  35  36
ENDBRANCH  27  30
ENDBRANCH  25  26
ENDBRANCH  24  25
ENDBRANCH   1  24
TORSDOF 15
ENDMDL
MODEL 2
REMARK VINA RESULT:     -10.9      1.633      6.282
REMARK SMILES CCC[C@]1(C(=O)NCCCCNC(=O)c2ccc(-c3c4nc(c(-c5ccccc5)c5ccc([nH]5)c(-c5ccccc5)c5nc(c(-c6ccccc6)c6ccc3[nH]6)C=C5)C=C4)cc2)CCN(C(=O)N[C@H]2CCOC2)C1
REMARK SMILES IDX 9 1 8 2 7 3 5 4 6 5 4 7 63 8 74 9 64 10 65 11 3 12 2 13 1 14
REMARK SMILES IDX 66 15 67 16 68 17 69 19 70 20 73 21 71 22 72 23 10 24 11 25
REMARK SMILES IDX 12 26 13 27 14 29 15 30 16 31 62 32 17 33 61 34 18 35 19 36
REMARK SMILES IDX 20 37 55 38 21 39 60 40 54 41 56 42 22 43 59 44 53 45 52 46
REMARK SMILES IDX 23 48 45 49 30 50 44 51 31 52 34 53 43 54 57 55 32 56 33 57
REMARK SMILES IDX 42 59 58 60 35 61 24 62 25 63 29 64 26 65 28 66 27 67 46 68
REMARK SMILES IDX 47 69 51 70 48 71 50 72 49 73 36 74 37 75 41 76 38 77 40 78
REMARK SMILES IDX 39 79
REMARK H PARENT 7 6 68 18 12 28 56 47 34 58
REMARK Flexibility Score: inf
ROOT
ATOM      1  C   UNL A   1      37.024  22.122  24.316  1.00  0.00     0.023 C 
ENDROOT
BRANCH   1   2
ATOM      2  C   UNL A   1      36.763  23.195  25.374  1.00  0.00     0.116 C 
BRANCH   2   3
ATOM      3  N   UNL A   1      35.910  22.730  26.459  1.00  0.00    -0.356 N 
ATOM      4  C   UNL A   1      34.572  22.865  26.701  1.00  0.00     0.228 C 
ATOM      5  O   UNL A   1      34.151  22.311  27.721  1.00  0.00    -0.274 OA
ATOM      6  H   UNL A   1      36.390  22.219  27.151  1.00  0.00     0.163 HD
BRANCH   4   7
ATOM      7  C   UNL A   1      33.632  23.670  25.782  1.00  0.00     0.068 C 
ATOM      8  C   UNL A   1      32.336  24.044  26.501  1.00  0.00     0.040 C 
ATOM      9  C   UNL A   1      34.261  25.038  25.431  1.00  0.00     0.138 C 
ATOM     10  C   UNL A   1      31.953  25.382  25.917  1.00  0.00     0.122 C 
ATOM     11  N   UNL A   1      33.209  26.038  25.642  1.00  0.00    -0.324 N 
BRANCH   7  12
ATOM     12  C   UNL A   1      33.367  22.921  24.435  1.00  0.00     0.018 C 
BRANCH  12  13
ATOM     13  C   UNL A   1      33.429  21.385  24.449  1.00  0.00    -0.002 C 
ATOM     14  C   UNL A   1      32.153  20.726  24.971  1.00  0.00     0.004 C 
ENDBRANCH  12  13
ENDBRANCH   7  12
BRANCH  11  15
ATOM     15  C   UNL A   1      33.526  27.349  25.546  1.00  0.00     0.317 C 
ATOM     16  O   UNL A   1      34.030  27.947  26.503  1.00  0.00    -0.249 OA
ATOM     17  N   UNL A   1      33.334  28.096  24.451  1.00  0.00    -0.333 N 
ATOM     18  H   UNL A   1      33.683  29.003  24.602  1.00  0.00     0.165 HD
BRANCH  17  19
ATOM     19  C   UNL A   1      32.775  28.001  23.105  1.00  0.00     0.112 C 
ATOM     20  C   UNL A   1      33.098  26.768  22.295  1.00  0.00     0.056 C 
ATOM     21  C   UNL A   1      31.275  28.214  22.991  1.00  0.00     0.185 C 
ATOM     22  C   UNL A   1      31.775  26.331  21.697  1.00  0.00     0.162 C 
ATOM     23  O   UNL A   1      30.778  27.310  22.000  1.00  0.00    -0.379 OA
ENDBRANCH  17  19
ENDBRANCH  11  15
ENDBRANCH   4   7
ENDBRANCH   2   3
ENDBRANCH   1   2
BRANCH   1  24
ATOM     24  C   UNL A   1      37.565  20.803  24.847  1.00  0.00     0.023 C 
BRANCH  24  25
ATOM     25  C   UNL A   1      38.754  20.933  25.782  1.00  0.00     0.116 C 
BRANCH  25  26
ATOM     26  N   UNL A   1      39.649  19.785  25.752  1.00  0.00    -0.352 N 
ATOM     27  C   UNL A   1      40.985  19.744  26.065  1.00  0.00     0.251 C 
ATOM     28  H   UNL A   1      39.245  18.932  25.470  1.00  0.00     0.163 HD
ATOM     29  O   UNL A   1      41.642  18.722  25.899  1.00  0.00    -0.269 OA
BRANCH  27  30
ATOM     30  C   UNL A   1      41.629  20.973  26.565  1.00  0.00     0.039 A 
ATOM     31  C   UNL A   1      42.108  21.907  25.646  1.00  0.00     0.014 A 
ATOM     32  C   UNL A   1      41.669  21.234  27.937  1.00  0.00     0.014 A 
ATOM     33  C   UNL A   1      42.561  23.144  26.104  1.00  0.00     0.010 A 
ATOM     34  C   UNL A   1      42.035  22.497  28.381  1.00  0.00     0.010 A 
ATOM     35  C   UNL A   1      42.488  23.463  27.470  1.00  0.00    -0.014 A 
BRANCH  35  36
ATOM     36  C   UNL A   1      42.888  24.798  27.974  1.00  0.00     0.031 A 
ATOM     37  C   UNL A   1      41.836  25.838  28.242  1.00  0.00     0.074 A 
ATOM     38  C   UNL A   1      44.194  25.099  28.113  1.00  0.00     0.049 A 
ATOM     39  N   UNL A   1      41.984  27.083  28.617  1.00  0.00    -0.248 NA
ATOM     40  C   UNL A   1      40.434  25.438  28.030  1.00  0.00     0.031 C 
ATOM     41  C   UNL A   1      45.311  24.194  27.828  1.00  0.00     0.029 A 
ATOM     42  N   UNL A   1      44.802  26.259  28.519  1.00  0.00    -0.354 N 
ATOM     43  C   UNL A   1      40.703  27.618  28.654  1.00  0.00     0.074 A 
ATOM     44  C   UNL A   1      39.794  26.581  28.221  1.00  0.00     0.031 C 
ATOM     45  C   UNL A   1      46.466  24.827  28.093  1.00  0.00     0.029 A 
ATOM     46  C   UNL A   1      46.175  26.188  28.529  1.00  0.00     0.049 A 
ATOM     47  H   UNL A   1      44.303  27.067  28.777  1.00  0.00     0.167 HD
ATOM     48  C   UNL A   1      40.316  28.858  29.034  1.00  0.00     0.031 A 
ATOM     49  C   UNL A   1      47.093  27.117  28.850  1.00  0.00     0.031 A 
ATOM     50  C   UNL A   1      41.216  29.876  29.499  1.00  0.00     0.049 A 
ATOM     51  C   UNL A   1      46.633  28.480  29.291  1.00  0.00     0.074 A 
ATOM     52  C   UNL A   1      40.914  31.133  29.992  1.00  0.00     0.029 A 
ATOM     53  N   UNL A   1      42.596  29.752  29.527  1.00  0.00    -0.354 N 
ATOM     54  N   UNL A   1      45.412  28.940  29.411  1.00  0.00    -0.248 NA
ATOM     55  C   UNL A   1      47.680  29.446  29.653  1.00  0.00     0.031 C 
ATOM     56  C   UNL A   1      42.116  31.788  30.275  1.00  0.00     0.029 A 
ATOM     57  C   UNL A   1      43.162  30.921  30.006  1.00  0.00     0.049 A 
ATOM     58  H   UNL A   1      43.099  28.952  29.250  1.00  0.00     0.167 HD
ATOM     59  C   UNL A   1      45.542  30.237  29.890  1.00  0.00     0.074 A 
ATOM     60  C   UNL A   1      46.959  30.485  30.053  1.00  0.00     0.031 C 
ATOM     61  C   UNL A   1      44.575  31.144  30.168  1.00  0.00     0.031 A 
BRANCH  48  62
ATOM     62  C   UNL A   1      38.851  29.181  28.961  1.00  0.00    -0.014 A 
ATOM     63  C   UNL A   1      38.010  29.012  30.072  1.00  0.00     0.009 A 
ATOM     64  C   UNL A   1      38.313  29.702  27.774  1.00  0.00     0.009 A 
ATOM     65  C   UNL A   1      36.653  29.328  29.986  1.00  0.00     0.001 A 
ATOM     66  C   UNL A   1      36.962  30.044  27.699  1.00  0.00     0.001 A 
ATOM     67  C   UNL A   1      36.131  29.850  28.802  1.00  0.00     0.000 A 
ENDBRANCH  48  62
BRANCH  49  68
ATOM     68  C   UNL A   1      48.542  26.795  28.786  1.00  0.00    -0.014 A 
ATOM     69  C   UNL A   1      49.270  27.015  27.605  1.00  0.00     0.009 A 
ATOM     70  C   UNL A   1      49.202  26.242  29.895  1.00  0.00     0.009 A 
ATOM     71  C   UNL A   1      50.617  26.658  27.527  1.00  0.00     0.001 A 
ATOM     72  C   UNL A   1      50.557  25.913  29.823  1.00  0.00     0.001 A 
ATOM     73  C   UNL A   1      51.260  26.110  28.635  1.00  0.00     0.000 A 
ENDBRANCH  49  68
BRANCH  61  74
ATOM     74  C   UNL A   1      45.015  32.471  30.714  1.00  0.00    -0.014 A 
ATOM     75  C   UNL A   1      45.257  33.562  29.867  1.00  0.00     0.009 A 
ATOM     76  C   UNL A   1      45.143  32.641  32.101  1.00  0.00     0.009 A 
ATOM     77  C   UNL A   1      45.652  34.792  30.399  1.00  0.00     0.001 A 
ATOM     78  C   UNL A   1      45.510  33.879  32.631  1.00  0.00     0.001 A 
ATOM     79  C   UNL A   1      45.773  34.950  31.779  1.00  0.00     0.000 A 
ENDBRANCH  61  74
ENDBRANCH  35  36
ENDBRANCH  27  30
ENDBRANCH  25  26
ENDBRANCH  24  25
ENDBRANCH   1  24
TORSDOF 15
ENDMDL
MODEL 3
REMARK VINA RESULT:     -10.8      1.753      2.585
REMARK SMILES CCC[C@]1(C(=O)NCCCCNC(=O)c2ccc(-c3c4nc(c(-c5ccccc5)c5ccc([nH]5)c(-c5ccccc5)c5nc(c(-c6ccccc6)c6ccc3[nH]6)C=C5)C=C4)cc2)CCN(C(=O)N[C@H]2CCOC2)C1
REMARK SMILES IDX 9 1 8 2 7 3 5 4 6 5 4 7 63 8 74 9 64 10 65 11 3 12 2 13 1 14
REMARK SMILES IDX 66 15 67 16 68 17 69 19 70 20 73 21 71 22 72 23 10 24 11 25
REMARK SMILES IDX 12 26 13 27 14 29 15 30 16 31 62 32 17 33 61 34 18 35 19 36
REMARK SMILES IDX 20 37 55 38 21 39 60 40 54 41 56 42 22 43 59 44 53 45 52 46
REMARK SMILES IDX 23 48 45 49 30 50 44 51 31 52 34 53 43 54 57 55 32 56 33 57
REMARK SMILES IDX 42 59 58 60 35 61 24 62 25 63 29 64 26 65 28 66 27 67 46 68
REMARK SMILES IDX 47 69 51 70 48 71 50 72 49 73 36 74 37 75 41 76 38 77 40 78
REMARK SMILES IDX 39 79
REMARK H PARENT 7 6 68 18 12 28 56 47 34 58
REMARK Flexibility Score: inf
ROOT
ATOM      1  C   UNL A   1      36.958  21.604  24.430  1.00  0.00     0.023 C 
ENDROOT
BRANCH   1   2
ATOM      2  C   UNL A   1      36.444  22.510  25.550  1.00  0.00     0.116 C 
BRANCH   2   3
ATOM      3  N   UNL A   1      35.569  21.817  26.487  1.00  0.00    -0.356 N 
ATOM      4  C   UNL A   1      34.259  22.000  26.830  1.00  0.00     0.228 C 
ATOM      5  O   UNL A   1      33.802  21.202  27.654  1.00  0.00    -0.274 OA
ATOM      6  H   UNL A   1      36.005  21.074  26.963  1.00  0.00     0.163 HD
BRANCH   4   7
ATOM      7  C   UNL A   1      33.392  23.136  26.251  1.00  0.00     0.068 C 
ATOM      8  C   UNL A   1      34.167  24.452  26.190  1.00  0.00     0.040 C 
ATOM      9  C   UNL A   1      33.046  22.850  24.772  1.00  0.00     0.138 C 
ATOM     10  C   UNL A   1      33.625  25.153  24.969  1.00  0.00     0.122 C 
ATOM     11  N   UNL A   1      33.317  24.092  24.040  1.00  0.00    -0.324 N 
BRANCH   7  12
ATOM     12  C   UNL A   1      32.041  23.279  27.025  1.00  0.00     0.018 C 
BRANCH  12  13
ATOM     13  C   UNL A   1      30.759  22.821  26.311  1.00  0.00    -0.002 C 
ATOM     14  C   UNL A   1      29.539  22.753  27.229  1.00  0.00     0.004 C 
ENDBRANCH  12  13
ENDBRANCH   7  12
BRANCH  11  15
ATOM     15  C   UNL A   1      33.236  24.085  22.691  1.00  0.00     0.317 C 
ATOM     16  O   UNL A   1      33.996  23.381  22.017  1.00  0.00    -0.249 OA
ATOM     17  N   UNL A   1      32.360  24.810  21.981  1.00  0.00    -0.333 N 
ATOM     18  H   UNL A   1      32.459  24.606  21.024  1.00  0.00     0.165 HD
BRANCH  17  19
ATOM     19  C   UNL A   1      31.305  25.803  22.168  1.00  0.00     0.112 C 
ATOM     20  C   UNL A   1      30.261  25.530  23.223  1.00  0.00     0.056 C 
ATOM     21  C   UNL A   1      31.769  27.234  22.376  1.00  0.00     0.185 C 
ATOM     22  C   UNL A   1      30.120  26.834  23.986  1.00  0.00     0.162 C 
ATOM     23  O   UNL A   1      30.901  27.841  23.338  1.00  0.00    -0.379 OA
ENDBRANCH  17  19
ENDBRANCH  11  15
ENDBRANCH   4   7
ENDBRANCH   2   3
ENDBRANCH   1   2
BRANCH   1  24
ATOM     24  C   UNL A   1      37.678  20.345  24.890  1.00  0.00     0.023 C 
BRANCH  24  25
ATOM     25  C   UNL A   1      38.877  20.590  25.788  1.00  0.00     0.116 C 
BRANCH  25  26
ATOM     26  N   UNL A   1      39.865  19.520  25.747  1.00  0.00    -0.352 N 
ATOM     27  C   UNL A   1      41.199  19.587  26.064  1.00  0.00     0.251 C 
ATOM     28  H   UNL A   1      39.533  18.640  25.455  1.00  0.00     0.163 HD
ATOM     29  O   UNL A   1      41.939  18.625  25.888  1.00  0.00    -0.269 OA
BRANCH  27  30
ATOM     30  C   UNL A   1      41.738  20.859  26.578  1.00  0.00     0.039 A 
ATOM     31  C   UNL A   1      42.190  21.819  25.671  1.00  0.00     0.014 A 
ATOM     32  C   UNL A   1      41.704  21.131  27.949  1.00  0.00     0.014 A 
ATOM     33  C   UNL A   1      42.540  23.086  26.136  1.00  0.00     0.010 A 
ATOM     34  C   UNL A   1      41.966  22.418  28.396  1.00  0.00     0.010 A 
ATOM     35  C   UNL A   1      42.390  23.407  27.495  1.00  0.00    -0.014 A 
BRANCH  35  36
ATOM     36  C   UNL A   1      42.678  24.769  28.004  1.00  0.00     0.031 A 
ATOM     37  C   UNL A   1      44.076  25.127  28.427  1.00  0.00     0.074 A 
ATOM     38  C   UNL A   1      41.672  25.652  28.160  1.00  0.00     0.049 A 
ATOM     39  N   UNL A   1      44.516  26.237  28.962  1.00  0.00    -0.248 NA
ATOM     40  C   UNL A   1      45.108  24.090  28.258  1.00  0.00     0.031 C 
ATOM     41  C   UNL A   1      40.263  25.403  27.841  1.00  0.00     0.029 A 
ATOM     42  N   UNL A   1      41.681  26.937  28.640  1.00  0.00    -0.354 N 
ATOM     43  C   UNL A   1      45.864  26.019  29.220  1.00  0.00     0.074 A 
ATOM     44  C   UNL A   1      46.160  24.660  28.826  1.00  0.00     0.031 C 
ATOM     45  C   UNL A   1      39.551  26.510  28.110  1.00  0.00     0.029 A 
ATOM     46  C   UNL A   1      40.441  27.530  28.653  1.00  0.00     0.049 A 
ATOM     47  H   UNL A   1      42.499  27.391  28.946  1.00  0.00     0.167 HD
ATOM     48  C   UNL A   1      46.778  26.881  29.721  1.00  0.00     0.031 A 
ATOM     49  C   UNL A   1      40.066  28.756  29.061  1.00  0.00     0.031 A 
ATOM     50  C   UNL A   1      46.490  28.243  30.078  1.00  0.00     0.049 A 
ATOM     51  C   UNL A   1      41.108  29.702  29.593  1.00  0.00     0.074 A 
ATOM     52  C   UNL A   1      47.366  29.223  30.509  1.00  0.00     0.029 A 
ATOM     53  N   UNL A   1      45.229  28.815  30.044  1.00  0.00    -0.354 N 
ATOM     54  N   UNL A   1      42.396  29.512  29.742  1.00  0.00    -0.248 NA
ATOM     55  C   UNL A   1      40.644  31.035  30.001  1.00  0.00     0.031 C 
ATOM     56  C   UNL A   1      46.626  30.377  30.781  1.00  0.00     0.029 A 
ATOM     57  C   UNL A   1      45.299  30.130  30.471  1.00  0.00     0.049 A 
ATOM     58  H   UNL A   1      44.406  28.356  29.757  1.00  0.00     0.167 HD
ATOM     59  C   UNL A   1      42.901  30.709  30.232  1.00  0.00     0.074 A 
ATOM     60  C   UNL A   1      41.783  31.623  30.340  1.00  0.00     0.031 C 
ATOM     61  C   UNL A   1      44.176  31.025  30.564  1.00  0.00     0.031 A 
BRANCH  48  62
ATOM     62  C   UNL A   1      48.178  26.374  29.915  1.00  0.00    -0.014 A 
ATOM     63  C   UNL A   1      49.144  26.492  28.902  1.00  0.00     0.009 A 
ATOM     64  C   UNL A   1      48.548  25.807  31.145  1.00  0.00     0.009 A 
ATOM     65  C   UNL A   1      50.442  26.023  29.106  1.00  0.00     0.001 A 
ATOM     66  C   UNL A   1      49.854  25.366  31.356  1.00  0.00     0.001 A 
ATOM     67  C   UNL A   1      50.799  25.466  30.334  1.00  0.00     0.000 A 
ENDBRANCH  48  62
BRANCH  49  68
ATOM     68  C   UNL A   1      38.643  29.175  28.972  1.00  0.00    -0.014 A 
ATOM     69  C   UNL A   1      37.806  29.099  30.096  1.00  0.00     0.009 A 
ATOM     70  C   UNL A   1      38.106  29.629  27.757  1.00  0.00     0.009 A 
ATOM     71  C   UNL A   1      36.454  29.437  29.996  1.00  0.00     0.001 A 
ATOM     72  C   UNL A   1      36.762  29.993  27.667  1.00  0.00     0.001 A 
ATOM     73  C   UNL A   1      35.934  29.886  28.784  1.00  0.00     0.000 A 
ENDBRANCH  49  68
BRANCH  61  74
ATOM     74  C   UNL A   1      44.435  32.426  31.038  1.00  0.00    -0.014 A 
ATOM     75  C   UNL A   1      44.389  32.753  32.401  1.00  0.00     0.009 A 
ATOM     76  C   UNL A   1      44.775  33.419  30.107  1.00  0.00     0.009 A 
ATOM     77  C   UNL A   1      44.648  34.059  32.820  1.00  0.00     0.001 A 
ATOM     78  C   UNL A   1      45.061  34.717  30.532  1.00  0.00     0.001 A 
ATOM     79  C   UNL A   1      44.989  35.038  31.886  1.00  0.00     0.000 A 
ENDBRANCH  61  74
ENDBRANCH  35  36
ENDBRANCH  27  30
ENDBRANCH  25  26
ENDBRANCH  24  25
ENDBRANCH   1  24
TORSDOF 15
ENDMDL
