MODEL 1
REMARK VINA RESULT:     -10.7      0.000      0.000
REMARK SMILES O=C(NCCCCNC(=O)c1cc(-c2ccoc2)n[nH]1)c1ccc(-c2c3nc(c(-c4ccccc4)c4ccc([nH]4)c(-c4ccccc4)c4nc(c(-c5ccccc5)c5ccc2[nH]5)C=C4)C=C3)cc1
REMARK SMILES IDX 5 1 4 2 3 3 1 4 2 5 21 7 22 8 68 9 23 10 67 11 24 12 25 13
REMARK SMILES IDX 26 14 61 15 27 16 66 17 60 18 62 19 28 20 65 21 59 22 58 23
REMARK SMILES IDX 29 25 51 26 36 27 50 28 37 29 40 30 49 31 63 32 38 33 39 34
REMARK SMILES IDX 48 36 64 37 41 38 30 39 31 40 35 41 32 42 34 43 33 44 52 45
REMARK SMILES IDX 53 46 57 47 54 48 56 49 55 50 42 51 43 52 47 53 44 54 46 55
REMARK SMILES IDX 45 56 6 57 7 58 8 59 9 60 10 62 11 63 12 64 20 65 13 66
REMARK SMILES IDX 19 67 14 69 15 70 18 71 16 72 17 73
REMARK H PARENT 3 6 62 24 40 35 8 61 20 68
REMARK Flexibility Score: inf
ROOT
ATOM      1  C   UNL A   1      41.328  21.144  27.647  1.00  0.00     0.023 C 
ENDROOT
BRANCH   1   2
ATOM      2  C   UNL A   1      41.217  21.929  26.346  1.00  0.00     0.116 C 
BRANCH   2   3
ATOM      3  N   UNL A   1      39.844  22.062  25.886  1.00  0.00    -0.352 N 
ATOM      4  O   UNL A   1      37.770  22.942  25.776  1.00  0.00    -0.269 OA
ATOM      5  C   UNL A   1      38.942  23.070  26.119  1.00  0.00     0.251 C 
ATOM      6  H   UNL A   1      39.514  21.322  25.325  1.00  0.00     0.163 HD
BRANCH   5   7
ATOM      7  C   UNL A   1      39.379  24.300  26.809  1.00  0.00     0.039 A 
ATOM      8  C   UNL A   1      39.083  24.509  28.159  1.00  0.00     0.014 A 
ATOM      9  C   UNL A   1      40.105  25.252  26.091  1.00  0.00     0.014 A 
ATOM     10  C   UNL A   1      39.400  25.724  28.757  1.00  0.00     0.010 A 
ATOM     11  C   UNL A   1      40.490  26.439  26.714  1.00  0.00     0.010 A 
ATOM     12  C   UNL A   1      40.118  26.696  28.044  1.00  0.00    -0.014 A 
BRANCH  12  13
ATOM     13  C   UNL A   1      40.532  27.956  28.705  1.00  0.00     0.031 A 
ATOM     14  C   UNL A   1      41.891  28.087  29.326  1.00  0.00     0.074 A 
ATOM     15  C   UNL A   1      39.652  28.971  28.782  1.00  0.00     0.049 A 
ATOM     16  N   UNL A   1      42.386  29.077  30.028  1.00  0.00    -0.248 NA
ATOM     17  C   UNL A   1      42.813  26.955  29.148  1.00  0.00     0.031 C 
ATOM     18  C   UNL A   1      38.302  28.962  28.215  1.00  0.00     0.029 A 
ATOM     19  N   UNL A   1      39.755  30.199  29.383  1.00  0.00    -0.354 N 
ATOM     20  C   UNL A   1      43.663  28.677  30.398  1.00  0.00     0.074 A 
ATOM     21  C   UNL A   1      43.859  27.346  29.863  1.00  0.00     0.031 C 
ATOM     22  C   UNL A   1      37.704  30.129  28.491  1.00  0.00     0.029 A 
ATOM     23  C   UNL A   1      38.599  30.938  29.309  1.00  0.00     0.049 A 
ATOM     24  H   UNL A   1      40.574  30.519  29.826  1.00  0.00     0.167 HD
ATOM     25  C   UNL A   1      44.585  29.357  31.122  1.00  0.00     0.031 A 
ATOM     26  C   UNL A   1      38.276  32.116  29.871  1.00  0.00     0.031 A 
ATOM     27  C   UNL A   1      44.372  30.674  31.665  1.00  0.00     0.049 A 
ATOM     28  C   UNL A   1      39.289  32.829  30.715  1.00  0.00     0.074 A 
ATOM     29  C   UNL A   1      45.257  31.466  32.377  1.00  0.00     0.029 A 
ATOM     30  N   UNL A   1      43.185  31.386  31.572  1.00  0.00    -0.354 N 
ATOM     31  N   UNL A   1      40.510  32.462  31.020  1.00  0.00    -0.248 NA
ATOM     32  C   UNL A   1      38.886  34.120  31.288  1.00  0.00     0.031 C 
ATOM     33  C   UNL A   1      44.583  32.625  32.773  1.00  0.00     0.029 A 
ATOM     34  C   UNL A   1      43.302  32.591  32.245  1.00  0.00     0.049 A 
ATOM     35  H   UNL A   1      42.378  31.079  31.098  1.00  0.00     0.167 HD
ATOM     36  C   UNL A   1      41.033  33.486  31.797  1.00  0.00     0.074 A 
ATOM     37  C   UNL A   1      39.997  34.493  31.913  1.00  0.00     0.031 C 
ATOM     38  C   UNL A   1      42.263  33.585  32.354  1.00  0.00     0.031 A 
BRANCH  25  39
ATOM     39  C   UNL A   1      45.888  28.661  31.411  1.00  0.00    -0.014 A 
ATOM     40  C   UNL A   1      47.000  28.793  30.565  1.00  0.00     0.009 A 
ATOM     41  C   UNL A   1      46.005  27.864  32.562  1.00  0.00     0.009 A 
ATOM     42  C   UNL A   1      48.183  28.100  30.836  1.00  0.00     0.001 A 
ATOM     43  C   UNL A   1      47.198  27.200  32.849  1.00  0.00     0.001 A 
ATOM     44  C   UNL A   1      48.282  27.306  31.978  1.00  0.00     0.000 A 
ENDBRANCH  25  39
BRANCH  26  45
ATOM     45  C   UNL A   1      36.911  32.665  29.662  1.00  0.00    -0.014 A 
ATOM     46  C   UNL A   1      36.620  33.452  28.540  1.00  0.00     0.009 A 
ATOM     47  C   UNL A   1      35.877  32.345  30.557  1.00  0.00     0.009 A 
ATOM     48  C   UNL A   1      35.320  33.914  28.321  1.00  0.00     0.001 A 
ATOM     49  C   UNL A   1      34.574  32.784  30.320  1.00  0.00     0.001 A 
ATOM     50  C   UNL A   1      34.297  33.572  29.206  1.00  0.00     0.000 A 
ENDBRANCH  26  45
BRANCH  38  51
ATOM     51  C   UNL A   1      42.587  34.844  33.108  1.00  0.00    -0.014 A 
ATOM     52  C   UNL A   1      43.276  35.906  32.503  1.00  0.00     0.009 A 
ATOM     53  C   UNL A   1      42.120  34.998  34.423  1.00  0.00     0.009 A 
ATOM     54  C   UNL A   1      43.503  37.091  33.207  1.00  0.00     0.001 A 
ATOM     55  C   UNL A   1      42.324  36.193  35.114  1.00  0.00     0.001 A 
ATOM     56  C   UNL A   1      43.018  37.237  34.507  1.00  0.00     0.000 A 
ENDBRANCH  38  51
ENDBRANCH  12  13
ENDBRANCH   5   7
ENDBRANCH   2   3
ENDBRANCH   1   2
BRANCH   1  57
ATOM     57  C   UNL A   1      41.909  19.738  27.503  1.00  0.00     0.023 C 
BRANCH  57  58
ATOM     58  C   UNL A   1      42.244  19.329  26.070  1.00  0.00     0.116 C 
BRANCH  58  59
ATOM     59  N   UNL A   1      43.523  18.639  25.985  1.00  0.00    -0.351 N 
ATOM     60  C   UNL A   1      44.656  19.026  25.317  1.00  0.00     0.269 C 
ATOM     61  H   UNL A   1      43.582  17.784  26.469  1.00  0.00     0.163 HD
ATOM     62  O   UNL A   1      45.535  18.190  25.099  1.00  0.00    -0.268 OA
BRANCH  60  63
ATOM     63  C   UNL A   1      44.743  20.377  24.859  1.00  0.00     0.123 A 
ATOM     64  C   UNL A   1      44.952  21.565  25.533  1.00  0.00     0.064 A 
ATOM     65  N   UNL A   1      44.632  20.731  23.542  1.00  0.00    -0.272 N 
ATOM     66  C   UNL A   1      44.736  22.567  24.569  1.00  0.00     0.096 A 
ATOM     67  N   UNL A   1      44.512  22.058  23.353  1.00  0.00    -0.175 NA
ATOM     68  H   UNL A   1      44.638  20.078  22.804  1.00  0.00     0.190 HD
BRANCH  66  69
ATOM     69  C   UNL A   1      44.649  23.980  24.885  1.00  0.00     0.040 A 
ATOM     70  C   UNL A   1      45.737  24.880  24.986  1.00  0.00     0.052 A 
ATOM     71  C   UNL A   1      43.517  24.697  25.190  1.00  0.00     0.205 A 
ATOM     72  C   UNL A   1      45.190  26.090  25.351  1.00  0.00     0.195 A 
ATOM     73  O   UNL A   1      43.841  25.984  25.487  1.00  0.00    -0.472 OA
ENDBRANCH  66  69
ENDBRANCH  60  63
ENDBRANCH  58  59
ENDBRANCH  57  58
ENDBRANCH   1  57
TORSDOF 12
ENDMDL
MODEL 2
REMARK VINA RESULT:     -10.7      3.796     11.378
REMARK SMILES O=C(NCCCCNC(=O)c1cc(-c2ccoc2)n[nH]1)c1ccc(-c2c3nc(c(-c4ccccc4)c4ccc([nH]4)c(-c4ccccc4)c4nc(c(-c5ccccc5)c5ccc2[nH]5)C=C4)C=C3)cc1
REMARK SMILES IDX 5 1 4 2 3 3 1 4 2 5 21 7 22 8 68 9 23 10 67 11 24 12 25 13
REMARK SMILES IDX 26 14 61 15 27 16 66 17 60 18 62 19 28 20 65 21 59 22 58 23
REMARK SMILES IDX 29 25 51 26 36 27 50 28 37 29 40 30 49 31 63 32 38 33 39 34
REMARK SMILES IDX 48 36 64 37 41 38 30 39 31 40 35 41 32 42 34 43 33 44 52 45
REMARK SMILES IDX 53 46 57 47 54 48 56 49 55 50 42 51 43 52 47 53 44 54 46 55
REMARK SMILES IDX 45 56 6 57 7 58 8 59 9 60 10 62 11 63 12 64 20 65 13 66
REMARK SMILES IDX 19 67 14 69 15 70 18 71 16 72 17 73
REMARK H PARENT 3 6 62 24 40 35 8 61 20 68
REMARK Flexibility Score: inf
ROOT
ATOM      1  C   UNL A   1      34.705  34.304  27.732  1.00  0.00     0.023 C 
ENDROOT
BRANCH   1   2
ATOM      2  C   UNL A   1      34.910  33.051  28.573  1.00  0.00     0.116 C 
BRANCH   2   3
ATOM      3  N   UNL A   1      34.068  31.945  28.149  1.00  0.00    -0.352 N 
ATOM      4  O   UNL A   1      33.588  29.862  27.427  1.00  0.00    -0.269 OA
ATOM      5  C   UNL A   1      34.400  30.630  27.934  1.00  0.00     0.251 C 
ATOM      6  H   UNL A   1      33.122  32.171  27.993  1.00  0.00     0.163 HD
BRANCH   5   7
ATOM      7  C   UNL A   1      35.749  30.148  28.291  1.00  0.00     0.039 A 
ATOM      8  C   UNL A   1      36.020  29.652  29.570  1.00  0.00     0.014 A 
ATOM      9  C   UNL A   1      36.755  30.186  27.323  1.00  0.00     0.014 A 
ATOM     10  C   UNL A   1      37.322  29.314  29.920  1.00  0.00     0.010 A 
ATOM     11  C   UNL A   1      38.046  29.774  27.653  1.00  0.00     0.010 A 
ATOM     12  C   UNL A   1      38.346  29.360  28.961  1.00  0.00    -0.014 A 
BRANCH  12  13
ATOM     13  C   UNL A   1      39.717  28.918  29.309  1.00  0.00     0.031 A 
ATOM     14  C   UNL A   1      40.670  29.845  30.005  1.00  0.00     0.074 A 
ATOM     15  C   UNL A   1      40.115  27.684  28.948  1.00  0.00     0.049 A 
ATOM     16  N   UNL A   1      41.933  29.661  30.298  1.00  0.00    -0.248 NA
ATOM     17  C   UNL A   1      40.140  31.153  30.416  1.00  0.00     0.031 C 
ATOM     18  C   UNL A   1      39.278  26.693  28.269  1.00  0.00     0.029 A 
ATOM     19  N   UNL A   1      41.328  27.060  29.088  1.00  0.00    -0.354 N 
ATOM     20  C   UNL A   1      42.357  30.838  30.901  1.00  0.00     0.074 A 
ATOM     21  C   UNL A   1      41.222  31.737  30.911  1.00  0.00     0.031 C 
ATOM     22  C   UNL A   1      40.001  25.585  28.055  1.00  0.00     0.029 A 
ATOM     23  C   UNL A   1      41.364  25.811  28.518  1.00  0.00     0.049 A 
ATOM     24  H   UNL A   1      42.097  27.467  29.549  1.00  0.00     0.167 HD
ATOM     25  C   UNL A   1      43.581  31.141  31.396  1.00  0.00     0.031 A 
ATOM     26  C   UNL A   1      42.388  24.956  28.346  1.00  0.00     0.031 A 
ATOM     27  C   UNL A   1      44.708  30.245  31.364  1.00  0.00     0.049 A 
ATOM     28  C   UNL A   1      43.750  25.331  28.851  1.00  0.00     0.074 A 
ATOM     29  C   UNL A   1      45.980  30.441  31.876  1.00  0.00     0.029 A 
ATOM     30  N   UNL A   1      44.705  28.990  30.772  1.00  0.00    -0.354 N 
ATOM     31  N   UNL A   1      44.127  26.429  29.460  1.00  0.00    -0.248 NA
ATOM     32  C   UNL A   1      44.825  24.351  28.651  1.00  0.00     0.031 C 
ATOM     33  C   UNL A   1      46.763  29.335  31.532  1.00  0.00     0.029 A 
ATOM     34  C   UNL A   1      45.962  28.416  30.873  1.00  0.00     0.049 A 
ATOM     35  H   UNL A   1      43.925  28.571  30.343  1.00  0.00     0.167 HD
ATOM     36  C   UNL A   1      45.476  26.262  29.742  1.00  0.00     0.074 A 
ATOM     37  C   UNL A   1      45.850  24.955  29.241  1.00  0.00     0.031 C 
ATOM     38  C   UNL A   1      46.322  27.114  30.369  1.00  0.00     0.031 A 
BRANCH  25  39
ATOM     39  C   UNL A   1      43.775  32.521  31.965  1.00  0.00    -0.014 A 
ATOM     40  C   UNL A   1      43.583  32.791  33.330  1.00  0.00     0.009 A 
ATOM     41  C   UNL A   1      44.167  33.570  31.118  1.00  0.00     0.009 A 
ATOM     42  C   UNL A   1      43.729  34.090  33.822  1.00  0.00     0.001 A 
ATOM     43  C   UNL A   1      44.344  34.861  31.618  1.00  0.00     0.001 A 
ATOM     44  C   UNL A   1      44.110  35.123  32.967  1.00  0.00     0.000 A 
ENDBRANCH  25  39
BRANCH  26  45
ATOM     45  C   UNL A   1      42.147  23.674  27.635  1.00  0.00    -0.014 A 
ATOM     46  C   UNL A   1      42.416  23.555  26.265  1.00  0.00     0.009 A 
ATOM     47  C   UNL A   1      41.706  22.544  28.344  1.00  0.00     0.009 A 
ATOM     48  C   UNL A   1      42.241  22.329  25.617  1.00  0.00     0.001 A 
ATOM     49  C   UNL A   1      41.561  21.315  27.700  1.00  0.00     0.001 A 
ATOM     50  C   UNL A   1      41.823  21.210  26.336  1.00  0.00     0.000 A 
ENDBRANCH  26  45
BRANCH  38  51
ATOM     51  C   UNL A   1      47.734  26.651  30.595  1.00  0.00    -0.014 A 
ATOM     52  C   UNL A   1      48.095  25.926  31.741  1.00  0.00     0.009 A 
ATOM     53  C   UNL A   1      48.699  26.877  29.600  1.00  0.00     0.009 A 
ATOM     54  C   UNL A   1      49.399  25.450  31.892  1.00  0.00     0.001 A 
ATOM     55  C   UNL A   1      49.993  26.376  29.741  1.00  0.00     0.001 A 
ATOM     56  C   UNL A   1      50.344  25.667  30.888  1.00  0.00     0.000 A 
ENDBRANCH  38  51
ENDBRANCH  12  13
ENDBRANCH   5   7
ENDBRANCH   2   3
ENDBRANCH   1   2
BRANCH   1  57
ATOM     57  C   UNL A   1      34.511  35.591  28.531  1.00  0.00     0.023 C 
BRANCH  57  58
ATOM     58  C   UNL A   1      33.219  35.650  29.345  1.00  0.00     0.116 C 
BRANCH  58  59
ATOM     59  N   UNL A   1      33.191  36.797  30.241  1.00  0.00    -0.351 N 
ATOM     60  C   UNL A   1      33.254  36.809  31.610  1.00  0.00     0.269 C 
ATOM     61  H   UNL A   1      33.115  37.678  29.807  1.00  0.00     0.163 HD
ATOM     62  O   UNL A   1      32.913  37.827  32.214  1.00  0.00    -0.268 OA
BRANCH  60  63
ATOM     63  C   UNL A   1      33.668  35.616  32.278  1.00  0.00     0.123 A 
ATOM     64  C   UNL A   1      34.917  35.149  32.637  1.00  0.00     0.064 A 
ATOM     65  N   UNL A   1      32.792  34.661  32.719  1.00  0.00    -0.272 N 
ATOM     66  C   UNL A   1      34.694  33.833  33.084  1.00  0.00     0.096 A 
ATOM     67  N   UNL A   1      33.395  33.522  33.109  1.00  0.00    -0.175 NA
ATOM     68  H   UNL A   1      31.817  34.793  32.747  1.00  0.00     0.190 HD
BRANCH  66  69
ATOM     69  C   UNL A   1      35.760  32.890  33.370  1.00  0.00     0.040 A 
ATOM     70  C   UNL A   1      36.705  32.993  34.419  1.00  0.00     0.052 A 
ATOM     71  C   UNL A   1      36.082  31.759  32.660  1.00  0.00     0.205 A 
ATOM     72  C   UNL A   1      37.545  31.912  34.273  1.00  0.00     0.195 A 
ATOM     73  O   UNL A   1      37.179  31.162  33.199  1.00  0.00    -0.472 OA
ENDBRANCH  66  69
ENDBRANCH  60  63
ENDBRANCH  58  59
ENDBRANCH  57  58
ENDBRANCH   1  57
TORSDOF 12
ENDMDL
MODEL 3
REMARK VINA RESULT:     -10.6      0.872      6.254
REMARK SMILES O=C(NCCCCNC(=O)c1cc(-c2ccoc2)n[nH]1)c1ccc(-c2c3nc(c(-c4ccccc4)c4ccc([nH]4)c(-c4ccccc4)c4nc(c(-c5ccccc5)c5ccc2[nH]5)C=C4)C=C3)cc1
REMARK SMILES IDX 5 1 4 2 3 3 1 4 2 5 21 7 22 8 68 9 23 10 67 11 24 12 25 13
REMARK SMILES IDX 26 14 61 15 27 16 66 17 60 18 62 19 28 20 65 21 59 22 58 23
REMARK SMILES IDX 29 25 51 26 36 27 50 28 37 29 40 30 49 31 63 32 38 33 39 34
REMARK SMILES IDX 48 36 64 37 41 38 30 39 31 40 35 41 32 42 34 43 33 44 52 45
REMARK SMILES IDX 53 46 57 47 54 48 56 49 55 50 42 51 43 52 47 53 44 54 46 55
REMARK SMILES IDX 45 56 6 57 7 58 8 59 9 60 10 62 11 63 12 64 20 65 13 66
REMARK SMILES IDX 19 67 14 69 15 70 18 71 16 72 17 73
REMARK H PARENT 3 6 62 24 40 35 8 61 20 68
REMARK Flexibility Score: inf
ROOT
ATOM      1  C   UNL A   1      41.415  20.652  27.562  1.00  0.00     0.023 C 
ENDROOT
BRANCH   1   2
ATOM      2  C   UNL A   1      41.312  21.680  26.442  1.00  0.00     0.116 C 
BRANCH   2   3
ATOM      3  N   UNL A   1      39.958  21.818  25.929  1.00  0.00    -0.352 N 
ATOM      4  O   UNL A   1      37.904  22.725  25.718  1.00  0.00    -0.269 OA
ATOM      5  C   UNL A   1      39.065  22.847  26.097  1.00  0.00     0.251 C 
ATOM      6  H   UNL A   1      39.636  21.065  25.382  1.00  0.00     0.163 HD
BRANCH   5   7
ATOM      7  C   UNL A   1      39.498  24.093  26.761  1.00  0.00     0.039 A 
ATOM      8  C   UNL A   1      39.271  24.296  28.125  1.00  0.00     0.014 A 
ATOM      9  C   UNL A   1      40.151  25.067  26.002  1.00  0.00     0.014 A 
ATOM     10  C   UNL A   1      39.579  25.523  28.703  1.00  0.00     0.010 A 
ATOM     11  C   UNL A   1      40.530  26.268  26.602  1.00  0.00     0.010 A 
ATOM     12  C   UNL A   1      40.224  26.516  27.950  1.00  0.00    -0.014 A 
BRANCH  12  13
ATOM     13  C   UNL A   1      40.632  27.791  28.586  1.00  0.00     0.031 A 
ATOM     14  C   UNL A   1      39.641  28.899  28.792  1.00  0.00     0.074 A 
ATOM     15  C   UNL A   1      41.920  27.961  28.936  1.00  0.00     0.049 A 
ATOM     16  N   UNL A   1      39.843  30.112  29.242  1.00  0.00    -0.248 NA
ATOM     17  C   UNL A   1      38.243  28.612  28.436  1.00  0.00     0.031 C 
ATOM     18  C   UNL A   1      42.974  26.956  28.788  1.00  0.00     0.029 A 
ATOM     19  N   UNL A   1      42.564  29.046  29.473  1.00  0.00    -0.354 N 
ATOM     20  C   UNL A   1      38.606  30.743  29.196  1.00  0.00     0.074 A 
ATOM     21  C   UNL A   1      37.665  29.784  28.654  1.00  0.00     0.031 C 
ATOM     22  C   UNL A   1      44.132  27.469  29.226  1.00  0.00     0.029 A 
ATOM     23  C   UNL A   1      43.916  28.855  29.622  1.00  0.00     0.049 A 
ATOM     24  H   UNL A   1      42.104  29.879  29.726  1.00  0.00     0.167 HD
ATOM     25  C   UNL A   1      38.287  32.006  29.569  1.00  0.00     0.031 A 
ATOM     26  C   UNL A   1      44.885  29.711  29.994  1.00  0.00     0.031 A 
ATOM     27  C   UNL A   1      39.235  32.956  30.090  1.00  0.00     0.049 A 
ATOM     28  C   UNL A   1      44.522  31.122  30.349  1.00  0.00     0.074 A 
ATOM     29  C   UNL A   1      39.005  34.248  30.535  1.00  0.00     0.029 A 
ATOM     30  N   UNL A   1      40.597  32.726  30.219  1.00  0.00    -0.354 N 
ATOM     31  N   UNL A   1      43.341  31.692  30.346  1.00  0.00    -0.248 NA
ATOM     32  C   UNL A   1      45.619  32.005  30.765  1.00  0.00     0.031 C 
ATOM     33  C   UNL A   1      40.237  34.820  30.867  1.00  0.00     0.029 A 
ATOM     34  C   UNL A   1      41.225  33.863  30.701  1.00  0.00     0.049 A 
ATOM     35  H   UNL A   1      41.050  31.880  29.999  1.00  0.00     0.167 HD
ATOM     36  C   UNL A   1      43.547  32.993  30.784  1.00  0.00     0.074 A 
ATOM     37  C   UNL A   1      44.966  33.126  31.049  1.00  0.00     0.031 C 
ATOM     38  C   UNL A   1      42.639  33.983  30.960  1.00  0.00     0.031 A 
BRANCH  25  39
ATOM     39  C   UNL A   1      36.861  32.445  29.372  1.00  0.00    -0.014 A 
ATOM     40  C   UNL A   1      36.425  33.026  28.170  1.00  0.00     0.009 A 
ATOM     41  C   UNL A   1      35.932  32.263  30.410  1.00  0.00     0.009 A 
ATOM     42  C   UNL A   1      35.106  33.463  28.032  1.00  0.00     0.001 A 
ATOM     43  C   UNL A   1      34.606  32.670  30.258  1.00  0.00     0.001 A 
ATOM     44  C   UNL A   1      34.197  33.285  29.074  1.00  0.00     0.000 A 
ENDBRANCH  25  39
BRANCH  26  45
ATOM     45  C   UNL A   1      46.294  29.240  30.014  1.00  0.00    -0.014 A 
ATOM     46  C   UNL A   1      47.113  29.386  28.887  1.00  0.00     0.009 A 
ATOM     47  C   UNL A   1      46.842  28.701  31.190  1.00  0.00     0.009 A 
ATOM     48  C   UNL A   1      48.454  28.995  28.934  1.00  0.00     0.001 A 
ATOM     49  C   UNL A   1      48.188  28.338  31.243  1.00  0.00     0.001 A 
ATOM     50  C   UNL A   1      48.991  28.480  30.114  1.00  0.00     0.000 A 
ENDBRANCH  26  45
BRANCH  38  51
ATOM     51  C   UNL A   1      43.134  35.292  31.506  1.00  0.00    -0.014 A 
ATOM     52  C   UNL A   1      43.192  35.538  32.885  1.00  0.00     0.009 A 
ATOM     53  C   UNL A   1      43.626  36.265  30.620  1.00  0.00     0.009 A 
ATOM     54  C   UNL A   1      43.720  36.739  33.366  1.00  0.00     0.001 A 
ATOM     55  C   UNL A   1      44.178  37.451  31.104  1.00  0.00     0.001 A 
ATOM     56  C   UNL A   1      44.221  37.689  32.476  1.00  0.00     0.000 A 
ENDBRANCH  38  51
ENDBRANCH  12  13
ENDBRANCH   5   7
ENDBRANCH   2   3
ENDBRANCH   1   2
BRANCH   1  57
ATOM     57  C   UNL A   1      42.083  19.336  27.167  1.00  0.00     0.023 C 
BRANCH  57  58
ATOM     58  C   UNL A   1      42.609  19.290  25.734  1.00  0.00     0.116 C 
BRANCH  58  59
ATOM     59  N   UNL A   1      43.947  18.721  25.662  1.00  0.00    -0.351 N 
ATOM     60  C   UNL A   1      45.060  19.238  25.051  1.00  0.00     0.269 C 
ATOM     61  H   UNL A   1      44.068  17.852  26.110  1.00  0.00     0.163 HD
ATOM     62  O   UNL A   1      46.017  18.495  24.826  1.00  0.00    -0.268 OA
BRANCH  60  63
ATOM     63  C   UNL A   1      45.039  20.611  24.657  1.00  0.00     0.123 A 
ATOM     64  C   UNL A   1      45.362  21.769  25.338  1.00  0.00     0.064 A 
ATOM     65  N   UNL A   1      44.665  21.027  23.408  1.00  0.00    -0.272 N 
ATOM     66  C   UNL A   1      44.948  22.812  24.490  1.00  0.00     0.096 A 
ATOM     67  N   UNL A   1      44.495  22.359  23.317  1.00  0.00    -0.175 NA
ATOM     68  H   UNL A   1      44.534  20.412  22.650  1.00  0.00     0.190 HD
BRANCH  66  69
ATOM     69  C   UNL A   1      44.909  24.206  24.891  1.00  0.00     0.040 A 
ATOM     70  C   UNL A   1      46.026  25.012  25.216  1.00  0.00     0.052 A 
ATOM     71  C   UNL A   1      43.793  24.987  25.077  1.00  0.00     0.205 A 
ATOM     72  C   UNL A   1      45.511  26.235  25.583  1.00  0.00     0.195 A 
ATOM     73  O   UNL A   1      44.153  26.225  25.510  1.00  0.00    -0.472 OA
ENDBRANCH  66  69
ENDBRANCH  60  63
ENDBRANCH  58  59
ENDBRANCH  57  58
ENDBRANCH   1  57
TORSDOF 12
ENDMDL
