MODEL 1
REMARK VINA RESULT:     -11.6      0.000      0.000
REMARK SMILES CN(c1ccc(C(N)=O)nn1)[C@H]1COC[C@@H]1C(=O)NCCCCNC(=O)c1ccc(-c2c3nc(c(-c4ccccc4)c4ccc([nH]4)c(-c4ccccc4)c4nc(c(-c5ccccc5)c5ccc2[nH]5)C=C4)C=C3)cc1
REMARK SMILES IDX 21 1 20 2 19 3 17 4 18 5 16 7 12 8 13 9 14 10 15 11 2 12
REMARK SMILES IDX 1 13 3 14 4 15 11 16 5 17 10 18 6 19 7 20 8 21 9 22 22 25
REMARK SMILES IDX 23 26 24 27 25 28 26 30 27 31 28 32 74 33 29 34 73 35 30 36
REMARK SMILES IDX 31 37 32 38 67 39 33 40 72 41 66 42 68 43 34 44 71 45 65 46
REMARK SMILES IDX 64 47 35 49 57 50 42 51 56 52 43 53 46 54 55 55 69 56 44 57
REMARK SMILES IDX 45 58 54 60 70 61 47 62 36 63 37 64 41 65 38 66 40 67 39 68
REMARK SMILES IDX 58 69 59 70 63 71 60 72 62 73 61 74 48 75 49 76 53 77 50 78
REMARK SMILES IDX 52 79 51 80
REMARK H PARENT 19 6 8 23 8 24 24 29 68 48 46 59
REMARK Flexibility Score: inf
ROOT
ATOM      1  C   UNL A   1      36.456  19.820  24.971  1.00  0.00     0.023 C 
ENDROOT
BRANCH   1   2
ATOM      2  C   UNL A   1      36.372  21.270  25.442  1.00  0.00     0.116 C 
BRANCH   2   3
ATOM      3  N   UNL A   1      36.455  22.197  24.329  1.00  0.00    -0.356 N 
ATOM      4  C   UNL A   1      35.442  22.837  23.671  1.00  0.00     0.227 C 
ATOM      5  O   UNL A   1      35.726  23.534  22.698  1.00  0.00    -0.275 OA
ATOM      6  H   UNL A   1      37.363  22.391  24.003  1.00  0.00     0.163 HD
BRANCH   4   7
ATOM      7  C   UNL A   1      34.034  22.718  24.219  1.00  0.00     0.129 C 
ATOM      8  C   UNL A   1      33.251  21.620  23.517  1.00  0.00     0.124 C 
ATOM      9  C   UNL A   1      32.552  22.390  22.397  1.00  0.00     0.186 C 
ATOM     10  O   UNL A   1      32.290  23.711  22.899  1.00  0.00    -0.378 OA
ATOM     11  C   UNL A   1      33.274  23.996  23.905  1.00  0.00     0.176 C 
BRANCH   8  12
ATOM     12  N   UNL A   1      32.313  20.931  24.446  1.00  0.00    -0.352 N 
ATOM     13  C   UNL A   1      31.599  21.682  25.471  1.00  0.00     0.145 C 
BRANCH  12  14
ATOM     14  C   UNL A   1      32.499  19.559  24.598  1.00  0.00     0.151 A 
ATOM     15  C   UNL A   1      32.811  18.741  23.516  1.00  0.00     0.051 A 
ATOM     16  N   UNL A   1      32.404  18.997  25.828  1.00  0.00    -0.132 NA
ATOM     17  C   UNL A   1      32.995  17.369  23.699  1.00  0.00     0.040 A 
ATOM     18  N   UNL A   1      32.559  17.643  26.028  1.00  0.00    -0.143 NA
ATOM     19  C   UNL A   1      32.853  16.856  24.972  1.00  0.00     0.150 A 
BRANCH  19  20
ATOM     20  C   UNL A   1      33.021  15.402  25.242  1.00  0.00     0.269 C 
ATOM     21  N   UNL A   1      31.875  14.694  25.487  1.00  0.00    -0.364 N 
ATOM     22  O   UNL A   1      34.121  14.861  25.241  1.00  0.00    -0.268 OA
ATOM     23  H   UNL A   1      31.003  15.152  25.482  1.00  0.00     0.160 HD
ATOM     24  H   UNL A   1      31.923  13.727  25.669  1.00  0.00     0.160 HD
ENDBRANCH  19  20
ENDBRANCH  12  14
ENDBRANCH   8  12
ENDBRANCH   4   7
ENDBRANCH   2   3
ENDBRANCH   1   2
BRANCH   1  25
ATOM     25  C   UNL A   1      37.884  19.301  24.784  1.00  0.00     0.023 C 
BRANCH  25  26
ATOM     26  C   UNL A   1      38.917  19.889  25.739  1.00  0.00     0.116 C 
BRANCH  26  27
ATOM     27  N   UNL A   1      40.157  19.128  25.774  1.00  0.00    -0.352 N 
ATOM     28  C   UNL A   1      41.423  19.555  26.101  1.00  0.00     0.251 C 
ATOM     29  H   UNL A   1      40.079  18.177  25.530  1.00  0.00     0.163 HD
ATOM     30  O   UNL A   1      42.386  18.812  25.945  1.00  0.00    -0.269 OA
BRANCH  28  31
ATOM     31  C   UNL A   1      41.620  20.929  26.605  1.00  0.00     0.039 A 
ATOM     32  C   UNL A   1      41.527  21.163  27.979  1.00  0.00     0.014 A 
ATOM     33  C   UNL A   1      41.926  21.975  25.731  1.00  0.00     0.014 A 
ATOM     34  C   UNL A   1      41.819  22.431  28.484  1.00  0.00     0.010 A 
ATOM     35  C   UNL A   1      42.291  23.217  26.243  1.00  0.00     0.010 A 
ATOM     36  C   UNL A   1      42.245  23.457  27.624  1.00  0.00    -0.014 A 
BRANCH  36  37
ATOM     37  C   UNL A   1      42.664  24.781  28.152  1.00  0.00     0.031 A 
ATOM     38  C   UNL A   1      41.648  25.869  28.364  1.00  0.00     0.074 A 
ATOM     39  C   UNL A   1      43.969  25.025  28.381  1.00  0.00     0.049 A 
ATOM     40  N   UNL A   1      41.832  27.104  28.758  1.00  0.00    -0.248 NA
ATOM     41  C   UNL A   1      40.245  25.534  28.074  1.00  0.00     0.031 C 
ATOM     42  C   UNL A   1      45.060  24.066  28.187  1.00  0.00     0.029 A 
ATOM     43  N   UNL A   1      44.603  26.159  28.826  1.00  0.00    -0.354 N 
ATOM     44  C   UNL A   1      40.574  27.692  28.753  1.00  0.00     0.074 A 
ATOM     45  C   UNL A   1      39.644  26.698  28.264  1.00  0.00     0.031 C 
ATOM     46  C   UNL A   1      46.220  24.642  28.543  1.00  0.00     0.029 A 
ATOM     47  C   UNL A   1      45.964  26.021  28.941  1.00  0.00     0.049 A 
ATOM     48  H   UNL A   1      44.125  26.993  29.041  1.00  0.00     0.167 HD
ATOM     49  C   UNL A   1      40.219  28.941  29.140  1.00  0.00     0.031 A 
ATOM     50  C   UNL A   1      46.905  26.909  29.317  1.00  0.00     0.031 A 
ATOM     51  C   UNL A   1      41.143  29.931  29.626  1.00  0.00     0.049 A 
ATOM     52  C   UNL A   1      46.491  28.303  29.698  1.00  0.00     0.074 A 
ATOM     53  C   UNL A   1      40.874  31.210  30.081  1.00  0.00     0.029 A 
ATOM     54  N   UNL A   1      42.515  29.756  29.712  1.00  0.00    -0.354 N 
ATOM     55  N   UNL A   1      45.288  28.824  29.746  1.00  0.00    -0.248 NA
ATOM     56  C   UNL A   1      47.565  29.228  30.085  1.00  0.00     0.031 C 
ATOM     57  C   UNL A   1      42.089  31.829  30.387  1.00  0.00     0.029 A 
ATOM     58  C   UNL A   1      43.109  30.914  30.188  1.00  0.00     0.049 A 
ATOM     59  H   UNL A   1      42.997  28.931  29.472  1.00  0.00     0.167 HD
ATOM     60  C   UNL A   1      45.458  30.126  30.199  1.00  0.00     0.074 A 
ATOM     61  C   UNL A   1      46.877  30.310  30.427  1.00  0.00     0.031 C 
ATOM     62  C   UNL A   1      44.522  31.083  30.411  1.00  0.00     0.031 A 
BRANCH  49  63
ATOM     63  C   UNL A   1      38.763  29.308  29.045  1.00  0.00    -0.014 A 
ATOM     64  C   UNL A   1      38.218  29.826  27.859  1.00  0.00     0.009 A 
ATOM     65  C   UNL A   1      37.916  29.096  30.144  1.00  0.00     0.009 A 
ATOM     66  C   UNL A   1      36.864  30.159  27.788  1.00  0.00     0.001 A 
ATOM     67  C   UNL A   1      36.555  29.399  30.059  1.00  0.00     0.001 A 
ATOM     68  C   UNL A   1      36.033  29.940  28.885  1.00  0.00     0.000 A 
ENDBRANCH  49  63
BRANCH  50  69
ATOM     69  C   UNL A   1      48.337  26.506  29.365  1.00  0.00    -0.014 A 
ATOM     70  C   UNL A   1      49.173  26.720  28.259  1.00  0.00     0.009 A 
ATOM     71  C   UNL A   1      48.871  25.894  30.510  1.00  0.00     0.009 A 
ATOM     72  C   UNL A   1      50.506  26.302  28.287  1.00  0.00     0.001 A 
ATOM     73  C   UNL A   1      50.212  25.506  30.547  1.00  0.00     0.001 A 
ATOM     74  C   UNL A   1      51.025  25.701  29.432  1.00  0.00     0.000 A 
ENDBRANCH  50  69
BRANCH  62  75
ATOM     75  C   UNL A   1      44.994  32.404  30.953  1.00  0.00    -0.014 A 
ATOM     76  C   UNL A   1      45.303  33.478  30.104  1.00  0.00     0.009 A 
ATOM     77  C   UNL A   1      45.089  32.587  32.342  1.00  0.00     0.009 A 
ATOM     78  C   UNL A   1      45.729  34.697  30.635  1.00  0.00     0.001 A 
ATOM     79  C   UNL A   1      45.482  33.817  32.871  1.00  0.00     0.001 A 
ATOM     80  C   UNL A   1      45.812  34.868  32.017  1.00  0.00     0.000 A 
ENDBRANCH  62  75
ENDBRANCH  36  37
ENDBRANCH  28  31
ENDBRANCH  26  27
ENDBRANCH  25  26
ENDBRANCH   1  25
TORSDOF 14
ENDMDL
MODEL 2
REMARK VINA RESULT:     -11.5      2.263      7.021
REMARK SMILES CN(c1ccc(C(N)=O)nn1)[C@H]1COC[C@@H]1C(=O)NCCCCNC(=O)c1ccc(-c2c3nc(c(-c4ccccc4)c4ccc([nH]4)c(-c4ccccc4)c4nc(c(-c5ccccc5)c5ccc2[nH]5)C=C4)C=C3)cc1
REMARK SMILES IDX 21 1 20 2 19 3 17 4 18 5 16 7 12 8 13 9 14 10 15 11 2 12
REMARK SMILES IDX 1 13 3 14 4 15 11 16 5 17 10 18 6 19 7 20 8 21 9 22 22 25
REMARK SMILES IDX 23 26 24 27 25 28 26 30 27 31 28 32 74 33 29 34 73 35 30 36
REMARK SMILES IDX 31 37 32 38 67 39 33 40 72 41 66 42 68 43 34 44 71 45 65 46
REMARK SMILES IDX 64 47 35 49 57 50 42 51 56 52 43 53 46 54 55 55 69 56 44 57
REMARK SMILES IDX 45 58 54 60 70 61 47 62 36 63 37 64 41 65 38 66 40 67 39 68
REMARK SMILES IDX 58 69 59 70 63 71 60 72 62 73 61 74 48 75 49 76 53 77 50 78
REMARK SMILES IDX 52 79 51 80
REMARK H PARENT 19 6 8 23 8 24 24 29 68 48 46 59
REMARK Flexibility Score: inf
ROOT
ATOM      1  C   UNL A   1      33.336  26.986  26.133  1.00  0.00     0.023 C 
ENDROOT
BRANCH   1   2
ATOM      2  C   UNL A   1      32.184  26.164  25.559  1.00  0.00     0.116 C 
BRANCH   2   3
ATOM      3  N   UNL A   1      31.606  25.286  26.561  1.00  0.00    -0.356 N 
ATOM      4  C   UNL A   1      31.781  23.941  26.722  1.00  0.00     0.227 C 
ATOM      5  O   UNL A   1      31.138  23.369  27.601  1.00  0.00    -0.275 OA
ATOM      6  H   UNL A   1      31.007  25.719  27.211  1.00  0.00     0.163 HD
BRANCH   4   7
ATOM      7  C   UNL A   1      32.815  23.237  25.864  1.00  0.00     0.129 C 
ATOM      8  C   UNL A   1      32.782  21.731  26.069  1.00  0.00     0.124 C 
ATOM      9  C   UNL A   1      33.828  21.535  27.166  1.00  0.00     0.186 C 
ATOM     10  O   UNL A   1      34.829  22.547  26.975  1.00  0.00    -0.378 OA
ATOM     11  C   UNL A   1      34.202  23.660  26.320  1.00  0.00     0.176 C 
BRANCH   8  12
ATOM     12  N   UNL A   1      33.088  20.996  24.811  1.00  0.00    -0.352 N 
ATOM     13  C   UNL A   1      32.835  21.610  23.513  1.00  0.00     0.145 C 
BRANCH  12  14
ATOM     14  C   UNL A   1      33.167  19.610  24.916  1.00  0.00     0.151 A 
ATOM     15  C   UNL A   1      34.308  18.913  24.529  1.00  0.00     0.051 A 
ATOM     16  N   UNL A   1      32.125  18.911  25.431  1.00  0.00    -0.132 NA
ATOM     17  C   UNL A   1      34.361  17.523  24.649  1.00  0.00     0.040 A 
ATOM     18  N   UNL A   1      32.147  17.538  25.536  1.00  0.00    -0.143 NA
ATOM     19  C   UNL A   1      33.254  16.869  25.151  1.00  0.00     0.150 A 
BRANCH  19  20
ATOM     20  C   UNL A   1      33.231  15.388  25.295  1.00  0.00     0.269 C 
ATOM     21  N   UNL A   1      31.995  14.807  25.392  1.00  0.00    -0.364 N 
ATOM     22  O   UNL A   1      34.258  14.719  25.321  1.00  0.00    -0.268 OA
ATOM     23  H   UNL A   1      31.185  15.366  25.368  1.00  0.00     0.160 HD
ATOM     24  H   UNL A   1      31.917  13.830  25.484  1.00  0.00     0.160 HD
ENDBRANCH  19  20
ENDBRANCH  12  14
ENDBRANCH   8  12
ENDBRANCH   4   7
ENDBRANCH   2   3
ENDBRANCH   1   2
BRANCH   1  25
ATOM     25  C   UNL A   1      32.928  28.369  26.648  1.00  0.00     0.023 C 
BRANCH  25  26
ATOM     26  C   UNL A   1      33.933  29.483  26.377  1.00  0.00     0.116 C 
BRANCH  26  27
ATOM     27  N   UNL A   1      33.792  30.610  27.287  1.00  0.00    -0.352 N 
ATOM     28  C   UNL A   1      34.631  31.014  28.298  1.00  0.00     0.251 C 
ATOM     29  H   UNL A   1      32.983  31.158  27.161  1.00  0.00     0.163 HD
ATOM     30  O   UNL A   1      34.293  31.911  29.063  1.00  0.00    -0.269 OA
BRANCH  28  31
ATOM     31  C   UNL A   1      35.931  30.335  28.479  1.00  0.00     0.039 A 
ATOM     32  C   UNL A   1      36.876  30.403  27.453  1.00  0.00     0.014 A 
ATOM     33  C   UNL A   1      36.227  29.663  29.668  1.00  0.00     0.014 A 
ATOM     34  C   UNL A   1      38.148  29.863  27.651  1.00  0.00     0.010 A 
ATOM     35  C   UNL A   1      37.518  29.194  29.892  1.00  0.00     0.010 A 
ATOM     36  C   UNL A   1      38.492  29.292  28.887  1.00  0.00    -0.014 A 
BRANCH  36  37
ATOM     37  C   UNL A   1      39.872  28.809  29.156  1.00  0.00     0.031 A 
ATOM     38  C   UNL A   1      40.878  29.713  29.811  1.00  0.00     0.074 A 
ATOM     39  C   UNL A   1      40.236  27.576  28.752  1.00  0.00     0.049 A 
ATOM     40  N   UNL A   1      42.142  29.490  30.070  1.00  0.00    -0.248 NA
ATOM     41  C   UNL A   1      40.411  31.051  30.206  1.00  0.00     0.031 C 
ATOM     42  C   UNL A   1      39.366  26.610  28.078  1.00  0.00     0.029 A 
ATOM     43  N   UNL A   1      41.441  26.923  28.848  1.00  0.00    -0.354 N 
ATOM     44  C   UNL A   1      42.620  30.659  30.648  1.00  0.00     0.074 A 
ATOM     45  C   UNL A   1      41.528  31.608  30.650  1.00  0.00     0.031 C 
ATOM     46  C   UNL A   1      40.054  25.480  27.853  1.00  0.00     0.029 A 
ATOM     47  C   UNL A   1      41.424  25.656  28.319  1.00  0.00     0.049 A 
ATOM     48  H   UNL A   1      42.240  27.327  29.257  1.00  0.00     0.167 HD
ATOM     49  C   UNL A   1      43.852  30.915  31.150  1.00  0.00     0.031 A 
ATOM     50  C   UNL A   1      42.407  24.740  28.211  1.00  0.00     0.031 A 
ATOM     51  C   UNL A   1      44.940  29.974  31.148  1.00  0.00     0.049 A 
ATOM     52  C   UNL A   1      43.777  25.066  28.736  1.00  0.00     0.074 A 
ATOM     53  C   UNL A   1      46.212  30.126  31.671  1.00  0.00     0.029 A 
ATOM     54  N   UNL A   1      44.886  28.707  30.588  1.00  0.00    -0.354 N 
ATOM     55  N   UNL A   1      44.196  26.155  29.334  1.00  0.00    -0.248 NA
ATOM     56  C   UNL A   1      44.808  24.031  28.577  1.00  0.00     0.031 C 
ATOM     57  C   UNL A   1      46.946  28.974  31.376  1.00  0.00     0.029 A 
ATOM     58  C   UNL A   1      46.112  28.077  30.729  1.00  0.00     0.049 A 
ATOM     59  H   UNL A   1      44.094  28.312  30.155  1.00  0.00     0.167 HD
ATOM     60  C   UNL A   1      45.529  25.924  29.652  1.00  0.00     0.074 A 
ATOM     61  C   UNL A   1      45.843  24.586  29.195  1.00  0.00     0.031 C 
ATOM     62  C   UNL A   1      46.412  26.745  30.270  1.00  0.00     0.031 A 
BRANCH  49  63
ATOM     63  C   UNL A   1      44.089  32.279  31.740  1.00  0.00    -0.014 A 
ATOM     64  C   UNL A   1      44.554  33.344  30.951  1.00  0.00     0.009 A 
ATOM     65  C   UNL A   1      43.805  32.513  33.095  1.00  0.00     0.009 A 
ATOM     66  C   UNL A   1      44.766  34.603  31.515  1.00  0.00     0.001 A 
ATOM     67  C   UNL A   1      43.987  33.782  33.649  1.00  0.00     0.001 A 
ATOM     68  C   UNL A   1      44.477  34.823  32.861  1.00  0.00     0.000 A 
ENDBRANCH  49  63
BRANCH  50  69
ATOM     69  C   UNL A   1      42.130  23.416  27.591  1.00  0.00    -0.014 A 
ATOM     70  C   UNL A   1      42.448  23.181  26.245  1.00  0.00     0.009 A 
ATOM     71  C   UNL A   1      41.535  22.386  28.336  1.00  0.00     0.009 A 
ATOM     72  C   UNL A   1      42.148  21.954  25.650  1.00  0.00     0.001 A 
ATOM     73  C   UNL A   1      41.265  21.149  27.747  1.00  0.00     0.001 A 
ATOM     74  C   UNL A   1      41.562  20.938  26.402  1.00  0.00     0.000 A 
ENDBRANCH  50  69
BRANCH  62  75
ATOM     75  C   UNL A   1      47.793  26.208  30.527  1.00  0.00    -0.014 A 
ATOM     76  C   UNL A   1      48.788  26.239  29.537  1.00  0.00     0.009 A 
ATOM     77  C   UNL A   1      48.113  25.702  31.796  1.00  0.00     0.009 A 
ATOM     78  C   UNL A   1      50.065  25.743  29.805  1.00  0.00     0.001 A 
ATOM     79  C   UNL A   1      49.400  25.238  32.072  1.00  0.00     0.001 A 
ATOM     80  C   UNL A   1      50.372  25.250  31.074  1.00  0.00     0.000 A 
ENDBRANCH  62  75
ENDBRANCH  36  37
ENDBRANCH  28  31
ENDBRANCH  26  27
ENDBRANCH  25  26
ENDBRANCH   1  25
TORSDOF 14
ENDMDL
MODEL 3
REMARK VINA RESULT:     -11.5      2.251      7.079
REMARK SMILES CN(c1ccc(C(N)=O)nn1)[C@H]1COC[C@@H]1C(=O)NCCCCNC(=O)c1ccc(-c2c3nc(c(-c4ccccc4)c4ccc([nH]4)c(-c4ccccc4)c4nc(c(-c5ccccc5)c5ccc2[nH]5)C=C4)C=C3)cc1
REMARK SMILES IDX 21 1 20 2 19 3 17 4 18 5 16 7 12 8 13 9 14 10 15 11 2 12
REMARK SMILES IDX 1 13 3 14 4 15 11 16 5 17 10 18 6 19 7 20 8 21 9 22 22 25
REMARK SMILES IDX 23 26 24 27 25 28 26 30 27 31 28 32 74 33 29 34 73 35 30 36
REMARK SMILES IDX 31 37 32 38 67 39 33 40 72 41 66 42 68 43 34 44 71 45 65 46
REMARK SMILES IDX 64 47 35 49 57 50 42 51 56 52 43 53 46 54 55 55 69 56 44 57
REMARK SMILES IDX 45 58 54 60 70 61 47 62 36 63 37 64 41 65 38 66 40 67 39 68
REMARK SMILES IDX 58 69 59 70 63 71 60 72 62 73 61 74 48 75 49 76 53 77 50 78
REMARK SMILES IDX 52 79 51 80
REMARK H PARENT 19 6 8 23 8 24 24 29 68 48 46 59
REMARK Flexibility Score: inf
ROOT
ATOM      1  C   UNL A   1      32.710  27.078  25.295  1.00  0.00     0.023 C 
ENDROOT
BRANCH   1   2
ATOM      2  C   UNL A   1      31.656  26.000  25.055  1.00  0.00     0.116 C 
BRANCH   2   3
ATOM      3  N   UNL A   1      31.387  25.241  26.263  1.00  0.00    -0.356 N 
ATOM      4  C   UNL A   1      31.794  23.979  26.589  1.00  0.00     0.227 C 
ATOM      5  O   UNL A   1      31.393  23.490  27.644  1.00  0.00    -0.275 OA
ATOM      6  H   UNL A   1      30.835  25.699  26.938  1.00  0.00     0.163 HD
BRANCH   4   7
ATOM      7  C   UNL A   1      32.779  23.277  25.675  1.00  0.00     0.129 C 
ATOM      8  C   UNL A   1      32.809  21.779  25.929  1.00  0.00     0.124 C 
ATOM      9  C   UNL A   1      33.944  21.650  26.946  1.00  0.00     0.186 C 
ATOM     10  O   UNL A   1      34.894  22.683  26.644  1.00  0.00    -0.378 OA
ATOM     11  C   UNL A   1      34.184  23.755  26.006  1.00  0.00     0.176 C 
BRANCH   8  12
ATOM     12  N   UNL A   1      33.040  21.011  24.674  1.00  0.00    -0.352 N 
ATOM     13  C   UNL A   1      32.693  21.584  23.380  1.00  0.00     0.145 C 
BRANCH  12  14
ATOM     14  C   UNL A   1      33.144  19.629  24.813  1.00  0.00     0.151 A 
ATOM     15  C   UNL A   1      34.277  18.937  24.397  1.00  0.00     0.051 A 
ATOM     16  N   UNL A   1      32.134  18.930  25.390  1.00  0.00    -0.132 NA
ATOM     17  C   UNL A   1      34.355  17.551  24.552  1.00  0.00     0.040 A 
ATOM     18  N   UNL A   1      32.181  17.561  25.531  1.00  0.00    -0.143 NA
ATOM     19  C   UNL A   1      33.280  16.897  25.117  1.00  0.00     0.150 A 
BRANCH  19  20
ATOM     20  C   UNL A   1      33.285  15.420  25.301  1.00  0.00     0.269 C 
ATOM     21  N   UNL A   1      32.059  14.815  25.378  1.00  0.00    -0.364 N 
ATOM     22  O   UNL A   1      34.325  14.775  25.376  1.00  0.00    -0.268 OA
ATOM     23  H   UNL A   1      31.238  15.355  25.315  1.00  0.00     0.160 HD
ATOM     24  H   UNL A   1      31.999  13.839  25.495  1.00  0.00     0.160 HD
ENDBRANCH  19  20
ENDBRANCH  12  14
ENDBRANCH   8  12
ENDBRANCH   4   7
ENDBRANCH   2   3
ENDBRANCH   1   2
BRANCH   1  25
ATOM     25  C   UNL A   1      32.349  28.079  26.395  1.00  0.00     0.023 C 
BRANCH  25  26
ATOM     26  C   UNL A   1      33.503  28.488  27.304  1.00  0.00     0.116 C 
BRANCH  26  27
ATOM     27  N   UNL A   1      33.469  29.896  27.668  1.00  0.00    -0.352 N 
ATOM     28  C   UNL A   1      34.459  30.667  28.230  1.00  0.00     0.251 C 
ATOM     29  H   UNL A   1      32.619  30.361  27.488  1.00  0.00     0.163 HD
ATOM     30  O   UNL A   1      34.217  31.811  28.601  1.00  0.00    -0.269 OA
BRANCH  28  31
ATOM     31  C   UNL A   1      35.808  30.095  28.417  1.00  0.00     0.039 A 
ATOM     32  C   UNL A   1      36.715  30.143  27.356  1.00  0.00     0.014 A 
ATOM     33  C   UNL A   1      36.187  29.543  29.644  1.00  0.00     0.014 A 
ATOM     34  C   UNL A   1      38.027  29.709  27.549  1.00  0.00     0.010 A 
ATOM     35  C   UNL A   1      37.514  29.183  29.857  1.00  0.00     0.010 A 
ATOM     36  C   UNL A   1      38.448  29.266  28.814  1.00  0.00    -0.014 A 
BRANCH  36  37
ATOM     37  C   UNL A   1      39.866  28.901  29.070  1.00  0.00     0.031 A 
ATOM     38  C   UNL A   1      40.384  27.547  28.674  1.00  0.00     0.074 A 
ATOM     39  C   UNL A   1      40.671  29.768  29.716  1.00  0.00     0.049 A 
ATOM     40  N   UNL A   1      41.570  27.028  28.869  1.00  0.00    -0.248 NA
ATOM     41  C   UNL A   1      39.441  26.648  27.990  1.00  0.00     0.031 C 
ATOM     42  C   UNL A   1      40.285  31.102  30.181  1.00  0.00     0.029 A 
ATOM     43  N   UNL A   1      41.985  29.653  30.096  1.00  0.00    -0.354 N 
ATOM     44  C   UNL A   1      41.511  25.744  28.343  1.00  0.00     0.074 A 
ATOM     45  C   UNL A   1      40.158  25.542  27.871  1.00  0.00     0.031 C 
ATOM     46  C   UNL A   1      41.346  31.693  30.752  1.00  0.00     0.029 A 
ATOM     47  C   UNL A   1      42.471  30.765  30.740  1.00  0.00     0.049 A 
ATOM     48  H   UNL A   1      42.528  28.850  29.924  1.00  0.00     0.167 HD
ATOM     49  C   UNL A   1      42.498  24.822  28.242  1.00  0.00     0.031 A 
ATOM     50  C   UNL A   1      43.686  31.009  31.270  1.00  0.00     0.031 A 
ATOM     51  C   UNL A   1      43.843  25.020  28.712  1.00  0.00     0.049 A 
ATOM     52  C   UNL A   1      44.751  29.951  31.185  1.00  0.00     0.074 A 
ATOM     53  C   UNL A   1      44.924  24.162  28.617  1.00  0.00     0.029 A 
ATOM     54  N   UNL A   1      44.290  26.154  29.371  1.00  0.00    -0.354 N 
ATOM     55  N   UNL A   1      44.695  28.764  30.630  1.00  0.00    -0.248 NA
ATOM     56  C   UNL A   1      46.049  30.271  31.795  1.00  0.00     0.031 C 
ATOM     57  C   UNL A   1      46.009  24.752  29.271  1.00  0.00     0.029 A 
ATOM     58  C   UNL A   1      45.624  26.006  29.714  1.00  0.00     0.049 A 
ATOM     59  H   UNL A   1      43.741  26.948  29.567  1.00  0.00     0.167 HD
ATOM     60  C   UNL A   1      45.959  28.211  30.794  1.00  0.00     0.074 A 
ATOM     61  C   UNL A   1      46.763  29.196  31.485  1.00  0.00     0.031 C 
ATOM     62  C   UNL A   1      46.413  26.995  30.402  1.00  0.00     0.031 A 
BRANCH  49  63
ATOM     63  C   UNL A   1      42.152  23.505  27.601  1.00  0.00    -0.014 A 
ATOM     64  C   UNL A   1      42.395  23.272  26.238  1.00  0.00     0.009 A 
ATOM     65  C   UNL A   1      41.613  22.468  28.379  1.00  0.00     0.009 A 
ATOM     66  C   UNL A   1      42.071  22.043  25.659  1.00  0.00     0.001 A 
ATOM     67  C   UNL A   1      41.320  21.229  27.806  1.00  0.00     0.001 A 
ATOM     68  C   UNL A   1      41.539  21.022  26.445  1.00  0.00     0.000 A 
ENDBRANCH  49  63
BRANCH  50  69
ATOM     69  C   UNL A   1      43.969  32.316  31.921  1.00  0.00    -0.014 A 
ATOM     70  C   UNL A   1      43.755  32.486  33.298  1.00  0.00     0.009 A 
ATOM     71  C   UNL A   1      44.442  33.403  31.170  1.00  0.00     0.009 A 
ATOM     72  C   UNL A   1      43.978  33.726  33.901  1.00  0.00     0.001 A 
ATOM     73  C   UNL A   1      44.695  34.633  31.782  1.00  0.00     0.001 A 
ATOM     74  C   UNL A   1      44.452  34.796  33.145  1.00  0.00     0.000 A 
ENDBRANCH  50  69
BRANCH  62  75
ATOM     75  C   UNL A   1      47.856  26.676  30.676  1.00  0.00    -0.014 A 
ATOM     76  C   UNL A   1      48.879  27.103  29.816  1.00  0.00     0.009 A 
ATOM     77  C   UNL A   1      48.200  25.970  31.840  1.00  0.00     0.009 A 
ATOM     78  C   UNL A   1      50.213  26.801  30.099  1.00  0.00     0.001 A 
ATOM     79  C   UNL A   1      49.536  25.699  32.139  1.00  0.00     0.001 A 
ATOM     80  C   UNL A   1      50.540  26.106  31.263  1.00  0.00     0.000 A 
ENDBRANCH  62  75
ENDBRANCH  36  37
ENDBRANCH  28  31
ENDBRANCH  26  27
ENDBRANCH  25  26
ENDBRANCH   1  25
TORSDOF 14
ENDMDL
