MODEL 1
REMARK VINA RESULT:     -11.2      0.000      0.000
REMARK SMILES O=C(NCCCCNC(=O)[C@H]1[C@@H](C(=O)n2cc(Cl)cn2)[C@H]2CC[C@@H]1O2)c1ccc(-c2c3nc(c(-c4ccccc4)c4ccc([nH]4)c(-c4ccccc4)c4nc(c(-c5ccccc5)c5ccc2[nH]5)C=C4)C=C3)cc1
REMARK SMILES IDX 5 1 4 2 3 3 1 4 2 5 26 7 27 8 73 9 28 10 72 11 29 12 30 13
REMARK SMILES IDX 31 14 66 15 32 16 71 17 65 18 67 19 33 20 70 21 64 22 63 23
REMARK SMILES IDX 34 25 56 26 41 27 55 28 42 29 45 30 54 31 68 32 43 33 44 34
REMARK SMILES IDX 53 36 69 37 46 38 35 39 36 40 40 41 37 42 39 43 38 44 57 45
REMARK SMILES IDX 58 46 62 47 59 48 61 49 60 50 47 51 48 52 52 53 49 54 51 55
REMARK SMILES IDX 50 56 6 57 7 58 8 59 9 60 10 62 11 63 12 64 24 65 21 66
REMARK SMILES IDX 23 67 25 68 22 69 13 70 14 71 15 72 16 73 20 74 17 75 19 76
REMARK SMILES IDX 18 77
REMARK H PARENT 3 6 67 24 45 35 8 61
REMARK Flexibility Score: inf
ROOT
ATOM      1  C   UNL A   1      39.876  22.010  26.126  1.00  0.00     0.023 C 
ENDROOT
BRANCH   1   2
ATOM      2  C   UNL A   1      41.326  21.577  26.331  1.00  0.00     0.116 C 
BRANCH   2   3
ATOM      3  N   UNL A   1      42.261  22.216  25.429  1.00  0.00    -0.352 N 
ATOM      4  O   UNL A   1      43.686  23.590  24.459  1.00  0.00    -0.269 OA
ATOM      5  C   UNL A   1      42.848  23.450  25.353  1.00  0.00     0.251 C 
ATOM      6  H   UNL A   1      42.540  21.622  24.696  1.00  0.00     0.163 HD
BRANCH   5   7
ATOM      7  C   UNL A   1      42.533  24.624  26.217  1.00  0.00     0.039 A 
ATOM      8  C   UNL A   1      43.084  24.900  27.468  1.00  0.00     0.014 A 
ATOM      9  C   UNL A   1      41.605  25.544  25.683  1.00  0.00     0.014 A 
ATOM     10  C   UNL A   1      42.693  26.039  28.178  1.00  0.00     0.010 A 
ATOM     11  C   UNL A   1      41.214  26.683  26.385  1.00  0.00     0.010 A 
ATOM     12  C   UNL A   1      41.753  26.928  27.643  1.00  0.00    -0.014 A 
BRANCH  12  13
ATOM     13  C   UNL A   1      41.516  28.193  28.342  1.00  0.00     0.031 A 
ATOM     14  C   UNL A   1      42.546  29.244  28.095  1.00  0.00     0.074 A 
ATOM     15  C   UNL A   1      40.406  28.517  29.038  1.00  0.00     0.049 A 
ATOM     16  N   UNL A   1      43.340  29.799  28.951  1.00  0.00    -0.248 NA
ATOM     17  C   UNL A   1      42.766  29.676  26.705  1.00  0.00     0.031 C 
ATOM     18  C   UNL A   1      39.153  27.769  29.134  1.00  0.00     0.029 A 
ATOM     19  N   UNL A   1      40.140  29.661  29.738  1.00  0.00    -0.354 N 
ATOM     20  C   UNL A   1      44.052  30.770  28.249  1.00  0.00     0.074 A 
ATOM     21  C   UNL A   1      43.745  30.568  26.854  1.00  0.00     0.031 C 
ATOM     22  C   UNL A   1      38.198  28.567  29.669  1.00  0.00     0.029 A 
ATOM     23  C   UNL A   1      38.802  29.827  30.073  1.00  0.00     0.049 A 
ATOM     24  H   UNL A   1      40.837  30.311  29.984  1.00  0.00     0.167 HD
ATOM     25  C   UNL A   1      44.686  31.798  28.879  1.00  0.00     0.031 A 
ATOM     26  C   UNL A   1      38.222  30.933  30.603  1.00  0.00     0.031 A 
ATOM     27  C   UNL A   1      44.865  31.541  30.284  1.00  0.00     0.049 A 
ATOM     28  C   UNL A   1      39.284  31.770  31.201  1.00  0.00     0.074 A 
ATOM     29  C   UNL A   1      45.497  30.569  31.032  1.00  0.00     0.029 A 
ATOM     30  N   UNL A   1      44.039  32.206  31.156  1.00  0.00    -0.354 N 
ATOM     31  N   UNL A   1      39.923  31.462  32.290  1.00  0.00    -0.248 NA
ATOM     32  C   UNL A   1      39.897  32.805  30.386  1.00  0.00     0.031 C 
ATOM     33  C   UNL A   1      44.668  30.387  32.178  1.00  0.00     0.029 A 
ATOM     34  C   UNL A   1      43.611  31.295  32.083  1.00  0.00     0.049 A 
ATOM     35  H   UNL A   1      43.798  33.159  31.121  1.00  0.00     0.167 HD
ATOM     36  C   UNL A   1      41.213  31.920  32.077  1.00  0.00     0.074 A 
ATOM     37  C   UNL A   1      41.104  32.846  30.953  1.00  0.00     0.031 C 
ATOM     38  C   UNL A   1      42.282  31.291  32.648  1.00  0.00     0.031 A 
BRANCH  25  39
ATOM     39  C   UNL A   1      44.775  33.199  28.318  1.00  0.00    -0.014 A 
ATOM     40  C   UNL A   1      43.617  34.003  28.323  1.00  0.00     0.009 A 
ATOM     41  C   UNL A   1      45.844  33.647  27.520  1.00  0.00     0.009 A 
ATOM     42  C   UNL A   1      43.499  35.124  27.494  1.00  0.00     0.001 A 
ATOM     43  C   UNL A   1      45.747  34.793  26.727  1.00  0.00     0.001 A 
ATOM     44  C   UNL A   1      44.561  35.512  26.686  1.00  0.00     0.000 A 
ENDBRANCH  25  39
BRANCH  26  45
ATOM     45  C   UNL A   1      36.839  31.439  30.475  1.00  0.00    -0.014 A 
ATOM     46  C   UNL A   1      36.095  31.793  31.615  1.00  0.00     0.009 A 
ATOM     47  C   UNL A   1      36.348  31.848  29.223  1.00  0.00     0.009 A 
ATOM     48  C   UNL A   1      34.932  32.568  31.508  1.00  0.00     0.001 A 
ATOM     49  C   UNL A   1      35.184  32.617  29.115  1.00  0.00     0.001 A 
ATOM     50  C   UNL A   1      34.486  32.992  30.259  1.00  0.00     0.000 A 
ENDBRANCH  26  45
BRANCH  38  51
ATOM     51  C   UNL A   1      42.024  30.305  33.758  1.00  0.00    -0.014 A 
ATOM     52  C   UNL A   1      41.688  28.959  33.535  1.00  0.00     0.009 A 
ATOM     53  C   UNL A   1      42.260  30.722  35.078  1.00  0.00     0.009 A 
ATOM     54  C   UNL A   1      41.555  28.068  34.605  1.00  0.00     0.001 A 
ATOM     55  C   UNL A   1      42.154  29.826  36.142  1.00  0.00     0.001 A 
ATOM     56  C   UNL A   1      41.793  28.502  35.907  1.00  0.00     0.000 A 
ENDBRANCH  38  51
ENDBRANCH  12  13
ENDBRANCH   5   7
ENDBRANCH   2   3
ENDBRANCH   1   2
BRANCH   1  57
ATOM     57  C   UNL A   1      39.394  23.124  27.072  1.00  0.00     0.023 C 
BRANCH  57  58
ATOM     58  C   UNL A   1      38.292  24.029  26.509  1.00  0.00     0.116 C 
BRANCH  58  59
ATOM     59  N   UNL A   1      37.988  23.674  25.129  1.00  0.00    -0.356 N 
ATOM     60  C   UNL A   1      36.877  23.096  24.593  1.00  0.00     0.226 C 
ATOM     61  H   UNL A   1      38.699  23.885  24.481  1.00  0.00     0.163 HD
ATOM     62  O   UNL A   1      36.949  22.631  23.459  1.00  0.00    -0.275 OA
BRANCH  60  63
ATOM     63  C   UNL A   1      35.594  23.105  25.379  1.00  0.00     0.122 C 
ATOM     64  C   UNL A   1      34.311  23.678  24.752  1.00  0.00     0.125 C 
ATOM     65  C   UNL A   1      35.109  21.738  25.878  1.00  0.00     0.132 C 
ATOM     66  C   UNL A   1      33.258  22.629  25.150  1.00  0.00     0.132 C 
ATOM     67  C   UNL A   1      34.662  20.756  24.795  1.00  0.00     0.035 C 
ATOM     68  O   UNL A   1      33.811  22.139  26.403  1.00  0.00    -0.373 OA
ATOM     69  C   UNL A   1      33.332  21.349  24.330  1.00  0.00     0.035 C 
BRANCH  64  70
ATOM     70  C   UNL A   1      34.104  24.224  23.350  1.00  0.00     0.253 C 
ATOM     71  O   UNL A   1      34.136  23.496  22.362  1.00  0.00    -0.272 OA
BRANCH  70  72
ATOM     72  N   UNL A   1      33.801  25.582  23.168  1.00  0.00    -0.206 N 
ATOM     73  C   UNL A   1      33.574  26.571  24.096  1.00  0.00     0.138 A 
ATOM     74  N   UNL A   1      33.776  26.082  21.896  1.00  0.00    -0.172 NA
ATOM     75  C   UNL A   1      33.279  27.715  23.398  1.00  0.00     0.079 A 
ATOM     76  C   UNL A   1      33.423  27.361  22.052  1.00  0.00     0.156 A 
ATOM     77  Cl  UNL A   1      32.848  29.229  24.009  1.00  0.00    -0.081 Cl
ENDBRANCH  70  72
ENDBRANCH  64  70
ENDBRANCH  60  63
ENDBRANCH  58  59
ENDBRANCH  57  58
ENDBRANCH   1  57
TORSDOF 13
ENDMDL
MODEL 2
REMARK VINA RESULT:     -11.1      3.236      8.346
REMARK SMILES O=C(NCCCCNC(=O)[C@H]1[C@@H](C(=O)n2cc(Cl)cn2)[C@H]2CC[C@@H]1O2)c1ccc(-c2c3nc(c(-c4ccccc4)c4ccc([nH]4)c(-c4ccccc4)c4nc(c(-c5ccccc5)c5ccc2[nH]5)C=C4)C=C3)cc1
REMARK SMILES IDX 5 1 4 2 3 3 1 4 2 5 26 7 27 8 73 9 28 10 72 11 29 12 30 13
REMARK SMILES IDX 31 14 66 15 32 16 71 17 65 18 67 19 33 20 70 21 64 22 63 23
REMARK SMILES IDX 34 25 56 26 41 27 55 28 42 29 45 30 54 31 68 32 43 33 44 34
REMARK SMILES IDX 53 36 69 37 46 38 35 39 36 40 40 41 37 42 39 43 38 44 57 45
REMARK SMILES IDX 58 46 62 47 59 48 61 49 60 50 47 51 48 52 52 53 49 54 51 55
REMARK SMILES IDX 50 56 6 57 7 58 8 59 9 60 10 62 11 63 12 64 24 65 21 66
REMARK SMILES IDX 23 67 25 68 22 69 13 70 14 71 15 72 16 73 20 74 17 75 19 76
REMARK SMILES IDX 18 77
REMARK H PARENT 3 6 67 24 45 35 8 61
REMARK Flexibility Score: inf
ROOT
ATOM      1  C   UNL A   1      34.206  31.654  28.150  1.00  0.00     0.023 C 
ENDROOT
BRANCH   1   2
ATOM      2  C   UNL A   1      34.581  32.930  28.901  1.00  0.00     0.116 C 
BRANCH   2   3
ATOM      3  N   UNL A   1      34.548  32.793  30.342  1.00  0.00    -0.352 N 
ATOM      4  O   UNL A   1      35.029  32.396  32.457  1.00  0.00    -0.269 OA
ATOM      5  C   UNL A   1      35.363  32.222  31.282  1.00  0.00     0.251 C 
ATOM      6  H   UNL A   1      33.750  33.207  30.741  1.00  0.00     0.163 HD
BRANCH   5   7
ATOM      7  C   UNL A   1      36.570  31.391  31.005  1.00  0.00     0.039 A 
ATOM      8  C   UNL A   1      37.865  31.863  30.791  1.00  0.00     0.014 A 
ATOM      9  C   UNL A   1      36.362  29.995  30.991  1.00  0.00     0.014 A 
ATOM     10  C   UNL A   1      38.910  30.970  30.535  1.00  0.00     0.010 A 
ATOM     11  C   UNL A   1      37.400  29.101  30.740  1.00  0.00     0.010 A 
ATOM     12  C   UNL A   1      38.680  29.589  30.500  1.00  0.00    -0.014 A 
BRANCH  12  13
ATOM     13  C   UNL A   1      39.835  28.693  30.410  1.00  0.00     0.031 A 
ATOM     14  C   UNL A   1      40.551  28.468  31.700  1.00  0.00     0.074 A 
ATOM     15  C   UNL A   1      40.190  27.968  29.330  1.00  0.00     0.049 A 
ATOM     16  N   UNL A   1      41.772  28.771  31.996  1.00  0.00    -0.248 NA
ATOM     17  C   UNL A   1      39.785  27.899  32.820  1.00  0.00     0.031 C 
ATOM     18  C   UNL A   1      39.451  27.790  28.080  1.00  0.00     0.029 A 
ATOM     19  N   UNL A   1      41.271  27.144  29.171  1.00  0.00    -0.354 N 
ATOM     20  C   UNL A   1      41.991  28.288  33.285  1.00  0.00     0.074 A 
ATOM     21  C   UNL A   1      40.704  27.871  33.785  1.00  0.00     0.031 C 
ATOM     22  C   UNL A   1      39.992  26.761  27.385  1.00  0.00     0.029 A 
ATOM     23  C   UNL A   1      41.188  26.299  28.072  1.00  0.00     0.049 A 
ATOM     24  H   UNL A   1      42.042  27.150  29.783  1.00  0.00     0.167 HD
ATOM     25  C   UNL A   1      43.245  28.079  33.776  1.00  0.00     0.031 A 
ATOM     26  C   UNL A   1      42.015  25.267  27.769  1.00  0.00     0.031 A 
ATOM     27  C   UNL A   1      44.247  28.764  33.002  1.00  0.00     0.049 A 
ATOM     28  C   UNL A   1      43.277  25.452  28.515  1.00  0.00     0.074 A 
ATOM     29  C   UNL A   1      44.498  30.077  32.662  1.00  0.00     0.029 A 
ATOM     30  N   UNL A   1      45.017  28.005  32.156  1.00  0.00    -0.354 N 
ATOM     31  N   UNL A   1      44.156  26.368  28.237  1.00  0.00    -0.248 NA
ATOM     32  C   UNL A   1      43.412  24.829  29.821  1.00  0.00     0.031 C 
ATOM     33  C   UNL A   1      45.016  30.022  31.334  1.00  0.00     0.029 A 
ATOM     34  C   UNL A   1      45.097  28.677  30.967  1.00  0.00     0.049 A 
ATOM     35  H   UNL A   1      45.434  27.137  32.365  1.00  0.00     0.167 HD
ATOM     36  C   UNL A   1      44.659  26.752  29.469  1.00  0.00     0.074 A 
ATOM     37  C   UNL A   1      44.263  25.689  30.388  1.00  0.00     0.031 C 
ATOM     38  C   UNL A   1      45.102  28.026  29.678  1.00  0.00     0.031 A 
BRANCH  25  39
ATOM     39  C   UNL A   1      43.606  26.935  34.696  1.00  0.00    -0.014 A 
ATOM     40  C   UNL A   1      43.662  25.631  34.162  1.00  0.00     0.009 A 
ATOM     41  C   UNL A   1      43.592  27.037  36.098  1.00  0.00     0.009 A 
ATOM     42  C   UNL A   1      43.595  24.500  34.983  1.00  0.00     0.001 A 
ATOM     43  C   UNL A   1      43.575  25.909  36.923  1.00  0.00     0.001 A 
ATOM     44  C   UNL A   1      43.539  24.639  36.364  1.00  0.00     0.000 A 
ENDBRANCH  25  39
BRANCH  26  45
ATOM     45  C   UNL A   1      41.746  24.014  27.032  1.00  0.00    -0.014 A 
ATOM     46  C   UNL A   1      42.718  23.459  26.180  1.00  0.00     0.009 A 
ATOM     47  C   UNL A   1      40.649  23.208  27.383  1.00  0.00     0.009 A 
ATOM     48  C   UNL A   1      42.619  22.133  25.737  1.00  0.00     0.001 A 
ATOM     49  C   UNL A   1      40.547  21.886  26.937  1.00  0.00     0.001 A 
ATOM     50  C   UNL A   1      41.541  21.342  26.128  1.00  0.00     0.000 A 
ENDBRANCH  26  45
BRANCH  38  51
ATOM     51  C   UNL A   1      45.337  28.908  28.478  1.00  0.00    -0.014 A 
ATOM     52  C   UNL A   1      44.352  29.750  27.932  1.00  0.00     0.009 A 
ATOM     53  C   UNL A   1      46.642  28.990  27.966  1.00  0.00     0.009 A 
ATOM     54  C   UNL A   1      44.658  30.617  26.878  1.00  0.00     0.001 A 
ATOM     55  C   UNL A   1      46.952  29.875  26.933  1.00  0.00     0.001 A 
ATOM     56  C   UNL A   1      45.959  30.683  26.383  1.00  0.00     0.000 A 
ENDBRANCH  38  51
ENDBRANCH  12  13
ENDBRANCH   5   7
ENDBRANCH   2   3
ENDBRANCH   1   2
BRANCH   1  57
ATOM     57  C   UNL A   1      35.402  30.840  27.625  1.00  0.00     0.023 C 
BRANCH  57  58
ATOM     58  C   UNL A   1      35.151  29.334  27.474  1.00  0.00     0.116 C 
BRANCH  58  59
ATOM     59  N   UNL A   1      33.791  28.996  27.868  1.00  0.00    -0.356 N 
ATOM     60  C   UNL A   1      32.718  28.634  27.111  1.00  0.00     0.226 C 
ATOM     61  H   UNL A   1      33.619  29.036  28.837  1.00  0.00     0.163 HD
ATOM     62  O   UNL A   1      31.603  28.670  27.621  1.00  0.00    -0.275 OA
BRANCH  60  63
ATOM     63  C   UNL A   1      32.945  28.145  25.705  1.00  0.00     0.122 C 
ATOM     64  C   UNL A   1      32.300  26.830  25.234  1.00  0.00     0.125 C 
ATOM     65  C   UNL A   1      32.527  29.110  24.589  1.00  0.00     0.132 C 
ATOM     66  C   UNL A   1      31.772  27.208  23.840  1.00  0.00     0.132 C 
ATOM     67  C   UNL A   1      31.025  29.368  24.461  1.00  0.00     0.035 C 
ATOM     68  O   UNL A   1      32.729  28.231  23.446  1.00  0.00    -0.373 OA
ATOM     69  C   UNL A   1      30.507  28.054  23.876  1.00  0.00     0.035 C 
BRANCH  64  70
ATOM     70  C   UNL A   1      31.363  25.909  25.994  1.00  0.00     0.253 C 
ATOM     71  O   UNL A   1      30.324  26.321  26.503  1.00  0.00    -0.272 OA
BRANCH  70  72
ATOM     72  N   UNL A   1      31.642  24.536  26.071  1.00  0.00    -0.206 N 
ATOM     73  C   UNL A   1      32.195  23.692  25.136  1.00  0.00     0.138 A 
ATOM     74  N   UNL A   1      31.415  23.886  27.251  1.00  0.00    -0.172 NA
ATOM     75  C   UNL A   1      32.215  22.438  25.692  1.00  0.00     0.079 A 
ATOM     76  C   UNL A   1      31.732  22.614  26.993  1.00  0.00     0.156 A 
ATOM     77  Cl  UNL A   1      32.720  20.990  24.985  1.00  0.00    -0.081 Cl
ENDBRANCH  70  72
ENDBRANCH  64  70
ENDBRANCH  60  63
ENDBRANCH  58  59
ENDBRANCH  57  58
ENDBRANCH   1  57
TORSDOF 13
ENDMDL
MODEL 3
REMARK VINA RESULT:     -10.9      2.111      3.104
REMARK SMILES O=C(NCCCCNC(=O)[C@H]1[C@@H](C(=O)n2cc(Cl)cn2)[C@H]2CC[C@@H]1O2)c1ccc(-c2c3nc(c(-c4ccccc4)c4ccc([nH]4)c(-c4ccccc4)c4nc(c(-c5ccccc5)c5ccc2[nH]5)C=C4)C=C3)cc1
REMARK SMILES IDX 5 1 4 2 3 3 1 4 2 5 26 7 27 8 73 9 28 10 72 11 29 12 30 13
REMARK SMILES IDX 31 14 66 15 32 16 71 17 65 18 67 19 33 20 70 21 64 22 63 23
REMARK SMILES IDX 34 25 56 26 41 27 55 28 42 29 45 30 54 31 68 32 43 33 44 34
REMARK SMILES IDX 53 36 69 37 46 38 35 39 36 40 40 41 37 42 39 43 38 44 57 45
REMARK SMILES IDX 58 46 62 47 59 48 61 49 60 50 47 51 48 52 52 53 49 54 51 55
REMARK SMILES IDX 50 56 6 57 7 58 8 59 9 60 10 62 11 63 12 64 24 65 21 66
REMARK SMILES IDX 23 67 25 68 22 69 13 70 14 71 15 72 16 73 20 74 17 75 19 76
REMARK SMILES IDX 18 77
REMARK H PARENT 3 6 67 24 45 35 8 61
REMARK Flexibility Score: inf
ROOT
ATOM      1  C   UNL A   1      38.530  21.324  25.388  1.00  0.00     0.023 C 
ENDROOT
BRANCH   1   2
ATOM      2  C   UNL A   1      39.532  21.805  26.436  1.00  0.00     0.116 C 
BRANCH   2   3
ATOM      3  N   UNL A   1      40.860  22.043  25.910  1.00  0.00    -0.352 N 
ATOM      4  O   UNL A   1      42.889  22.809  25.509  1.00  0.00    -0.269 OA
ATOM      5  C   UNL A   1      41.814  23.009  26.081  1.00  0.00     0.251 C 
ATOM      6  H   UNL A   1      41.144  21.344  25.278  1.00  0.00     0.163 HD
BRANCH   5   7
ATOM      7  C   UNL A   1      41.648  24.275  26.851  1.00  0.00     0.039 A 
ATOM      8  C   UNL A   1      42.401  24.674  27.956  1.00  0.00     0.014 A 
ATOM      9  C   UNL A   1      40.645  25.151  26.381  1.00  0.00     0.014 A 
ATOM     10  C   UNL A   1      42.135  25.891  28.591  1.00  0.00     0.010 A 
ATOM     11  C   UNL A   1      40.379  26.366  27.008  1.00  0.00     0.010 A 
ATOM     12  C   UNL A   1      41.120  26.735  28.126  1.00  0.00    -0.014 A 
BRANCH  12  13
ATOM     13  C   UNL A   1      41.005  28.073  28.711  1.00  0.00     0.031 A 
ATOM     14  C   UNL A   1      42.069  29.030  28.291  1.00  0.00     0.074 A 
ATOM     15  C   UNL A   1      39.968  28.528  29.445  1.00  0.00     0.049 A 
ATOM     16  N   UNL A   1      42.953  29.614  29.032  1.00  0.00    -0.248 NA
ATOM     17  C   UNL A   1      42.209  29.315  26.854  1.00  0.00     0.031 C 
ATOM     18  C   UNL A   1      38.687  27.871  29.700  1.00  0.00     0.029 A 
ATOM     19  N   UNL A   1      39.817  29.748  30.046  1.00  0.00    -0.354 N 
ATOM     20  C   UNL A   1      43.663  30.469  28.191  1.00  0.00     0.074 A 
ATOM     21  C   UNL A   1      43.244  30.155  26.848  1.00  0.00     0.031 C 
ATOM     22  C   UNL A   1      37.819  28.773  30.218  1.00  0.00     0.029 A 
ATOM     23  C   UNL A   1      38.519  30.026  30.453  1.00  0.00     0.049 A 
ATOM     24  H   UNL A   1      40.565  30.374  30.178  1.00  0.00     0.167 HD
ATOM     25  C   UNL A   1      44.397  31.511  28.672  1.00  0.00     0.031 A 
ATOM     26  C   UNL A   1      38.040  31.210  30.910  1.00  0.00     0.031 A 
ATOM     27  C   UNL A   1      44.665  31.377  30.080  1.00  0.00     0.049 A 
ATOM     28  C   UNL A   1      39.187  32.034  31.348  1.00  0.00     0.074 A 
ATOM     29  C   UNL A   1      45.297  30.444  30.875  1.00  0.00     0.029 A 
ATOM     30  N   UNL A   1      43.942  32.171  30.937  1.00  0.00    -0.354 N 
ATOM     31  N   UNL A   1      39.887  31.791  32.417  1.00  0.00    -0.248 NA
ATOM     32  C   UNL A   1      39.793  32.948  30.395  1.00  0.00     0.031 C 
ATOM     33  C   UNL A   1      44.546  30.422  32.088  1.00  0.00     0.029 A 
ATOM     34  C   UNL A   1      43.535  31.380  31.976  1.00  0.00     0.049 A 
ATOM     35  H   UNL A   1      43.752  33.130  30.824  1.00  0.00     0.167 HD
ATOM     36  C   UNL A   1      41.181  32.147  32.072  1.00  0.00     0.074 A 
ATOM     37  C   UNL A   1      41.040  32.968  30.872  1.00  0.00     0.031 C 
ATOM     38  C   UNL A   1      42.253  31.511  32.627  1.00  0.00     0.031 A 
BRANCH  25  39
ATOM     39  C   UNL A   1      44.520  32.845  27.971  1.00  0.00    -0.014 A 
ATOM     40  C   UNL A   1      45.807  33.321  27.647  1.00  0.00     0.009 A 
ATOM     41  C   UNL A   1      43.470  33.777  27.891  1.00  0.00     0.009 A 
ATOM     42  C   UNL A   1      46.040  34.673  27.371  1.00  0.00     0.001 A 
ATOM     43  C   UNL A   1      43.692  35.119  27.568  1.00  0.00     0.001 A 
ATOM     44  C   UNL A   1      44.983  35.575  27.343  1.00  0.00     0.000 A 
ENDBRANCH  25  39
BRANCH  26  45
ATOM     45  C   UNL A   1      36.681  31.786  30.827  1.00  0.00    -0.014 A 
ATOM     46  C   UNL A   1      35.975  32.131  31.994  1.00  0.00     0.009 A 
ATOM     47  C   UNL A   1      36.189  32.264  29.601  1.00  0.00     0.009 A 
ATOM     48  C   UNL A   1      34.849  32.964  31.937  1.00  0.00     0.001 A 
ATOM     49  C   UNL A   1      35.061  33.091  29.544  1.00  0.00     0.001 A 
ATOM     50  C   UNL A   1      34.402  33.456  30.714  1.00  0.00     0.000 A 
ENDBRANCH  26  45
BRANCH  38  51
ATOM     51  C   UNL A   1      42.025  30.652  33.845  1.00  0.00    -0.014 A 
ATOM     52  C   UNL A   1      41.628  29.305  33.778  1.00  0.00     0.009 A 
ATOM     53  C   UNL A   1      42.353  31.187  35.101  1.00  0.00     0.009 A 
ATOM     54  C   UNL A   1      41.525  28.531  34.938  1.00  0.00     0.001 A 
ATOM     55  C   UNL A   1      42.276  30.407  36.255  1.00  0.00     0.001 A 
ATOM     56  C   UNL A   1      41.855  29.082  36.176  1.00  0.00     0.000 A 
ENDBRANCH  38  51
ENDBRANCH  12  13
ENDBRANCH   5   7
ENDBRANCH   2   3
ENDBRANCH   1   2
BRANCH   1  57
ATOM     57  C   UNL A   1      37.156  22.016  25.444  1.00  0.00     0.023 C 
BRANCH  57  58
ATOM     58  C   UNL A   1      37.178  23.531  25.205  1.00  0.00     0.116 C 
BRANCH  58  59
ATOM     59  N   UNL A   1      35.966  24.151  25.721  1.00  0.00    -0.356 N 
ATOM     60  C   UNL A   1      34.799  24.464  25.091  1.00  0.00     0.226 C 
ATOM     61  H   UNL A   1      35.993  24.380  26.679  1.00  0.00     0.163 HD
ATOM     62  O   UNL A   1      34.022  25.234  25.648  1.00  0.00    -0.275 OA
BRANCH  60  63
ATOM     63  C   UNL A   1      34.480  23.810  23.774  1.00  0.00     0.122 C 
ATOM     64  C   UNL A   1      33.814  22.423  23.745  1.00  0.00     0.125 C 
ATOM     65  C   UNL A   1      33.566  24.610  22.837  1.00  0.00     0.132 C 
ATOM     66  C   UNL A   1      32.737  22.603  22.660  1.00  0.00     0.132 C 
ATOM     67  C   UNL A   1      32.124  24.795  23.313  1.00  0.00     0.035 C 
ATOM     68  O   UNL A   1      33.363  23.601  21.807  1.00  0.00    -0.373 OA
ATOM     69  C   UNL A   1      31.527  23.399  23.128  1.00  0.00     0.035 C 
BRANCH  64  70
ATOM     70  C   UNL A   1      33.345  21.572  24.911  1.00  0.00     0.253 C 
ATOM     71  O   UNL A   1      32.902  22.075  25.940  1.00  0.00    -0.272 OA
BRANCH  70  72
ATOM     72  N   UNL A   1      33.349  20.174  24.802  1.00  0.00    -0.206 N 
ATOM     73  C   UNL A   1      34.399  19.303  24.626  1.00  0.00     0.138 A 
ATOM     74  N   UNL A   1      32.169  19.502  24.948  1.00  0.00    -0.172 NA
ATOM     75  C   UNL A   1      33.864  18.043  24.540  1.00  0.00     0.079 A 
ATOM     76  C   UNL A   1      32.492  18.220  24.751  1.00  0.00     0.156 A 
ATOM     77  Cl  UNL A   1      34.667  16.584  24.257  1.00  0.00    -0.081 Cl
ENDBRANCH  70  72
ENDBRANCH  64  70
ENDBRANCH  60  63
ENDBRANCH  58  59
ENDBRANCH  57  58
ENDBRANCH   1  57
TORSDOF 13
ENDMDL
