MODEL 1
REMARK VINA RESULT:     -11.3      0.000      0.000
REMARK SMILES O=Cc1ccc(-c2cnccc2C(=O)NCCCCNC(=O)c2ccc(-c3c4nc(c(-c5ccccc5)c5ccc([nH]5)c(-c5ccccc5)c5nc(c(-c6ccccc6)c6ccc3[nH]6)C=C5)C=C4)cc2)s1
REMARK SMILES IDX 17 1 16 2 15 3 13 4 14 5 12 7 7 8 8 9 9 10 11 11 10 12 6 13
REMARK SMILES IDX 3 14 4 15 71 16 5 17 2 18 1 19 18 20 19 21 20 22 21 23 22 25
REMARK SMILES IDX 23 26 24 27 70 28 25 29 69 30 26 31 27 32 28 33 63 34 29 35
REMARK SMILES IDX 68 36 62 37 64 38 30 39 67 40 61 41 60 42 31 44 53 45 38 46
REMARK SMILES IDX 52 47 39 48 42 49 51 50 65 51 40 52 41 53 50 55 66 56 43 57
REMARK SMILES IDX 32 58 33 59 37 60 34 61 36 62 35 63 54 64 55 65 59 66 56 67
REMARK SMILES IDX 58 68 57 69 44 70 45 71 49 72 46 73 48 74 47 75
REMARK H PARENT 15 6 20 24 64 43 42 54
REMARK Flexibility Score: inf
ROOT
ATOM      1  C   UNL A   1      31.419  30.455  26.526  1.00  0.00     0.023 C 
ENDROOT
BRANCH   1   2
ATOM      2  C   UNL A   1      32.631  29.612  26.163  1.00  0.00     0.116 C 
BRANCH   2   3
ATOM      3  N   UNL A   1      33.039  29.596  24.784  1.00  0.00    -0.352 N 
ATOM      4  C   UNL A   1      32.350  29.139  23.684  1.00  0.00     0.252 C 
ATOM      5  O   UNL A   1      32.844  29.361  22.576  1.00  0.00    -0.269 OA
ATOM      6  H   UNL A   1      33.934  29.963  24.602  1.00  0.00     0.163 HD
BRANCH   4   7
ATOM      7  C   UNL A   1      31.116  28.296  23.742  1.00  0.00     0.051 A 
ATOM      8  C   UNL A   1      29.786  28.664  23.469  1.00  0.00     0.023 A 
ATOM      9  C   UNL A   1      28.828  27.644  23.557  1.00  0.00     0.121 A 
ATOM     10  N   UNL A   1      29.076  26.353  23.872  1.00  0.00    -0.264 NA
ATOM     11  C   UNL A   1      31.390  26.946  24.047  1.00  0.00     0.034 A 
ATOM     12  C   UNL A   1      30.358  26.028  24.099  1.00  0.00     0.112 A 
BRANCH   8  13
ATOM     13  C   UNL A   1      29.317  29.990  23.059  1.00  0.00     0.037 A 
ATOM     14  C   UNL A   1      28.404  31.848  21.702  1.00  0.00     0.067 A 
ATOM     15  C   UNL A   1      28.543  32.191  23.030  1.00  0.00     0.024 A 
ATOM     16  S   UNL A   1      29.025  30.294  21.382  1.00  0.00    -0.132 S 
ATOM     17  C   UNL A   1      29.071  31.119  23.816  1.00  0.00     0.021 A 
BRANCH  14  18
ATOM     18  C   UNL A   1      27.843  32.634  20.624  1.00  0.00     0.270 C 
ATOM     19  O   UNL A   1      27.345  33.746  20.772  1.00  0.00    -0.297 OA
ENDBRANCH  14  18
ENDBRANCH   8  13
ENDBRANCH   4   7
ENDBRANCH   2   3
ENDBRANCH   1   2
BRANCH   1  20
ATOM     20  C   UNL A   1      31.581  31.972  26.458  1.00  0.00     0.023 C 
BRANCH  20  21
ATOM     21  C   UNL A   1      32.637  32.608  27.361  1.00  0.00     0.116 C 
BRANCH  21  22
ATOM     22  N   UNL A   1      32.392  34.011  27.663  1.00  0.00    -0.352 N 
ATOM     23  C   UNL A   1      33.018  34.874  28.532  1.00  0.00     0.251 C 
ATOM     24  H   UNL A   1      31.648  34.412  27.158  1.00  0.00     0.163 HD
ATOM     25  O   UNL A   1      32.530  35.981  28.738  1.00  0.00    -0.269 OA
BRANCH  23  26
ATOM     26  C   UNL A   1      34.234  34.464  29.268  1.00  0.00     0.039 A 
ATOM     27  C   UNL A   1      34.091  33.901  30.541  1.00  0.00     0.014 A 
ATOM     28  C   UNL A   1      35.505  34.603  28.710  1.00  0.00     0.014 A 
ATOM     29  C   UNL A   1      35.203  33.360  31.189  1.00  0.00     0.010 A 
ATOM     30  C   UNL A   1      36.592  33.976  29.308  1.00  0.00     0.010 A 
ATOM     31  C   UNL A   1      36.448  33.331  30.546  1.00  0.00    -0.014 A 
BRANCH  31  32
ATOM     32  C   UNL A   1      37.602  32.596  31.124  1.00  0.00     0.031 A 
ATOM     33  C   UNL A   1      38.255  33.084  32.388  1.00  0.00     0.074 A 
ATOM     34  C   UNL A   1      38.117  31.546  30.455  1.00  0.00     0.049 A 
ATOM     35  N   UNL A   1      39.323  32.631  32.993  1.00  0.00    -0.248 NA
ATOM     36  C   UNL A   1      37.647  34.257  33.038  1.00  0.00     0.031 C 
ATOM     37  C   UNL A   1      37.609  31.012  29.188  1.00  0.00     0.029 A 
ATOM     38  N   UNL A   1      39.192  30.741  30.743  1.00  0.00    -0.354 N 
ATOM     39  C   UNL A   1      39.529  33.476  34.076  1.00  0.00     0.074 A 
ATOM     40  C   UNL A   1      38.507  34.500  34.015  1.00  0.00     0.031 C 
ATOM     41  C   UNL A   1      38.348  29.952  28.827  1.00  0.00     0.029 A 
ATOM     42  C   UNL A   1      39.408  29.756  29.808  1.00  0.00     0.049 A 
ATOM     43  H   UNL A   1      39.754  30.859  31.542  1.00  0.00     0.167 HD
ATOM     44  C   UNL A   1      40.470  33.397  35.045  1.00  0.00     0.031 A 
ATOM     45  C   UNL A   1      40.357  28.803  29.748  1.00  0.00     0.031 A 
ATOM     46  C   UNL A   1      41.473  32.368  35.110  1.00  0.00     0.049 A 
ATOM     47  C   UNL A   1      41.384  28.729  30.841  1.00  0.00     0.074 A 
ATOM     48  C   UNL A   1      42.434  32.159  36.083  1.00  0.00     0.029 A 
ATOM     49  N   UNL A   1      41.641  31.373  34.159  1.00  0.00    -0.354 N 
ATOM     50  N   UNL A   1      41.521  29.494  31.898  1.00  0.00    -0.248 NA
ATOM     51  C   UNL A   1      42.381  27.654  30.741  1.00  0.00     0.031 C 
ATOM     52  C   UNL A   1      43.214  31.064  35.696  1.00  0.00     0.029 A 
ATOM     53  C   UNL A   1      42.704  30.558  34.511  1.00  0.00     0.049 A 
ATOM     54  H   UNL A   1      41.087  31.261  33.353  1.00  0.00     0.167 HD
ATOM     55  C   UNL A   1      42.601  28.977  32.602  1.00  0.00     0.074 A 
ATOM     56  C   UNL A   1      43.070  27.824  31.860  1.00  0.00     0.031 C 
ATOM     57  C   UNL A   1      43.154  29.416  33.758  1.00  0.00     0.031 A 
BRANCH  44  58
ATOM     58  C   UNL A   1      40.456  34.458  36.112  1.00  0.00    -0.014 A 
ATOM     59  C   UNL A   1      41.241  35.618  35.997  1.00  0.00     0.009 A 
ATOM     60  C   UNL A   1      39.634  34.307  37.239  1.00  0.00     0.009 A 
ATOM     61  C   UNL A   1      41.235  36.582  37.008  1.00  0.00     0.001 A 
ATOM     62  C   UNL A   1      39.605  35.287  38.233  1.00  0.00     0.001 A 
ATOM     63  C   UNL A   1      40.415  36.417  38.123  1.00  0.00     0.000 A 
ENDBRANCH  44  58
BRANCH  45  64
ATOM     64  C   UNL A   1      40.366  27.828  28.625  1.00  0.00    -0.014 A 
ATOM     65  C   UNL A   1      39.692  26.601  28.744  1.00  0.00     0.009 A 
ATOM     66  C   UNL A   1      41.042  28.114  27.429  1.00  0.00     0.009 A 
ATOM     67  C   UNL A   1      39.719  25.673  27.699  1.00  0.00     0.001 A 
ATOM     68  C   UNL A   1      41.043  27.197  26.375  1.00  0.00     0.001 A 
ATOM     69  C   UNL A   1      40.390  25.973  26.515  1.00  0.00     0.000 A 
ENDBRANCH  45  64
BRANCH  57  70
ATOM     70  C   UNL A   1      44.309  28.628  34.307  1.00  0.00    -0.014 A 
ATOM     71  C   UNL A   1      44.102  27.491  35.102  1.00  0.00     0.009 A 
ATOM     72  C   UNL A   1      45.621  29.009  33.987  1.00  0.00     0.009 A 
ATOM     73  C   UNL A   1      45.191  26.770  35.595  1.00  0.00     0.001 A 
ATOM     74  C   UNL A   1      46.706  28.268  34.456  1.00  0.00     0.001 A 
ATOM     75  C   UNL A   1      46.491  27.155  35.268  1.00  0.00     0.000 A 
ENDBRANCH  57  70
ENDBRANCH  31  32
ENDBRANCH  23  26
ENDBRANCH  21  22
ENDBRANCH  20  21
ENDBRANCH   1  20
TORSDOF 13
ENDMDL
MODEL 2
REMARK VINA RESULT:     -11.3      6.006     10.731
REMARK SMILES O=Cc1ccc(-c2cnccc2C(=O)NCCCCNC(=O)c2ccc(-c3c4nc(c(-c5ccccc5)c5ccc([nH]5)c(-c5ccccc5)c5nc(c(-c6ccccc6)c6ccc3[nH]6)C=C5)C=C4)cc2)s1
REMARK SMILES IDX 17 1 16 2 15 3 13 4 14 5 12 7 7 8 8 9 9 10 11 11 10 12 6 13
REMARK SMILES IDX 3 14 4 15 71 16 5 17 2 18 1 19 18 20 19 21 20 22 21 23 22 25
REMARK SMILES IDX 23 26 24 27 70 28 25 29 69 30 26 31 27 32 28 33 63 34 29 35
REMARK SMILES IDX 68 36 62 37 64 38 30 39 67 40 61 41 60 42 31 44 53 45 38 46
REMARK SMILES IDX 52 47 39 48 42 49 51 50 65 51 40 52 41 53 50 55 66 56 43 57
REMARK SMILES IDX 32 58 33 59 37 60 34 61 36 62 35 63 54 64 55 65 59 66 56 67
REMARK SMILES IDX 58 68 57 69 44 70 45 71 49 72 46 73 48 74 47 75
REMARK H PARENT 15 6 20 24 64 43 42 54
REMARK Flexibility Score: inf
ROOT
ATOM      1  C   UNL A   1      37.328  21.803  24.277  1.00  0.00     0.023 C 
ENDROOT
BRANCH   1   2
ATOM      2  C   UNL A   1      36.465  22.769  25.073  1.00  0.00     0.116 C 
BRANCH   2   3
ATOM      3  N   UNL A   1      35.673  22.224  26.143  1.00  0.00    -0.352 N 
ATOM      4  C   UNL A   1      34.496  21.514  26.073  1.00  0.00     0.252 C 
ATOM      5  O   UNL A   1      34.072  21.021  27.121  1.00  0.00    -0.269 OA
ATOM      6  H   UNL A   1      36.022  22.380  27.050  1.00  0.00     0.163 HD
BRANCH   4   7
ATOM      7  C   UNL A   1      33.641  21.401  24.851  1.00  0.00     0.051 A 
ATOM      8  C   UNL A   1      33.244  20.242  24.161  1.00  0.00     0.023 A 
ATOM      9  C   UNL A   1      32.392  20.432  23.064  1.00  0.00     0.121 A 
ATOM     10  N   UNL A   1      31.922  21.622  22.626  1.00  0.00    -0.264 NA
ATOM     11  C   UNL A   1      33.138  22.646  24.419  1.00  0.00     0.034 A 
ATOM     12  C   UNL A   1      32.297  22.706  23.323  1.00  0.00     0.112 A 
BRANCH   8  13
ATOM     13  C   UNL A   1      33.596  18.862  24.504  1.00  0.00     0.037 A 
ATOM     14  C   UNL A   1      33.421  16.488  25.187  1.00  0.00     0.067 A 
ATOM     15  C   UNL A   1      34.686  16.812  24.743  1.00  0.00     0.024 A 
ATOM     16  S   UNL A   1      32.405  17.854  25.250  1.00  0.00    -0.132 S 
ATOM     17  C   UNL A   1      34.789  18.183  24.348  1.00  0.00     0.021 A 
BRANCH  14  18
ATOM     18  C   UNL A   1      32.917  15.197  25.600  1.00  0.00     0.270 C 
ATOM     19  O   UNL A   1      33.524  14.141  25.448  1.00  0.00    -0.297 OA
ENDBRANCH  14  18
ENDBRANCH   8  13
ENDBRANCH   4   7
ENDBRANCH   2   3
ENDBRANCH   1   2
BRANCH   1  20
ATOM     20  C   UNL A   1      37.759  20.517  24.979  1.00  0.00     0.023 C 
BRANCH  20  21
ATOM     21  C   UNL A   1      38.866  20.624  26.027  1.00  0.00     0.116 C 
BRANCH  21  22
ATOM     22  N   UNL A   1      39.935  19.649  25.865  1.00  0.00    -0.352 N 
ATOM     23  C   UNL A   1      41.297  19.763  26.015  1.00  0.00     0.251 C 
ATOM     24  H   UNL A   1      39.629  18.751  25.600  1.00  0.00     0.163 HD
ATOM     25  O   UNL A   1      42.022  18.836  25.665  1.00  0.00    -0.269 OA
BRANCH  23  26
ATOM     26  C   UNL A   1      41.904  21.007  26.534  1.00  0.00     0.039 A 
ATOM     27  C   UNL A   1      42.293  21.996  25.624  1.00  0.00     0.014 A 
ATOM     28  C   UNL A   1      42.068  21.222  27.903  1.00  0.00     0.014 A 
ATOM     29  C   UNL A   1      42.718  23.241  26.090  1.00  0.00     0.010 A 
ATOM     30  C   UNL A   1      42.395  22.492  28.367  1.00  0.00     0.010 A 
ATOM     31  C   UNL A   1      42.704  23.520  27.465  1.00  0.00    -0.014 A 
BRANCH  31  32
ATOM     32  C   UNL A   1      42.966  24.888  27.980  1.00  0.00     0.031 A 
ATOM     33  C   UNL A   1      44.354  25.287  28.400  1.00  0.00     0.074 A 
ATOM     34  C   UNL A   1      41.933  25.736  28.156  1.00  0.00     0.049 A 
ATOM     35  N   UNL A   1      44.760  26.400  28.956  1.00  0.00    -0.248 NA
ATOM     36  C   UNL A   1      45.418  24.290  28.203  1.00  0.00     0.031 C 
ATOM     37  C   UNL A   1      40.531  25.445  27.841  1.00  0.00     0.029 A 
ATOM     38  N   UNL A   1      41.899  27.015  28.653  1.00  0.00    -0.354 N 
ATOM     39  C   UNL A   1      46.116  26.227  29.196  1.00  0.00     0.074 A 
ATOM     40  C   UNL A   1      46.454  24.885  28.775  1.00  0.00     0.031 C 
ATOM     41  C   UNL A   1      39.783  26.523  28.119  1.00  0.00     0.029 A 
ATOM     42  C   UNL A   1      40.638  27.565  28.674  1.00  0.00     0.049 A 
ATOM     43  H   UNL A   1      42.701  27.493  28.966  1.00  0.00     0.167 HD
ATOM     44  C   UNL A   1      47.007  27.113  29.703  1.00  0.00     0.031 A 
ATOM     45  C   UNL A   1      40.219  28.773  29.097  1.00  0.00     0.031 A 
ATOM     46  C   UNL A   1      46.669  28.452  30.104  1.00  0.00     0.049 A 
ATOM     47  C   UNL A   1      41.228  29.741  29.645  1.00  0.00     0.074 A 
ATOM     48  C   UNL A   1      47.505  29.450  30.570  1.00  0.00     0.029 A 
ATOM     49  N   UNL A   1      45.386  28.979  30.083  1.00  0.00    -0.354 N 
ATOM     50  N   UNL A   1      42.522  29.587  29.798  1.00  0.00    -0.248 NA
ATOM     51  C   UNL A   1      40.722  31.055  30.067  1.00  0.00     0.031 C 
ATOM     52  C   UNL A   1      46.721  30.568  30.877  1.00  0.00     0.029 A 
ATOM     53  C   UNL A   1      45.405  30.283  30.550  1.00  0.00     0.049 A 
ATOM     54  H   UNL A   1      44.581  28.499  29.783  1.00  0.00     0.167 HD
ATOM     55  C   UNL A   1      42.988  30.791  30.309  1.00  0.00     0.074 A 
ATOM     56  C   UNL A   1      41.841  31.670  30.422  1.00  0.00     0.031 C 
ATOM     57  C   UNL A   1      44.252  31.139  30.653  1.00  0.00     0.031 A 
BRANCH  44  58
ATOM     58  C   UNL A   1      48.432  26.653  29.852  1.00  0.00    -0.014 A 
ATOM     59  C   UNL A   1      49.380  26.876  28.839  1.00  0.00     0.009 A 
ATOM     60  C   UNL A   1      48.838  26.006  31.028  1.00  0.00     0.009 A 
ATOM     61  C   UNL A   1      50.692  26.421  28.983  1.00  0.00     0.001 A 
ATOM     62  C   UNL A   1      50.159  25.579  31.184  1.00  0.00     0.001 A 
ATOM     63  C   UNL A   1      51.081  25.776  30.156  1.00  0.00     0.000 A 
ENDBRANCH  44  58
BRANCH  45  64
ATOM     64  C   UNL A   1      38.782  29.142  28.996  1.00  0.00    -0.014 A 
ATOM     65  C   UNL A   1      37.935  29.009  30.108  1.00  0.00     0.009 A 
ATOM     66  C   UNL A   1      38.248  29.630  27.794  1.00  0.00     0.009 A 
ATOM     67  C   UNL A   1      36.579  29.332  30.009  1.00  0.00     0.001 A 
ATOM     68  C   UNL A   1      36.899  29.980  27.705  1.00  0.00     0.001 A 
ATOM     69  C   UNL A   1      36.063  29.821  28.810  1.00  0.00     0.000 A 
ENDBRANCH  45  64
BRANCH  57  70
ATOM     70  C   UNL A   1      44.463  32.539  31.154  1.00  0.00    -0.014 A 
ATOM     71  C   UNL A   1      44.734  33.596  30.272  1.00  0.00     0.009 A 
ATOM     72  C   UNL A   1      44.350  32.808  32.527  1.00  0.00     0.009 A 
ATOM     73  C   UNL A   1      44.919  34.891  30.761  1.00  0.00     0.001 A 
ATOM     74  C   UNL A   1      44.506  34.108  33.008  1.00  0.00     0.001 A 
ATOM     75  C   UNL A   1      44.800  35.147  32.126  1.00  0.00     0.000 A 
ENDBRANCH  57  70
ENDBRANCH  31  32
ENDBRANCH  23  26
ENDBRANCH  21  22
ENDBRANCH  20  21
ENDBRANCH   1  20
TORSDOF 13
ENDMDL
MODEL 3
REMARK VINA RESULT:     -11.3      0.500      6.119
REMARK SMILES O=Cc1ccc(-c2cnccc2C(=O)NCCCCNC(=O)c2ccc(-c3c4nc(c(-c5ccccc5)c5ccc([nH]5)c(-c5ccccc5)c5nc(c(-c6ccccc6)c6ccc3[nH]6)C=C5)C=C4)cc2)s1
REMARK SMILES IDX 17 1 16 2 15 3 13 4 14 5 12 7 7 8 8 9 9 10 11 11 10 12 6 13
REMARK SMILES IDX 3 14 4 15 71 16 5 17 2 18 1 19 18 20 19 21 20 22 21 23 22 25
REMARK SMILES IDX 23 26 24 27 70 28 25 29 69 30 26 31 27 32 28 33 63 34 29 35
REMARK SMILES IDX 68 36 62 37 64 38 30 39 67 40 61 41 60 42 31 44 53 45 38 46
REMARK SMILES IDX 52 47 39 48 42 49 51 50 65 51 40 52 41 53 50 55 66 56 43 57
REMARK SMILES IDX 32 58 33 59 37 60 34 61 36 62 35 63 54 64 55 65 59 66 56 67
REMARK SMILES IDX 58 68 57 69 44 70 45 71 49 72 46 73 48 74 47 75
REMARK H PARENT 15 6 20 24 64 43 42 54
REMARK Flexibility Score: inf
ROOT
ATOM      1  C   UNL A   1      31.790  30.071  26.542  1.00  0.00     0.023 C 
ENDROOT
BRANCH   1   2
ATOM      2  C   UNL A   1      33.100  29.461  26.071  1.00  0.00     0.116 C 
BRANCH   2   3
ATOM      3  N   UNL A   1      33.384  29.503  24.662  1.00  0.00    -0.352 N 
ATOM      4  C   UNL A   1      32.606  29.078  23.610  1.00  0.00     0.252 C 
ATOM      5  O   UNL A   1      32.997  29.349  22.472  1.00  0.00    -0.269 OA
ATOM      6  H   UNL A   1      34.254  29.892  24.417  1.00  0.00     0.163 HD
BRANCH   4   7
ATOM      7  C   UNL A   1      31.392  28.212  23.744  1.00  0.00     0.051 A 
ATOM      8  C   UNL A   1      30.043  28.553  23.540  1.00  0.00     0.023 A 
ATOM      9  C   UNL A   1      29.110  27.517  23.691  1.00  0.00     0.121 A 
ATOM     10  N   UNL A   1      29.400  26.234  24.004  1.00  0.00    -0.264 NA
ATOM     11  C   UNL A   1      31.709  26.871  24.047  1.00  0.00     0.034 A 
ATOM     12  C   UNL A   1      30.698  25.935  24.165  1.00  0.00     0.112 A 
BRANCH   8  13
ATOM     13  C   UNL A   1      29.528  29.866  23.144  1.00  0.00     0.037 A 
ATOM     14  C   UNL A   1      28.531  31.699  21.811  1.00  0.00     0.067 A 
ATOM     15  C   UNL A   1      28.692  32.044  23.136  1.00  0.00     0.024 A 
ATOM     16  S   UNL A   1      29.187  30.163  21.475  1.00  0.00    -0.132 S 
ATOM     17  C   UNL A   1      29.269  30.986  23.908  1.00  0.00     0.021 A 
BRANCH  14  18
ATOM     18  C   UNL A   1      27.923  32.469  20.748  1.00  0.00     0.270 C 
ATOM     19  O   UNL A   1      27.450  33.592  20.898  1.00  0.00    -0.297 OA
ENDBRANCH  14  18
ENDBRANCH   8  13
ENDBRANCH   4   7
ENDBRANCH   2   3
ENDBRANCH   1   2
BRANCH   1  20
ATOM     20  C   UNL A   1      31.694  31.595  26.543  1.00  0.00     0.023 C 
BRANCH  20  21
ATOM     21  C   UNL A   1      32.761  32.367  27.318  1.00  0.00     0.116 C 
BRANCH  21  22
ATOM     22  N   UNL A   1      32.432  33.766  27.550  1.00  0.00    -0.352 N 
ATOM     23  C   UNL A   1      32.981  34.698  28.399  1.00  0.00     0.251 C 
ATOM     24  H   UNL A   1      31.686  34.104  27.003  1.00  0.00     0.163 HD
ATOM     25  O   UNL A   1      32.427  35.785  28.540  1.00  0.00    -0.269 OA
BRANCH  23  26
ATOM     26  C   UNL A   1      34.190  34.387  29.192  1.00  0.00     0.039 A 
ATOM     27  C   UNL A   1      34.032  33.870  30.483  1.00  0.00     0.014 A 
ATOM     28  C   UNL A   1      35.470  34.573  28.671  1.00  0.00     0.014 A 
ATOM     29  C   UNL A   1      35.147  33.418  31.190  1.00  0.00     0.010 A 
ATOM     30  C   UNL A   1      36.568  34.032  29.332  1.00  0.00     0.010 A 
ATOM     31  C   UNL A   1      36.415  33.432  30.591  1.00  0.00    -0.014 A 
BRANCH  31  32
ATOM     32  C   UNL A   1      37.585  32.786  31.238  1.00  0.00     0.031 A 
ATOM     33  C   UNL A   1      38.234  31.586  30.606  1.00  0.00     0.074 A 
ATOM     34  C   UNL A   1      37.999  33.227  32.443  1.00  0.00     0.049 A 
ATOM     35  N   UNL A   1      39.203  30.834  31.065  1.00  0.00    -0.248 NA
ATOM     36  C   UNL A   1      37.700  31.151  29.305  1.00  0.00     0.031 C 
ATOM     37  C   UNL A   1      37.414  34.346  33.186  1.00  0.00     0.029 A 
ATOM     38  N   UNL A   1      39.007  32.780  33.262  1.00  0.00    -0.354 N 
ATOM     39  C   UNL A   1      39.376  29.828  30.123  1.00  0.00     0.074 A 
ATOM     40  C   UNL A   1      38.379  30.033  29.095  1.00  0.00     0.031 C 
ATOM     41  C   UNL A   1      38.091  34.519  34.331  1.00  0.00     0.029 A 
ATOM     42  C   UNL A   1      39.128  33.500  34.428  1.00  0.00     0.049 A 
ATOM     43  H   UNL A   1      39.586  32.018  33.036  1.00  0.00     0.167 HD
ATOM     44  C   UNL A   1      40.296  28.835  30.104  1.00  0.00     0.031 A 
ATOM     45  C   UNL A   1      39.979  33.351  35.461  1.00  0.00     0.031 A 
ATOM     46  C   UNL A   1      41.296  28.646  31.120  1.00  0.00     0.049 A 
ATOM     47  C   UNL A   1      40.997  32.247  35.411  1.00  0.00     0.074 A 
ATOM     48  C   UNL A   1      42.314  27.711  31.166  1.00  0.00     0.029 A 
ATOM     49  N   UNL A   1      41.403  29.413  32.271  1.00  0.00    -0.354 N 
ATOM     50  N   UNL A   1      41.194  31.347  34.477  1.00  0.00    -0.248 NA
ATOM     51  C   UNL A   1      41.918  32.146  36.551  1.00  0.00     0.031 C 
ATOM     52  C   UNL A   1      43.009  27.881  32.368  1.00  0.00     0.029 A 
ATOM     53  C   UNL A   1      42.457  28.958  33.044  1.00  0.00     0.049 A 
ATOM     54  H   UNL A   1      40.816  30.168  32.504  1.00  0.00     0.167 HD
ATOM     55  C   UNL A   1      42.277  30.590  34.904  1.00  0.00     0.074 A 
ATOM     56  C   UNL A   1      42.704  31.148  36.171  1.00  0.00     0.031 C 
ATOM     57  C   UNL A   1      42.865  29.528  34.302  1.00  0.00     0.031 A 
BRANCH  44  58
ATOM     58  C   UNL A   1      40.255  27.876  28.945  1.00  0.00    -0.014 A 
ATOM     59  C   UNL A   1      39.540  26.669  29.023  1.00  0.00     0.009 A 
ATOM     60  C   UNL A   1      40.923  28.191  27.752  1.00  0.00     0.009 A 
ATOM     61  C   UNL A   1      39.533  25.779  27.947  1.00  0.00     0.001 A 
ATOM     62  C   UNL A   1      40.888  27.314  26.666  1.00  0.00     0.001 A 
ATOM     63  C   UNL A   1      40.204  26.104  26.768  1.00  0.00     0.000 A 
ENDBRANCH  44  58
BRANCH  45  64
ATOM     64  C   UNL A   1      39.920  34.284  36.617  1.00  0.00    -0.014 A 
ATOM     65  C   UNL A   1      40.613  35.505  36.580  1.00  0.00     0.009 A 
ATOM     66  C   UNL A   1      39.172  33.965  37.761  1.00  0.00     0.009 A 
ATOM     67  C   UNL A   1      40.578  36.373  37.675  1.00  0.00     0.001 A 
ATOM     68  C   UNL A   1      39.116  34.848  38.842  1.00  0.00     0.001 A 
ATOM     69  C   UNL A   1      39.827  36.047  38.802  1.00  0.00     0.000 A 
ENDBRANCH  45  64
BRANCH  57  70
ATOM     70  C   UNL A   1      44.054  28.923  34.992  1.00  0.00    -0.014 A 
ATOM     71  C   UNL A   1      43.907  27.868  35.905  1.00  0.00     0.009 A 
ATOM     72  C   UNL A   1      45.341  29.393  34.692  1.00  0.00     0.009 A 
ATOM     73  C   UNL A   1      45.028  27.316  36.529  1.00  0.00     0.001 A 
ATOM     74  C   UNL A   1      46.461  28.819  35.294  1.00  0.00     0.001 A 
ATOM     75  C   UNL A   1      46.303  27.788  36.220  1.00  0.00     0.000 A 
ENDBRANCH  57  70
ENDBRANCH  31  32
ENDBRANCH  23  26
ENDBRANCH  21  22
ENDBRANCH  20  21
ENDBRANCH   1  20
TORSDOF 13
ENDMDL
