MODEL 1
REMARK VINA RESULT:     -11.6      0.000      0.000
REMARK SMILES C[C@@H](C(=O)NCCCCNC(=O)c1ccc(-c2c3nc(c(-c4ccccc4)c4ccc([nH]4)c(-c4ccccc4)c4nc(c(-c5ccccc5)c5ccc2[nH]5)C=C4)C=C3)cc1)S(=O)(=O)N[C@@]12C[C@@H]3C[C@@](C)(C[C@@](C)(C3)C1)C2
REMARK SMILES IDX 7 1 6 2 5 3 3 4 4 5 2 7 1 8 61 9 62 10 63 11 64 12 65 14
REMARK SMILES IDX 66 15 75 16 76 17 67 18 72 19 69 20 74 21 68 22 71 23 73 24
REMARK SMILES IDX 70 25 8 26 9 27 10 28 11 29 12 31 13 32 14 33 60 34 15 35
REMARK SMILES IDX 59 36 16 37 17 38 18 39 53 40 19 41 58 42 52 43 54 44 20 45
REMARK SMILES IDX 57 46 51 47 50 48 21 50 43 51 28 52 42 53 29 54 32 55 41 56
REMARK SMILES IDX 55 57 30 58 31 59 40 61 56 62 33 63 22 64 23 65 27 66 24 67
REMARK SMILES IDX 26 68 25 69 44 70 45 71 49 72 46 73 48 74 47 75 34 76 35 77
REMARK SMILES IDX 39 78 36 79 38 80 37 81
REMARK H PARENT 5 6 64 13 10 30 54 49 32 60
REMARK Flexibility Score: inf
ROOT
ATOM      1  C   UNL A   1      31.615  28.064  26.076  1.00  0.00     0.023 C 
ENDROOT
BRANCH   1   2
ATOM      2  C   UNL A   1      30.955  26.869  25.379  1.00  0.00     0.116 C 
BRANCH   2   3
ATOM      3  N   UNL A   1      30.544  27.250  24.042  1.00  0.00    -0.355 N 
ATOM      4  C   UNL A   1      31.283  27.527  22.924  1.00  0.00     0.239 C 
ATOM      5  O   UNL A   1      30.672  28.098  22.018  1.00  0.00    -0.274 OA
ATOM      6  H   UNL A   1      29.571  27.319  23.917  1.00  0.00     0.163 HD
BRANCH   4   7
ATOM      7  C   UNL A   1      32.733  27.088  22.820  1.00  0.00     0.209 C 
ATOM      8  C   UNL A   1      33.746  28.104  22.303  1.00  0.00     0.037 C 
BRANCH   7   9
ATOM      9  S   UNL A   1      32.851  25.489  21.939  1.00  0.00     0.223 S 
ATOM     10  O   UNL A   1      31.703  24.689  22.311  1.00  0.00    -0.212 OA
ATOM     11  O   UNL A   1      33.055  25.773  20.531  1.00  0.00    -0.212 OA
BRANCH   9  12
ATOM     12  N   UNL A   1      34.220  24.657  22.417  1.00  0.00    -0.208 NA
ATOM     13  H   UNL A   1      34.937  25.375  22.520  1.00  0.00     0.141 HD
BRANCH  12  14
ATOM     14  C   UNL A   1      34.387  23.789  23.600  1.00  0.00     0.034 C 
ATOM     15  C   UNL A   1      33.808  24.483  24.865  1.00  0.00     0.027 C 
ATOM     16  C   UNL A   1      33.542  22.513  23.407  1.00  0.00     0.030 C 
ATOM     17  C   UNL A   1      35.864  23.514  23.918  1.00  0.00     0.030 C 
ATOM     18  C   UNL A   1      33.951  23.551  26.099  1.00  0.00    -0.008 C 
ATOM     19  C   UNL A   1      33.718  21.541  24.586  1.00  0.00    -0.030 C 
ATOM     20  C   UNL A   1      36.020  22.527  25.085  1.00  0.00    -0.030 C 
ATOM     21  C   UNL A   1      33.185  22.237  25.856  1.00  0.00     0.010 C 
ATOM     22  C   UNL A   1      35.434  23.205  26.337  1.00  0.00     0.010 C 
ATOM     23  C   UNL A   1      35.222  21.238  24.779  1.00  0.00     0.013 C 
ATOM     24  C   UNL A   1      32.950  20.245  24.308  1.00  0.00     0.011 C 
ATOM     25  C   UNL A   1      37.505  22.196  25.265  1.00  0.00     0.011 C 
ENDBRANCH  12  14
ENDBRANCH   9  12
ENDBRANCH   7   9
ENDBRANCH   4   7
ENDBRANCH   2   3
ENDBRANCH   1   2
BRANCH   1  26
ATOM     26  C   UNL A   1      33.063  27.795  26.511  1.00  0.00     0.023 C 
BRANCH  26  27
ATOM     27  C   UNL A   1      34.058  28.871  26.093  1.00  0.00     0.116 C 
BRANCH  27  28
ATOM     28  N   UNL A   1      33.792  30.158  26.713  1.00  0.00    -0.352 N 
ATOM     29  C   UNL A   1      34.518  30.808  27.679  1.00  0.00     0.251 C 
ATOM     30  H   UNL A   1      32.983  30.624  26.399  1.00  0.00     0.163 HD
ATOM     31  O   UNL A   1      34.076  31.826  28.202  1.00  0.00    -0.269 OA
BRANCH  29  32
ATOM     32  C   UNL A   1      35.818  30.256  28.108  1.00  0.00     0.039 A 
ATOM     33  C   UNL A   1      36.911  30.364  27.247  1.00  0.00     0.014 A 
ATOM     34  C   UNL A   1      35.959  29.635  29.353  1.00  0.00     0.014 A 
ATOM     35  C   UNL A   1      38.156  29.880  27.650  1.00  0.00     0.010 A 
ATOM     36  C   UNL A   1      37.217  29.232  29.787  1.00  0.00     0.010 A 
ATOM     37  C   UNL A   1      38.324  29.330  28.931  1.00  0.00    -0.014 A 
BRANCH  37  38
ATOM     38  C   UNL A   1      39.645  28.824  29.375  1.00  0.00     0.031 A 
ATOM     39  C   UNL A   1      40.479  29.630  30.334  1.00  0.00     0.074 A 
ATOM     40  C   UNL A   1      40.108  27.655  28.892  1.00  0.00     0.049 A 
ATOM     41  N   UNL A   1      41.652  29.349  30.845  1.00  0.00    -0.248 NA
ATOM     42  C   UNL A   1      39.940  30.934  30.753  1.00  0.00     0.031 C 
ATOM     43  C   UNL A   1      39.412  26.801  27.927  1.00  0.00     0.029 A 
ATOM     44  N   UNL A   1      41.272  26.980  29.154  1.00  0.00    -0.354 N 
ATOM     45  C   UNL A   1      41.993  30.446  31.627  1.00  0.00     0.074 A 
ATOM     46  C   UNL A   1      40.937  31.419  31.477  1.00  0.00     0.031 C 
ATOM     47  C   UNL A   1      40.140  25.693  27.716  1.00  0.00     0.029 A 
ATOM     48  C   UNL A   1      41.371  25.778  28.498  1.00  0.00     0.049 A 
ATOM     49  H   UNL A   1      41.971  27.325  29.756  1.00  0.00     0.167 HD
ATOM     50  C   UNL A   1      43.079  30.620  32.418  1.00  0.00     0.031 A 
ATOM     51  C   UNL A   1      42.341  24.845  28.528  1.00  0.00     0.031 A 
ATOM     52  C   UNL A   1      44.126  29.644  32.573  1.00  0.00     0.049 A 
ATOM     53  C   UNL A   1      43.543  25.068  29.403  1.00  0.00     0.074 A 
ATOM     54  C   UNL A   1      45.236  29.695  33.399  1.00  0.00     0.029 A 
ATOM     55  N   UNL A   1      44.194  28.444  31.882  1.00  0.00    -0.354 N 
ATOM     56  N   UNL A   1      43.812  26.073  30.201  1.00  0.00    -0.248 NA
ATOM     57  C   UNL A   1      44.568  24.015  29.390  1.00  0.00     0.031 C 
ATOM     58  C   UNL A   1      46.008  28.553  33.159  1.00  0.00     0.029 A 
ATOM     59  C   UNL A   1      45.344  27.760  32.238  1.00  0.00     0.049 A 
ATOM     60  H   UNL A   1      43.525  28.127  31.234  1.00  0.00     0.167 HD
ATOM     61  C   UNL A   1      45.018  25.756  30.814  1.00  0.00     0.074 A 
ATOM     62  C   UNL A   1      45.417  24.460  30.306  1.00  0.00     0.031 C 
ATOM     63  C   UNL A   1      45.728  26.471  31.721  1.00  0.00     0.031 A 
BRANCH  50  64
ATOM     64  C   UNL A   1      43.194  31.923  33.160  1.00  0.00    -0.014 A 
ATOM     65  C   UNL A   1      42.645  32.089  34.443  1.00  0.00     0.009 A 
ATOM     66  C   UNL A   1      43.880  32.999  32.575  1.00  0.00     0.009 A 
ATOM     67  C   UNL A   1      42.740  33.317  35.102  1.00  0.00     0.001 A 
ATOM     68  C   UNL A   1      44.003  34.215  33.251  1.00  0.00     0.001 A 
ATOM     69  C   UNL A   1      43.423  34.377  34.507  1.00  0.00     0.000 A 
ENDBRANCH  50  64
BRANCH  51  70
ATOM     70  C   UNL A   1      42.203  23.596  27.733  1.00  0.00    -0.014 A 
ATOM     71  C   UNL A   1      41.606  22.457  28.297  1.00  0.00     0.009 A 
ATOM     72  C   UNL A   1      42.676  23.529  26.414  1.00  0.00     0.009 A 
ATOM     73  C   UNL A   1      41.517  21.269  27.569  1.00  0.00     0.001 A 
ATOM     74  C   UNL A   1      42.557  22.348  25.677  1.00  0.00     0.001 A 
ATOM     75  C   UNL A   1      41.988  21.216  26.259  1.00  0.00     0.000 A 
ENDBRANCH  51  70
BRANCH  63  76
ATOM     76  C   UNL A   1      46.987  25.843  32.257  1.00  0.00    -0.014 A 
ATOM     77  C   UNL A   1      48.228  26.036  31.633  1.00  0.00     0.009 A 
ATOM     78  C   UNL A   1      46.926  25.065  33.423  1.00  0.00     0.009 A 
ATOM     79  C   UNL A   1      49.376  25.424  32.141  1.00  0.00     0.001 A 
ATOM     80  C   UNL A   1      48.081  24.485  33.949  1.00  0.00     0.001 A 
ATOM     81  C   UNL A   1      49.302  24.653  33.300  1.00  0.00     0.000 A 
ENDBRANCH  63  76
ENDBRANCH  37  38
ENDBRANCH  29  32
ENDBRANCH  27  28
ENDBRANCH  26  27
ENDBRANCH   1  26
TORSDOF 14
ENDMDL
MODEL 2
REMARK VINA RESULT:     -11.2      2.625      7.535
REMARK SMILES C[C@@H](C(=O)NCCCCNC(=O)c1ccc(-c2c3nc(c(-c4ccccc4)c4ccc([nH]4)c(-c4ccccc4)c4nc(c(-c5ccccc5)c5ccc2[nH]5)C=C4)C=C3)cc1)S(=O)(=O)N[C@@]12C[C@@H]3C[C@@](C)(C[C@@](C)(C3)C1)C2
REMARK SMILES IDX 7 1 6 2 5 3 3 4 4 5 2 7 1 8 61 9 62 10 63 11 64 12 65 14
REMARK SMILES IDX 66 15 75 16 76 17 67 18 72 19 69 20 74 21 68 22 71 23 73 24
REMARK SMILES IDX 70 25 8 26 9 27 10 28 11 29 12 31 13 32 14 33 60 34 15 35
REMARK SMILES IDX 59 36 16 37 17 38 18 39 53 40 19 41 58 42 52 43 54 44 20 45
REMARK SMILES IDX 57 46 51 47 50 48 21 50 43 51 28 52 42 53 29 54 32 55 41 56
REMARK SMILES IDX 55 57 30 58 31 59 40 61 56 62 33 63 22 64 23 65 27 66 24 67
REMARK SMILES IDX 26 68 25 69 44 70 45 71 49 72 46 73 48 74 47 75 34 76 35 77
REMARK SMILES IDX 39 78 36 79 38 80 37 81
REMARK H PARENT 5 6 64 13 10 30 54 49 32 60
REMARK Flexibility Score: inf
ROOT
ATOM      1  C   UNL A   1      36.517  20.968  24.562  1.00  0.00     0.023 C 
ENDROOT
BRANCH   1   2
ATOM      2  C   UNL A   1      35.517  21.306  25.674  1.00  0.00     0.116 C 
BRANCH   2   3
ATOM      3  N   UNL A   1      34.173  20.985  25.236  1.00  0.00    -0.355 N 
ATOM      4  C   UNL A   1      32.955  21.385  25.717  1.00  0.00     0.239 C 
ATOM      5  O   UNL A   1      31.992  20.724  25.324  1.00  0.00    -0.274 OA
ATOM      6  H   UNL A   1      34.128  20.379  24.462  1.00  0.00     0.163 HD
BRANCH   4   7
ATOM      7  C   UNL A   1      32.836  22.602  26.617  1.00  0.00     0.209 C 
ATOM      8  C   UNL A   1      33.138  22.419  28.100  1.00  0.00     0.037 C 
BRANCH   7   9
ATOM      9  S   UNL A   1      31.234  23.443  26.340  1.00  0.00     0.223 S 
ATOM     10  O   UNL A   1      30.982  23.461  24.914  1.00  0.00    -0.212 OA
ATOM     11  O   UNL A   1      30.249  22.813  27.198  1.00  0.00    -0.212 OA
BRANCH   9  12
ATOM     12  N   UNL A   1      31.309  25.030  26.857  1.00  0.00    -0.208 NA
ATOM     13  H   UNL A   1      31.886  25.001  27.698  1.00  0.00     0.141 HD
BRANCH  12  14
ATOM     14  C   UNL A   1      31.797  26.206  26.109  1.00  0.00     0.034 C 
ATOM     15  C   UNL A   1      33.181  25.903  25.468  1.00  0.00     0.027 C 
ATOM     16  C   UNL A   1      30.845  26.475  24.925  1.00  0.00     0.030 C 
ATOM     17  C   UNL A   1      32.020  27.425  27.017  1.00  0.00     0.030 C 
ATOM     18  C   UNL A   1      33.672  27.129  24.650  1.00  0.00    -0.008 C 
ATOM     19  C   UNL A   1      31.272  27.726  24.138  1.00  0.00    -0.030 C 
ATOM     20  C   UNL A   1      32.426  28.668  26.211  1.00  0.00    -0.030 C 
ATOM     21  C   UNL A   1      32.663  27.451  23.531  1.00  0.00     0.010 C 
ATOM     22  C   UNL A   1      33.789  28.366  25.563  1.00  0.00     0.010 C 
ATOM     23  C   UNL A   1      31.378  28.928  25.104  1.00  0.00     0.013 C 
ATOM     24  C   UNL A   1      30.245  28.021  23.039  1.00  0.00     0.011 C 
ATOM     25  C   UNL A   1      32.504  29.872  27.155  1.00  0.00     0.011 C 
ENDBRANCH  12  14
ENDBRANCH   9  12
ENDBRANCH   7   9
ENDBRANCH   4   7
ENDBRANCH   2   3
ENDBRANCH   1   2
BRANCH   1  26
ATOM     26  C   UNL A   1      37.519  19.872  24.952  1.00  0.00     0.023 C 
BRANCH  26  27
ATOM     27  C   UNL A   1      38.747  20.377  25.700  1.00  0.00     0.116 C 
BRANCH  27  28
ATOM     28  N   UNL A   1      39.827  19.405  25.730  1.00  0.00    -0.352 N 
ATOM     29  C   UNL A   1      41.142  19.599  26.071  1.00  0.00     0.251 C 
ATOM     30  H   UNL A   1      39.583  18.487  25.472  1.00  0.00     0.163 HD
ATOM     31  O   UNL A   1      41.962  18.702  25.905  1.00  0.00    -0.269 OA
BRANCH  29  32
ATOM     32  C   UNL A   1      41.570  20.906  26.608  1.00  0.00     0.039 A 
ATOM     33  C   UNL A   1      42.038  21.876  25.719  1.00  0.00     0.014 A 
ATOM     34  C   UNL A   1      41.511  21.175  27.978  1.00  0.00     0.014 A 
ATOM     35  C   UNL A   1      42.412  23.130  26.203  1.00  0.00     0.010 A 
ATOM     36  C   UNL A   1      41.802  22.451  28.446  1.00  0.00     0.010 A 
ATOM     37  C   UNL A   1      42.277  23.435  27.567  1.00  0.00    -0.014 A 
BRANCH  37  38
ATOM     38  C   UNL A   1      42.661  24.768  28.090  1.00  0.00     0.031 A 
ATOM     39  C   UNL A   1      41.612  25.827  28.301  1.00  0.00     0.074 A 
ATOM     40  C   UNL A   1      43.956  25.037  28.346  1.00  0.00     0.049 A 
ATOM     41  N   UNL A   1      41.751  27.046  28.761  1.00  0.00    -0.248 NA
ATOM     42  C   UNL A   1      40.232  25.484  27.922  1.00  0.00     0.031 C 
ATOM     43  C   UNL A   1      45.071  24.108  28.144  1.00  0.00     0.029 A 
ATOM     44  N   UNL A   1      44.551  26.169  28.839  1.00  0.00    -0.354 N 
ATOM     45  C   UNL A   1      40.484  27.614  28.707  1.00  0.00     0.074 A 
ATOM     46  C   UNL A   1      39.603  26.632  28.118  1.00  0.00     0.031 C 
ATOM     47  C   UNL A   1      46.208  24.692  28.557  1.00  0.00     0.029 A 
ATOM     48  C   UNL A   1      45.909  26.047  29.012  1.00  0.00     0.049 A 
ATOM     49  H   UNL A   1      44.053  26.993  29.049  1.00  0.00     0.167 HD
ATOM     50  C   UNL A   1      40.083  28.836  29.131  1.00  0.00     0.031 A 
ATOM     51  C   UNL A   1      46.809  26.925  29.489  1.00  0.00     0.031 A 
ATOM     52  C   UNL A   1      40.960  29.809  29.727  1.00  0.00     0.049 A 
ATOM     53  C   UNL A   1      46.341  28.280  29.941  1.00  0.00     0.074 A 
ATOM     54  C   UNL A   1      40.642  31.050  30.249  1.00  0.00     0.029 A 
ATOM     55  N   UNL A   1      42.330  29.650  29.874  1.00  0.00    -0.354 N 
ATOM     56  N   UNL A   1      45.126  28.773  29.962  1.00  0.00    -0.248 NA
ATOM     57  C   UNL A   1      47.372  29.195  30.450  1.00  0.00     0.031 C 
ATOM     58  C   UNL A   1      41.830  31.669  30.653  1.00  0.00     0.029 A 
ATOM     59  C   UNL A   1      42.876  30.784  30.449  1.00  0.00     0.049 A 
ATOM     60  H   UNL A   1      42.837  28.850  29.607  1.00  0.00     0.167 HD
ATOM     61  C   UNL A   1      45.241  30.040  30.521  1.00  0.00     0.074 A 
ATOM     62  C   UNL A   1      46.641  30.230  30.838  1.00  0.00     0.031 C 
ATOM     63  C   UNL A   1      44.273  30.960  30.756  1.00  0.00     0.031 A 
BRANCH  50  64
ATOM     64  C   UNL A   1      38.633  29.192  28.947  1.00  0.00    -0.014 A 
ATOM     65  C   UNL A   1      37.704  29.053  29.992  1.00  0.00     0.009 A 
ATOM     66  C   UNL A   1      38.190  29.692  27.712  1.00  0.00     0.009 A 
ATOM     67  C   UNL A   1      36.356  29.364  29.789  1.00  0.00     0.001 A 
ATOM     68  C   UNL A   1      36.850  30.035  27.523  1.00  0.00     0.001 A 
ATOM     69  C   UNL A   1      35.932  29.859  28.556  1.00  0.00     0.000 A 
ENDBRANCH  50  64
BRANCH  51  70
ATOM     70  C   UNL A   1      48.241  26.542  29.603  1.00  0.00    -0.014 A 
ATOM     71  C   UNL A   1      49.137  26.819  28.558  1.00  0.00     0.009 A 
ATOM     72  C   UNL A   1      48.720  25.887  30.748  1.00  0.00     0.009 A 
ATOM     73  C   UNL A   1      50.472  26.418  28.643  1.00  0.00     0.001 A 
ATOM     74  C   UNL A   1      50.063  25.517  30.844  1.00  0.00     0.001 A 
ATOM     75  C   UNL A   1      50.935  25.772  29.787  1.00  0.00     0.000 A 
ENDBRANCH  51  70
BRANCH  63  76
ATOM     76  C   UNL A   1      44.692  32.239  31.431  1.00  0.00    -0.014 A 
ATOM     77  C   UNL A   1      44.792  32.335  32.827  1.00  0.00     0.009 A 
ATOM     78  C   UNL A   1      45.016  33.357  30.647  1.00  0.00     0.009 A 
ATOM     79  C   UNL A   1      45.165  33.540  33.426  1.00  0.00     0.001 A 
ATOM     80  C   UNL A   1      45.422  34.549  31.247  1.00  0.00     0.001 A 
ATOM     81  C   UNL A   1      45.483  34.644  32.636  1.00  0.00     0.000 A 
ENDBRANCH  63  76
ENDBRANCH  37  38
ENDBRANCH  29  32
ENDBRANCH  27  28
ENDBRANCH  26  27
ENDBRANCH   1  26
TORSDOF 14
ENDMDL
MODEL 3
REMARK VINA RESULT:     -11.1      2.676      4.213
REMARK SMILES C[C@@H](C(=O)NCCCCNC(=O)c1ccc(-c2c3nc(c(-c4ccccc4)c4ccc([nH]4)c(-c4ccccc4)c4nc(c(-c5ccccc5)c5ccc2[nH]5)C=C4)C=C3)cc1)S(=O)(=O)N[C@@]12C[C@@H]3C[C@@](C)(C[C@@](C)(C3)C1)C2
REMARK SMILES IDX 7 1 6 2 5 3 3 4 4 5 2 7 1 8 61 9 62 10 63 11 64 12 65 14
REMARK SMILES IDX 66 15 75 16 76 17 67 18 72 19 69 20 74 21 68 22 71 23 73 24
REMARK SMILES IDX 70 25 8 26 9 27 10 28 11 29 12 31 13 32 14 33 60 34 15 35
REMARK SMILES IDX 59 36 16 37 17 38 18 39 53 40 19 41 58 42 52 43 54 44 20 45
REMARK SMILES IDX 57 46 51 47 50 48 21 50 43 51 28 52 42 53 29 54 32 55 41 56
REMARK SMILES IDX 55 57 30 58 31 59 40 61 56 62 33 63 22 64 23 65 27 66 24 67
REMARK SMILES IDX 26 68 25 69 44 70 45 71 49 72 46 73 48 74 47 75 34 76 35 77
REMARK SMILES IDX 39 78 36 79 38 80 37 81
REMARK H PARENT 5 6 64 13 10 30 54 49 32 60
REMARK Flexibility Score: inf
ROOT
ATOM      1  C   UNL A   1      31.374  30.981  25.732  1.00  0.00     0.023 C 
ENDROOT
BRANCH   1   2
ATOM      2  C   UNL A   1      32.585  30.126  26.125  1.00  0.00     0.116 C 
BRANCH   2   3
ATOM      3  N   UNL A   1      32.150  29.002  26.929  1.00  0.00    -0.355 N 
ATOM      4  C   UNL A   1      31.514  27.842  26.577  1.00  0.00     0.239 C 
ATOM      5  O   UNL A   1      31.017  27.210  27.511  1.00  0.00    -0.274 OA
ATOM      6  H   UNL A   1      32.346  29.086  27.890  1.00  0.00     0.163 HD
BRANCH   4   7
ATOM      7  C   UNL A   1      31.499  27.371  25.133  1.00  0.00     0.209 C 
ATOM      8  C   UNL A   1      30.470  26.315  24.743  1.00  0.00     0.037 C 
BRANCH   7   9
ATOM      9  S   UNL A   1      33.188  26.918  24.595  1.00  0.00     0.223 S 
ATOM     10  O   UNL A   1      33.575  27.824  23.534  1.00  0.00    -0.212 OA
ATOM     11  O   UNL A   1      34.028  26.856  25.776  1.00  0.00    -0.212 OA
BRANCH   9  12
ATOM     12  N   UNL A   1      33.206  25.370  23.966  1.00  0.00    -0.208 NA
ATOM     13  H   UNL A   1      33.736  25.450  23.098  1.00  0.00     0.141 HD
BRANCH  12  14
ATOM     14  C   UNL A   1      33.714  24.138  24.603  1.00  0.00     0.034 C 
ATOM     15  C   UNL A   1      33.464  22.911  23.681  1.00  0.00     0.027 C 
ATOM     16  C   UNL A   1      35.246  24.243  24.743  1.00  0.00     0.030 C 
ATOM     17  C   UNL A   1      32.989  23.820  25.919  1.00  0.00     0.030 C 
ATOM     18  C   UNL A   1      34.034  21.624  24.337  1.00  0.00    -0.008 C 
ATOM     19  C   UNL A   1      35.829  23.008  25.452  1.00  0.00    -0.030 C 
ATOM     20  C   UNL A   1      33.597  22.597  26.622  1.00  0.00    -0.030 C 
ATOM     21  C   UNL A   1      35.550  21.778  24.564  1.00  0.00     0.010 C 
ATOM     22  C   UNL A   1      33.366  21.382  25.705  1.00  0.00     0.010 C 
ATOM     23  C   UNL A   1      35.117  22.815  26.810  1.00  0.00     0.013 C 
ATOM     24  C   UNL A   1      37.335  23.198  25.668  1.00  0.00     0.011 C 
ATOM     25  C   UNL A   1      32.919  22.414  27.984  1.00  0.00     0.011 C 
ENDBRANCH  12  14
ENDBRANCH   9  12
ENDBRANCH   7   9
ENDBRANCH   4   7
ENDBRANCH   2   3
ENDBRANCH   1   2
BRANCH   1  26
ATOM     26  C   UNL A   1      31.164  32.199  26.642  1.00  0.00     0.023 C 
BRANCH  26  27
ATOM     27  C   UNL A   1      32.451  32.860  27.120  1.00  0.00     0.116 C 
BRANCH  27  28
ATOM     28  N   UNL A   1      32.240  34.206  27.626  1.00  0.00    -0.352 N 
ATOM     29  C   UNL A   1      32.940  34.873  28.600  1.00  0.00     0.251 C 
ATOM     30  H   UNL A   1      31.495  34.705  27.217  1.00  0.00     0.163 HD
ATOM     31  O   UNL A   1      32.541  35.956  29.015  1.00  0.00    -0.269 OA
BRANCH  29  32
ATOM     32  C   UNL A   1      34.157  34.262  29.169  1.00  0.00     0.039 A 
ATOM     33  C   UNL A   1      34.027  33.380  30.244  1.00  0.00     0.014 A 
ATOM     34  C   UNL A   1      35.420  34.556  28.647  1.00  0.00     0.014 A 
ATOM     35  C   UNL A   1      35.162  32.765  30.771  1.00  0.00     0.010 A 
ATOM     36  C   UNL A   1      36.538  33.877  29.117  1.00  0.00     0.010 A 
ATOM     37  C   UNL A   1      36.424  32.992  30.199  1.00  0.00    -0.014 A 
BRANCH  37  38
ATOM     38  C   UNL A   1      37.637  32.334  30.743  1.00  0.00     0.031 A 
ATOM     39  C   UNL A   1      38.280  32.859  31.999  1.00  0.00     0.074 A 
ATOM     40  C   UNL A   1      38.177  31.286  30.092  1.00  0.00     0.049 A 
ATOM     41  N   UNL A   1      39.335  32.412  32.634  1.00  0.00    -0.248 NA
ATOM     42  C   UNL A   1      37.678  34.056  32.607  1.00  0.00     0.031 C 
ATOM     43  C   UNL A   1      37.671  30.711  28.844  1.00  0.00     0.029 A 
ATOM     44  N   UNL A   1      39.269  30.515  30.396  1.00  0.00    -0.354 N 
ATOM     45  C   UNL A   1      39.529  33.283  33.699  1.00  0.00     0.074 A 
ATOM     46  C   UNL A   1      38.523  34.314  33.593  1.00  0.00     0.031 C 
ATOM     47  C   UNL A   1      38.421  29.647  28.516  1.00  0.00     0.029 A 
ATOM     48  C   UNL A   1      39.484  29.491  29.505  1.00  0.00     0.049 A 
ATOM     49  H   UNL A   1      39.844  30.678  31.178  1.00  0.00     0.167 HD
ATOM     50  C   UNL A   1      40.448  33.218  34.692  1.00  0.00     0.031 A 
ATOM     51  C   UNL A   1      40.427  28.532  29.491  1.00  0.00     0.031 A 
ATOM     52  C   UNL A   1      41.443  32.184  34.802  1.00  0.00     0.049 A 
ATOM     53  C   UNL A   1      41.444  28.490  30.597  1.00  0.00     0.074 A 
ATOM     54  C   UNL A   1      42.378  31.991  35.804  1.00  0.00     0.029 A 
ATOM     55  N   UNL A   1      41.634  31.173  33.874  1.00  0.00    -0.354 N 
ATOM     56  N   UNL A   1      41.564  29.271  31.644  1.00  0.00    -0.248 NA
ATOM     57  C   UNL A   1      42.449  27.420  30.524  1.00  0.00     0.031 C 
ATOM     58  C   UNL A   1      43.177  30.899  35.447  1.00  0.00     0.029 A 
ATOM     59  C   UNL A   1      42.693  30.371  34.262  1.00  0.00     0.049 A 
ATOM     60  H   UNL A   1      41.097  31.045  33.059  1.00  0.00     0.167 HD
ATOM     61  C   UNL A   1      42.632  28.765  32.374  1.00  0.00     0.074 A 
ATOM     62  C   UNL A   1      43.113  27.602  31.657  1.00  0.00     0.031 C 
ATOM     63  C   UNL A   1      43.162  29.218  33.536  1.00  0.00     0.031 A 
BRANCH  50  64
ATOM     64  C   UNL A   1      40.427  34.310  35.727  1.00  0.00    -0.014 A 
ATOM     65  C   UNL A   1      41.196  35.477  35.579  1.00  0.00     0.009 A 
ATOM     66  C   UNL A   1      39.609  34.180  36.861  1.00  0.00     0.009 A 
ATOM     67  C   UNL A   1      41.181  36.466  36.567  1.00  0.00     0.001 A 
ATOM     68  C   UNL A   1      39.570  35.185  37.828  1.00  0.00     0.001 A 
ATOM     69  C   UNL A   1      40.365  36.321  37.688  1.00  0.00     0.000 A 
ENDBRANCH  50  64
BRANCH  51  70
ATOM     70  C   UNL A   1      40.435  27.505  28.415  1.00  0.00    -0.014 A 
ATOM     71  C   UNL A   1      39.722  26.306  28.571  1.00  0.00     0.009 A 
ATOM     72  C   UNL A   1      41.162  27.711  27.233  1.00  0.00     0.009 A 
ATOM     73  C   UNL A   1      39.766  25.321  27.581  1.00  0.00     0.001 A 
ATOM     74  C   UNL A   1      41.178  26.738  26.231  1.00  0.00     0.001 A 
ATOM     75  C   UNL A   1      40.490  25.540  26.411  1.00  0.00     0.000 A 
ENDBRANCH  51  70
BRANCH  63  76
ATOM     76  C   UNL A   1      44.296  28.424  34.129  1.00  0.00    -0.014 A 
ATOM     77  C   UNL A   1      45.635  28.727  33.842  1.00  0.00     0.009 A 
ATOM     78  C   UNL A   1      44.012  27.370  35.011  1.00  0.00     0.009 A 
ATOM     79  C   UNL A   1      46.665  27.961  34.390  1.00  0.00     0.001 A 
ATOM     80  C   UNL A   1      45.044  26.629  35.585  1.00  0.00     0.001 A 
ATOM     81  C   UNL A   1      46.370  26.916  35.265  1.00  0.00     0.000 A 
ENDBRANCH  63  76
ENDBRANCH  37  38
ENDBRANCH  29  32
ENDBRANCH  27  28
ENDBRANCH  26  27
ENDBRANCH   1  26
TORSDOF 14
ENDMDL
