MODEL 1
REMARK VINA RESULT:     -11.5      0.000      0.000
REMARK SMILES Cc1cc(Br)cc2c1O[C@H](C(F)(F)F)C(C(=O)NCCCCNC(=O)c1ccc(-c3c4nc(c(-c5ccccc5)c5ccc([nH]5)c(-c5ccccc5)c5nc(c(-c6ccccc6)c6ccc3[nH]6)C=C5)C=C4)cc1)=C2
REMARK SMILES IDX 21 1 20 2 19 3 18 4 16 5 17 6 15 8 1 9 2 10 3 11 8 12 4 13
REMARK SMILES IDX 7 14 9 15 5 16 6 17 74 18 10 19 11 20 12 21 13 22 14 23
REMARK SMILES IDX 22 24 23 25 24 26 25 28 26 29 27 30 73 31 28 32 72 33 29 34
REMARK SMILES IDX 30 35 31 36 66 37 32 38 71 39 65 40 67 41 33 42 70 43 64 44
REMARK SMILES IDX 63 45 34 47 56 48 41 49 55 50 42 51 45 52 54 53 68 54 43 55
REMARK SMILES IDX 44 56 53 58 69 59 46 60 35 61 36 62 40 63 37 64 39 65 38 66
REMARK SMILES IDX 57 67 58 68 62 69 59 70 61 71 60 72 47 73 48 74 52 75 49 76
REMARK SMILES IDX 51 77 50 78
REMARK H PARENT 18 7 23 27 67 46 45 57
REMARK Flexibility Score: inf
ROOT
ATOM      1  C   UNL A   1      33.483  29.216  25.461  1.00  0.00     0.023 C 
ENDROOT
BRANCH   1   2
ATOM      2  C   UNL A   1      33.531  27.901  24.679  1.00  0.00     0.023 C 
BRANCH   2   3
ATOM      3  C   UNL A   1      32.174  27.436  24.155  1.00  0.00     0.116 C 
BRANCH   3   4
ATOM      4  N   UNL A   1      31.342  26.891  25.213  1.00  0.00    -0.352 N 
ATOM      5  C   UNL A   1      31.215  25.707  25.857  1.00  0.00     0.251 C 
ATOM      6  O   UNL A   1      30.332  25.677  26.721  1.00  0.00    -0.270 OA
ATOM      7  H   UNL A   1      30.700  27.558  25.549  1.00  0.00     0.163 HD
BRANCH   5   8
ATOM      8  C   UNL A   1      32.039  24.490  25.599  1.00  0.00     0.067 C 
ATOM      9  C   UNL A   1      33.854  19.753  24.776  1.00  0.00     0.048 C 
ATOM     10  C   UNL A   1      34.460  21.075  25.153  1.00  0.00    -0.007 A 
ATOM     11  C   UNL A   1      35.845  21.198  25.321  1.00  0.00     0.023 A 
ATOM     12  C   UNL A   1      33.653  22.203  25.356  1.00  0.00     0.130 A 
ATOM     13  C   UNL A   1      36.401  22.425  25.685  1.00  0.00     0.019 A 
ATOM     14  C   UNL A   1      34.209  23.433  25.728  1.00  0.00     0.019 A 
ATOM     15  O   UNL A   1      32.301  22.042  25.224  1.00  0.00    -0.475 OA
ATOM     16  Br  UNL A   1      38.273  22.572  25.909  1.00  0.00    -0.051 Br
ATOM     17  C   UNL A   1      35.592  23.542  25.893  1.00  0.00     0.027 A 
ATOM     18  C   UNL A   1      33.329  24.570  25.976  1.00  0.00     0.025 C 
ATOM     19  C   UNL A   1      31.538  23.244  24.927  1.00  0.00     0.314 C 
BRANCH  19  20
ATOM     20  C   UNL A   1      31.403  23.403  23.401  1.00  0.00     0.429 C 
ATOM     21  F   UNL A   1      31.528  22.199  22.787  1.00  0.00    -0.167 F 
ATOM     22  F   UNL A   1      30.195  23.894  23.037  1.00  0.00    -0.167 F 
ATOM     23  F   UNL A   1      32.337  24.225  22.874  1.00  0.00    -0.167 F 
ENDBRANCH  19  20
ENDBRANCH   5   8
ENDBRANCH   3   4
ENDBRANCH   2   3
ENDBRANCH   1   2
BRANCH   1  24
ATOM     24  C   UNL A   1      33.652  29.089  26.974  1.00  0.00     0.116 C 
BRANCH  24  25
ATOM     25  N   UNL A   1      33.622  30.360  27.683  1.00  0.00    -0.352 N 
ATOM     26  C   UNL A   1      34.626  30.932  28.430  1.00  0.00     0.251 C 
ATOM     27  H   UNL A   1      32.784  30.872  27.621  1.00  0.00     0.163 HD
ATOM     28  O   UNL A   1      34.447  31.985  29.030  1.00  0.00    -0.269 OA
BRANCH  26  29
ATOM     29  C   UNL A   1      35.912  30.220  28.538  1.00  0.00     0.039 A 
ATOM     30  C   UNL A   1      36.796  30.269  27.458  1.00  0.00     0.014 A 
ATOM     31  C   UNL A   1      36.272  29.593  29.733  1.00  0.00     0.014 A 
ATOM     32  C   UNL A   1      38.084  29.757  27.609  1.00  0.00     0.010 A 
ATOM     33  C   UNL A   1      37.574  29.134  29.900  1.00  0.00     0.010 A 
ATOM     34  C   UNL A   1      38.493  29.226  28.844  1.00  0.00    -0.014 A 
BRANCH  34  35
ATOM     35  C   UNL A   1      39.893  28.790  29.054  1.00  0.00     0.031 A 
ATOM     36  C   UNL A   1      40.884  29.717  29.692  1.00  0.00     0.074 A 
ATOM     37  C   UNL A   1      40.278  27.573  28.624  1.00  0.00     0.049 A 
ATOM     38  N   UNL A   1      42.154  29.518  29.939  1.00  0.00    -0.248 NA
ATOM     39  C   UNL A   1      40.391  31.046  30.087  1.00  0.00     0.031 C 
ATOM     40  C   UNL A   1      39.416  26.597  27.955  1.00  0.00     0.029 A 
ATOM     41  N   UNL A   1      41.498  26.949  28.691  1.00  0.00    -0.354 N 
ATOM     42  C   UNL A   1      42.612  30.698  30.510  1.00  0.00     0.074 A 
ATOM     43  C   UNL A   1      41.499  31.622  30.530  1.00  0.00     0.031 C 
ATOM     44  C   UNL A   1      40.123  25.481  27.710  1.00  0.00     0.029 A 
ATOM     45  C   UNL A   1      41.492  25.676  28.177  1.00  0.00     0.049 A 
ATOM     46  H   UNL A   1      42.301  27.373  29.071  1.00  0.00     0.167 HD
ATOM     47  C   UNL A   1      43.843  30.978  30.994  1.00  0.00     0.031 A 
ATOM     48  C   UNL A   1      42.478  24.763  28.101  1.00  0.00     0.031 A 
ATOM     49  C   UNL A   1      44.947  30.057  30.987  1.00  0.00     0.049 A 
ATOM     50  C   UNL A   1      43.839  25.101  28.637  1.00  0.00     0.074 A 
ATOM     51  C   UNL A   1      46.222  30.237  31.491  1.00  0.00     0.029 A 
ATOM     52  N   UNL A   1      44.903  28.782  30.447  1.00  0.00    -0.354 N 
ATOM     53  N   UNL A   1      44.244  26.204  29.215  1.00  0.00    -0.248 NA
ATOM     54  C   UNL A   1      44.875  24.065  28.516  1.00  0.00     0.031 C 
ATOM     55  C   UNL A   1      46.961  29.078  31.231  1.00  0.00     0.029 A 
ATOM     56  C   UNL A   1      46.133  28.166  30.596  1.00  0.00     0.049 A 
ATOM     57  H   UNL A   1      44.114  28.375  30.022  1.00  0.00     0.167 HD
ATOM     58  C   UNL A   1      45.575  25.990  29.545  1.00  0.00     0.074 A 
ATOM     59  C   UNL A   1      45.906  24.648  29.111  1.00  0.00     0.031 C 
ATOM     60  C   UNL A   1      46.444  26.831  30.157  1.00  0.00     0.031 A 
BRANCH  47  61
ATOM     61  C   UNL A   1      44.052  32.342  31.583  1.00  0.00    -0.014 A 
ATOM     62  C   UNL A   1      44.515  33.404  30.790  1.00  0.00     0.009 A 
ATOM     63  C   UNL A   1      43.761  32.577  32.935  1.00  0.00     0.009 A 
ATOM     64  C   UNL A   1      44.713  34.668  31.347  1.00  0.00     0.001 A 
ATOM     65  C   UNL A   1      43.938  33.848  33.485  1.00  0.00     0.001 A 
ATOM     66  C   UNL A   1      44.421  34.889  32.692  1.00  0.00     0.000 A 
ENDBRANCH  47  61
BRANCH  48  67
ATOM     67  C   UNL A   1      42.197  23.420  27.533  1.00  0.00    -0.014 A 
ATOM     68  C   UNL A   1      42.507  23.145  26.193  1.00  0.00     0.009 A 
ATOM     69  C   UNL A   1      41.640  22.406  28.326  1.00  0.00     0.009 A 
ATOM     70  C   UNL A   1      42.254  21.882  25.653  1.00  0.00     0.001 A 
ATOM     71  C   UNL A   1      41.404  21.139  27.789  1.00  0.00     0.001 A 
ATOM     72  C   UNL A   1      41.707  20.880  26.452  1.00  0.00     0.000 A 
ENDBRANCH  48  67
BRANCH  60  73
ATOM     73  C   UNL A   1      47.831  26.324  30.412  1.00  0.00    -0.014 A 
ATOM     74  C   UNL A   1      48.184  25.782  31.656  1.00  0.00     0.009 A 
ATOM     75  C   UNL A   1      48.773  26.322  29.371  1.00  0.00     0.009 A 
ATOM     76  C   UNL A   1      49.463  25.260  31.859  1.00  0.00     0.001 A 
ATOM     77  C   UNL A   1      50.044  25.783  29.571  1.00  0.00     0.001 A 
ATOM     78  C   UNL A   1      50.389  25.256  30.815  1.00  0.00     0.000 A 
ENDBRANCH  60  73
ENDBRANCH  34  35
ENDBRANCH  26  29
ENDBRANCH  24  25
ENDBRANCH   1  24
TORSDOF 12
ENDMDL
MODEL 2
REMARK VINA RESULT:     -11.5      2.699      7.746
REMARK SMILES Cc1cc(Br)cc2c1O[C@H](C(F)(F)F)C(C(=O)NCCCCNC(=O)c1ccc(-c3c4nc(c(-c5ccccc5)c5ccc([nH]5)c(-c5ccccc5)c5nc(c(-c6ccccc6)c6ccc3[nH]6)C=C5)C=C4)cc1)=C2
REMARK SMILES IDX 21 1 20 2 19 3 18 4 16 5 17 6 15 8 1 9 2 10 3 11 8 12 4 13
REMARK SMILES IDX 7 14 9 15 5 16 6 17 74 18 10 19 11 20 12 21 13 22 14 23
REMARK SMILES IDX 22 24 23 25 24 26 25 28 26 29 27 30 73 31 28 32 72 33 29 34
REMARK SMILES IDX 30 35 31 36 66 37 32 38 71 39 65 40 67 41 33 42 70 43 64 44
REMARK SMILES IDX 63 45 34 47 56 48 41 49 55 50 42 51 45 52 54 53 68 54 43 55
REMARK SMILES IDX 44 56 53 58 69 59 46 60 35 61 36 62 40 63 37 64 39 65 38 66
REMARK SMILES IDX 57 67 58 68 62 69 59 70 61 71 60 72 47 73 48 74 52 75 49 76
REMARK SMILES IDX 51 77 50 78
REMARK H PARENT 18 7 23 27 67 46 45 57
REMARK Flexibility Score: inf
ROOT
ATOM      1  C   UNL A   1      36.127  23.482  26.065  1.00  0.00     0.023 C 
ENDROOT
BRANCH   1   2
ATOM      2  C   UNL A   1      35.198  22.269  25.988  1.00  0.00     0.023 C 
BRANCH   2   3
ATOM      3  C   UNL A   1      33.860  22.548  25.308  1.00  0.00     0.116 C 
BRANCH   3   4
ATOM      4  N   UNL A   1      34.013  22.776  23.882  1.00  0.00    -0.352 N 
ATOM      5  C   UNL A   1      33.718  23.763  23.003  1.00  0.00     0.251 C 
ATOM      6  O   UNL A   1      34.026  23.524  21.830  1.00  0.00    -0.270 OA
ATOM      7  H   UNL A   1      34.443  22.010  23.437  1.00  0.00     0.163 HD
BRANCH   5   8
ATOM      8  C   UNL A   1      33.072  25.063  23.349  1.00  0.00     0.067 C 
ATOM      9  C   UNL A   1      30.295  29.383  23.530  1.00  0.00     0.048 C 
ATOM     10  C   UNL A   1      31.507  28.866  24.251  1.00  0.00    -0.007 A 
ATOM     11  C   UNL A   1      32.107  29.624  25.264  1.00  0.00     0.023 A 
ATOM     12  C   UNL A   1      32.065  27.623  23.917  1.00  0.00     0.130 A 
ATOM     13  C   UNL A   1      33.241  29.143  25.921  1.00  0.00     0.019 A 
ATOM     14  C   UNL A   1      33.206  27.145  24.571  1.00  0.00     0.019 A 
ATOM     15  O   UNL A   1      31.479  26.924  22.898  1.00  0.00    -0.475 OA
ATOM     16  Br  UNL A   1      34.040  30.183  27.284  1.00  0.00    -0.051 Br
ATOM     17  C   UNL A   1      33.795  27.911  25.579  1.00  0.00     0.027 A 
ATOM     18  C   UNL A   1      33.783  25.868  24.161  1.00  0.00     0.025 C 
ATOM     19  C   UNL A   1      31.705  25.487  22.893  1.00  0.00     0.314 C 
BRANCH  19  20
ATOM     20  C   UNL A   1      30.574  24.787  23.671  1.00  0.00     0.429 C 
ATOM     21  F   UNL A   1      30.955  24.556  24.952  1.00  0.00    -0.167 F 
ATOM     22  F   UNL A   1      29.451  25.540  23.737  1.00  0.00    -0.167 F 
ATOM     23  F   UNL A   1      30.223  23.600  23.132  1.00  0.00    -0.167 F 
ENDBRANCH  19  20
ENDBRANCH   5   8
ENDBRANCH   3   4
ENDBRANCH   2   3
ENDBRANCH   1   2
BRANCH   1  24
ATOM     24  C   UNL A   1      37.261  23.510  25.040  1.00  0.00     0.116 C 
BRANCH  24  25
ATOM     25  N   UNL A   1      38.381  22.642  25.372  1.00  0.00    -0.352 N 
ATOM     26  C   UNL A   1      39.468  22.935  26.162  1.00  0.00     0.251 C 
ATOM     27  H   UNL A   1      38.359  21.737  24.985  1.00  0.00     0.163 HD
ATOM     28  O   UNL A   1      40.379  22.128  26.311  1.00  0.00    -0.269 OA
BRANCH  26  29
ATOM     29  C   UNL A   1      39.542  24.268  26.786  1.00  0.00     0.039 A 
ATOM     30  C   UNL A   1      39.025  24.433  28.073  1.00  0.00     0.014 A 
ATOM     31  C   UNL A   1      40.204  25.314  26.138  1.00  0.00     0.014 A 
ATOM     32  C   UNL A   1      39.247  25.633  28.747  1.00  0.00     0.010 A 
ATOM     33  C   UNL A   1      40.472  26.488  26.833  1.00  0.00     0.010 A 
ATOM     34  C   UNL A   1      40.008  26.650  28.147  1.00  0.00    -0.014 A 
BRANCH  34  35
ATOM     35  C   UNL A   1      40.353  27.880  28.896  1.00  0.00     0.031 A 
ATOM     36  C   UNL A   1      41.692  28.011  29.558  1.00  0.00     0.074 A 
ATOM     37  C   UNL A   1      39.436  28.859  29.018  1.00  0.00     0.049 A 
ATOM     38  N   UNL A   1      42.164  29.001  30.271  1.00  0.00    -0.248 NA
ATOM     39  C   UNL A   1      42.616  26.873  29.416  1.00  0.00     0.031 C 
ATOM     40  C   UNL A   1      38.086  28.834  28.452  1.00  0.00     0.029 A 
ATOM     41  N   UNL A   1      39.506  30.071  29.657  1.00  0.00    -0.354 N 
ATOM     42  C   UNL A   1      43.433  28.603  30.669  1.00  0.00     0.074 A 
ATOM     43  C   UNL A   1      43.640  27.265  30.159  1.00  0.00     0.031 C 
ATOM     44  C   UNL A   1      37.469  29.993  28.734  1.00  0.00     0.029 A 
ATOM     45  C   UNL A   1      38.368  30.828  29.524  1.00  0.00     0.049 A 
ATOM     46  H   UNL A   1      40.296  30.370  30.162  1.00  0.00     0.167 HD
ATOM     47  C   UNL A   1      44.352  29.299  31.377  1.00  0.00     0.031 A 
ATOM     48  C   UNL A   1      38.085  32.063  29.978  1.00  0.00     0.031 A 
ATOM     49  C   UNL A   1      44.153  30.633  31.874  1.00  0.00     0.049 A 
ATOM     50  C   UNL A   1      39.119  32.812  30.770  1.00  0.00     0.074 A 
ATOM     51  C   UNL A   1      45.041  31.435  32.568  1.00  0.00     0.029 A 
ATOM     52  N   UNL A   1      42.983  31.360  31.728  1.00  0.00    -0.354 N 
ATOM     53  N   UNL A   1      40.331  32.440  31.098  1.00  0.00    -0.248 NA
ATOM     54  C   UNL A   1      38.746  34.152  31.245  1.00  0.00     0.031 C 
ATOM     55  C   UNL A   1      44.397  32.640  32.867  1.00  0.00     0.029 A 
ATOM     56  C   UNL A   1      43.122  32.599  32.328  1.00  0.00     0.049 A 
ATOM     57  H   UNL A   1      42.174  31.042  31.265  1.00  0.00     0.167 HD
ATOM     58  C   UNL A   1      40.874  33.506  31.802  1.00  0.00     0.074 A 
ATOM     59  C   UNL A   1      39.863  34.543  31.844  1.00  0.00     0.031 C 
ATOM     60  C   UNL A   1      42.104  33.616  32.361  1.00  0.00     0.031 A 
BRANCH  47  61
ATOM     61  C   UNL A   1      45.664  28.622  31.645  1.00  0.00    -0.014 A 
ATOM     62  C   UNL A   1      46.730  28.736  30.738  1.00  0.00     0.009 A 
ATOM     63  C   UNL A   1      45.848  27.886  32.825  1.00  0.00     0.009 A 
ATOM     64  C   UNL A   1      47.944  28.097  30.992  1.00  0.00     0.001 A 
ATOM     65  C   UNL A   1      47.072  27.268  33.087  1.00  0.00     0.001 A 
ATOM     66  C   UNL A   1      48.115  27.367  32.167  1.00  0.00     0.000 A 
ENDBRANCH  47  61
BRANCH  48  67
ATOM     67  C   UNL A   1      36.779  32.687  29.652  1.00  0.00    -0.014 A 
ATOM     68  C   UNL A   1      36.587  33.308  28.409  1.00  0.00     0.009 A 
ATOM     69  C   UNL A   1      35.715  32.649  30.566  1.00  0.00     0.009 A 
ATOM     70  C   UNL A   1      35.358  33.890  28.090  1.00  0.00     0.001 A 
ATOM     71  C   UNL A   1      34.482  33.216  30.237  1.00  0.00     0.001 A 
ATOM     72  C   UNL A   1      34.306  33.840  29.003  1.00  0.00     0.000 A 
ENDBRANCH  48  67
BRANCH  60  73
ATOM     73  C   UNL A   1      42.435  34.905  33.050  1.00  0.00    -0.014 A 
ATOM     74  C   UNL A   1      43.201  35.890  32.410  1.00  0.00     0.009 A 
ATOM     75  C   UNL A   1      41.913  35.165  34.327  1.00  0.00     0.009 A 
ATOM     76  C   UNL A   1      43.451  37.109  33.043  1.00  0.00     0.001 A 
ATOM     77  C   UNL A   1      42.149  36.391  34.950  1.00  0.00     0.001 A 
ATOM     78  C   UNL A   1      42.921  37.360  34.309  1.00  0.00     0.000 A 
ENDBRANCH  60  73
ENDBRANCH  34  35
ENDBRANCH  26  29
ENDBRANCH  24  25
ENDBRANCH   1  24
TORSDOF 12
ENDMDL
MODEL 3
REMARK VINA RESULT:     -11.4      2.742      7.492
REMARK SMILES Cc1cc(Br)cc2c1O[C@H](C(F)(F)F)C(C(=O)NCCCCNC(=O)c1ccc(-c3c4nc(c(-c5ccccc5)c5ccc([nH]5)c(-c5ccccc5)c5nc(c(-c6ccccc6)c6ccc3[nH]6)C=C5)C=C4)cc1)=C2
REMARK SMILES IDX 21 1 20 2 19 3 18 4 16 5 17 6 15 8 1 9 2 10 3 11 8 12 4 13
REMARK SMILES IDX 7 14 9 15 5 16 6 17 74 18 10 19 11 20 12 21 13 22 14 23
REMARK SMILES IDX 22 24 23 25 24 26 25 28 26 29 27 30 73 31 28 32 72 33 29 34
REMARK SMILES IDX 30 35 31 36 66 37 32 38 71 39 65 40 67 41 33 42 70 43 64 44
REMARK SMILES IDX 63 45 34 47 56 48 41 49 55 50 42 51 45 52 54 53 68 54 43 55
REMARK SMILES IDX 44 56 53 58 69 59 46 60 35 61 36 62 40 63 37 64 39 65 38 66
REMARK SMILES IDX 57 67 58 68 62 69 59 70 61 71 60 72 47 73 48 74 52 75 49 76
REMARK SMILES IDX 51 77 50 78
REMARK H PARENT 18 7 23 27 67 46 45 57
REMARK Flexibility Score: inf
ROOT
ATOM      1  C   UNL A   1      35.941  23.184  26.097  1.00  0.00     0.023 C 
ENDROOT
BRANCH   1   2
ATOM      2  C   UNL A   1      35.059  22.064  25.538  1.00  0.00     0.023 C 
BRANCH   2   3
ATOM      3  C   UNL A   1      33.732  22.545  24.957  1.00  0.00     0.116 C 
BRANCH   3   4
ATOM      4  N   UNL A   1      33.833  22.832  23.538  1.00  0.00    -0.352 N 
ATOM      5  C   UNL A   1      33.520  23.860  22.714  1.00  0.00     0.251 C 
ATOM      6  O   UNL A   1      33.778  23.668  21.521  1.00  0.00    -0.270 OA
ATOM      7  H   UNL A   1      34.234  22.080  23.044  1.00  0.00     0.163 HD
BRANCH   5   8
ATOM      8  C   UNL A   1      32.908  25.153  23.140  1.00  0.00     0.067 C 
ATOM      9  C   UNL A   1      30.207  29.499  23.613  1.00  0.00     0.048 C 
ATOM     10  C   UNL A   1      31.438  28.934  24.264  1.00  0.00    -0.007 A 
ATOM     11  C   UNL A   1      32.088  29.640  25.283  1.00  0.00     0.023 A 
ATOM     12  C   UNL A   1      31.963  27.700  23.856  1.00  0.00     0.130 A 
ATOM     13  C   UNL A   1      33.239  29.116  25.874  1.00  0.00     0.019 A 
ATOM     14  C   UNL A   1      33.121  27.178  24.443  1.00  0.00     0.019 A 
ATOM     15  O   UNL A   1      31.327  27.053  22.831  1.00  0.00    -0.475 OA
ATOM     16  Br  UNL A   1      34.107  30.085  27.247  1.00  0.00    -0.051 Br
ATOM     17  C   UNL A   1      33.761  27.892  25.458  1.00  0.00     0.027 A 
ATOM     18  C   UNL A   1      33.662  25.913  23.956  1.00  0.00     0.025 C 
ATOM     19  C   UNL A   1      31.531  25.615  22.757  1.00  0.00     0.314 C 
BRANCH  19  20
ATOM     20  C   UNL A   1      30.421  24.898  23.548  1.00  0.00     0.429 C 
ATOM     21  F   UNL A   1      30.829  24.654  24.819  1.00  0.00    -0.167 F 
ATOM     22  F   UNL A   1      29.293  25.641  23.645  1.00  0.00    -0.167 F 
ATOM     23  F   UNL A   1      30.067  23.714  23.002  1.00  0.00    -0.167 F 
ENDBRANCH  19  20
ENDBRANCH   5   8
ENDBRANCH   3   4
ENDBRANCH   2   3
ENDBRANCH   1   2
BRANCH   1  24
ATOM     24  C   UNL A   1      37.159  23.548  25.248  1.00  0.00     0.116 C 
BRANCH  24  25
ATOM     25  N   UNL A   1      38.316  22.694  25.476  1.00  0.00    -0.352 N 
ATOM     26  C   UNL A   1      39.462  22.998  26.173  1.00  0.00     0.251 C 
ATOM     27  H   UNL A   1      38.274  21.792  25.084  1.00  0.00     0.163 HD
ATOM     28  O   UNL A   1      40.394  22.204  26.236  1.00  0.00    -0.269 OA
BRANCH  26  29
ATOM     29  C   UNL A   1      39.570  24.327  26.801  1.00  0.00     0.039 A 
ATOM     30  C   UNL A   1      39.066  24.499  28.092  1.00  0.00     0.014 A 
ATOM     31  C   UNL A   1      40.248  25.360  26.151  1.00  0.00     0.014 A 
ATOM     32  C   UNL A   1      39.319  25.692  28.768  1.00  0.00     0.010 A 
ATOM     33  C   UNL A   1      40.547  26.526  26.847  1.00  0.00     0.010 A 
ATOM     34  C   UNL A   1      40.097  26.694  28.165  1.00  0.00    -0.014 A 
BRANCH  34  35
ATOM     35  C   UNL A   1      40.474  27.914  28.916  1.00  0.00     0.031 A 
ATOM     36  C   UNL A   1      39.507  29.053  29.039  1.00  0.00     0.074 A 
ATOM     37  C   UNL A   1      41.709  28.010  29.445  1.00  0.00     0.049 A 
ATOM     38  N   UNL A   1      39.665  30.206  29.638  1.00  0.00    -0.248 NA
ATOM     39  C   UNL A   1      38.197  28.885  28.388  1.00  0.00     0.031 C 
ATOM     40  C   UNL A   1      42.752  26.986  29.359  1.00  0.00     0.029 A 
ATOM     41  N   UNL A   1      42.294  29.021  30.165  1.00  0.00    -0.354 N 
ATOM     42  C   UNL A   1      38.482  30.901  29.431  1.00  0.00     0.074 A 
ATOM     43  C   UNL A   1      37.634  30.063  28.612  1.00  0.00     0.031 C 
ATOM     44  C   UNL A   1      43.834  27.403  30.036  1.00  0.00     0.029 A 
ATOM     45  C   UNL A   1      43.572  28.733  30.577  1.00  0.00     0.049 A 
ATOM     46  H   UNL A   1      41.841  29.871  30.367  1.00  0.00     0.167 HD
ATOM     47  C   UNL A   1      38.126  32.119  29.899  1.00  0.00     0.031 A 
ATOM     48  C   UNL A   1      44.432  29.456  31.317  1.00  0.00     0.031 A 
ATOM     49  C   UNL A   1      38.963  32.948  30.722  1.00  0.00     0.049 A 
ATOM     50  C   UNL A   1      44.017  30.809  31.818  1.00  0.00     0.074 A 
ATOM     51  C   UNL A   1      38.674  34.181  31.278  1.00  0.00     0.029 A 
ATOM     52  N   UNL A   1      40.254  32.625  31.107  1.00  0.00    -0.354 N 
ATOM     53  N   UNL A   1      42.878  31.433  31.651  1.00  0.00    -0.248 NA
ATOM     54  C   UNL A   1      45.004  31.553  32.613  1.00  0.00     0.031 C 
ATOM     55  C   UNL A   1      39.803  34.618  31.978  1.00  0.00     0.029 A 
ATOM     56  C   UNL A   1      40.780  33.640  31.886  1.00  0.00     0.049 A 
ATOM     57  H   UNL A   1      40.726  31.795  30.864  1.00  0.00     0.167 HD
ATOM     58  C   UNL A   1      43.002  32.635  32.336  1.00  0.00     0.074 A 
ATOM     59  C   UNL A   1      44.324  32.647  32.928  1.00  0.00     0.031 C 
ATOM     60  C   UNL A   1      42.098  33.635  32.465  1.00  0.00     0.031 A 
BRANCH  47  61
ATOM     61  C   UNL A   1      36.760  32.620  29.532  1.00  0.00    -0.014 A 
ATOM     62  C   UNL A   1      36.543  33.289  28.317  1.00  0.00     0.009 A 
ATOM     63  C   UNL A   1      35.675  32.400  30.394  1.00  0.00     0.009 A 
ATOM     64  C   UNL A   1      35.270  33.758  27.987  1.00  0.00     0.001 A 
ATOM     65  C   UNL A   1      34.399  32.849  30.050  1.00  0.00     0.001 A 
ATOM     66  C   UNL A   1      34.200  33.535  28.852  1.00  0.00     0.000 A 
ENDBRANCH  47  61
BRANCH  48  67
ATOM     67  C   UNL A   1      45.758  28.889  31.670  1.00  0.00    -0.014 A 
ATOM     68  C   UNL A   1      46.864  29.121  30.840  1.00  0.00     0.009 A 
ATOM     69  C   UNL A   1      45.930  28.135  32.840  1.00  0.00     0.009 A 
ATOM     70  C   UNL A   1      48.117  28.599  31.168  1.00  0.00     0.001 A 
ATOM     71  C   UNL A   1      47.188  27.629  33.175  1.00  0.00     0.001 A 
ATOM     72  C   UNL A   1      48.278  27.858  32.337  1.00  0.00     0.000 A 
ENDBRANCH  48  67
BRANCH  60  73
ATOM     73  C   UNL A   1      42.496  34.822  33.291  1.00  0.00    -0.014 A 
ATOM     74  C   UNL A   1      42.292  34.837  34.678  1.00  0.00     0.009 A 
ATOM     75  C   UNL A   1      43.148  35.906  32.682  1.00  0.00     0.009 A 
ATOM     76  C   UNL A   1      42.722  35.924  35.440  1.00  0.00     0.001 A 
ATOM     77  C   UNL A   1      43.593  36.982  33.448  1.00  0.00     0.001 A 
ATOM     78  C   UNL A   1      43.376  36.993  34.826  1.00  0.00     0.000 A 
ENDBRANCH  60  73
ENDBRANCH  34  35
ENDBRANCH  26  29
ENDBRANCH  24  25
ENDBRANCH   1  24
TORSDOF 12
ENDMDL
