MODEL 1
REMARK VINA RESULT:     -10.8      0.000      0.000
REMARK SMILES Cc1ccc(F)cc1NC(=O)CSCCC(=O)NCCCCNC(=O)c1ccc(-c2c3nc(c(-c4ccccc4)c4ccc([nH]4)c(-c4ccccc4)c4nc(c(-c5ccccc5)c5ccc2[nH]5)C=C4)C=C3)cc1
REMARK SMILES IDX 19 1 18 2 16 3 17 4 15 6 14 7 13 8 12 9 10 10 9 11 11 13
REMARK SMILES IDX 8 14 1 15 2 16 3 17 4 18 7 19 5 20 6 21 20 22 21 23 22 24
REMARK SMILES IDX 23 25 24 26 25 28 26 29 27 30 73 31 28 32 72 33 29 34 30 35
REMARK SMILES IDX 31 36 66 37 32 38 71 39 65 40 67 41 33 42 70 43 64 44 63 45
REMARK SMILES IDX 34 47 56 48 41 49 55 50 42 51 45 52 54 53 68 54 43 55 44 56
REMARK SMILES IDX 53 58 69 59 46 60 35 61 36 62 40 63 37 64 39 65 38 66 57 67
REMARK SMILES IDX 58 68 62 69 59 70 61 71 60 72 47 73 48 74 52 75 49 76 51 77
REMARK SMILES IDX 50 78
REMARK H PARENT 18 5 9 12 23 27 67 46 45 57
REMARK Flexibility Score: inf
ROOT
ATOM      1  C   UNL A   1      35.508  21.136  25.254  1.00  0.00     0.116 C 
ENDROOT
BRANCH   1   2
ATOM      2  N   UNL A   1      34.767  19.907  25.037  1.00  0.00    -0.356 N 
ATOM      3  C   UNL A   1      33.430  19.688  24.906  1.00  0.00     0.220 C 
ATOM      4  O   UNL A   1      33.052  18.536  24.686  1.00  0.00    -0.275 OA
ATOM      5  H   UNL A   1      35.323  19.097  24.974  1.00  0.00     0.163 HD
BRANCH   3   6
ATOM      6  C   UNL A   1      32.442  20.823  25.033  1.00  0.00     0.111 C 
BRANCH   6   7
ATOM      7  C   UNL A   1      32.277  21.605  23.731  1.00  0.00     0.080 C 
BRANCH   7   8
ATOM      8  S   UNL A   1      31.547  23.278  23.896  1.00  0.00    -0.151 SA
BRANCH   8   9
ATOM      9  C   UNL A   1      32.423  23.885  25.368  1.00  0.00     0.169 C 
BRANCH   9  10
ATOM     10  C   UNL A   1      31.506  24.399  26.449  1.00  0.00     0.234 C 
ATOM     11  N   UNL A   1      30.905  25.617  26.468  1.00  0.00    -0.325 N 
ATOM     12  H   UNL A   1      30.336  25.727  27.263  1.00  0.00     0.169 HD
ATOM     13  O   UNL A   1      31.286  23.684  27.438  1.00  0.00    -0.274 OA
BRANCH  11  14
ATOM     14  C   UNL A   1      30.880  26.766  25.652  1.00  0.00     0.047 A 
ATOM     15  C   UNL A   1      32.244  28.061  27.435  1.00  0.00     0.046 C 
ATOM     16  C   UNL A   1      31.545  27.932  26.104  1.00  0.00    -0.027 A 
ATOM     17  C   UNL A   1      31.527  29.102  25.312  1.00  0.00     0.008 A 
ATOM     18  C   UNL A   1      30.880  29.125  24.083  1.00  0.00     0.039 A 
ATOM     19  C   UNL A   1      30.255  26.810  24.406  1.00  0.00     0.065 A 
ATOM     20  C   UNL A   1      30.256  27.975  23.639  1.00  0.00     0.125 A 
ATOM     21  F   UNL A   1      29.642  27.975  22.447  1.00  0.00    -0.207 F 
ENDBRANCH  11  14
ENDBRANCH   9  10
ENDBRANCH   8   9
ENDBRANCH   7   8
ENDBRANCH   6   7
ENDBRANCH   3   6
ENDBRANCH   1   2
BRANCH   1  22
ATOM     22  C   UNL A   1      36.836  21.174  24.499  1.00  0.00     0.023 C 
BRANCH  22  23
ATOM     23  C   UNL A   1      37.795  20.022  24.832  1.00  0.00     0.023 C 
BRANCH  23  24
ATOM     24  C   UNL A   1      38.890  20.383  25.822  1.00  0.00     0.116 C 
BRANCH  24  25
ATOM     25  N   UNL A   1      39.978  19.417  25.810  1.00  0.00    -0.352 N 
ATOM     26  C   UNL A   1      41.317  19.600  26.070  1.00  0.00     0.251 C 
ATOM     27  H   UNL A   1      39.719  18.495  25.582  1.00  0.00     0.163 HD
ATOM     28  O   UNL A   1      42.115  18.699  25.848  1.00  0.00    -0.269 OA
BRANCH  26  29
ATOM     29  C   UNL A   1      41.796  20.901  26.586  1.00  0.00     0.039 A 
ATOM     30  C   UNL A   1      42.300  21.842  25.682  1.00  0.00     0.014 A 
ATOM     31  C   UNL A   1      41.738  21.199  27.949  1.00  0.00     0.014 A 
ATOM     32  C   UNL A   1      42.674  23.107  26.137  1.00  0.00     0.010 A 
ATOM     33  C   UNL A   1      42.022  22.486  28.386  1.00  0.00     0.010 A 
ATOM     34  C   UNL A   1      42.493  23.454  27.486  1.00  0.00    -0.014 A 
BRANCH  34  35
ATOM     35  C   UNL A   1      42.777  24.823  27.982  1.00  0.00     0.031 A 
ATOM     36  C   UNL A   1      44.167  25.187  28.425  1.00  0.00     0.074 A 
ATOM     37  C   UNL A   1      41.765  25.701  28.119  1.00  0.00     0.049 A 
ATOM     38  N   UNL A   1      44.591  26.288  28.988  1.00  0.00    -0.248 NA
ATOM     39  C   UNL A   1      45.212  24.165  28.239  1.00  0.00     0.031 C 
ATOM     40  C   UNL A   1      40.366  25.447  27.763  1.00  0.00     0.029 A 
ATOM     41  N   UNL A   1      41.753  26.982  28.608  1.00  0.00    -0.354 N 
ATOM     42  C   UNL A   1      45.941  26.083  29.244  1.00  0.00     0.074 A 
ATOM     43  C   UNL A   1      46.254  24.736  28.825  1.00  0.00     0.031 C 
ATOM     44  C   UNL A   1      39.639  26.545  28.023  1.00  0.00     0.029 A 
ATOM     45  C   UNL A   1      40.506  27.560  28.611  1.00  0.00     0.049 A 
ATOM     46  H   UNL A   1      42.561  27.445  28.928  1.00  0.00     0.167 HD
ATOM     47  C   UNL A   1      46.843  26.947  29.767  1.00  0.00     0.031 A 
ATOM     48  C   UNL A   1      40.103  28.765  29.055  1.00  0.00     0.031 A 
ATOM     49  C   UNL A   1      46.525  28.290  30.172  1.00  0.00     0.049 A 
ATOM     50  C   UNL A   1      41.119  29.695  29.656  1.00  0.00     0.074 A 
ATOM     51  C   UNL A   1      47.377  29.269  30.649  1.00  0.00     0.029 A 
ATOM     52  N   UNL A   1      45.252  28.838  30.152  1.00  0.00    -0.354 N 
ATOM     53  N   UNL A   1      42.408  29.517  29.816  1.00  0.00    -0.248 NA
ATOM     54  C   UNL A   1      40.626  30.995  30.136  1.00  0.00     0.031 C 
ATOM     55  C   UNL A   1      46.609  30.390  30.979  1.00  0.00     0.029 A 
ATOM     56  C   UNL A   1      45.289  30.130  30.646  1.00  0.00     0.049 A 
ATOM     57  H   UNL A   1      44.442  28.377  29.833  1.00  0.00     0.167 HD
ATOM     58  C   UNL A   1      42.883  30.686  30.396  1.00  0.00     0.074 A 
ATOM     59  C   UNL A   1      41.748  31.575  30.536  1.00  0.00     0.031 C 
ATOM     60  C   UNL A   1      44.146  30.995  30.781  1.00  0.00     0.031 A 
BRANCH  47  61
ATOM     61  C   UNL A   1      48.255  26.460  29.939  1.00  0.00    -0.014 A 
ATOM     62  C   UNL A   1      49.224  26.654  28.941  1.00  0.00     0.009 A 
ATOM     63  C   UNL A   1      48.635  25.832  31.136  1.00  0.00     0.009 A 
ATOM     64  C   UNL A   1      50.530  26.196  29.122  1.00  0.00     0.001 A 
ATOM     65  C   UNL A   1      49.949  25.403  31.327  1.00  0.00     0.001 A 
ATOM     66  C   UNL A   1      50.894  25.576  30.316  1.00  0.00     0.000 A 
ENDBRANCH  47  61
BRANCH  48  67
ATOM     67  C   UNL A   1      38.672  29.159  28.955  1.00  0.00    -0.014 A 
ATOM     68  C   UNL A   1      38.157  29.684  27.761  1.00  0.00     0.009 A 
ATOM     69  C   UNL A   1      37.812  29.018  30.057  1.00  0.00     0.009 A 
ATOM     70  C   UNL A   1      36.821  30.084  27.679  1.00  0.00     0.001 A 
ATOM     71  C   UNL A   1      36.468  29.388  29.962  1.00  0.00     0.001 A 
ATOM     72  C   UNL A   1      35.977  29.930  28.777  1.00  0.00     0.000 A 
ENDBRANCH  48  67
BRANCH  60  73
ATOM     73  C   UNL A   1      44.369  32.358  31.375  1.00  0.00    -0.014 A 
ATOM     74  C   UNL A   1      44.651  33.465  30.562  1.00  0.00     0.009 A 
ATOM     75  C   UNL A   1      44.234  32.544  32.759  1.00  0.00     0.009 A 
ATOM     76  C   UNL A   1      44.817  34.731  31.128  1.00  0.00     0.001 A 
ATOM     77  C   UNL A   1      44.368  33.815  33.318  1.00  0.00     0.001 A 
ATOM     78  C   UNL A   1      44.667  34.906  32.503  1.00  0.00     0.000 A 
ENDBRANCH  60  73
ENDBRANCH  34  35
ENDBRANCH  26  29
ENDBRANCH  24  25
ENDBRANCH  23  24
ENDBRANCH  22  23
ENDBRANCH   1  22
TORSDOF 16
ENDMDL
MODEL 2
REMARK VINA RESULT:     -10.6      1.579      2.019
REMARK SMILES Cc1ccc(F)cc1NC(=O)CSCCC(=O)NCCCCNC(=O)c1ccc(-c2c3nc(c(-c4ccccc4)c4ccc([nH]4)c(-c4ccccc4)c4nc(c(-c5ccccc5)c5ccc2[nH]5)C=C4)C=C3)cc1
REMARK SMILES IDX 19 1 18 2 16 3 17 4 15 6 14 7 13 8 12 9 10 10 9 11 11 13
REMARK SMILES IDX 8 14 1 15 2 16 3 17 4 18 7 19 5 20 6 21 20 22 21 23 22 24
REMARK SMILES IDX 23 25 24 26 25 28 26 29 27 30 73 31 28 32 72 33 29 34 30 35
REMARK SMILES IDX 31 36 66 37 32 38 71 39 65 40 67 41 33 42 70 43 64 44 63 45
REMARK SMILES IDX 34 47 56 48 41 49 55 50 42 51 45 52 54 53 68 54 43 55 44 56
REMARK SMILES IDX 53 58 69 59 46 60 35 61 36 62 40 63 37 64 39 65 38 66 57 67
REMARK SMILES IDX 58 68 62 69 59 70 61 71 60 72 47 73 48 74 52 75 49 76 51 77
REMARK SMILES IDX 50 78
REMARK H PARENT 18 5 9 12 23 27 67 46 45 57
REMARK Flexibility Score: inf
ROOT
ATOM      1  C   UNL A   1      35.850  21.263  25.509  1.00  0.00     0.116 C 
ENDROOT
BRANCH   1   2
ATOM      2  N   UNL A   1      34.872  20.228  25.230  1.00  0.00    -0.356 N 
ATOM      3  C   UNL A   1      33.578  20.316  24.816  1.00  0.00     0.220 C 
ATOM      4  O   UNL A   1      32.965  19.268  24.610  1.00  0.00    -0.275 OA
ATOM      5  H   UNL A   1      35.198  19.308  25.361  1.00  0.00     0.163 HD
BRANCH   3   6
ATOM      6  C   UNL A   1      32.917  21.660  24.620  1.00  0.00     0.111 C 
BRANCH   6   7
ATOM      7  C   UNL A   1      32.609  21.954  23.153  1.00  0.00     0.080 C 
BRANCH   7   8
ATOM      8  S   UNL A   1      33.601  23.291  22.386  1.00  0.00    -0.151 SA
BRANCH   8   9
ATOM      9  C   UNL A   1      32.400  24.656  22.406  1.00  0.00     0.169 C 
BRANCH   9  10
ATOM     10  C   UNL A   1      32.814  25.838  21.566  1.00  0.00     0.234 C 
ATOM     11  N   UNL A   1      32.949  27.116  22.006  1.00  0.00    -0.325 N 
ATOM     12  H   UNL A   1      33.247  27.717  21.284  1.00  0.00     0.169 HD
ATOM     13  O   UNL A   1      33.026  25.668  20.356  1.00  0.00    -0.274 OA
BRANCH  11  14
ATOM     14  C   UNL A   1      32.775  27.812  23.218  1.00  0.00     0.047 A 
ATOM     15  C   UNL A   1      30.536  28.780  22.341  1.00  0.00     0.046 C 
ATOM     16  C   UNL A   1      31.604  28.591  23.391  1.00  0.00    -0.027 A 
ATOM     17  C   UNL A   1      31.409  29.308  24.593  1.00  0.00     0.008 A 
ATOM     18  C   UNL A   1      32.341  29.250  25.621  1.00  0.00     0.039 A 
ATOM     19  C   UNL A   1      33.685  27.756  24.274  1.00  0.00     0.065 A 
ATOM     20  C   UNL A   1      33.468  28.467  25.453  1.00  0.00     0.125 A 
ATOM     21  F   UNL A   1      34.368  28.386  26.443  1.00  0.00    -0.207 F 
ENDBRANCH  11  14
ENDBRANCH   9  10
ENDBRANCH   8   9
ENDBRANCH   7   8
ENDBRANCH   6   7
ENDBRANCH   3   6
ENDBRANCH   1   2
BRANCH   1  22
ATOM     22  C   UNL A   1      37.082  21.180  24.609  1.00  0.00     0.023 C 
BRANCH  22  23
ATOM     23  C   UNL A   1      38.023  20.007  24.917  1.00  0.00     0.023 C 
BRANCH  23  24
ATOM     24  C   UNL A   1      39.093  20.316  25.951  1.00  0.00     0.116 C 
BRANCH  24  25
ATOM     25  N   UNL A   1      40.208  19.385  25.879  1.00  0.00    -0.352 N 
ATOM     26  C   UNL A   1      41.553  19.610  26.063  1.00  0.00     0.251 C 
ATOM     27  H   UNL A   1      39.965  18.454  25.667  1.00  0.00     0.163 HD
ATOM     28  O   UNL A   1      42.365  18.733  25.799  1.00  0.00    -0.269 OA
BRANCH  26  29
ATOM     29  C   UNL A   1      42.020  20.927  26.550  1.00  0.00     0.039 A 
ATOM     30  C   UNL A   1      42.381  21.903  25.615  1.00  0.00     0.014 A 
ATOM     31  C   UNL A   1      42.090  21.204  27.917  1.00  0.00     0.014 A 
ATOM     32  C   UNL A   1      42.738  23.178  26.052  1.00  0.00     0.010 A 
ATOM     33  C   UNL A   1      42.356  22.498  28.345  1.00  0.00     0.010 A 
ATOM     34  C   UNL A   1      42.682  23.499  27.419  1.00  0.00    -0.014 A 
BRANCH  34  35
ATOM     35  C   UNL A   1      42.949  24.874  27.907  1.00  0.00     0.031 A 
ATOM     36  C   UNL A   1      44.341  25.265  28.322  1.00  0.00     0.074 A 
ATOM     37  C   UNL A   1      41.924  25.733  28.061  1.00  0.00     0.049 A 
ATOM     38  N   UNL A   1      44.755  26.375  28.875  1.00  0.00    -0.248 NA
ATOM     39  C   UNL A   1      45.401  24.263  28.118  1.00  0.00     0.031 C 
ATOM     40  C   UNL A   1      40.524  25.452  27.734  1.00  0.00     0.029 A 
ATOM     41  N   UNL A   1      41.898  27.015  28.549  1.00  0.00    -0.354 N 
ATOM     42  C   UNL A   1      46.113  26.197  29.105  1.00  0.00     0.074 A 
ATOM     43  C   UNL A   1      46.444  24.855  28.682  1.00  0.00     0.031 C 
ATOM     44  C   UNL A   1      39.781  26.537  28.006  1.00  0.00     0.029 A 
ATOM     45  C   UNL A   1      40.640  27.569  28.575  1.00  0.00     0.049 A 
ATOM     46  H   UNL A   1      42.703  27.493  28.853  1.00  0.00     0.167 HD
ATOM     47  C   UNL A   1      47.009  27.079  29.609  1.00  0.00     0.031 A 
ATOM     48  C   UNL A   1      40.223  28.768  29.025  1.00  0.00     0.031 A 
ATOM     49  C   UNL A   1      46.674  28.416  30.018  1.00  0.00     0.049 A 
ATOM     50  C   UNL A   1      41.232  29.718  29.604  1.00  0.00     0.074 A 
ATOM     51  C   UNL A   1      47.516  29.412  30.476  1.00  0.00     0.029 A 
ATOM     52  N   UNL A   1      45.390  28.940  30.022  1.00  0.00    -0.354 N 
ATOM     53  N   UNL A   1      42.527  29.565  29.740  1.00  0.00    -0.248 NA
ATOM     54  C   UNL A   1      40.725  31.008  30.091  1.00  0.00     0.031 C 
ATOM     55  C   UNL A   1      46.733  30.519  30.820  1.00  0.00     0.029 A 
ATOM     56  C   UNL A   1      45.412  30.234  30.513  1.00  0.00     0.049 A 
ATOM     57  H   UNL A   1      44.583  28.463  29.720  1.00  0.00     0.167 HD
ATOM     58  C   UNL A   1      42.992  30.744  30.308  1.00  0.00     0.074 A 
ATOM     59  C   UNL A   1      41.843  31.611  30.469  1.00  0.00     0.031 C 
ATOM     60  C   UNL A   1      44.255  31.077  30.669  1.00  0.00     0.031 A 
BRANCH  47  61
ATOM     61  C   UNL A   1      48.433  26.619  29.755  1.00  0.00    -0.014 A 
ATOM     62  C   UNL A   1      48.874  25.959  30.913  1.00  0.00     0.009 A 
ATOM     63  C   UNL A   1      49.340  26.813  28.701  1.00  0.00     0.009 A 
ATOM     64  C   UNL A   1      50.201  25.538  31.028  1.00  0.00     0.001 A 
ATOM     65  C   UNL A   1      50.657  26.364  28.805  1.00  0.00     0.001 A 
ATOM     66  C   UNL A   1      51.089  25.735  29.972  1.00  0.00     0.000 A 
ENDBRANCH  47  61
BRANCH  48  67
ATOM     67  C   UNL A   1      38.783  29.134  28.952  1.00  0.00    -0.014 A 
ATOM     68  C   UNL A   1      38.243  29.679  27.778  1.00  0.00     0.009 A 
ATOM     69  C   UNL A   1      37.939  28.946  30.059  1.00  0.00     0.009 A 
ATOM     70  C   UNL A   1      36.898  30.053  27.722  1.00  0.00     0.001 A 
ATOM     71  C   UNL A   1      36.587  29.290  29.990  1.00  0.00     0.001 A 
ATOM     72  C   UNL A   1      36.071  29.854  28.825  1.00  0.00     0.000 A 
ENDBRANCH  48  67
BRANCH  60  73
ATOM     73  C   UNL A   1      44.464  32.445  31.256  1.00  0.00    -0.014 A 
ATOM     74  C   UNL A   1      44.425  32.652  32.643  1.00  0.00     0.009 A 
ATOM     75  C   UNL A   1      44.767  33.525  30.413  1.00  0.00     0.009 A 
ATOM     76  C   UNL A   1      44.660  33.922  33.172  1.00  0.00     0.001 A 
ATOM     77  C   UNL A   1      45.033  34.785  30.947  1.00  0.00     0.001 A 
ATOM     78  C   UNL A   1      44.972  34.985  32.325  1.00  0.00     0.000 A 
ENDBRANCH  60  73
ENDBRANCH  34  35
ENDBRANCH  26  29
ENDBRANCH  24  25
ENDBRANCH  23  24
ENDBRANCH  22  23
ENDBRANCH   1  22
TORSDOF 16
ENDMDL
MODEL 3
REMARK VINA RESULT:     -10.5      1.370      6.240
REMARK SMILES Cc1ccc(F)cc1NC(=O)CSCCC(=O)NCCCCNC(=O)c1ccc(-c2c3nc(c(-c4ccccc4)c4ccc([nH]4)c(-c4ccccc4)c4nc(c(-c5ccccc5)c5ccc2[nH]5)C=C4)C=C3)cc1
REMARK SMILES IDX 19 1 18 2 16 3 17 4 15 6 14 7 13 8 12 9 10 10 9 11 11 13
REMARK SMILES IDX 8 14 1 15 2 16 3 17 4 18 7 19 5 20 6 21 20 22 21 23 22 24
REMARK SMILES IDX 23 25 24 26 25 28 26 29 27 30 73 31 28 32 72 33 29 34 30 35
REMARK SMILES IDX 31 36 66 37 32 38 71 39 65 40 67 41 33 42 70 43 64 44 63 45
REMARK SMILES IDX 34 47 56 48 41 49 55 50 42 51 45 52 54 53 68 54 43 55 44 56
REMARK SMILES IDX 53 58 69 59 46 60 35 61 36 62 40 63 37 64 39 65 38 66 57 67
REMARK SMILES IDX 58 68 62 69 59 70 61 71 60 72 47 73 48 74 52 75 49 76 51 77
REMARK SMILES IDX 50 78
REMARK H PARENT 18 5 9 12 23 27 67 46 45 57
REMARK Flexibility Score: inf
ROOT
ATOM      1  C   UNL A   1      35.606  22.713  24.636  1.00  0.00     0.116 C 
ENDROOT
BRANCH   1   2
ATOM      2  N   UNL A   1      35.140  22.896  23.273  1.00  0.00    -0.356 N 
ATOM      3  C   UNL A   1      33.990  23.442  22.794  1.00  0.00     0.220 C 
ATOM      4  O   UNL A   1      33.850  23.515  21.572  1.00  0.00    -0.275 OA
ATOM      5  H   UNL A   1      35.760  22.571  22.580  1.00  0.00     0.163 HD
BRANCH   3   6
ATOM      6  C   UNL A   1      32.916  23.937  23.734  1.00  0.00     0.111 C 
BRANCH   6   7
ATOM      7  C   UNL A   1      31.754  22.954  23.867  1.00  0.00     0.080 C 
BRANCH   7   8
ATOM      8  S   UNL A   1      31.818  21.841  25.322  1.00  0.00    -0.151 SA
BRANCH   8   9
ATOM      9  C   UNL A   1      31.874  23.055  26.673  1.00  0.00     0.169 C 
BRANCH   9  10
ATOM     10  C   UNL A   1      30.568  23.776  26.895  1.00  0.00     0.234 C 
ATOM     11  N   UNL A   1      30.312  25.071  26.577  1.00  0.00    -0.325 N 
ATOM     12  H   UNL A   1      29.384  25.320  26.795  1.00  0.00     0.169 HD
ATOM     13  O   UNL A   1      29.635  23.169  27.443  1.00  0.00    -0.274 OA
BRANCH  11  14
ATOM     14  C   UNL A   1      31.019  26.154  26.018  1.00  0.00     0.047 A 
ATOM     15  C   UNL A   1      29.330  26.244  24.054  1.00  0.00     0.046 C 
ATOM     16  C   UNL A   1      30.533  26.736  24.821  1.00  0.00    -0.027 A 
ATOM     17  C   UNL A   1      31.229  27.816  24.233  1.00  0.00     0.008 A 
ATOM     18  C   UNL A   1      32.376  28.333  24.819  1.00  0.00     0.039 A 
ATOM     19  C   UNL A   1      32.162  26.706  26.597  1.00  0.00     0.065 A 
ATOM     20  C   UNL A   1      32.827  27.777  26.001  1.00  0.00     0.125 A 
ATOM     21  F   UNL A   1      33.923  28.276  26.590  1.00  0.00    -0.207 F 
ENDBRANCH  11  14
ENDBRANCH   9  10
ENDBRANCH   8   9
ENDBRANCH   7   8
ENDBRANCH   6   7
ENDBRANCH   3   6
ENDBRANCH   1   2
BRANCH   1  22
ATOM     22  C   UNL A   1      35.890  21.251  24.979  1.00  0.00     0.023 C 
BRANCH  22  23
ATOM     23  C   UNL A   1      37.290  20.761  24.584  1.00  0.00     0.023 C 
BRANCH  23  24
ATOM     24  C   UNL A   1      38.342  20.925  25.668  1.00  0.00     0.116 C 
BRANCH  24  25
ATOM     25  N   UNL A   1      39.326  19.852  25.642  1.00  0.00    -0.352 N 
ATOM     26  C   UNL A   1      40.663  19.880  25.964  1.00  0.00     0.251 C 
ATOM     27  H   UNL A   1      38.983  18.976  25.352  1.00  0.00     0.163 HD
ATOM     28  O   UNL A   1      41.373  18.914  25.722  1.00  0.00    -0.269 OA
BRANCH  26  29
ATOM     29  C   UNL A   1      41.250  21.095  26.572  1.00  0.00     0.039 A 
ATOM     30  C   UNL A   1      41.831  22.054  25.736  1.00  0.00     0.014 A 
ATOM     31  C   UNL A   1      41.216  21.295  27.953  1.00  0.00     0.014 A 
ATOM     32  C   UNL A   1      42.310  23.246  26.282  1.00  0.00     0.010 A 
ATOM     33  C   UNL A   1      41.608  22.518  28.483  1.00  0.00     0.010 A 
ATOM     34  C   UNL A   1      42.158  23.506  27.654  1.00  0.00    -0.014 A 
BRANCH  34  35
ATOM     35  C   UNL A   1      42.556  24.806  28.248  1.00  0.00     0.031 A 
ATOM     36  C   UNL A   1      41.525  25.881  28.460  1.00  0.00     0.074 A 
ATOM     37  C   UNL A   1      43.855  25.046  28.506  1.00  0.00     0.049 A 
ATOM     38  N   UNL A   1      41.690  27.114  28.860  1.00  0.00    -0.248 NA
ATOM     39  C   UNL A   1      40.128  25.531  28.150  1.00  0.00     0.031 C 
ATOM     40  C   UNL A   1      44.952  24.096  28.300  1.00  0.00     0.029 A 
ATOM     41  N   UNL A   1      44.479  26.171  28.984  1.00  0.00    -0.354 N 
ATOM     42  C   UNL A   1      40.428  27.693  28.827  1.00  0.00     0.074 A 
ATOM     43  C   UNL A   1      39.515  26.694  28.320  1.00  0.00     0.031 C 
ATOM     44  C   UNL A   1      46.107  24.669  28.674  1.00  0.00     0.029 A 
ATOM     45  C   UNL A   1      45.843  26.041  29.094  1.00  0.00     0.049 A 
ATOM     46  H   UNL A   1      43.995  26.994  29.226  1.00  0.00     0.167 HD
ATOM     47  C   UNL A   1      40.059  28.940  29.204  1.00  0.00     0.031 A 
ATOM     48  C   UNL A   1      46.778  26.932  29.472  1.00  0.00     0.031 A 
ATOM     49  C   UNL A   1      40.972  29.925  29.719  1.00  0.00     0.049 A 
ATOM     50  C   UNL A   1      46.345  28.318  29.859  1.00  0.00     0.074 A 
ATOM     51  C   UNL A   1      40.692  31.193  30.193  1.00  0.00     0.029 A 
ATOM     52  N   UNL A   1      42.344  29.750  29.819  1.00  0.00    -0.354 N 
ATOM     53  N   UNL A   1      45.136  28.824  29.901  1.00  0.00    -0.248 NA
ATOM     54  C   UNL A   1      47.405  29.257  30.254  1.00  0.00     0.031 C 
ATOM     55  C   UNL A   1      41.903  31.811  30.521  1.00  0.00     0.029 A 
ATOM     56  C   UNL A   1      42.928  30.904  30.312  1.00  0.00     0.049 A 
ATOM     57  H   UNL A   1      42.829  28.928  29.577  1.00  0.00     0.167 HD
ATOM     58  C   UNL A   1      45.287  30.132  30.345  1.00  0.00     0.074 A 
ATOM     59  C   UNL A   1      46.703  30.332  30.581  1.00  0.00     0.031 C 
ATOM     60  C   UNL A   1      44.340  31.083  30.535  1.00  0.00     0.031 A 
BRANCH  47  61
ATOM     61  C   UNL A   1      38.608  29.311  29.061  1.00  0.00    -0.014 A 
ATOM     62  C   UNL A   1      37.720  29.218  30.144  1.00  0.00     0.009 A 
ATOM     63  C   UNL A   1      38.130  29.798  27.835  1.00  0.00     0.009 A 
ATOM     64  C   UNL A   1      36.376  29.568  29.992  1.00  0.00     0.001 A 
ATOM     65  C   UNL A   1      36.795  30.178  27.693  1.00  0.00     0.001 A 
ATOM     66  C   UNL A   1      35.917  30.054  28.769  1.00  0.00     0.000 A 
ENDBRANCH  47  61
BRANCH  48  67
ATOM     67  C   UNL A   1      48.214  26.545  29.497  1.00  0.00    -0.014 A 
ATOM     68  C   UNL A   1      49.031  26.765  28.379  1.00  0.00     0.009 A 
ATOM     69  C   UNL A   1      48.775  25.948  30.637  1.00  0.00     0.009 A 
ATOM     70  C   UNL A   1      50.372  26.371  28.391  1.00  0.00     0.001 A 
ATOM     71  C   UNL A   1      50.124  25.585  30.659  1.00  0.00     0.001 A 
ATOM     72  C   UNL A   1      50.918  25.786  29.532  1.00  0.00     0.000 A 
ENDBRANCH  48  67
BRANCH  60  73
ATOM     73  C   UNL A   1      44.801  32.421  31.040  1.00  0.00    -0.014 A 
ATOM     74  C   UNL A   1      44.920  32.675  32.415  1.00  0.00     0.009 A 
ATOM     75  C   UNL A   1      45.180  33.417  30.128  1.00  0.00     0.009 A 
ATOM     76  C   UNL A   1      45.387  33.911  32.865  1.00  0.00     0.001 A 
ATOM     77  C   UNL A   1      45.677  34.639  30.579  1.00  0.00     0.001 A 
ATOM     78  C   UNL A   1      45.774  34.887  31.948  1.00  0.00     0.000 A 
ENDBRANCH  60  73
ENDBRANCH  34  35
ENDBRANCH  26  29
ENDBRANCH  24  25
ENDBRANCH  23  24
ENDBRANCH  22  23
ENDBRANCH   1  22
TORSDOF 16
ENDMDL
