MODEL 1
REMARK VINA RESULT:     -11.3      0.000      0.000
REMARK SMILES CC(C)CCc1cc2c(cc1Cl)C=C(C(=O)NCCCCNC(=O)c1ccc(-c3c4nc(c(-c5ccccc5)c5ccc([nH]5)c(-c5ccccc5)c5nc(c(-c6ccccc6)c6ccc3[nH]6)C=C5)C=C4)cc1)[C@@H](C(F)(F)F)O2
REMARK SMILES IDX 19 1 18 2 17 3 15 4 16 5 14 7 6 8 7 9 11 10 8 11 10 12 12 13
REMARK SMILES IDX 9 14 78 15 13 16 73 17 5 18 4 19 2 20 1 21 3 22 74 23 75 24
REMARK SMILES IDX 76 25 77 26 20 27 21 28 22 29 23 30 24 32 25 33 26 34 72 35
REMARK SMILES IDX 27 36 71 37 28 38 29 39 30 40 65 41 31 42 70 43 64 44 66 45
REMARK SMILES IDX 32 46 69 47 63 48 62 49 33 51 55 52 40 53 54 54 41 55 44 56
REMARK SMILES IDX 53 57 67 58 42 59 43 60 52 62 68 63 45 64 34 65 35 66 39 67
REMARK SMILES IDX 36 68 38 69 37 70 56 71 57 72 61 73 58 74 60 75 59 76 46 77
REMARK SMILES IDX 47 78 51 79 48 80 50 81 49 82
REMARK H PARENT 17 6 22 31 66 50 44 61
REMARK Flexibility Score: inf
ROOT
ATOM      1  C   UNL A   1      31.578  29.783  25.849  1.00  0.00     0.023 C 
ENDROOT
BRANCH   1   2
ATOM      2  C   UNL A   1      31.581  29.293  24.403  1.00  0.00     0.116 C 
BRANCH   2   3
ATOM      3  N   UNL A   1      30.345  28.616  24.048  1.00  0.00    -0.352 N 
ATOM      4  C   UNL A   1      29.951  27.339  23.825  1.00  0.00     0.251 C 
ATOM      5  O   UNL A   1      28.755  27.194  23.556  1.00  0.00    -0.270 OA
ATOM      6  H   UNL A   1      29.600  29.251  23.942  1.00  0.00     0.163 HD
BRANCH   4   7
ATOM      7  C   UNL A   1      30.845  26.146  23.872  1.00  0.00     0.067 C 
ATOM      8  C   UNL A   1      33.601  22.138  25.230  1.00  0.00    -0.026 A 
ATOM      9  C   UNL A   1      32.985  22.566  24.047  1.00  0.00     0.052 A 
ATOM     10  C   UNL A   1      33.317  22.862  26.406  1.00  0.00     0.045 A 
ATOM     11  C   UNL A   1      32.216  23.724  24.018  1.00  0.00     0.128 A 
ATOM     12  C   UNL A   1      32.491  23.999  26.384  1.00  0.00     0.032 A 
ATOM     13  Cl  UNL A   1      33.957  22.381  27.940  1.00  0.00    -0.084 Cl
ATOM     14  C   UNL A   1      31.952  24.447  25.179  1.00  0.00     0.019 A 
ATOM     15  O   UNL A   1      31.733  24.100  22.797  1.00  0.00    -0.475 OA
ATOM     16  C   UNL A   1      31.090  25.622  25.090  1.00  0.00     0.025 C 
ATOM     17  C   UNL A   1      31.486  25.525  22.663  1.00  0.00     0.314 C 
BRANCH   8  18
ATOM     18  C   UNL A   1      34.521  20.932  25.248  1.00  0.00     0.037 C 
BRANCH  18  19
ATOM     19  C   UNL A   1      36.041  21.177  25.339  1.00  0.00     0.008 C 
BRANCH  19  20
ATOM     20  C   UNL A   1      36.513  22.604  24.973  1.00  0.00    -0.017 C 
ATOM     21  C   UNL A   1      37.789  23.002  25.713  1.00  0.00     0.007 C 
ATOM     22  C   UNL A   1      36.728  22.704  23.461  1.00  0.00     0.007 C 
ENDBRANCH  19  20
ENDBRANCH  18  19
ENDBRANCH   8  18
BRANCH  17  23
ATOM     23  C   UNL A   1      32.778  26.258  22.241  1.00  0.00     0.429 C 
ATOM     24  F   UNL A   1      33.307  25.684  21.132  1.00  0.00    -0.167 F 
ATOM     25  F   UNL A   1      32.551  27.557  21.930  1.00  0.00    -0.167 F 
ATOM     26  F   UNL A   1      33.732  26.248  23.198  1.00  0.00    -0.167 F 
ENDBRANCH  17  23
ENDBRANCH   4   7
ENDBRANCH   2   3
ENDBRANCH   1   2
BRANCH   1  27
ATOM     27  C   UNL A   1      32.136  28.774  26.854  1.00  0.00     0.023 C 
BRANCH  27  28
ATOM     28  C   UNL A   1      33.515  29.108  27.419  1.00  0.00     0.116 C 
BRANCH  28  29
ATOM     29  N   UNL A   1      33.648  30.470  27.918  1.00  0.00    -0.352 N 
ATOM     30  C   UNL A   1      34.764  31.062  28.468  1.00  0.00     0.251 C 
ATOM     31  H   UNL A   1      32.845  31.035  27.854  1.00  0.00     0.163 HD
ATOM     32  O   UNL A   1      34.717  32.204  28.912  1.00  0.00    -0.269 OA
BRANCH  30  33
ATOM     33  C   UNL A   1      36.006  30.270  28.567  1.00  0.00     0.039 A 
ATOM     34  C   UNL A   1      36.323  29.614  29.758  1.00  0.00     0.014 A 
ATOM     35  C   UNL A   1      36.902  30.275  27.495  1.00  0.00     0.014 A 
ATOM     36  C   UNL A   1      37.610  29.126  29.941  1.00  0.00     0.010 A 
ATOM     37  C   UNL A   1      38.167  29.706  27.656  1.00  0.00     0.010 A 
ATOM     38  C   UNL A   1      38.551  29.183  28.899  1.00  0.00    -0.014 A 
BRANCH  38  39
ATOM     39  C   UNL A   1      39.934  28.706  29.151  1.00  0.00     0.031 A 
ATOM     40  C   UNL A   1      40.371  27.334  28.711  1.00  0.00     0.074 A 
ATOM     41  C   UNL A   1      40.824  29.550  29.707  1.00  0.00     0.049 A 
ATOM     42  N   UNL A   1      41.557  26.785  28.793  1.00  0.00    -0.248 NA
ATOM     43  C   UNL A   1      39.351  26.465  28.100  1.00  0.00     0.031 C 
ATOM     44  C   UNL A   1      40.524  30.912  30.153  1.00  0.00     0.029 A 
ATOM     45  N   UNL A   1      42.165  29.404  29.953  1.00  0.00    -0.354 N 
ATOM     46  C   UNL A   1      41.422  25.506  28.266  1.00  0.00     0.074 A 
ATOM     47  C   UNL A   1      40.035  25.349  27.887  1.00  0.00     0.031 C 
ATOM     48  C   UNL A   1      41.660  31.502  30.550  1.00  0.00     0.029 A 
ATOM     49  C   UNL A   1      42.754  30.541  30.449  1.00  0.00     0.049 A 
ATOM     50  H   UNL A   1      42.657  28.568  29.790  1.00  0.00     0.167 HD
ATOM     51  C   UNL A   1      42.371  24.554  28.103  1.00  0.00     0.031 A 
ATOM     52  C   UNL A   1      44.032  30.789  30.790  1.00  0.00     0.031 A 
ATOM     53  C   UNL A   1      43.754  24.717  28.465  1.00  0.00     0.049 A 
ATOM     54  C   UNL A   1      45.055  29.703  30.637  1.00  0.00     0.074 A 
ATOM     55  C   UNL A   1      44.791  23.812  28.318  1.00  0.00     0.029 A 
ATOM     56  N   UNL A   1      44.292  25.857  29.039  1.00  0.00    -0.354 N 
ATOM     57  N   UNL A   1      44.909  28.501  30.139  1.00  0.00    -0.248 NA
ATOM     58  C   UNL A   1      46.416  30.004  31.102  1.00  0.00     0.031 C 
ATOM     59  C   UNL A   1      45.949  24.387  28.851  1.00  0.00     0.029 A 
ATOM     60  C   UNL A   1      45.644  25.669  29.278  1.00  0.00     0.049 A 
ATOM     61  H   UNL A   1      43.790  26.677  29.248  1.00  0.00     0.167 HD
ATOM     62  C   UNL A   1      46.157  27.900  30.227  1.00  0.00     0.074 A 
ATOM     63  C   UNL A   1      47.055  28.880  30.804  1.00  0.00     0.031 C 
ATOM     64  C   UNL A   1      46.522  26.646  29.867  1.00  0.00     0.031 A 
BRANCH  51  65
ATOM     65  C   UNL A   1      41.953  23.234  27.518  1.00  0.00    -0.014 A 
ATOM     66  C   UNL A   1      41.468  22.222  28.363  1.00  0.00     0.009 A 
ATOM     67  C   UNL A   1      42.118  22.957  26.153  1.00  0.00     0.009 A 
ATOM     68  C   UNL A   1      41.166  20.957  27.855  1.00  0.00     0.001 A 
ATOM     69  C   UNL A   1      41.793  21.698  25.643  1.00  0.00     0.001 A 
ATOM     70  C   UNL A   1      41.325  20.698  26.494  1.00  0.00     0.000 A 
ENDBRANCH  51  65
BRANCH  52  71
ATOM     71  C   UNL A   1      44.399  32.133  31.304  1.00  0.00    -0.014 A 
ATOM     72  C   UNL A   1      44.299  32.423  32.675  1.00  0.00     0.009 A 
ATOM     73  C   UNL A   1      44.788  33.150  30.420  1.00  0.00     0.009 A 
ATOM     74  C   UNL A   1      44.553  33.712  33.147  1.00  0.00     0.001 A 
ATOM     75  C   UNL A   1      45.069  34.432  30.900  1.00  0.00     0.001 A 
ATOM     76  C   UNL A   1      44.940  34.714  32.260  1.00  0.00     0.000 A 
ENDBRANCH  52  71
BRANCH  64  77
ATOM     77  C   UNL A   1      47.952  26.248  30.087  1.00  0.00    -0.014 A 
ATOM     78  C   UNL A   1      48.854  26.256  29.011  1.00  0.00     0.009 A 
ATOM     79  C   UNL A   1      48.384  25.781  31.338  1.00  0.00     0.009 A 
ATOM     80  C   UNL A   1      50.160  25.792  29.181  1.00  0.00     0.001 A 
ATOM     81  C   UNL A   1      49.697  25.342  31.510  1.00  0.00     0.001 A 
ATOM     82  C   UNL A   1      50.581  25.339  30.430  1.00  0.00     0.000 A 
ENDBRANCH  64  77
ENDBRANCH  38  39
ENDBRANCH  30  33
ENDBRANCH  28  29
ENDBRANCH  27  28
ENDBRANCH   1  27
TORSDOF 15
ENDMDL
MODEL 2
REMARK VINA RESULT:     -11.3      2.676      7.919
REMARK SMILES CC(C)CCc1cc2c(cc1Cl)C=C(C(=O)NCCCCNC(=O)c1ccc(-c3c4nc(c(-c5ccccc5)c5ccc([nH]5)c(-c5ccccc5)c5nc(c(-c6ccccc6)c6ccc3[nH]6)C=C5)C=C4)cc1)[C@@H](C(F)(F)F)O2
REMARK SMILES IDX 19 1 18 2 17 3 15 4 16 5 14 7 6 8 7 9 11 10 8 11 10 12 12 13
REMARK SMILES IDX 9 14 78 15 13 16 73 17 5 18 4 19 2 20 1 21 3 22 74 23 75 24
REMARK SMILES IDX 76 25 77 26 20 27 21 28 22 29 23 30 24 32 25 33 26 34 72 35
REMARK SMILES IDX 27 36 71 37 28 38 29 39 30 40 65 41 31 42 70 43 64 44 66 45
REMARK SMILES IDX 32 46 69 47 63 48 62 49 33 51 55 52 40 53 54 54 41 55 44 56
REMARK SMILES IDX 53 57 67 58 42 59 43 60 52 62 68 63 45 64 34 65 35 66 39 67
REMARK SMILES IDX 36 68 38 69 37 70 56 71 57 72 61 73 58 74 60 75 59 76 46 77
REMARK SMILES IDX 47 78 51 79 48 80 50 81 49 82
REMARK H PARENT 17 6 22 31 66 50 44 61
REMARK Flexibility Score: inf
ROOT
ATOM      1  C   UNL A   1      37.126  22.113  24.175  1.00  0.00     0.023 C 
ENDROOT
BRANCH   1   2
ATOM      2  C   UNL A   1      35.635  22.420  24.289  1.00  0.00     0.116 C 
BRANCH   2   3
ATOM      3  N   UNL A   1      35.204  22.547  25.671  1.00  0.00    -0.352 N 
ATOM      4  C   UNL A   1      34.277  23.265  26.350  1.00  0.00     0.251 C 
ATOM      5  O   UNL A   1      34.226  23.047  27.565  1.00  0.00    -0.270 OA
ATOM      6  H   UNL A   1      35.720  21.959  26.269  1.00  0.00     0.163 HD
BRANCH   4   7
ATOM      7  C   UNL A   1      33.360  24.273  25.743  1.00  0.00     0.067 C 
ATOM      8  C   UNL A   1      31.045  28.483  24.190  1.00  0.00    -0.026 A 
ATOM      9  C   UNL A   1      31.101  27.157  23.742  1.00  0.00     0.052 A 
ATOM     10  C   UNL A   1      31.924  28.854  25.228  1.00  0.00     0.045 A 
ATOM     11  C   UNL A   1      31.912  26.221  24.375  1.00  0.00     0.128 A 
ATOM     12  C   UNL A   1      32.786  27.919  25.826  1.00  0.00     0.032 A 
ATOM     13  Cl  UNL A   1      32.001  30.482  25.809  1.00  0.00    -0.084 Cl
ATOM     14  C   UNL A   1      32.767  26.588  25.412  1.00  0.00     0.019 A 
ATOM     15  O   UNL A   1      31.827  24.938  23.917  1.00  0.00    -0.475 OA
ATOM     16  C   UNL A   1      33.635  25.569  25.996  1.00  0.00     0.025 C 
ATOM     17  C   UNL A   1      32.165  23.925  24.903  1.00  0.00     0.314 C 
BRANCH   8  18
ATOM     18  C   UNL A   1      30.089  29.485  23.569  1.00  0.00     0.037 C 
BRANCH  18  19
ATOM     19  C   UNL A   1      28.752  28.963  23.005  1.00  0.00     0.008 C 
BRANCH  19  20
ATOM     20  C   UNL A   1      27.724  30.047  22.605  1.00  0.00    -0.017 C 
ATOM     21  C   UNL A   1      27.621  31.163  23.642  1.00  0.00     0.007 C 
ATOM     22  C   UNL A   1      28.096  30.630  21.239  1.00  0.00     0.007 C 
ENDBRANCH  19  20
ENDBRANCH  18  19
ENDBRANCH   8  18
BRANCH  17  23
ATOM     23  C   UNL A   1      30.928  23.572  25.757  1.00  0.00     0.429 C 
ATOM     24  F   UNL A   1      29.826  24.205  25.280  1.00  0.00    -0.167 F 
ATOM     25  F   UNL A   1      30.650  22.246  25.731  1.00  0.00    -0.167 F 
ATOM     26  F   UNL A   1      31.062  23.917  27.057  1.00  0.00    -0.167 F 
ENDBRANCH  17  23
ENDBRANCH   4   7
ENDBRANCH   2   3
ENDBRANCH   1   2
BRANCH   1  27
ATOM     27  C   UNL A   1      37.570  20.865  24.941  1.00  0.00     0.023 C 
BRANCH  27  28
ATOM     28  C   UNL A   1      38.869  21.011  25.731  1.00  0.00     0.116 C 
BRANCH  28  29
ATOM     29  N   UNL A   1      39.761  19.863  25.642  1.00  0.00    -0.352 N 
ATOM     30  C   UNL A   1      41.085  19.792  26.016  1.00  0.00     0.251 C 
ATOM     31  H   UNL A   1      39.371  19.039  25.271  1.00  0.00     0.163 HD
ATOM     32  O   UNL A   1      41.741  18.775  25.821  1.00  0.00    -0.269 OA
BRANCH  30  33
ATOM     33  C   UNL A   1      41.718  20.991  26.602  1.00  0.00     0.039 A 
ATOM     34  C   UNL A   1      41.754  21.155  27.987  1.00  0.00     0.014 A 
ATOM     35  C   UNL A   1      42.179  21.998  25.752  1.00  0.00     0.014 A 
ATOM     36  C   UNL A   1      42.077  22.397  28.515  1.00  0.00     0.010 A 
ATOM     37  C   UNL A   1      42.585  23.220  26.294  1.00  0.00     0.010 A 
ATOM     38  C   UNL A   1      42.478  23.448  27.674  1.00  0.00    -0.014 A 
BRANCH  38  39
ATOM     39  C   UNL A   1      42.758  24.780  28.268  1.00  0.00     0.031 A 
ATOM     40  C   UNL A   1      44.167  25.207  28.579  1.00  0.00     0.074 A 
ATOM     41  C   UNL A   1      41.738  25.640  28.449  1.00  0.00     0.049 A 
ATOM     42  N   UNL A   1      44.594  26.357  29.037  1.00  0.00    -0.248 NA
ATOM     43  C   UNL A   1      45.237  24.222  28.348  1.00  0.00     0.031 C 
ATOM     44  C   UNL A   1      40.331  25.348  28.162  1.00  0.00     0.029 A 
ATOM     45  N   UNL A   1      41.729  26.943  28.876  1.00  0.00    -0.354 N 
ATOM     46  C   UNL A   1      45.971  26.228  29.168  1.00  0.00     0.074 A 
ATOM     47  C   UNL A   1      46.311  24.882  28.763  1.00  0.00     0.031 C 
ATOM     48  C   UNL A   1      39.607  26.460  28.351  1.00  0.00     0.029 A 
ATOM     49  C   UNL A   1      40.484  27.522  28.835  1.00  0.00     0.049 A 
ATOM     50  H   UNL A   1      42.535  27.417  29.182  1.00  0.00     0.167 HD
ATOM     51  C   UNL A   1      46.873  27.152  29.578  1.00  0.00     0.031 A 
ATOM     52  C   UNL A   1      40.085  28.767  29.152  1.00  0.00     0.031 A 
ATOM     53  C   UNL A   1      46.536  28.497  29.965  1.00  0.00     0.049 A 
ATOM     54  C   UNL A   1      41.098  29.759  29.642  1.00  0.00     0.074 A 
ATOM     55  C   UNL A   1      47.387  29.509  30.376  1.00  0.00     0.029 A 
ATOM     56  N   UNL A   1      45.252  29.017  29.985  1.00  0.00    -0.354 N 
ATOM     57  N   UNL A   1      42.395  29.618  29.760  1.00  0.00    -0.248 NA
ATOM     58  C   UNL A   1      40.592  31.076  30.052  1.00  0.00     0.031 C 
ATOM     59  C   UNL A   1      46.611  30.627  30.693  1.00  0.00     0.029 A 
ATOM     60  C   UNL A   1      45.285  30.329  30.427  1.00  0.00     0.049 A 
ATOM     61  H   UNL A   1      44.439  28.527  29.725  1.00  0.00     0.167 HD
ATOM     62  C   UNL A   1      42.863  30.828  30.256  1.00  0.00     0.074 A 
ATOM     63  C   UNL A   1      41.713  31.699  30.391  1.00  0.00     0.031 C 
ATOM     64  C   UNL A   1      44.132  31.179  30.573  1.00  0.00     0.031 A 
BRANCH  51  65
ATOM     65  C   UNL A   1      48.318  26.746  29.647  1.00  0.00    -0.014 A 
ATOM     66  C   UNL A   1      49.130  26.870  28.509  1.00  0.00     0.009 A 
ATOM     67  C   UNL A   1      48.855  26.161  30.804  1.00  0.00     0.009 A 
ATOM     68  C   UNL A   1      50.448  26.408  28.523  1.00  0.00     0.001 A 
ATOM     69  C   UNL A   1      50.180  25.722  30.824  1.00  0.00     0.001 A 
ATOM     70  C   UNL A   1      50.973  25.839  29.683  1.00  0.00     0.000 A 
ENDBRANCH  51  65
BRANCH  52  71
ATOM     71  C   UNL A   1      38.653  29.130  29.004  1.00  0.00    -0.014 A 
ATOM     72  C   UNL A   1      38.160  29.599  27.775  1.00  0.00     0.009 A 
ATOM     73  C   UNL A   1      37.787  29.071  30.106  1.00  0.00     0.009 A 
ATOM     74  C   UNL A   1      36.838  30.030  27.660  1.00  0.00     0.001 A 
ATOM     75  C   UNL A   1      36.456  29.477  29.979  1.00  0.00     0.001 A 
ATOM     76  C   UNL A   1      35.986  29.965  28.760  1.00  0.00     0.000 A 
ENDBRANCH  52  71
BRANCH  64  77
ATOM     77  C   UNL A   1      44.356  32.564  31.107  1.00  0.00    -0.014 A 
ATOM     78  C   UNL A   1      44.268  32.804  32.487  1.00  0.00     0.009 A 
ATOM     79  C   UNL A   1      44.567  33.644  30.237  1.00  0.00     0.009 A 
ATOM     80  C   UNL A   1      44.375  34.104  32.985  1.00  0.00     0.001 A 
ATOM     81  C   UNL A   1      44.698  34.939  30.741  1.00  0.00     0.001 A 
ATOM     82  C   UNL A   1      44.594  35.168  32.113  1.00  0.00     0.000 A 
ENDBRANCH  64  77
ENDBRANCH  38  39
ENDBRANCH  30  33
ENDBRANCH  28  29
ENDBRANCH  27  28
ENDBRANCH   1  27
TORSDOF 15
ENDMDL
MODEL 3
REMARK VINA RESULT:     -11.2      3.600      7.435
REMARK SMILES CC(C)CCc1cc2c(cc1Cl)C=C(C(=O)NCCCCNC(=O)c1ccc(-c3c4nc(c(-c5ccccc5)c5ccc([nH]5)c(-c5ccccc5)c5nc(c(-c6ccccc6)c6ccc3[nH]6)C=C5)C=C4)cc1)[C@@H](C(F)(F)F)O2
REMARK SMILES IDX 19 1 18 2 17 3 15 4 16 5 14 7 6 8 7 9 11 10 8 11 10 12 12 13
REMARK SMILES IDX 9 14 78 15 13 16 73 17 5 18 4 19 2 20 1 21 3 22 74 23 75 24
REMARK SMILES IDX 76 25 77 26 20 27 21 28 22 29 23 30 24 32 25 33 26 34 72 35
REMARK SMILES IDX 27 36 71 37 28 38 29 39 30 40 65 41 31 42 70 43 64 44 66 45
REMARK SMILES IDX 32 46 69 47 63 48 62 49 33 51 55 52 40 53 54 54 41 55 44 56
REMARK SMILES IDX 53 57 67 58 42 59 43 60 52 62 68 63 45 64 34 65 35 66 39 67
REMARK SMILES IDX 36 68 38 69 37 70 56 71 57 72 61 73 58 74 60 75 59 76 46 77
REMARK SMILES IDX 47 78 51 79 48 80 50 81 49 82
REMARK H PARENT 17 6 22 31 66 50 44 61
REMARK Flexibility Score: inf
ROOT
ATOM      1  C   UNL A   1      32.165  30.141  26.889  1.00  0.00     0.023 C 
ENDROOT
BRANCH   1   2
ATOM      2  C   UNL A   1      33.452  29.826  26.132  1.00  0.00     0.116 C 
BRANCH   2   3
ATOM      3  N   UNL A   1      33.231  29.693  24.702  1.00  0.00    -0.352 N 
ATOM      4  C   UNL A   1      32.938  28.688  23.841  1.00  0.00     0.251 C 
ATOM      5  O   UNL A   1      32.811  29.025  22.660  1.00  0.00    -0.270 OA
ATOM      6  H   UNL A   1      33.318  30.557  24.238  1.00  0.00     0.163 HD
BRANCH   4   7
ATOM      7  C   UNL A   1      32.776  27.255  24.220  1.00  0.00     0.067 C 
ATOM      8  C   UNL A   1      33.456  22.389  25.387  1.00  0.00    -0.026 A 
ATOM      9  C   UNL A   1      32.481  23.353  25.673  1.00  0.00     0.052 A 
ATOM     10  C   UNL A   1      34.634  22.829  24.748  1.00  0.00     0.045 A 
ATOM     11  C   UNL A   1      32.625  24.667  25.243  1.00  0.00     0.128 A 
ATOM     12  C   UNL A   1      34.801  24.171  24.367  1.00  0.00     0.032 A 
ATOM     13  Cl  UNL A   1      35.940  21.745  24.414  1.00  0.00    -0.084 Cl
ATOM     14  C   UNL A   1      33.783  25.094  24.597  1.00  0.00     0.019 A 
ATOM     15  O   UNL A   1      31.578  25.506  25.499  1.00  0.00    -0.475 OA
ATOM     16  C   UNL A   1      33.895  26.502  24.222  1.00  0.00     0.025 C 
ATOM     17  C   UNL A   1      31.462  26.619  24.572  1.00  0.00     0.314 C 
BRANCH   8  18
ATOM     18  C   UNL A   1      33.261  20.932  25.765  1.00  0.00     0.037 C 
BRANCH  18  19
ATOM     19  C   UNL A   1      32.279  20.088  24.928  1.00  0.00     0.008 C 
BRANCH  19  20
ATOM     20  C   UNL A   1      32.697  19.830  23.462  1.00  0.00    -0.017 C 
ATOM     21  C   UNL A   1      32.358  18.414  23.000  1.00  0.00     0.007 C 
ATOM     22  C   UNL A   1      32.026  20.857  22.546  1.00  0.00     0.007 C 
ENDBRANCH  19  20
ENDBRANCH  18  19
ENDBRANCH   8  18
BRANCH  17  23
ATOM     23  C   UNL A   1      30.659  26.197  23.322  1.00  0.00     0.429 C 
ATOM     24  F   UNL A   1      29.923  27.237  22.859  1.00  0.00    -0.167 F 
ATOM     25  F   UNL A   1      31.465  25.812  22.302  1.00  0.00    -0.167 F 
ATOM     26  F   UNL A   1      29.811  25.171  23.556  1.00  0.00    -0.167 F 
ENDBRANCH  17  23
ENDBRANCH   4   7
ENDBRANCH   2   3
ENDBRANCH   1   2
BRANCH   1  27
ATOM     27  C   UNL A   1      31.777  31.622  26.877  1.00  0.00     0.023 C 
BRANCH  27  28
ATOM     28  C   UNL A   1      32.848  32.582  27.389  1.00  0.00     0.116 C 
BRANCH  28  29
ATOM     29  N   UNL A   1      32.377  33.939  27.631  1.00  0.00    -0.352 N 
ATOM     30  C   UNL A   1      32.923  34.885  28.470  1.00  0.00     0.251 C 
ATOM     31  H   UNL A   1      31.572  34.212  27.136  1.00  0.00     0.163 HD
ATOM     32  O   UNL A   1      32.380  35.972  28.631  1.00  0.00    -0.269 OA
BRANCH  30  33
ATOM     33  C   UNL A   1      34.146  34.540  29.221  1.00  0.00     0.039 A 
ATOM     34  C   UNL A   1      35.401  34.740  28.644  1.00  0.00     0.014 A 
ATOM     35  C   UNL A   1      34.025  33.916  30.465  1.00  0.00     0.014 A 
ATOM     36  C   UNL A   1      36.516  34.151  29.223  1.00  0.00     0.010 A 
ATOM     37  C   UNL A   1      35.163  33.397  31.087  1.00  0.00     0.010 A 
ATOM     38  C   UNL A   1      36.407  33.458  30.440  1.00  0.00    -0.014 A 
BRANCH  38  39
ATOM     39  C   UNL A   1      37.609  32.788  30.998  1.00  0.00     0.031 A 
ATOM     40  C   UNL A   1      38.168  33.194  32.336  1.00  0.00     0.074 A 
ATOM     41  C   UNL A   1      38.149  31.752  30.329  1.00  0.00     0.049 A 
ATOM     42  N   UNL A   1      39.169  32.671  33.000  1.00  0.00    -0.248 NA
ATOM     43  C   UNL A   1      37.525  34.327  33.020  1.00  0.00     0.031 C 
ATOM     44  C   UNL A   1      37.680  31.252  29.034  1.00  0.00     0.029 A 
ATOM     45  N   UNL A   1      39.177  30.909  30.661  1.00  0.00    -0.354 N 
ATOM     46  C   UNL A   1      39.287  33.422  34.163  1.00  0.00     0.074 A 
ATOM     47  C   UNL A   1      38.273  34.451  34.109  1.00  0.00     0.031 C 
ATOM     48  C   UNL A   1      38.369  30.148  28.717  1.00  0.00     0.029 A 
ATOM     49  C   UNL A   1      39.371  29.900  29.749  1.00  0.00     0.049 A 
ATOM     50  H   UNL A   1      39.723  31.015  31.472  1.00  0.00     0.167 HD
ATOM     51  C   UNL A   1      40.157  33.260  35.189  1.00  0.00     0.031 A 
ATOM     52  C   UNL A   1      40.255  28.886  29.738  1.00  0.00     0.031 A 
ATOM     53  C   UNL A   1      41.155  32.225  35.250  1.00  0.00     0.049 A 
ATOM     54  C   UNL A   1      41.233  28.754  30.866  1.00  0.00     0.074 A 
ATOM     55  C   UNL A   1      42.067  31.973  36.260  1.00  0.00     0.029 A 
ATOM     56  N   UNL A   1      41.369  31.273  34.267  1.00  0.00    -0.354 N 
ATOM     57  N   UNL A   1      41.332  29.474  31.957  1.00  0.00    -0.248 NA
ATOM     58  C   UNL A   1      42.229  27.678  30.760  1.00  0.00     0.031 C 
ATOM     59  C   UNL A   1      42.868  30.898  35.865  1.00  0.00     0.029 A 
ATOM     60  C   UNL A   1      42.418  30.447  34.635  1.00  0.00     0.049 A 
ATOM     61  H   UNL A   1      40.855  31.196  33.432  1.00  0.00     0.167 HD
ATOM     62  C   UNL A   1      42.397  28.938  32.669  1.00  0.00     0.074 A 
ATOM     63  C   UNL A   1      42.896  27.818  31.898  1.00  0.00     0.031 C 
ATOM     64  C   UNL A   1      42.915  29.345  33.852  1.00  0.00     0.031 A 
BRANCH  51  65
ATOM     65  C   UNL A   1      40.086  34.231  36.334  1.00  0.00    -0.014 A 
ATOM     66  C   UNL A   1      39.261  33.950  37.434  1.00  0.00     0.009 A 
ATOM     67  C   UNL A   1      40.762  35.460  36.289  1.00  0.00     0.009 A 
ATOM     68  C   UNL A   1      39.105  34.882  38.462  1.00  0.00     0.001 A 
ATOM     69  C   UNL A   1      40.623  36.381  37.329  1.00  0.00     0.001 A 
ATOM     70  C   UNL A   1      39.791  36.095  38.410  1.00  0.00     0.000 A 
ENDBRANCH  51  65
BRANCH  52  71
ATOM     71  C   UNL A   1      40.237  27.920  28.610  1.00  0.00    -0.014 A 
ATOM     72  C   UNL A   1      39.537  26.707  28.722  1.00  0.00     0.009 A 
ATOM     73  C   UNL A   1      40.972  28.175  27.443  1.00  0.00     0.009 A 
ATOM     74  C   UNL A   1      39.596  25.758  27.701  1.00  0.00     0.001 A 
ATOM     75  C   UNL A   1      41.007  27.234  26.411  1.00  0.00     0.001 A 
ATOM     76  C   UNL A   1      40.328  26.023  26.546  1.00  0.00     0.000 A 
ENDBRANCH  52  71
BRANCH  64  77
ATOM     77  C   UNL A   1      44.089  28.585  34.395  1.00  0.00    -0.014 A 
ATOM     78  C   UNL A   1      43.879  27.455  35.202  1.00  0.00     0.009 A 
ATOM     79  C   UNL A   1      45.400  29.037  34.180  1.00  0.00     0.009 A 
ATOM     80  C   UNL A   1      44.960  26.800  35.794  1.00  0.00     0.001 A 
ATOM     81  C   UNL A   1      46.480  28.364  34.754  1.00  0.00     0.001 A 
ATOM     82  C   UNL A   1      46.258  27.252  35.567  1.00  0.00     0.000 A 
ENDBRANCH  64  77
ENDBRANCH  38  39
ENDBRANCH  30  33
ENDBRANCH  28  29
ENDBRANCH  27  28
ENDBRANCH   1  27
TORSDOF 15
ENDMDL
