MODEL 1
REMARK VINA RESULT:     -10.5      0.000      0.000
REMARK SMILES CC(C)C[C@H](NC(=O)[C@@H](NC(=O)[C@H](C)NC(=O)CNC(=O)OCc1ccccc1)C(C)C)C(=O)NCCCCNC(=O)c1ccc(-c2c3nc(c(-c4ccccc4)c4ccc([nH]4)c(-c4ccccc4)c4nc(c(-c5ccccc5)c5ccc2[nH]5)C=C4)C=C3)cc1
REMARK SMILES IDX 6 1 7 2 8 3 5 5 4 6 2 7 1 8 3 9 33 10 34 11 35 12 36 14
REMARK SMILES IDX 37 15 38 16 39 17 40 18 41 19 42 21 43 22 44 23 90 24 45 25
REMARK SMILES IDX 89 26 46 27 47 28 48 29 83 30 49 31 88 32 82 33 84 34 50 35
REMARK SMILES IDX 87 36 81 37 80 38 51 40 73 41 58 42 72 43 59 44 62 45 71 46
REMARK SMILES IDX 85 47 60 48 61 49 70 51 86 52 63 53 52 54 53 55 57 56 54 57
REMARK SMILES IDX 56 58 55 59 74 60 75 61 79 62 76 63 78 64 77 65 64 66 65 67
REMARK SMILES IDX 69 68 66 69 68 70 67 71 9 72 10 73 11 74 12 76 13 77 14 78
REMARK SMILES IDX 15 79 16 80 17 82 18 83 19 84 20 85 21 87 22 88 23 89 24 90
REMARK SMILES IDX 25 91 29 92 26 93 28 94 27 95 30 96 31 97 32 98
REMARK H PARENT 6 4 35 13 40 20 84 39 62 50 10 75 15 81 19 86
REMARK Flexibility Score: inf
ROOT
ATOM      1  N   UNL A   1      31.532  27.898  25.717  1.00  0.00    -0.343 N 
ATOM      2  C   UNL A   1      31.676  26.589  26.020  1.00  0.00     0.243 C 
ATOM      3  O   UNL A   1      31.307  26.314  27.169  1.00  0.00    -0.273 OA
ATOM      4  H   UNL A   1      31.176  28.452  26.448  1.00  0.00     0.164 HD
ENDROOT
BRANCH   1   5
ATOM      5  C   UNL A   1      31.811  28.608  24.508  1.00  0.00     0.171 C 
BRANCH   5   6
ATOM      6  C   UNL A   1      30.937  29.890  24.386  1.00  0.00     0.038 C 
BRANCH   6   7
ATOM      7  C   UNL A   1      29.672  29.878  23.456  1.00  0.00    -0.015 C 
ATOM      8  C   UNL A   1      28.922  31.165  23.630  1.00  0.00     0.007 C 
ATOM      9  C   UNL A   1      29.957  29.826  21.959  1.00  0.00     0.007 C 
ENDBRANCH   6   7
ENDBRANCH   5   6
BRANCH   5  10
ATOM     10  C   UNL A   1      33.335  28.661  24.064  1.00  0.00     0.242 C 
ATOM     11  O   UNL A   1      33.634  28.479  22.880  1.00  0.00    -0.273 OA
ATOM     12  N   UNL A   1      34.376  28.782  24.987  1.00  0.00    -0.354 N 
ATOM     13  H   UNL A   1      35.285  28.821  24.610  1.00  0.00     0.163 HD
BRANCH  12  14
ATOM     14  C   UNL A   1      34.280  28.856  26.434  1.00  0.00     0.116 C 
BRANCH  14  15
ATOM     15  C   UNL A   1      35.067  29.850  27.287  1.00  0.00     0.023 C 
BRANCH  15  16
ATOM     16  C   UNL A   1      34.591  31.292  27.445  1.00  0.00     0.023 C 
BRANCH  16  17
ATOM     17  C   UNL A   1      33.129  31.588  27.757  1.00  0.00     0.116 C 
BRANCH  17  18
ATOM     18  N   UNL A   1      32.735  32.989  27.842  1.00  0.00    -0.352 N 
ATOM     19  C   UNL A   1      33.411  34.065  28.381  1.00  0.00     0.251 C 
ATOM     20  H   UNL A   1      31.854  33.199  27.458  1.00  0.00     0.163 HD
ATOM     21  O   UNL A   1      32.991  35.208  28.233  1.00  0.00    -0.269 OA
BRANCH  19  22
ATOM     22  C   UNL A   1      34.574  33.834  29.258  1.00  0.00     0.039 A 
ATOM     23  C   UNL A   1      34.372  33.020  30.376  1.00  0.00     0.014 A 
ATOM     24  C   UNL A   1      35.851  34.283  28.928  1.00  0.00     0.014 A 
ATOM     25  C   UNL A   1      35.472  32.525  31.071  1.00  0.00     0.010 A 
ATOM     26  C   UNL A   1      36.951  33.713  29.562  1.00  0.00     0.010 A 
ATOM     27  C   UNL A   1      36.771  32.801  30.616  1.00  0.00    -0.014 A 
BRANCH  27  28
ATOM     28  C   UNL A   1      37.938  32.095  31.200  1.00  0.00     0.031 A 
ATOM     29  C   UNL A   1      38.603  30.979  30.448  1.00  0.00     0.074 A 
ATOM     30  C   UNL A   1      38.361  32.423  32.438  1.00  0.00     0.049 A 
ATOM     31  N   UNL A   1      39.615  30.232  30.809  1.00  0.00    -0.248 NA
ATOM     32  C   UNL A   1      38.045  30.643  29.129  1.00  0.00     0.031 C 
ATOM     33  C   UNL A   1      37.772  33.459  33.292  1.00  0.00     0.029 A 
ATOM     34  N   UNL A   1      39.390  31.920  33.195  1.00  0.00    -0.354 N 
ATOM     35  C   UNL A   1      39.803  29.329  29.772  1.00  0.00     0.074 A 
ATOM     36  C   UNL A   1      38.771  29.587  28.792  1.00  0.00     0.031 C 
ATOM     37  C   UNL A   1      38.473  33.542  34.434  1.00  0.00     0.029 A 
ATOM     38  C   UNL A   1      39.529  32.537  34.417  1.00  0.00     0.049 A 
ATOM     39  H   UNL A   1      39.973  31.187  32.893  1.00  0.00     0.167 HD
ATOM     40  C   UNL A   1      40.763  28.385  29.635  1.00  0.00     0.031 A 
ATOM     41  C   UNL A   1      40.408  32.316  35.413  1.00  0.00     0.031 A 
ATOM     42  C   UNL A   1      41.792  28.132  30.607  1.00  0.00     0.049 A 
ATOM     43  C   UNL A   1      41.449  31.242  35.246  1.00  0.00     0.074 A 
ATOM     44  C   UNL A   1      42.844  27.237  30.534  1.00  0.00     0.029 A 
ATOM     45  N   UNL A   1      41.894  28.771  31.833  1.00  0.00    -0.354 N 
ATOM     46  N   UNL A   1      41.662  30.451  34.223  1.00  0.00    -0.248 NA
ATOM     47  C   UNL A   1      42.374  31.039  36.370  1.00  0.00     0.031 C 
ATOM     48  C   UNL A   1      43.547  27.290  31.742  1.00  0.00     0.029 A 
ATOM     49  C   UNL A   1      42.973  28.267  32.540  1.00  0.00     0.049 A 
ATOM     50  H   UNL A   1      41.289  29.479  32.154  1.00  0.00     0.167 HD
ATOM     51  C   UNL A   1      42.766  29.680  34.565  1.00  0.00     0.074 A 
ATOM     52  C   UNL A   1      43.185  30.109  35.884  1.00  0.00     0.031 C 
ATOM     53  C   UNL A   1      43.377  28.704  33.851  1.00  0.00     0.031 A 
BRANCH  40  54
ATOM     54  C   UNL A   1      40.731  27.544  28.389  1.00  0.00    -0.014 A 
ATOM     55  C   UNL A   1      40.012  26.338  28.341  1.00  0.00     0.009 A 
ATOM     56  C   UNL A   1      41.406  27.977  27.238  1.00  0.00     0.009 A 
ATOM     57  C   UNL A   1      40.005  25.565  27.179  1.00  0.00     0.001 A 
ATOM     58  C   UNL A   1      41.370  27.219  26.067  1.00  0.00     0.001 A 
ATOM     59  C   UNL A   1      40.679  26.009  26.041  1.00  0.00     0.000 A 
ENDBRANCH  40  54
BRANCH  41  60
ATOM     60  C   UNL A   1      40.359  33.134  36.655  1.00  0.00    -0.014 A 
ATOM     61  C   UNL A   1      39.514  32.770  37.715  1.00  0.00     0.009 A 
ATOM     62  C   UNL A   1      41.143  34.291  36.782  1.00  0.00     0.009 A 
ATOM     63  C   UNL A   1      39.430  33.565  38.861  1.00  0.00     0.001 A 
ATOM     64  C   UNL A   1      41.082  35.067  37.943  1.00  0.00     0.001 A 
ATOM     65  C   UNL A   1      40.217  34.708  38.976  1.00  0.00     0.000 A 
ENDBRANCH  41  60
BRANCH  53  66
ATOM     66  C   UNL A   1      44.591  28.061  34.462  1.00  0.00    -0.014 A 
ATOM     67  C   UNL A   1      45.877  28.586  34.263  1.00  0.00     0.009 A 
ATOM     68  C   UNL A   1      44.437  26.934  35.285  1.00  0.00     0.009 A 
ATOM     69  C   UNL A   1      46.988  27.973  34.849  1.00  0.00     0.001 A 
ATOM     70  C   UNL A   1      45.544  26.343  35.895  1.00  0.00     0.001 A 
ATOM     71  C   UNL A   1      46.819  26.858  35.668  1.00  0.00     0.000 A 
ENDBRANCH  53  66
ENDBRANCH  27  28
ENDBRANCH  19  22
ENDBRANCH  17  18
ENDBRANCH  16  17
ENDBRANCH  15  16
ENDBRANCH  14  15
ENDBRANCH  12  14
ENDBRANCH   5  10
ENDBRANCH   1   5
BRANCH   2  72
ATOM     72  C   UNL A   1      32.152  25.458  25.004  1.00  0.00     0.174 C 
BRANCH  72  73
ATOM     73  N   UNL A   1      33.079  24.305  25.422  1.00  0.00    -0.342 N 
ATOM     74  C   UNL A   1      34.162  23.502  25.301  1.00  0.00     0.242 C 
ATOM     75  H   UNL A   1      32.638  23.956  26.230  1.00  0.00     0.164 HD
ATOM     76  O   UNL A   1      34.261  22.798  26.330  1.00  0.00    -0.273 OA
BRANCH  74  77
ATOM     77  C   UNL A   1      35.165  23.168  24.109  1.00  0.00     0.168 C 
ATOM     78  C   UNL A   1      34.357  23.071  22.792  1.00  0.00     0.041 C 
BRANCH  77  79
ATOM     79  N   UNL A   1      35.994  21.965  24.204  1.00  0.00    -0.343 N 
ATOM     80  C   UNL A   1      37.238  21.738  24.722  1.00  0.00     0.240 C 
ATOM     81  H   UNL A   1      35.573  21.163  23.819  1.00  0.00     0.164 HD
ATOM     82  O   UNL A   1      37.675  20.591  24.552  1.00  0.00    -0.273 OA
BRANCH  80  83
ATOM     83  C   UNL A   1      38.055  22.713  25.629  1.00  0.00     0.219 C 
BRANCH  83  84
ATOM     84  N   UNL A   1      38.797  22.179  26.752  1.00  0.00    -0.312 N 
ATOM     85  C   UNL A   1      40.119  21.873  26.932  1.00  0.00     0.407 C 
ATOM     86  H   UNL A   1      38.240  22.002  27.544  1.00  0.00     0.167 HD
ATOM     87  O   UNL A   1      40.498  21.519  28.026  1.00  0.00    -0.225 OA
BRANCH  85  88
ATOM     88  O   UNL A   1      40.912  21.988  25.830  1.00  0.00    -0.445 OA
BRANCH  88  89
ATOM     89  C   UNL A   1      42.187  21.312  25.949  1.00  0.00     0.270 C 
BRANCH  89  90
ATOM     90  C   UNL A   1      43.382  22.168  25.594  1.00  0.00    -0.011 A 
ATOM     91  C   UNL A   1      44.661  21.613  25.475  1.00  0.00     0.007 A 
ATOM     92  C   UNL A   1      43.206  23.523  25.252  1.00  0.00     0.007 A 
ATOM     93  C   UNL A   1      45.738  22.388  25.038  1.00  0.00     0.000 A 
ATOM     94  C   UNL A   1      44.285  24.297  24.815  1.00  0.00     0.000 A 
ATOM     95  C   UNL A   1      45.552  23.728  24.708  1.00  0.00     0.000 A 
ENDBRANCH  89  90
ENDBRANCH  88  89
ENDBRANCH  85  88
ENDBRANCH  83  84
ENDBRANCH  80  83
ENDBRANCH  77  79
ENDBRANCH  74  77
ENDBRANCH  72  73
BRANCH  72  96
ATOM     96  C   UNL A   1      31.225  25.291  23.754  1.00  0.00     0.015 C 
ATOM     97  C   UNL A   1      31.910  25.602  22.406  1.00  0.00     0.010 C 
ATOM     98  C   UNL A   1      30.663  23.871  23.677  1.00  0.00     0.010 C 
ENDBRANCH  72  96
ENDBRANCH   2  72
TORSDOF 24
ENDMDL
MODEL 2
REMARK VINA RESULT:     -10.4      1.624      5.918
REMARK SMILES CC(C)C[C@H](NC(=O)[C@@H](NC(=O)[C@H](C)NC(=O)CNC(=O)OCc1ccccc1)C(C)C)C(=O)NCCCCNC(=O)c1ccc(-c2c3nc(c(-c4ccccc4)c4ccc([nH]4)c(-c4ccccc4)c4nc(c(-c5ccccc5)c5ccc2[nH]5)C=C4)C=C3)cc1
REMARK SMILES IDX 6 1 7 2 8 3 5 5 4 6 2 7 1 8 3 9 33 10 34 11 35 12 36 14
REMARK SMILES IDX 37 15 38 16 39 17 40 18 41 19 42 21 43 22 44 23 90 24 45 25
REMARK SMILES IDX 89 26 46 27 47 28 48 29 83 30 49 31 88 32 82 33 84 34 50 35
REMARK SMILES IDX 87 36 81 37 80 38 51 40 73 41 58 42 72 43 59 44 62 45 71 46
REMARK SMILES IDX 85 47 60 48 61 49 70 51 86 52 63 53 52 54 53 55 57 56 54 57
REMARK SMILES IDX 56 58 55 59 74 60 75 61 79 62 76 63 78 64 77 65 64 66 65 67
REMARK SMILES IDX 69 68 66 69 68 70 67 71 9 72 10 73 11 74 12 76 13 77 14 78
REMARK SMILES IDX 15 79 16 80 17 82 18 83 19 84 20 85 21 87 22 88 23 89 24 90
REMARK SMILES IDX 25 91 29 92 26 93 28 94 27 95 30 96 31 97 32 98
REMARK H PARENT 6 4 35 13 40 20 84 39 62 50 10 75 15 81 19 86
REMARK Flexibility Score: inf
ROOT
ATOM      1  N   UNL A   1      32.877  26.467  23.387  1.00  0.00    -0.343 N 
ATOM      2  C   UNL A   1      33.409  25.402  22.747  1.00  0.00     0.243 C 
ATOM      3  O   UNL A   1      33.816  25.674  21.610  1.00  0.00    -0.273 OA
ATOM      4  H   UNL A   1      32.868  27.300  22.862  1.00  0.00     0.164 HD
ENDROOT
BRANCH   1   5
ATOM      5  C   UNL A   1      32.327  26.582  24.701  1.00  0.00     0.171 C 
BRANCH   5   6
ATOM      6  C   UNL A   1      31.289  25.458  24.985  1.00  0.00     0.038 C 
BRANCH   6   7
ATOM      7  C   UNL A   1      31.050  24.980  26.462  1.00  0.00    -0.015 C 
ATOM      8  C   UNL A   1      29.597  24.653  26.643  1.00  0.00     0.007 C 
ATOM      9  C   UNL A   1      31.763  23.693  26.860  1.00  0.00     0.007 C 
ENDBRANCH   6   7
ENDBRANCH   5   6
BRANCH   5  10
ATOM     10  C   UNL A   1      33.338  27.013  25.847  1.00  0.00     0.242 C 
ATOM     11  O   UNL A   1      34.347  26.333  26.061  1.00  0.00    -0.273 OA
ATOM     12  N   UNL A   1      33.070  28.071  26.718  1.00  0.00    -0.354 N 
ATOM     13  H   UNL A   1      33.768  28.270  27.385  1.00  0.00     0.163 HD
BRANCH  12  14
ATOM     14  C   UNL A   1      31.889  28.914  26.759  1.00  0.00     0.116 C 
BRANCH  14  15
ATOM     15  C   UNL A   1      31.741  30.211  25.964  1.00  0.00     0.023 C 
BRANCH  15  16
ATOM     16  C   UNL A   1      31.306  31.503  26.652  1.00  0.00     0.023 C 
BRANCH  16  17
ATOM     17  C   UNL A   1      32.029  32.811  26.357  1.00  0.00     0.116 C 
BRANCH  17  18
ATOM     18  N   UNL A   1      32.037  33.821  27.408  1.00  0.00    -0.352 N 
ATOM     19  C   UNL A   1      33.049  34.190  28.272  1.00  0.00     0.251 C 
ATOM     20  H   UNL A   1      31.193  34.315  27.519  1.00  0.00     0.163 HD
ATOM     21  O   UNL A   1      32.927  35.169  29.000  1.00  0.00    -0.269 OA
BRANCH  19  22
ATOM     22  C   UNL A   1      34.233  33.323  28.423  1.00  0.00     0.039 A 
ATOM     23  C   UNL A   1      35.481  33.952  28.433  1.00  0.00     0.014 A 
ATOM     24  C   UNL A   1      34.123  31.959  28.683  1.00  0.00     0.014 A 
ATOM     25  C   UNL A   1      36.601  33.245  28.861  1.00  0.00     0.010 A 
ATOM     26  C   UNL A   1      35.223  31.281  29.202  1.00  0.00     0.010 A 
ATOM     27  C   UNL A   1      36.463  31.929  29.329  1.00  0.00    -0.014 A 
BRANCH  27  28
ATOM     28  C   UNL A   1      37.595  31.248  30.004  1.00  0.00     0.031 A 
ATOM     29  C   UNL A   1      37.906  31.539  31.443  1.00  0.00     0.074 A 
ATOM     30  C   UNL A   1      38.381  30.409  29.298  1.00  0.00     0.049 A 
ATOM     31  N   UNL A   1      38.867  31.061  32.190  1.00  0.00    -0.248 NA
ATOM     32  C   UNL A   1      37.037  32.509  32.127  1.00  0.00     0.031 C 
ATOM     33  C   UNL A   1      38.213  30.076  27.880  1.00  0.00     0.029 A 
ATOM     34  N   UNL A   1      39.480  29.679  29.678  1.00  0.00    -0.354 N 
ATOM     35  C   UNL A   1      38.730  31.683  33.423  1.00  0.00     0.074 A 
ATOM     36  C   UNL A   1      37.626  32.611  33.309  1.00  0.00     0.031 C 
ATOM     37  C   UNL A   1      39.146  29.179  27.523  1.00  0.00     0.029 A 
ATOM     38  C   UNL A   1      40.007  28.908  28.668  1.00  0.00     0.049 A 
ATOM     39  H   UNL A   1      39.855  29.705  30.587  1.00  0.00     0.167 HD
ATOM     40  C   UNL A   1      39.444  31.486  34.555  1.00  0.00     0.031 A 
ATOM     41  C   UNL A   1      41.067  28.077  28.664  1.00  0.00     0.031 A 
ATOM     42  C   UNL A   1      40.538  30.561  34.670  1.00  0.00     0.049 A 
ATOM     43  C   UNL A   1      41.859  27.896  29.930  1.00  0.00     0.074 A 
ATOM     44  C   UNL A   1      41.287  30.247  35.790  1.00  0.00     0.029 A 
ATOM     45  N   UNL A   1      41.047  29.806  33.624  1.00  0.00    -0.354 N 
ATOM     46  N   UNL A   1      41.665  28.433  31.110  1.00  0.00    -0.248 NA
ATOM     47  C   UNL A   1      43.011  26.985  29.863  1.00  0.00     0.031 C 
ATOM     48  C   UNL A   1      42.288  29.347  35.409  1.00  0.00     0.029 A 
ATOM     49  C   UNL A   1      42.119  29.050  34.065  1.00  0.00     0.049 A 
ATOM     50  H   UNL A   1      40.697  29.806  32.703  1.00  0.00     0.167 HD
ATOM     51  C   UNL A   1      42.649  27.901  31.934  1.00  0.00     0.074 A 
ATOM     52  C   UNL A   1      43.427  26.989  31.122  1.00  0.00     0.031 C 
ATOM     53  C   UNL A   1      42.885  28.146  33.245  1.00  0.00     0.031 A 
BRANCH  40  54
ATOM     54  C   UNL A   1      39.067  32.302  35.760  1.00  0.00    -0.014 A 
ATOM     55  C   UNL A   1      39.554  33.608  35.939  1.00  0.00     0.009 A 
ATOM     56  C   UNL A   1      38.188  31.771  36.716  1.00  0.00     0.009 A 
ATOM     57  C   UNL A   1      39.202  34.346  37.070  1.00  0.00     0.001 A 
ATOM     58  C   UNL A   1      37.811  32.523  37.830  1.00  0.00     0.001 A 
ATOM     59  C   UNL A   1      38.327  33.805  38.012  1.00  0.00     0.000 A 
ENDBRANCH  40  54
BRANCH  41  60
ATOM     60  C   UNL A   1      41.439  27.338  27.427  1.00  0.00    -0.014 A 
ATOM     61  C   UNL A   1      40.967  26.035  27.207  1.00  0.00     0.009 A 
ATOM     62  C   UNL A   1      42.282  27.923  26.469  1.00  0.00     0.009 A 
ATOM     63  C   UNL A   1      41.357  25.322  26.070  1.00  0.00     0.001 A 
ATOM     64  C   UNL A   1      42.644  27.220  25.318  1.00  0.00     0.001 A 
ATOM     65  C   UNL A   1      42.190  25.916  25.125  1.00  0.00     0.000 A 
ENDBRANCH  41  60
BRANCH  53  66
ATOM     66  C   UNL A   1      44.007  27.386  33.897  1.00  0.00    -0.014 A 
ATOM     67  C   UNL A   1      43.803  26.116  34.456  1.00  0.00     0.009 A 
ATOM     68  C   UNL A   1      45.298  27.937  33.913  1.00  0.00     0.009 A 
ATOM     69  C   UNL A   1      44.864  25.427  35.049  1.00  0.00     0.001 A 
ATOM     70  C   UNL A   1      46.363  27.233  34.478  1.00  0.00     0.001 A 
ATOM     71  C   UNL A   1      46.143  25.983  35.053  1.00  0.00     0.000 A 
ENDBRANCH  53  66
ENDBRANCH  27  28
ENDBRANCH  19  22
ENDBRANCH  17  18
ENDBRANCH  16  17
ENDBRANCH  15  16
ENDBRANCH  14  15
ENDBRANCH  12  14
ENDBRANCH   5  10
ENDBRANCH   1   5
BRANCH   2  72
ATOM     72  C   UNL A   1      33.623  23.959  23.386  1.00  0.00     0.174 C 
BRANCH  72  73
ATOM     73  N   UNL A   1      34.380  23.740  24.705  1.00  0.00    -0.342 N 
ATOM     74  C   UNL A   1      35.449  23.387  25.457  1.00  0.00     0.242 C 
ATOM     75  H   UNL A   1      33.716  24.006  25.382  1.00  0.00     0.164 HD
ATOM     76  O   UNL A   1      35.233  23.712  26.645  1.00  0.00    -0.273 OA
BRANCH  74  77
ATOM     77  C   UNL A   1      36.764  22.532  25.179  1.00  0.00     0.168 C 
ATOM     78  C   UNL A   1      36.401  21.029  25.236  1.00  0.00     0.041 C 
BRANCH  77  79
ATOM     79  N   UNL A   1      37.929  22.734  26.042  1.00  0.00    -0.343 N 
ATOM     80  C   UNL A   1      39.014  21.953  26.328  1.00  0.00     0.240 C 
ATOM     81  H   UNL A   1      37.931  23.601  26.508  1.00  0.00     0.164 HD
ATOM     82  O   UNL A   1      39.780  22.415  27.186  1.00  0.00    -0.273 OA
BRANCH  80  83
ATOM     83  C   UNL A   1      39.449  20.659  25.569  1.00  0.00     0.219 C 
BRANCH  83  84
ATOM     84  N   UNL A   1      40.446  19.793  26.163  1.00  0.00    -0.312 N 
ATOM     85  C   UNL A   1      41.811  19.865  26.244  1.00  0.00     0.407 C 
ATOM     86  H   UNL A   1      40.067  18.994  26.595  1.00  0.00     0.167 HD
ATOM     87  O   UNL A   1      42.407  19.035  26.893  1.00  0.00    -0.225 OA
BRANCH  85  88
ATOM     88  O   UNL A   1      42.394  20.889  25.561  1.00  0.00    -0.445 OA
BRANCH  88  89
ATOM     89  C   UNL A   1      43.813  21.033  25.814  1.00  0.00     0.270 C 
BRANCH  89  90
ATOM     90  C   UNL A   1      44.266  22.460  26.028  1.00  0.00    -0.011 A 
ATOM     91  C   UNL A   1      44.168  23.070  27.284  1.00  0.00     0.007 A 
ATOM     92  C   UNL A   1      44.915  23.160  24.993  1.00  0.00     0.007 A 
ATOM     93  C   UNL A   1      44.690  24.347  27.500  1.00  0.00     0.000 A 
ATOM     94  C   UNL A   1      45.437  24.439  25.211  1.00  0.00     0.000 A 
ATOM     95  C   UNL A   1      45.325  25.031  26.466  1.00  0.00     0.000 A 
ENDBRANCH  89  90
ENDBRANCH  88  89
ENDBRANCH  85  88
ENDBRANCH  83  84
ENDBRANCH  80  83
ENDBRANCH  77  79
ENDBRANCH  74  77
ENDBRANCH  72  73
BRANCH  72  96
ATOM     96  C   UNL A   1      32.592  22.886  22.898  1.00  0.00     0.015 C 
ATOM     97  C   UNL A   1      32.705  21.522  23.612  1.00  0.00     0.010 C 
ATOM     98  C   UNL A   1      31.159  23.389  23.071  1.00  0.00     0.010 C 
ENDBRANCH  72  96
ENDBRANCH   2  72
TORSDOF 24
ENDMDL
MODEL 3
REMARK VINA RESULT:     -10.3      1.630      2.718
REMARK SMILES CC(C)C[C@H](NC(=O)[C@@H](NC(=O)[C@H](C)NC(=O)CNC(=O)OCc1ccccc1)C(C)C)C(=O)NCCCCNC(=O)c1ccc(-c2c3nc(c(-c4ccccc4)c4ccc([nH]4)c(-c4ccccc4)c4nc(c(-c5ccccc5)c5ccc2[nH]5)C=C4)C=C3)cc1
REMARK SMILES IDX 6 1 7 2 8 3 5 5 4 6 2 7 1 8 3 9 33 10 34 11 35 12 36 14
REMARK SMILES IDX 37 15 38 16 39 17 40 18 41 19 42 21 43 22 44 23 90 24 45 25
REMARK SMILES IDX 89 26 46 27 47 28 48 29 83 30 49 31 88 32 82 33 84 34 50 35
REMARK SMILES IDX 87 36 81 37 80 38 51 40 73 41 58 42 72 43 59 44 62 45 71 46
REMARK SMILES IDX 85 47 60 48 61 49 70 51 86 52 63 53 52 54 53 55 57 56 54 57
REMARK SMILES IDX 56 58 55 59 74 60 75 61 79 62 76 63 78 64 77 65 64 66 65 67
REMARK SMILES IDX 69 68 66 69 68 70 67 71 9 72 10 73 11 74 12 76 13 77 14 78
REMARK SMILES IDX 15 79 16 80 17 82 18 83 19 84 20 85 21 87 22 88 23 89 24 90
REMARK SMILES IDX 25 91 29 92 26 93 28 94 27 95 30 96 31 97 32 98
REMARK H PARENT 6 4 35 13 40 20 84 39 62 50 10 75 15 81 19 86
REMARK Flexibility Score: inf
ROOT
ATOM      1  N   UNL A   1      31.406  27.644  25.483  1.00  0.00    -0.343 N 
ATOM      2  C   UNL A   1      31.560  26.428  26.053  1.00  0.00     0.243 C 
ATOM      3  O   UNL A   1      31.110  26.372  27.204  1.00  0.00    -0.273 OA
ATOM      4  H   UNL A   1      30.979  28.318  26.060  1.00  0.00     0.164 HD
ENDROOT
BRANCH   1   5
ATOM      5  C   UNL A   1      31.759  28.111  24.179  1.00  0.00     0.171 C 
BRANCH   5   6
ATOM      6  C   UNL A   1      30.801  29.238  23.698  1.00  0.00     0.038 C 
BRANCH   6   7
ATOM      7  C   UNL A   1      29.831  28.967  22.493  1.00  0.00    -0.015 C 
ATOM      8  C   UNL A   1      28.556  28.371  23.013  1.00  0.00     0.007 C 
ATOM      9  C   UNL A   1      29.368  30.203  21.730  1.00  0.00     0.007 C 
ENDBRANCH   6   7
ENDBRANCH   5   6
BRANCH   5  10
ATOM     10  C   UNL A   1      33.314  28.231  23.877  1.00  0.00     0.242 C 
ATOM     11  O   UNL A   1      33.800  27.626  22.917  1.00  0.00    -0.273 OA
ATOM     12  N   UNL A   1      34.189  28.901  24.735  1.00  0.00    -0.354 N 
ATOM     13  H   UNL A   1      35.132  28.933  24.451  1.00  0.00     0.163 HD
BRANCH  12  14
ATOM     14  C   UNL A   1      33.879  29.555  25.994  1.00  0.00     0.116 C 
BRANCH  14  15
ATOM     15  C   UNL A   1      34.440  29.110  27.344  1.00  0.00     0.023 C 
BRANCH  15  16
ATOM     16  C   UNL A   1      35.300  30.054  28.181  1.00  0.00     0.023 C 
BRANCH  16  17
ATOM     17  C   UNL A   1      35.409  31.527  27.808  1.00  0.00     0.116 C 
BRANCH  17  18
ATOM     18  N   UNL A   1      34.273  32.383  28.130  1.00  0.00    -0.352 N 
ATOM     19  C   UNL A   1      34.128  33.316  29.137  1.00  0.00     0.251 C 
ATOM     20  H   UNL A   1      33.492  32.279  27.541  1.00  0.00     0.163 HD
ATOM     21  O   UNL A   1      33.151  34.057  29.170  1.00  0.00    -0.269 OA
BRANCH  19  22
ATOM     22  C   UNL A   1      35.084  33.335  30.260  1.00  0.00     0.039 A 
ATOM     23  C   UNL A   1      34.946  32.335  31.226  1.00  0.00     0.014 A 
ATOM     24  C   UNL A   1      36.164  34.214  30.297  1.00  0.00     0.014 A 
ATOM     25  C   UNL A   1      35.974  32.117  32.138  1.00  0.00     0.010 A 
ATOM     26  C   UNL A   1      37.233  33.934  31.145  1.00  0.00     0.010 A 
ATOM     27  C   UNL A   1      37.161  32.861  32.048  1.00  0.00    -0.014 A 
BRANCH  27  28
ATOM     28  C   UNL A   1      38.349  32.483  32.853  1.00  0.00     0.031 A 
ATOM     29  C   UNL A   1      39.418  31.610  32.264  1.00  0.00     0.074 A 
ATOM     30  C   UNL A   1      38.432  32.880  34.140  1.00  0.00     0.049 A 
ATOM     31  N   UNL A   1      40.511  31.157  32.823  1.00  0.00    -0.248 NA
ATOM     32  C   UNL A   1      39.225  31.170  30.874  1.00  0.00     0.031 C 
ATOM     33  C   UNL A   1      37.437  33.694  34.845  1.00  0.00     0.029 A 
ATOM     34  N   UNL A   1      39.402  32.656  35.085  1.00  0.00    -0.354 N 
ATOM     35  C   UNL A   1      41.125  30.367  31.861  1.00  0.00     0.074 A 
ATOM     36  C   UNL A   1      40.259  30.361  30.702  1.00  0.00     0.031 C 
ATOM     37  C   UNL A   1      37.868  33.934  36.094  1.00  0.00     0.029 A 
ATOM     38  C   UNL A   1      39.142  33.255  36.296  1.00  0.00     0.049 A 
ATOM     39  H   UNL A   1      40.207  32.118  34.913  1.00  0.00     0.167 HD
ATOM     40  C   UNL A   1      42.313  29.723  31.926  1.00  0.00     0.031 A 
ATOM     41  C   UNL A   1      39.850  33.255  37.441  1.00  0.00     0.031 A 
ATOM     42  C   UNL A   1      43.176  29.734  33.076  1.00  0.00     0.049 A 
ATOM     43  C   UNL A   1      41.155  32.509  37.495  1.00  0.00     0.074 A 
ATOM     44  C   UNL A   1      44.426  29.160  33.220  1.00  0.00     0.029 A 
ATOM     45  N   UNL A   1      42.874  30.344  34.284  1.00  0.00    -0.354 N 
ATOM     46  N   UNL A   1      41.760  31.834  36.548  1.00  0.00    -0.248 NA
ATOM     47  C   UNL A   1      41.879  32.535  38.775  1.00  0.00     0.031 C 
ATOM     48  C   UNL A   1      44.855  29.370  34.535  1.00  0.00     0.029 A 
ATOM     49  C   UNL A   1      43.900  30.133  35.189  1.00  0.00     0.049 A 
ATOM     50  H   UNL A   1      42.051  30.852  34.471  1.00  0.00     0.167 HD
ATOM     51  C   UNL A   1      42.949  31.382  37.107  1.00  0.00     0.074 A 
ATOM     52  C   UNL A   1      42.987  31.874  38.468  1.00  0.00     0.031 C 
ATOM     53  C   UNL A   1      43.923  30.629  36.541  1.00  0.00     0.031 A 
BRANCH  40  54
ATOM     54  C   UNL A   1      42.741  28.939  30.717  1.00  0.00    -0.014 A 
ATOM     55  C   UNL A   1      43.511  29.527  29.700  1.00  0.00     0.009 A 
ATOM     56  C   UNL A   1      42.393  27.584  30.606  1.00  0.00     0.009 A 
ATOM     57  C   UNL A   1      43.888  28.786  28.579  1.00  0.00     0.001 A 
ATOM     58  C   UNL A   1      42.799  26.836  29.499  1.00  0.00     0.001 A 
ATOM     59  C   UNL A   1      43.536  27.440  28.482  1.00  0.00     0.000 A 
ENDBRANCH  40  54
BRANCH  41  60
ATOM     60  C   UNL A   1      39.353  33.995  38.633  1.00  0.00    -0.014 A 
ATOM     61  C   UNL A   1      39.693  35.342  38.827  1.00  0.00     0.009 A 
ATOM     62  C   UNL A   1      38.552  33.355  39.591  1.00  0.00     0.009 A 
ATOM     63  C   UNL A   1      39.269  36.024  39.970  1.00  0.00     0.001 A 
ATOM     64  C   UNL A   1      38.102  34.048  40.718  1.00  0.00     0.001 A 
ATOM     65  C   UNL A   1      38.470  35.379  40.912  1.00  0.00     0.000 A 
ENDBRANCH  41  60
BRANCH  53  66
ATOM     66  C   UNL A   1      45.133  30.323  37.380  1.00  0.00    -0.014 A 
ATOM     67  C   UNL A   1      45.205  29.163  38.166  1.00  0.00     0.009 A 
ATOM     68  C   UNL A   1      46.234  31.193  37.349  1.00  0.00     0.009 A 
ATOM     69  C   UNL A   1      46.345  28.899  38.930  1.00  0.00     0.001 A 
ATOM     70  C   UNL A   1      47.384  30.910  38.089  1.00  0.00     0.001 A 
ATOM     71  C   UNL A   1      47.434  29.769  38.886  1.00  0.00     0.000 A 
ENDBRANCH  53  66
ENDBRANCH  27  28
ENDBRANCH  19  22
ENDBRANCH  17  18
ENDBRANCH  16  17
ENDBRANCH  15  16
ENDBRANCH  14  15
ENDBRANCH  12  14
ENDBRANCH   5  10
ENDBRANCH   1   5
BRANCH   2  72
ATOM     72  C   UNL A   1      32.144  25.139  25.322  1.00  0.00     0.174 C 
BRANCH  72  73
ATOM     73  N   UNL A   1      33.233  24.253  25.947  1.00  0.00    -0.342 N 
ATOM     74  C   UNL A   1      34.434  23.629  25.976  1.00  0.00     0.242 C 
ATOM     75  H   UNL A   1      32.834  23.996  26.810  1.00  0.00     0.164 HD
ATOM     76  O   UNL A   1      34.619  23.159  27.120  1.00  0.00    -0.273 OA
BRANCH  74  77
ATOM     77  C   UNL A   1      35.508  23.243  24.864  1.00  0.00     0.168 C 
ATOM     78  C   UNL A   1      34.952  23.644  23.476  1.00  0.00     0.041 C 
BRANCH  77  79
ATOM     79  N   UNL A   1      35.955  21.852  24.772  1.00  0.00    -0.343 N 
ATOM     80  C   UNL A   1      37.158  21.250  25.015  1.00  0.00     0.240 C 
ATOM     81  H   UNL A   1      35.253  21.229  24.477  1.00  0.00     0.164 HD
ATOM     82  O   UNL A   1      37.202  20.041  24.746  1.00  0.00    -0.273 OA
BRANCH  80  83
ATOM     83  C   UNL A   1      38.385  21.891  25.739  1.00  0.00     0.219 C 
BRANCH  83  84
ATOM     84  N   UNL A   1      39.685  21.268  25.612  1.00  0.00    -0.312 N 
ATOM     85  C   UNL A   1      40.692  21.024  26.506  1.00  0.00     0.407 C 
ATOM     86  H   UNL A   1      39.885  20.956  24.699  1.00  0.00     0.167 HD
ATOM     87  O   UNL A   1      41.658  20.389  26.148  1.00  0.00    -0.225 OA
BRANCH  85  88
ATOM     88  O   UNL A   1      40.517  21.541  27.754  1.00  0.00    -0.445 OA
BRANCH  88  89
ATOM     89  C   UNL A   1      41.511  22.525  28.130  1.00  0.00     0.270 C 
BRANCH  89  90
ATOM     90  C   UNL A   1      41.290  23.896  27.531  1.00  0.00    -0.011 A 
ATOM     91  C   UNL A   1      42.112  24.381  26.507  1.00  0.00     0.007 A 
ATOM     92  C   UNL A   1      40.169  24.660  27.906  1.00  0.00     0.007 A 
ATOM     93  C   UNL A   1      41.834  25.599  25.884  1.00  0.00     0.000 A 
ATOM     94  C   UNL A   1      39.891  25.880  27.281  1.00  0.00     0.000 A 
ATOM     95  C   UNL A   1      40.724  26.348  26.268  1.00  0.00     0.000 A 
ENDBRANCH  89  90
ENDBRANCH  88  89
ENDBRANCH  85  88
ENDBRANCH  83  84
ENDBRANCH  80  83
ENDBRANCH  77  79
ENDBRANCH  74  77
ENDBRANCH  72  73
BRANCH  72  96
ATOM     96  C   UNL A   1      31.198  24.544  24.225  1.00  0.00     0.015 C 
ATOM     97  C   UNL A   1      31.582  24.924  22.778  1.00  0.00     0.010 C 
ATOM     98  C   UNL A   1      31.153  23.018  24.312  1.00  0.00     0.010 C 
ENDBRANCH  72  96
ENDBRANCH   2  72
TORSDOF 24
ENDMDL
