MODEL 1
REMARK VINA RESULT:      -9.8      0.000      0.000
REMARK SMILES CCN(C(=O)N(CCOC)CC(=O)NCCCCNC(=O)c1ccc(-c2c3nc(c(-c4ccccc4)c4ccc([nH]4)c(-c4ccccc4)c4nc(c(-c5ccccc5)c5ccc2[nH]5)C=C4)C=C3)cc1)C1CCCC1
REMARK SMILES IDX 15 1 14 2 12 3 13 4 11 6 6 7 4 8 5 9 3 10 2 11 1 12 70 13
REMARK SMILES IDX 71 14 74 15 72 16 73 17 7 18 8 19 9 20 10 21 16 22 17 23
REMARK SMILES IDX 18 24 19 25 20 26 21 28 22 29 23 30 69 31 24 32 68 33 25 34
REMARK SMILES IDX 26 35 27 36 62 37 28 38 67 39 61 40 63 41 29 42 66 43 60 44
REMARK SMILES IDX 59 45 30 47 52 48 37 49 51 50 38 51 41 52 50 53 64 54 39 55
REMARK SMILES IDX 40 56 49 58 65 59 42 60 31 61 32 62 36 63 33 64 35 65 34 66
REMARK SMILES IDX 53 67 54 68 58 69 55 70 57 71 56 72 43 73 44 74 48 75 45 76
REMARK SMILES IDX 47 77 46 78
REMARK H PARENT 14 5 19 27 63 46 41 57
REMARK Flexibility Score: inf
ROOT
ATOM      1  C   UNL A   1      35.775  21.477  24.839  1.00  0.00     0.116 C 
ENDROOT
BRANCH   1   2
ATOM      2  N   UNL A   1      35.269  21.285  26.175  1.00  0.00    -0.355 N 
ATOM      3  C   UNL A   1      34.278  21.975  26.820  1.00  0.00     0.239 C 
ATOM      4  O   UNL A   1      33.764  21.412  27.794  1.00  0.00    -0.273 OA
ATOM      5  H   UNL A   1      35.692  20.562  26.692  1.00  0.00     0.163 HD
BRANCH   3   6
ATOM      6  C   UNL A   1      33.658  23.272  26.246  1.00  0.00     0.221 C 
BRANCH   6   7
ATOM      7  N   UNL A   1      32.307  23.207  25.657  1.00  0.00    -0.313 N 
BRANCH   7   8
ATOM      8  C   UNL A   1      31.431  24.129  26.222  1.00  0.00     0.320 C 
ATOM      9  O   UNL A   1      30.819  23.806  27.248  1.00  0.00    -0.248 OA
BRANCH   8  10
ATOM     10  N   UNL A   1      31.311  25.429  25.736  1.00  0.00    -0.322 N 
BRANCH  10  11
ATOM     11  C   UNL A   1      30.461  25.886  24.636  1.00  0.00     0.118 C 
ATOM     12  C   UNL A   1      30.952  25.376  23.282  1.00  0.00     0.027 C 
ENDBRANCH  10  11
BRANCH  10  13
ATOM     13  C   UNL A   1      32.107  26.443  26.481  1.00  0.00     0.087 C 
ATOM     14  C   UNL A   1      33.301  26.997  25.679  1.00  0.00     0.025 C 
ATOM     15  C   UNL A   1      31.441  27.759  26.917  1.00  0.00     0.025 C 
ATOM     16  C   UNL A   1      33.823  28.136  26.547  1.00  0.00     0.002 C 
ATOM     17  C   UNL A   1      32.598  28.702  27.254  1.00  0.00     0.002 C 
ENDBRANCH  10  13
ENDBRANCH   8  10
ENDBRANCH   7   8
BRANCH   7  18
ATOM     18  C   UNL A   1      31.937  21.884  25.115  1.00  0.00     0.150 C 
BRANCH  18  19
ATOM     19  C   UNL A   1      32.196  21.658  23.610  1.00  0.00     0.181 C 
BRANCH  19  20
ATOM     20  O   UNL A   1      32.446  20.279  23.324  1.00  0.00    -0.383 OA
ATOM     21  C   UNL A   1      32.542  19.439  24.462  1.00  0.00     0.194 C 
ENDBRANCH  19  20
ENDBRANCH  18  19
ENDBRANCH   7  18
ENDBRANCH   6   7
ENDBRANCH   3   6
ENDBRANCH   1   2
BRANCH   1  22
ATOM     22  C   UNL A   1      37.285  21.628  24.751  1.00  0.00     0.023 C 
BRANCH  22  23
ATOM     23  C   UNL A   1      38.070  20.338  24.961  1.00  0.00     0.023 C 
BRANCH  23  24
ATOM     24  C   UNL A   1      39.262  20.439  25.911  1.00  0.00     0.116 C 
BRANCH  24  25
ATOM     25  N   UNL A   1      40.144  19.279  25.877  1.00  0.00    -0.352 N 
ATOM     26  C   UNL A   1      41.509  19.208  26.069  1.00  0.00     0.251 C 
ATOM     27  H   UNL A   1      39.701  18.421  25.689  1.00  0.00     0.163 HD
ATOM     28  O   UNL A   1      42.105  18.157  25.917  1.00  0.00    -0.269 OA
BRANCH  26  29
ATOM     29  C   UNL A   1      42.250  20.443  26.409  1.00  0.00     0.039 A 
ATOM     30  C   UNL A   1      42.895  21.143  25.386  1.00  0.00     0.014 A 
ATOM     31  C   UNL A   1      42.229  20.949  27.711  1.00  0.00     0.014 A 
ATOM     32  C   UNL A   1      43.407  22.416  25.644  1.00  0.00     0.010 A 
ATOM     33  C   UNL A   1      42.671  22.247  27.945  1.00  0.00     0.010 A 
ATOM     34  C   UNL A   1      43.234  23.006  26.906  1.00  0.00    -0.014 A 
BRANCH  34  35
ATOM     35  C   UNL A   1      43.558  24.435  27.148  1.00  0.00     0.031 A 
ATOM     36  C   UNL A   1      44.981  24.911  27.105  1.00  0.00     0.074 A 
ATOM     37  C   UNL A   1      42.577  25.282  27.517  1.00  0.00     0.049 A 
ATOM     38  N   UNL A   1      45.467  26.087  27.413  1.00  0.00    -0.248 NA
ATOM     39  C   UNL A   1      45.995  23.931  26.685  1.00  0.00     0.031 C 
ATOM     40  C   UNL A   1      41.157  24.940  27.642  1.00  0.00     0.029 A 
ATOM     41  N   UNL A   1      42.628  26.607  27.876  1.00  0.00    -0.354 N 
ATOM     42  C   UNL A   1      46.841  25.983  27.244  1.00  0.00     0.074 A 
ATOM     43  C   UNL A   1      47.116  24.619  26.844  1.00  0.00     0.031 C 
ATOM     44  C   UNL A   1      40.473  26.027  28.029  1.00  0.00     0.029 A 
ATOM     45  C   UNL A   1      41.407  27.131  28.229  1.00  0.00     0.049 A 
ATOM     46  H   UNL A   1      43.460  27.132  27.880  1.00  0.00     0.167 HD
ATOM     47  C   UNL A   1      47.787  26.939  27.395  1.00  0.00     0.031 A 
ATOM     48  C   UNL A   1      41.074  28.353  28.682  1.00  0.00     0.031 A 
ATOM     49  C   UNL A   1      47.517  28.297  27.783  1.00  0.00     0.049 A 
ATOM     50  C   UNL A   1      42.148  29.386  28.875  1.00  0.00     0.074 A 
ATOM     51  C   UNL A   1      48.403  29.355  27.890  1.00  0.00     0.029 A 
ATOM     52  N   UNL A   1      46.268  28.784  28.134  1.00  0.00    -0.354 N 
ATOM     53  N   UNL A   1      43.435  29.291  28.642  1.00  0.00    -0.248 NA
ATOM     54  C   UNL A   1      41.724  30.694  29.393  1.00  0.00     0.031 C 
ATOM     55  C   UNL A   1      47.699  30.470  28.356  1.00  0.00     0.029 A 
ATOM     56  C   UNL A   1      46.365  30.118  28.492  1.00  0.00     0.049 A 
ATOM     57  H   UNL A   1      45.434  28.259  28.129  1.00  0.00     0.167 HD
ATOM     58  C   UNL A   1      43.971  30.527  28.975  1.00  0.00     0.074 A 
ATOM     59  C   UNL A   1      42.869  31.363  29.404  1.00  0.00     0.031 C 
ATOM     60  C   UNL A   1      45.263  30.932  28.930  1.00  0.00     0.031 A 
BRANCH  47  61
ATOM     61  C   UNL A   1      49.215  26.542  27.147  1.00  0.00    -0.014 A 
ATOM     62  C   UNL A   1      49.766  26.585  25.857  1.00  0.00     0.009 A 
ATOM     63  C   UNL A   1      50.029  26.154  28.222  1.00  0.00     0.009 A 
ATOM     64  C   UNL A   1      51.096  26.216  25.645  1.00  0.00     0.001 A 
ATOM     65  C   UNL A   1      51.365  25.811  28.011  1.00  0.00     0.001 A 
ATOM     66  C   UNL A   1      51.895  25.834  26.722  1.00  0.00     0.000 A 
ENDBRANCH  47  61
BRANCH  48  67
ATOM     67  C   UNL A   1      39.659  28.670  29.001  1.00  0.00    -0.014 A 
ATOM     68  C   UNL A   1      38.812  29.205  28.018  1.00  0.00     0.009 A 
ATOM     69  C   UNL A   1      39.147  28.448  30.290  1.00  0.00     0.009 A 
ATOM     70  C   UNL A   1      37.489  29.530  28.324  1.00  0.00     0.001 A 
ATOM     71  C   UNL A   1      37.817  28.750  30.585  1.00  0.00     0.001 A 
ATOM     72  C   UNL A   1      36.991  29.298  29.605  1.00  0.00     0.000 A 
ENDBRANCH  48  67
BRANCH  60  73
ATOM     73  C   UNL A   1      45.552  32.344  29.350  1.00  0.00    -0.014 A 
ATOM     74  C   UNL A   1      45.483  33.401  28.429  1.00  0.00     0.009 A 
ATOM     75  C   UNL A   1      45.855  32.627  30.691  1.00  0.00     0.009 A 
ATOM     76  C   UNL A   1      45.737  34.712  28.839  1.00  0.00     0.001 A 
ATOM     77  C   UNL A   1      46.084  33.941  31.102  1.00  0.00     0.001 A 
ATOM     78  C   UNL A   1      46.032  34.980  30.175  1.00  0.00     0.000 A 
ENDBRANCH  60  73
ENDBRANCH  34  35
ENDBRANCH  26  29
ENDBRANCH  24  25
ENDBRANCH  23  24
ENDBRANCH  22  23
ENDBRANCH   1  22
TORSDOF 19
ENDMDL
MODEL 2
REMARK VINA RESULT:      -9.7      1.050      6.004
REMARK SMILES CCN(C(=O)N(CCOC)CC(=O)NCCCCNC(=O)c1ccc(-c2c3nc(c(-c4ccccc4)c4ccc([nH]4)c(-c4ccccc4)c4nc(c(-c5ccccc5)c5ccc2[nH]5)C=C4)C=C3)cc1)C1CCCC1
REMARK SMILES IDX 15 1 14 2 12 3 13 4 11 6 6 7 4 8 5 9 3 10 2 11 1 12 70 13
REMARK SMILES IDX 71 14 74 15 72 16 73 17 7 18 8 19 9 20 10 21 16 22 17 23
REMARK SMILES IDX 18 24 19 25 20 26 21 28 22 29 23 30 69 31 24 32 68 33 25 34
REMARK SMILES IDX 26 35 27 36 62 37 28 38 67 39 61 40 63 41 29 42 66 43 60 44
REMARK SMILES IDX 59 45 30 47 52 48 37 49 51 50 38 51 41 52 50 53 64 54 39 55
REMARK SMILES IDX 40 56 49 58 65 59 42 60 31 61 32 62 36 63 33 64 35 65 34 66
REMARK SMILES IDX 53 67 54 68 58 69 55 70 57 71 56 72 43 73 44 74 48 75 45 76
REMARK SMILES IDX 47 77 46 78
REMARK H PARENT 14 5 19 27 63 46 41 57
REMARK Flexibility Score: inf
ROOT
ATOM      1  C   UNL A   1      36.299  23.076  26.110  1.00  0.00     0.116 C 
ENDROOT
BRANCH   1   2
ATOM      2  N   UNL A   1      35.542  22.019  26.731  1.00  0.00    -0.355 N 
ATOM      3  C   UNL A   1      34.250  22.045  27.184  1.00  0.00     0.239 C 
ATOM      4  O   UNL A   1      33.699  20.948  27.330  1.00  0.00    -0.273 OA
ATOM      5  H   UNL A   1      36.016  21.164  26.844  1.00  0.00     0.163 HD
BRANCH   3   6
ATOM      6  C   UNL A   1      33.431  23.355  27.285  1.00  0.00     0.221 C 
BRANCH   6   7
ATOM      7  N   UNL A   1      32.630  23.777  26.121  1.00  0.00    -0.313 N 
BRANCH   7   8
ATOM      8  C   UNL A   1      31.434  24.390  26.487  1.00  0.00     0.320 C 
ATOM      9  O   UNL A   1      30.674  23.784  27.252  1.00  0.00    -0.248 OA
BRANCH   8  10
ATOM     10  N   UNL A   1      31.127  25.695  26.109  1.00  0.00    -0.322 N 
BRANCH  10  11
ATOM     11  C   UNL A   1      29.980  26.139  25.317  1.00  0.00     0.118 C 
ATOM     12  C   UNL A   1      30.035  25.614  23.884  1.00  0.00     0.027 C 
ENDBRANCH  10  11
BRANCH  10  13
ATOM     13  C   UNL A   1      32.061  26.726  26.639  1.00  0.00     0.087 C 
ATOM     14  C   UNL A   1      33.036  27.276  25.578  1.00  0.00     0.025 C 
ATOM     15  C   UNL A   1      31.498  28.045  27.196  1.00  0.00     0.025 C 
ATOM     16  C   UNL A   1      33.729  28.432  26.288  1.00  0.00     0.002 C 
ATOM     17  C   UNL A   1      32.691  29.002  27.246  1.00  0.00     0.002 C 
ENDBRANCH  10  13
ENDBRANCH   8  10
ENDBRANCH   7   8
BRANCH   7  18
ATOM     18  C   UNL A   1      32.851  22.976  24.901  1.00  0.00     0.150 C 
BRANCH  18  19
ATOM     19  C   UNL A   1      31.823  21.860  24.611  1.00  0.00     0.181 C 
BRANCH  19  20
ATOM     20  O   UNL A   1      32.213  21.069  23.486  1.00  0.00    -0.383 OA
ATOM     21  C   UNL A   1      32.510  19.714  23.781  1.00  0.00     0.194 C 
ENDBRANCH  19  20
ENDBRANCH  18  19
ENDBRANCH   7  18
ENDBRANCH   6   7
ENDBRANCH   3   6
ENDBRANCH   1   2
BRANCH   1  22
ATOM     22  C   UNL A   1      36.827  22.745  24.723  1.00  0.00     0.023 C 
BRANCH  22  23
ATOM     23  C   UNL A   1      37.709  21.504  24.654  1.00  0.00     0.023 C 
BRANCH  23  24
ATOM     24  C   UNL A   1      38.705  21.339  25.801  1.00  0.00     0.116 C 
BRANCH  24  25
ATOM     25  N   UNL A   1      39.501  20.121  25.722  1.00  0.00    -0.352 N 
ATOM     26  C   UNL A   1      40.831  19.919  26.031  1.00  0.00     0.251 C 
ATOM     27  H   UNL A   1      39.018  19.325  25.401  1.00  0.00     0.163 HD
ATOM     28  O   UNL A   1      41.362  18.844  25.820  1.00  0.00    -0.269 OA
BRANCH  26  29
ATOM     29  C   UNL A   1      41.620  21.048  26.571  1.00  0.00     0.039 A 
ATOM     30  C   UNL A   1      42.162  21.976  25.679  1.00  0.00     0.014 A 
ATOM     31  C   UNL A   1      41.745  21.233  27.950  1.00  0.00     0.014 A 
ATOM     32  C   UNL A   1      42.717  23.159  26.172  1.00  0.00     0.010 A 
ATOM     33  C   UNL A   1      42.227  22.445  28.434  1.00  0.00     0.010 A 
ATOM     34  C   UNL A   1      42.687  23.433  27.549  1.00  0.00    -0.014 A 
BRANCH  34  35
ATOM     35  C   UNL A   1      43.054  24.769  28.085  1.00  0.00     0.031 A 
ATOM     36  C   UNL A   1      41.998  25.809  28.323  1.00  0.00     0.074 A 
ATOM     37  C   UNL A   1      44.355  25.081  28.250  1.00  0.00     0.049 A 
ATOM     38  N   UNL A   1      42.141  27.065  28.664  1.00  0.00    -0.248 NA
ATOM     39  C   UNL A   1      40.601  25.392  28.130  1.00  0.00     0.031 C 
ATOM     40  C   UNL A   1      45.484  24.178  28.012  1.00  0.00     0.029 A 
ATOM     41  N   UNL A   1      44.950  26.256  28.641  1.00  0.00    -0.354 N 
ATOM     42  C   UNL A   1      40.857  27.592  28.705  1.00  0.00     0.074 A 
ATOM     43  C   UNL A   1      39.951  26.531  28.318  1.00  0.00     0.031 C 
ATOM     44  C   UNL A   1      46.630  24.824  28.279  1.00  0.00     0.029 A 
ATOM     45  C   UNL A   1      46.323  26.200  28.658  1.00  0.00     0.049 A 
ATOM     46  H   UNL A   1      44.441  27.062  28.885  1.00  0.00     0.167 HD
ATOM     47  C   UNL A   1      40.466  28.842  29.049  1.00  0.00     0.031 A 
ATOM     48  C   UNL A   1      47.237  27.150  28.927  1.00  0.00     0.031 A 
ATOM     49  C   UNL A   1      41.362  29.895  29.443  1.00  0.00     0.049 A 
ATOM     50  C   UNL A   1      46.777  28.539  29.271  1.00  0.00     0.074 A 
ATOM     51  C   UNL A   1      41.051  31.172  29.878  1.00  0.00     0.029 A 
ATOM     52  N   UNL A   1      42.744  29.797  29.444  1.00  0.00    -0.354 N 
ATOM     53  N   UNL A   1      45.555  29.000  29.375  1.00  0.00    -0.248 NA
ATOM     54  C   UNL A   1      47.824  29.537  29.533  1.00  0.00     0.031 C 
ATOM     55  C   UNL A   1      42.247  31.864  30.094  1.00  0.00     0.029 A 
ATOM     56  C   UNL A   1      43.302  31.002  29.838  1.00  0.00     0.049 A 
ATOM     57  H   UNL A   1      43.254  28.990  29.200  1.00  0.00     0.167 HD
ATOM     58  C   UNL A   1      45.685  30.337  29.724  1.00  0.00     0.074 A 
ATOM     59  C   UNL A   1      47.103  30.608  29.837  1.00  0.00     0.031 C 
ATOM     60  C   UNL A   1      44.714  31.260  29.932  1.00  0.00     0.031 A 
BRANCH  47  61
ATOM     61  C   UNL A   1      38.994  29.141  29.002  1.00  0.00    -0.014 A 
ATOM     62  C   UNL A   1      38.197  29.045  30.153  1.00  0.00     0.009 A 
ATOM     63  C   UNL A   1      38.404  29.558  27.799  1.00  0.00     0.009 A 
ATOM     64  C   UNL A   1      36.832  29.331  30.093  1.00  0.00     0.001 A 
ATOM     65  C   UNL A   1      37.044  29.868  27.748  1.00  0.00     0.001 A 
ATOM     66  C   UNL A   1      36.258  29.745  28.892  1.00  0.00     0.000 A 
ENDBRANCH  47  61
BRANCH  48  67
ATOM     67  C   UNL A   1      48.686  26.828  28.871  1.00  0.00    -0.014 A 
ATOM     68  C   UNL A   1      49.405  26.996  27.678  1.00  0.00     0.009 A 
ATOM     69  C   UNL A   1      49.356  26.344  30.006  1.00  0.00     0.009 A 
ATOM     70  C   UNL A   1      50.760  26.667  27.617  1.00  0.00     0.001 A 
ATOM     71  C   UNL A   1      50.718  26.040  29.947  1.00  0.00     0.001 A 
ATOM     72  C   UNL A   1      51.416  26.193  28.752  1.00  0.00     0.000 A 
ENDBRANCH  48  67
BRANCH  60  73
ATOM     73  C   UNL A   1      45.155  32.644  30.308  1.00  0.00    -0.014 A 
ATOM     74  C   UNL A   1      45.357  33.629  29.330  1.00  0.00     0.009 A 
ATOM     75  C   UNL A   1      45.331  32.979  31.660  1.00  0.00     0.009 A 
ATOM     76  C   UNL A   1      45.751  34.918  29.697  1.00  0.00     0.001 A 
ATOM     77  C   UNL A   1      45.701  34.275  32.025  1.00  0.00     0.001 A 
ATOM     78  C   UNL A   1      45.917  35.240  31.043  1.00  0.00     0.000 A 
ENDBRANCH  60  73
ENDBRANCH  34  35
ENDBRANCH  26  29
ENDBRANCH  24  25
ENDBRANCH  23  24
ENDBRANCH  22  23
ENDBRANCH   1  22
TORSDOF 19
ENDMDL
MODEL 3
REMARK VINA RESULT:      -9.6      1.746      6.313
REMARK SMILES CCN(C(=O)N(CCOC)CC(=O)NCCCCNC(=O)c1ccc(-c2c3nc(c(-c4ccccc4)c4ccc([nH]4)c(-c4ccccc4)c4nc(c(-c5ccccc5)c5ccc2[nH]5)C=C4)C=C3)cc1)C1CCCC1
REMARK SMILES IDX 15 1 14 2 12 3 13 4 11 6 6 7 4 8 5 9 3 10 2 11 1 12 70 13
REMARK SMILES IDX 71 14 74 15 72 16 73 17 7 18 8 19 9 20 10 21 16 22 17 23
REMARK SMILES IDX 18 24 19 25 20 26 21 28 22 29 23 30 69 31 24 32 68 33 25 34
REMARK SMILES IDX 26 35 27 36 62 37 28 38 67 39 61 40 63 41 29 42 66 43 60 44
REMARK SMILES IDX 59 45 30 47 52 48 37 49 51 50 38 51 41 52 50 53 64 54 39 55
REMARK SMILES IDX 40 56 49 58 65 59 42 60 31 61 32 62 36 63 33 64 35 65 34 66
REMARK SMILES IDX 53 67 54 68 58 69 55 70 57 71 56 72 43 73 44 74 48 75 45 76
REMARK SMILES IDX 47 77 46 78
REMARK H PARENT 14 5 19 27 63 46 41 57
REMARK Flexibility Score: inf
ROOT
ATOM      1  C   UNL A   1      35.455  22.757  23.647  1.00  0.00     0.116 C 
ENDROOT
BRANCH   1   2
ATOM      2  N   UNL A   1      34.495  21.935  24.339  1.00  0.00    -0.355 N 
ATOM      3  C   UNL A   1      33.149  21.823  24.117  1.00  0.00     0.239 C 
ATOM      4  O   UNL A   1      32.603  20.808  24.565  1.00  0.00    -0.273 OA
ATOM      5  H   UNL A   1      34.855  21.380  25.068  1.00  0.00     0.163 HD
BRANCH   3   6
ATOM      6  C   UNL A   1      32.380  22.773  23.166  1.00  0.00     0.221 C 
BRANCH   6   7
ATOM      7  N   UNL A   1      32.453  24.226  23.411  1.00  0.00    -0.313 N 
BRANCH   7   8
ATOM      8  C   UNL A   1      31.505  24.661  24.333  1.00  0.00     0.320 C 
ATOM      9  O   UNL A   1      30.352  24.868  23.936  1.00  0.00    -0.248 OA
BRANCH   8  10
ATOM     10  N   UNL A   1      31.788  24.760  25.693  1.00  0.00    -0.322 N 
BRANCH  10  11
ATOM     11  C   UNL A   1      31.750  23.685  26.685  1.00  0.00     0.118 C 
ATOM     12  C   UNL A   1      30.377  23.018  26.755  1.00  0.00     0.027 C 
ENDBRANCH  10  11
BRANCH  10  13
ATOM     13  C   UNL A   1      32.228  26.112  26.134  1.00  0.00     0.087 C 
ATOM     14  C   UNL A   1      33.699  26.421  25.793  1.00  0.00     0.025 C 
ATOM     15  C   UNL A   1      31.548  27.361  25.547  1.00  0.00     0.025 C 
ATOM     16  C   UNL A   1      33.852  27.895  26.148  1.00  0.00     0.002 C 
ATOM     17  C   UNL A   1      32.491  28.522  25.872  1.00  0.00     0.002 C 
ENDBRANCH  10  13
ENDBRANCH   8  10
ENDBRANCH   7   8
BRANCH   7  18
ATOM     18  C   UNL A   1      32.984  25.013  22.281  1.00  0.00     0.150 C 
BRANCH  18  19
ATOM     19  C   UNL A   1      32.711  26.533  22.310  1.00  0.00     0.181 C 
BRANCH  19  20
ATOM     20  O   UNL A   1      33.818  27.273  21.788  1.00  0.00    -0.383 OA
ATOM     21  C   UNL A   1      34.040  28.532  22.402  1.00  0.00     0.194 C 
ENDBRANCH  19  20
ENDBRANCH  18  19
ENDBRANCH   7  18
ENDBRANCH   6   7
ENDBRANCH   3   6
ENDBRANCH   1   2
BRANCH   1  22
ATOM     22  C   UNL A   1      36.846  22.757  24.260  1.00  0.00     0.023 C 
BRANCH  22  23
ATOM     23  C   UNL A   1      37.286  21.420  24.847  1.00  0.00     0.023 C 
BRANCH  23  24
ATOM     24  C   UNL A   1      38.550  21.461  25.704  1.00  0.00     0.116 C 
BRANCH  24  25
ATOM     25  N   UNL A   1      39.347  20.243  25.639  1.00  0.00    -0.352 N 
ATOM     26  C   UNL A   1      40.660  20.031  26.010  1.00  0.00     0.251 C 
ATOM     27  H   UNL A   1      38.881  19.456  25.276  1.00  0.00     0.163 HD
ATOM     28  O   UNL A   1      41.200  18.960  25.803  1.00  0.00    -0.269 OA
BRANCH  26  29
ATOM     29  C   UNL A   1      41.422  21.147  26.614  1.00  0.00     0.039 A 
ATOM     30  C   UNL A   1      42.021  22.085  25.771  1.00  0.00     0.014 A 
ATOM     31  C   UNL A   1      41.466  21.309  28.001  1.00  0.00     0.014 A 
ATOM     32  C   UNL A   1      42.552  23.257  26.315  1.00  0.00     0.010 A 
ATOM     33  C   UNL A   1      41.925  22.510  28.533  1.00  0.00     0.010 A 
ATOM     34  C   UNL A   1      42.442  23.509  27.692  1.00  0.00    -0.014 A 
BRANCH  34  35
ATOM     35  C   UNL A   1      42.784  24.834  28.270  1.00  0.00     0.031 A 
ATOM     36  C   UNL A   1      41.724  25.882  28.449  1.00  0.00     0.074 A 
ATOM     37  C   UNL A   1      44.073  25.130  28.530  1.00  0.00     0.049 A 
ATOM     38  N   UNL A   1      41.856  27.132  28.816  1.00  0.00    -0.248 NA
ATOM     39  C   UNL A   1      40.340  25.482  28.153  1.00  0.00     0.031 C 
ATOM     40  C   UNL A   1      45.208  24.217  28.359  1.00  0.00     0.029 A 
ATOM     41  N   UNL A   1      44.651  26.292  28.977  1.00  0.00    -0.354 N 
ATOM     42  C   UNL A   1      40.577  27.672  28.774  1.00  0.00     0.074 A 
ATOM     43  C   UNL A   1      39.690  26.626  28.311  1.00  0.00     0.031 C 
ATOM     44  C   UNL A   1      46.338  24.847  28.714  1.00  0.00     0.029 A 
ATOM     45  C   UNL A   1      46.019  26.221  29.089  1.00  0.00     0.049 A 
ATOM     46  H   UNL A   1      44.134  27.101  29.197  1.00  0.00     0.167 HD
ATOM     47  C   UNL A   1      40.175  28.922  29.107  1.00  0.00     0.031 A 
ATOM     48  C   UNL A   1      46.921  27.158  29.435  1.00  0.00     0.031 A 
ATOM     49  C   UNL A   1      41.052  29.960  29.577  1.00  0.00     0.049 A 
ATOM     50  C   UNL A   1      46.452  28.547  29.765  1.00  0.00     0.074 A 
ATOM     51  C   UNL A   1      40.724  31.235  30.007  1.00  0.00     0.029 A 
ATOM     52  N   UNL A   1      42.430  29.847  29.673  1.00  0.00    -0.354 N 
ATOM     53  N   UNL A   1      45.230  29.021  29.789  1.00  0.00    -0.248 NA
ATOM     54  C   UNL A   1      47.488  29.530  30.113  1.00  0.00     0.031 C 
ATOM     55  C   UNL A   1      41.909  31.911  30.314  1.00  0.00     0.029 A 
ATOM     56  C   UNL A   1      42.971  31.040  30.121  1.00  0.00     0.049 A 
ATOM     57  H   UNL A   1      42.947  29.038  29.454  1.00  0.00     0.167 HD
ATOM     58  C   UNL A   1      45.349  30.352  30.165  1.00  0.00     0.074 A 
ATOM     59  C   UNL A   1      46.759  30.605  30.380  1.00  0.00     0.031 C 
ATOM     60  C   UNL A   1      44.375  31.282  30.317  1.00  0.00     0.031 A 
BRANCH  47  61
ATOM     61  C   UNL A   1      38.714  29.237  28.961  1.00  0.00    -0.014 A 
ATOM     62  C   UNL A   1      38.181  29.660  27.734  1.00  0.00     0.009 A 
ATOM     63  C   UNL A   1      37.852  29.075  30.057  1.00  0.00     0.009 A 
ATOM     64  C   UNL A   1      36.819  29.945  27.616  1.00  0.00     0.001 A 
ATOM     65  C   UNL A   1      36.487  29.336  29.929  1.00  0.00     0.001 A 
ATOM     66  C   UNL A   1      35.973  29.779  28.711  1.00  0.00     0.000 A 
ENDBRANCH  47  61
BRANCH  48  67
ATOM     67  C   UNL A   1      48.367  26.821  29.476  1.00  0.00    -0.014 A 
ATOM     68  C   UNL A   1      49.184  27.061  28.360  1.00  0.00     0.009 A 
ATOM     69  C   UNL A   1      48.937  26.251  30.625  1.00  0.00     0.009 A 
ATOM     70  C   UNL A   1      50.537  26.719  28.388  1.00  0.00     0.001 A 
ATOM     71  C   UNL A   1      50.297  25.934  30.658  1.00  0.00     0.001 A 
ATOM     72  C   UNL A   1      51.093  26.159  29.537  1.00  0.00     0.000 A 
ENDBRANCH  48  67
BRANCH  60  73
ATOM     73  C   UNL A   1      44.803  32.656  30.742  1.00  0.00    -0.014 A 
ATOM     74  C   UNL A   1      45.041  33.664  29.795  1.00  0.00     0.009 A 
ATOM     75  C   UNL A   1      44.929  32.959  32.107  1.00  0.00     0.009 A 
ATOM     76  C   UNL A   1      45.422  34.943  30.207  1.00  0.00     0.001 A 
ATOM     77  C   UNL A   1      45.285  34.245  32.516  1.00  0.00     0.001 A 
ATOM     78  C   UNL A   1      45.538  35.233  31.566  1.00  0.00     0.000 A 
ENDBRANCH  60  73
ENDBRANCH  34  35
ENDBRANCH  26  29
ENDBRANCH  24  25
ENDBRANCH  23  24
ENDBRANCH  22  23
ENDBRANCH   1  22
TORSDOF 19
ENDMDL
