MODEL 1
REMARK VINA RESULT:     -12.8      0.000      0.000
REMARK SMILES Cc1cnc2nc(-c3cc(F)c(F)cc3C(=O)NCCCCNC(=O)c3ccc(-c4c5nc(c(-c6ccccc6)c6ccc([nH]6)c(-c6ccccc6)c6nc(c(-c7ccccc7)c7ccc4[nH]7)C=C6)C=C5)cc3)[nH]c2c1
REMARK SMILES IDX 21 1 20 2 19 3 18 4 16 5 17 6 15 8 8 9 9 10 10 11 14 12
REMARK SMILES IDX 11 13 12 14 13 15 7 16 1 17 2 18 3 19 76 20 4 21 75 22 5 23
REMARK SMILES IDX 74 24 6 25 22 27 23 28 24 29 25 31 26 32 27 33 73 34 28 35
REMARK SMILES IDX 72 36 29 37 30 38 31 39 66 40 32 41 71 42 65 43 67 44 33 45
REMARK SMILES IDX 70 46 64 47 63 48 34 50 56 51 41 52 55 53 42 54 45 55 54 56
REMARK SMILES IDX 68 57 43 58 44 59 53 61 69 62 46 63 35 64 36 65 40 66 37 67
REMARK SMILES IDX 39 68 38 69 57 70 58 71 62 72 59 73 61 74 60 75 47 76 48 77
REMARK SMILES IDX 52 78 49 79 51 80 50 81
REMARK H PARENT 18 7 74 26 23 30 67 49 45 60
REMARK Flexibility Score: inf
ROOT
ATOM      1  C   UNL A   1      37.568  20.915  24.876  1.00  0.00     0.023 C 
ENDROOT
BRANCH   1   2
ATOM      2  C   UNL A   1      37.031  22.257  24.384  1.00  0.00     0.023 C 
BRANCH   2   3
ATOM      3  C   UNL A   1      36.910  23.401  25.383  1.00  0.00     0.116 C 
BRANCH   3   4
ATOM      4  N   UNL A   1      36.063  23.226  26.527  1.00  0.00    -0.352 N 
ATOM      5  C   UNL A   1      34.699  23.043  26.608  1.00  0.00     0.252 C 
ATOM      6  O   UNL A   1      34.280  22.720  27.726  1.00  0.00    -0.269 OA
ATOM      7  H   UNL A   1      36.530  23.239  27.394  1.00  0.00     0.163 HD
BRANCH   5   8
ATOM      8  C   UNL A   1      33.663  23.312  25.535  1.00  0.00     0.053 A 
ATOM      9  C   UNL A   1      32.886  22.437  24.732  1.00  0.00     0.033 A 
ATOM     10  C   UNL A   1      31.953  22.980  23.810  1.00  0.00     0.055 A 
ATOM     11  C   UNL A   1      31.781  24.349  23.672  1.00  0.00     0.159 A 
ATOM     12  C   UNL A   1      33.442  24.708  25.367  1.00  0.00     0.057 A 
ATOM     13  F   UNL A   1      30.902  24.815  22.776  1.00  0.00    -0.204 F 
ATOM     14  C   UNL A   1      32.522  25.212  24.450  1.00  0.00     0.159 A 
ATOM     15  F   UNL A   1      32.367  26.536  24.324  1.00  0.00    -0.204 F 
BRANCH   9  16
ATOM     16  C   UNL A   1      32.953  20.979  24.706  1.00  0.00     0.141 A 
ATOM     17  C   UNL A   1      35.263  15.539  25.149  1.00  0.00     0.046 C 
ATOM     18  C   UNL A   1      34.362  16.727  25.003  1.00  0.00    -0.031 A 
ATOM     19  C   UNL A   1      33.023  16.668  25.400  1.00  0.00     0.117 A 
ATOM     20  C   UNL A   1      34.872  17.945  24.549  1.00  0.00     0.035 A 
ATOM     21  N   UNL A   1      32.147  17.704  25.427  1.00  0.00    -0.235 NA
ATOM     22  C   UNL A   1      33.971  19.004  24.555  1.00  0.00     0.085 A 
ATOM     23  C   UNL A   1      32.665  18.876  25.005  1.00  0.00     0.178 A 
ATOM     24  N   UNL A   1      34.082  20.327  24.236  1.00  0.00    -0.337 N 
ATOM     25  N   UNL A   1      32.052  20.104  25.102  1.00  0.00    -0.209 NA
ATOM     26  H   UNL A   1      34.833  20.745  23.755  1.00  0.00     0.168 HD
ENDBRANCH   9  16
ENDBRANCH   5   8
ENDBRANCH   3   4
ENDBRANCH   2   3
ENDBRANCH   1   2
BRANCH   1  27
ATOM     27  C   UNL A   1      38.816  20.981  25.750  1.00  0.00     0.116 C 
BRANCH  27  28
ATOM     28  N   UNL A   1      39.665  19.795  25.682  1.00  0.00    -0.352 N 
ATOM     29  C   UNL A   1      41.030  19.748  25.889  1.00  0.00     0.251 C 
ATOM     30  H   UNL A   1      39.221  18.942  25.470  1.00  0.00     0.163 HD
ATOM     31  O   UNL A   1      41.709  18.794  25.519  1.00  0.00    -0.269 OA
BRANCH  29  32
ATOM     32  C   UNL A   1      41.684  20.891  26.543  1.00  0.00     0.039 A 
ATOM     33  C   UNL A   1      42.073  21.996  25.784  1.00  0.00     0.014 A 
ATOM     34  C   UNL A   1      41.821  20.883  27.930  1.00  0.00     0.014 A 
ATOM     35  C   UNL A   1      42.469  23.152  26.442  1.00  0.00     0.010 A 
ATOM     36  C   UNL A   1      42.126  22.055  28.586  1.00  0.00     0.010 A 
ATOM     37  C   UNL A   1      42.439  23.195  27.846  1.00  0.00    -0.014 A 
BRANCH  37  38
ATOM     38  C   UNL A   1      42.536  24.487  28.517  1.00  0.00     0.031 A 
ATOM     39  C   UNL A   1      41.406  25.432  28.255  1.00  0.00     0.074 A 
ATOM     40  C   UNL A   1      43.426  24.760  29.492  1.00  0.00     0.049 A 
ATOM     41  N   UNL A   1      41.465  26.607  27.721  1.00  0.00    -0.248 NA
ATOM     42  C   UNL A   1      40.034  24.981  28.544  1.00  0.00     0.031 C 
ATOM     43  C   UNL A   1      44.396  23.863  30.125  1.00  0.00     0.029 A 
ATOM     44  N   UNL A   1      43.541  25.900  30.223  1.00  0.00    -0.354 N 
ATOM     45  C   UNL A   1      40.164  27.112  27.719  1.00  0.00     0.074 A 
ATOM     46  C   UNL A   1      39.311  26.025  28.134  1.00  0.00     0.031 C 
ATOM     47  C   UNL A   1      44.813  24.409  31.289  1.00  0.00     0.029 A 
ATOM     48  C   UNL A   1      44.264  25.750  31.395  1.00  0.00     0.049 A 
ATOM     49  H   UNL A   1      43.144  26.757  29.945  1.00  0.00     0.167 HD
ATOM     50  C   UNL A   1      39.898  28.435  27.533  1.00  0.00     0.031 A 
ATOM     51  C   UNL A   1      44.360  26.648  32.403  1.00  0.00     0.031 A 
ATOM     52  C   UNL A   1      41.045  29.150  27.045  1.00  0.00     0.049 A 
ATOM     53  C   UNL A   1      43.992  27.974  31.853  1.00  0.00     0.074 A 
ATOM     54  C   UNL A   1      41.821  29.076  25.906  1.00  0.00     0.029 A 
ATOM     55  N   UNL A   1      41.788  29.858  27.960  1.00  0.00    -0.354 N 
ATOM     56  N   UNL A   1      44.712  28.606  30.969  1.00  0.00    -0.248 NA
ATOM     57  C   UNL A   1      42.604  28.403  31.943  1.00  0.00     0.031 C 
ATOM     58  C   UNL A   1      43.154  29.280  26.365  1.00  0.00     0.029 A 
ATOM     59  C   UNL A   1      43.100  29.532  27.738  1.00  0.00     0.049 A 
ATOM     60  H   UNL A   1      41.443  30.477  28.644  1.00  0.00     0.167 HD
ATOM     61  C   UNL A   1      43.790  29.176  30.103  1.00  0.00     0.074 A 
ATOM     62  C   UNL A   1      42.514  29.116  30.815  1.00  0.00     0.031 C 
ATOM     63  C   UNL A   1      44.086  29.378  28.784  1.00  0.00     0.031 A 
BRANCH  50  64
ATOM     64  C   UNL A   1      38.710  29.164  28.106  1.00  0.00    -0.014 A 
ATOM     65  C   UNL A   1      38.432  29.040  29.481  1.00  0.00     0.009 A 
ATOM     66  C   UNL A   1      37.705  29.734  27.305  1.00  0.00     0.009 A 
ATOM     67  C   UNL A   1      37.188  29.402  30.010  1.00  0.00     0.001 A 
ATOM     68  C   UNL A   1      36.475  30.133  27.838  1.00  0.00     0.001 A 
ATOM     69  C   UNL A   1      36.206  29.941  29.186  1.00  0.00     0.000 A 
ENDBRANCH  50  64
BRANCH  51  70
ATOM     70  C   UNL A   1      44.520  26.387  33.848  1.00  0.00    -0.014 A 
ATOM     71  C   UNL A   1      45.455  27.098  34.612  1.00  0.00     0.009 A 
ATOM     72  C   UNL A   1      43.574  25.602  34.535  1.00  0.00     0.009 A 
ATOM     73  C   UNL A   1      45.424  27.051  36.013  1.00  0.00     0.001 A 
ATOM     74  C   UNL A   1      43.545  25.550  35.931  1.00  0.00     0.001 A 
ATOM     75  C   UNL A   1      44.462  26.288  36.671  1.00  0.00     0.000 A 
ENDBRANCH  51  70
BRANCH  63  76
ATOM     76  C   UNL A   1      45.503  29.123  28.323  1.00  0.00    -0.014 A 
ATOM     77  C   UNL A   1      45.963  27.843  27.965  1.00  0.00     0.009 A 
ATOM     78  C   UNL A   1      46.328  30.223  28.049  1.00  0.00     0.009 A 
ATOM     79  C   UNL A   1      47.217  27.668  27.372  1.00  0.00     0.001 A 
ATOM     80  C   UNL A   1      47.572  30.051  27.437  1.00  0.00     0.001 A 
ATOM     81  C   UNL A   1      48.017  28.774  27.100  1.00  0.00     0.000 A 
ENDBRANCH  63  76
ENDBRANCH  37  38
ENDBRANCH  29  32
ENDBRANCH  27  28
ENDBRANCH   1  27
TORSDOF 12
ENDMDL
MODEL 2
REMARK VINA RESULT:     -12.4      4.720      9.441
REMARK SMILES Cc1cnc2nc(-c3cc(F)c(F)cc3C(=O)NCCCCNC(=O)c3ccc(-c4c5nc(c(-c6ccccc6)c6ccc([nH]6)c(-c6ccccc6)c6nc(c(-c7ccccc7)c7ccc4[nH]7)C=C6)C=C5)cc3)[nH]c2c1
REMARK SMILES IDX 21 1 20 2 19 3 18 4 16 5 17 6 15 8 8 9 9 10 10 11 14 12
REMARK SMILES IDX 11 13 12 14 13 15 7 16 1 17 2 18 3 19 76 20 4 21 75 22 5 23
REMARK SMILES IDX 74 24 6 25 22 27 23 28 24 29 25 31 26 32 27 33 73 34 28 35
REMARK SMILES IDX 72 36 29 37 30 38 31 39 66 40 32 41 71 42 65 43 67 44 33 45
REMARK SMILES IDX 70 46 64 47 63 48 34 50 56 51 41 52 55 53 42 54 45 55 54 56
REMARK SMILES IDX 68 57 43 58 44 59 53 61 69 62 46 63 35 64 36 65 40 66 37 67
REMARK SMILES IDX 39 68 38 69 57 70 58 71 62 72 59 73 61 74 60 75 47 76 48 77
REMARK SMILES IDX 52 78 49 79 51 80 50 81
REMARK H PARENT 18 7 74 26 23 30 67 49 45 60
REMARK Flexibility Score: inf
ROOT
ATOM      1  C   UNL A   1      31.985  30.775  26.806  1.00  0.00     0.023 C 
ENDROOT
BRANCH   1   2
ATOM      2  C   UNL A   1      32.232  29.297  27.102  1.00  0.00     0.023 C 
BRANCH   2   3
ATOM      3  C   UNL A   1      33.633  28.738  26.887  1.00  0.00     0.116 C 
BRANCH   3   4
ATOM      4  N   UNL A   1      34.204  28.803  25.573  1.00  0.00    -0.352 N 
ATOM      5  C   UNL A   1      33.830  28.171  24.405  1.00  0.00     0.252 C 
ATOM      6  O   UNL A   1      34.395  28.582  23.385  1.00  0.00    -0.269 OA
ATOM      7  H   UNL A   1      34.987  29.393  25.490  1.00  0.00     0.163 HD
BRANCH   5   8
ATOM      8  C   UNL A   1      32.921  26.968  24.253  1.00  0.00     0.053 A 
ATOM      9  C   UNL A   1      31.592  26.844  23.768  1.00  0.00     0.033 A 
ATOM     10  C   UNL A   1      30.987  25.562  23.711  1.00  0.00     0.055 A 
ATOM     11  C   UNL A   1      31.663  24.422  24.120  1.00  0.00     0.159 A 
ATOM     12  C   UNL A   1      33.577  25.769  24.649  1.00  0.00     0.057 A 
ATOM     13  F   UNL A   1      31.044  23.234  24.065  1.00  0.00    -0.204 F 
ATOM     14  C   UNL A   1      32.955  24.524  24.585  1.00  0.00     0.159 A 
ATOM     15  F   UNL A   1      33.617  23.431  24.986  1.00  0.00    -0.204 F 
BRANCH   9  16
ATOM     16  C   UNL A   1      30.713  27.926  23.334  1.00  0.00     0.141 A 
ATOM     17  C   UNL A   1      28.484  33.398  22.876  1.00  0.00     0.046 C 
ATOM     18  C   UNL A   1      28.808  31.943  22.719  1.00  0.00    -0.031 A 
ATOM     19  C   UNL A   1      28.634  31.295  21.492  1.00  0.00     0.117 A 
ATOM     20  C   UNL A   1      29.377  31.232  23.777  1.00  0.00     0.035 A 
ATOM     21  N   UNL A   1      29.000  30.023  21.198  1.00  0.00    -0.235 NA
ATOM     22  C   UNL A   1      29.734  29.920  23.484  1.00  0.00     0.085 A 
ATOM     23  C   UNL A   1      29.568  29.360  22.226  1.00  0.00     0.178 A 
ATOM     24  N   UNL A   1      30.337  28.932  24.209  1.00  0.00    -0.337 N 
ATOM     25  N   UNL A   1      30.184  28.132  22.145  1.00  0.00    -0.209 NA
ATOM     26  H   UNL A   1      30.478  28.934  25.183  1.00  0.00     0.168 HD
ENDBRANCH   9  16
ENDBRANCH   5   8
ENDBRANCH   3   4
ENDBRANCH   2   3
ENDBRANCH   1   2
BRANCH   1  27
ATOM     27  C   UNL A   1      33.022  31.744  27.363  1.00  0.00     0.116 C 
BRANCH  27  28
ATOM     28  N   UNL A   1      32.529  33.103  27.570  1.00  0.00    -0.352 N 
ATOM     29  C   UNL A   1      33.063  34.051  28.421  1.00  0.00     0.251 C 
ATOM     30  H   UNL A   1      31.737  33.372  27.050  1.00  0.00     0.163 HD
ATOM     31  O   UNL A   1      32.428  35.043  28.765  1.00  0.00    -0.269 OA
BRANCH  29  32
ATOM     32  C   UNL A   1      34.421  33.843  28.946  1.00  0.00     0.039 A 
ATOM     33  C   UNL A   1      34.607  33.086  30.104  1.00  0.00     0.014 A 
ATOM     34  C   UNL A   1      35.505  34.333  28.220  1.00  0.00     0.014 A 
ATOM     35  C   UNL A   1      35.896  32.704  30.450  1.00  0.00     0.010 A 
ATOM     36  C   UNL A   1      36.772  33.880  28.511  1.00  0.00     0.010 A 
ATOM     37  C   UNL A   1      36.970  33.056  29.618  1.00  0.00    -0.014 A 
BRANCH  37  38
ATOM     38  C   UNL A   1      38.256  32.389  29.801  1.00  0.00     0.031 A 
ATOM     39  C   UNL A   1      38.293  30.949  29.395  1.00  0.00     0.074 A 
ATOM     40  C   UNL A   1      39.404  33.037  30.078  1.00  0.00     0.049 A 
ATOM     41  N   UNL A   1      38.565  29.925  30.136  1.00  0.00    -0.248 NA
ATOM     42  C   UNL A   1      37.900  30.597  28.021  1.00  0.00     0.031 C 
ATOM     43  C   UNL A   1      39.640  34.479  30.184  1.00  0.00     0.029 A 
ATOM     44  N   UNL A   1      40.653  32.514  30.190  1.00  0.00    -0.354 N 
ATOM     45  C   UNL A   1      38.508  28.805  29.306  1.00  0.00     0.074 A 
ATOM     46  C   UNL A   1      37.987  29.266  28.043  1.00  0.00     0.031 C 
ATOM     47  C   UNL A   1      40.966  34.721  30.093  1.00  0.00     0.029 A 
ATOM     48  C   UNL A   1      41.669  33.450  30.086  1.00  0.00     0.049 A 
ATOM     49  H   UNL A   1      40.822  31.554  30.331  1.00  0.00     0.167 HD
ATOM     50  C   UNL A   1      39.050  27.607  29.665  1.00  0.00     0.031 A 
ATOM     51  C   UNL A   1      42.992  33.192  29.953  1.00  0.00     0.031 A 
ATOM     52  C   UNL A   1      39.379  27.564  31.064  1.00  0.00     0.049 A 
ATOM     53  C   UNL A   1      43.224  31.806  30.423  1.00  0.00     0.074 A 
ATOM     54  C   UNL A   1      38.655  27.665  32.234  1.00  0.00     0.029 A 
ATOM     55  N   UNL A   1      40.690  27.786  31.412  1.00  0.00    -0.354 N 
ATOM     56  N   UNL A   1      43.086  31.442  31.667  1.00  0.00    -0.248 NA
ATOM     57  C   UNL A   1      43.174  30.724  29.451  1.00  0.00     0.031 C 
ATOM     58  C   UNL A   1      39.479  28.439  33.101  1.00  0.00     0.029 A 
ATOM     59  C   UNL A   1      40.676  28.702  32.432  1.00  0.00     0.049 A 
ATOM     60  H   UNL A   1      41.485  27.368  31.008  1.00  0.00     0.167 HD
ATOM     61  C   UNL A   1      42.495  30.188  31.606  1.00  0.00     0.074 A 
ATOM     62  C   UNL A   1      42.679  29.750  30.223  1.00  0.00     0.031 C 
ATOM     63  C   UNL A   1      41.662  29.747  32.596  1.00  0.00     0.031 A 
BRANCH  50  64
ATOM     64  C   UNL A   1      39.599  26.585  28.703  1.00  0.00    -0.014 A 
ATOM     65  C   UNL A   1      40.559  26.990  27.755  1.00  0.00     0.009 A 
ATOM     66  C   UNL A   1      39.010  25.323  28.511  1.00  0.00     0.009 A 
ATOM     67  C   UNL A   1      40.859  26.201  26.638  1.00  0.00     0.001 A 
ATOM     68  C   UNL A   1      39.337  24.516  27.416  1.00  0.00     0.001 A 
ATOM     69  C   UNL A   1      40.241  24.968  26.465  1.00  0.00     0.000 A 
ENDBRANCH  50  64
BRANCH  51  70
ATOM     70  C   UNL A   1      44.009  33.982  29.230  1.00  0.00    -0.014 A 
ATOM     71  C   UNL A   1      44.240  33.784  27.862  1.00  0.00     0.009 A 
ATOM     72  C   UNL A   1      44.589  35.114  29.835  1.00  0.00     0.009 A 
ATOM     73  C   UNL A   1      44.997  34.703  27.120  1.00  0.00     0.001 A 
ATOM     74  C   UNL A   1      45.348  36.027  29.099  1.00  0.00     0.001 A 
ATOM     75  C   UNL A   1      45.539  35.829  27.736  1.00  0.00     0.000 A 
ENDBRANCH  51  70
BRANCH  63  76
ATOM     76  C   UNL A   1      41.530  30.587  33.845  1.00  0.00    -0.014 A 
ATOM     77  C   UNL A   1      40.625  31.659  33.945  1.00  0.00     0.009 A 
ATOM     78  C   UNL A   1      42.183  30.163  35.012  1.00  0.00     0.009 A 
ATOM     79  C   UNL A   1      40.396  32.299  35.167  1.00  0.00     0.001 A 
ATOM     80  C   UNL A   1      41.939  30.787  36.237  1.00  0.00     0.001 A 
ATOM     81  C   UNL A   1      41.048  31.856  36.315  1.00  0.00     0.000 A 
ENDBRANCH  63  76
ENDBRANCH  37  38
ENDBRANCH  29  32
ENDBRANCH  27  28
ENDBRANCH   1  27
TORSDOF 12
ENDMDL
MODEL 3
REMARK VINA RESULT:     -12.3      3.449      8.028
REMARK SMILES Cc1cnc2nc(-c3cc(F)c(F)cc3C(=O)NCCCCNC(=O)c3ccc(-c4c5nc(c(-c6ccccc6)c6ccc([nH]6)c(-c6ccccc6)c6nc(c(-c7ccccc7)c7ccc4[nH]7)C=C6)C=C5)cc3)[nH]c2c1
REMARK SMILES IDX 21 1 20 2 19 3 18 4 16 5 17 6 15 8 8 9 9 10 10 11 14 12
REMARK SMILES IDX 11 13 12 14 13 15 7 16 1 17 2 18 3 19 76 20 4 21 75 22 5 23
REMARK SMILES IDX 74 24 6 25 22 27 23 28 24 29 25 31 26 32 27 33 73 34 28 35
REMARK SMILES IDX 72 36 29 37 30 38 31 39 66 40 32 41 71 42 65 43 67 44 33 45
REMARK SMILES IDX 70 46 64 47 63 48 34 50 56 51 41 52 55 53 42 54 45 55 54 56
REMARK SMILES IDX 68 57 43 58 44 59 53 61 69 62 46 63 35 64 36 65 40 66 37 67
REMARK SMILES IDX 39 68 38 69 57 70 58 71 62 72 59 73 61 74 60 75 47 76 48 77
REMARK SMILES IDX 52 78 49 79 51 80 50 81
REMARK H PARENT 18 7 74 26 23 30 67 49 45 60
REMARK Flexibility Score: inf
ROOT
ATOM      1  C   UNL A   1      33.532  29.448  26.934  1.00  0.00     0.023 C 
ENDROOT
BRANCH   1   2
ATOM      2  C   UNL A   1      32.494  28.472  27.483  1.00  0.00     0.023 C 
BRANCH   2   3
ATOM      3  C   UNL A   1      31.727  27.599  26.499  1.00  0.00     0.116 C 
BRANCH   3   4
ATOM      4  N   UNL A   1      31.257  26.317  26.939  1.00  0.00    -0.352 N 
ATOM      5  C   UNL A   1      31.388  25.072  26.361  1.00  0.00     0.252 C 
ATOM      6  O   UNL A   1      31.049  24.124  27.080  1.00  0.00    -0.269 OA
ATOM      7  H   UNL A   1      30.763  26.327  27.790  1.00  0.00     0.163 HD
BRANCH   5   8
ATOM      8  C   UNL A   1      31.768  24.750  24.930  1.00  0.00     0.053 A 
ATOM      9  C   UNL A   1      31.443  25.383  23.701  1.00  0.00     0.033 A 
ATOM     10  C   UNL A   1      31.976  24.871  22.490  1.00  0.00     0.055 A 
ATOM     11  C   UNL A   1      32.809  23.762  22.475  1.00  0.00     0.159 A 
ATOM     12  C   UNL A   1      32.637  23.624  24.864  1.00  0.00     0.057 A 
ATOM     13  F   UNL A   1      33.273  23.303  21.305  1.00  0.00    -0.204 F 
ATOM     14  C   UNL A   1      33.141  23.142  23.659  1.00  0.00     0.159 A 
ATOM     15  F   UNL A   1      33.942  22.068  23.657  1.00  0.00    -0.204 F 
BRANCH   9  16
ATOM     16  C   UNL A   1      30.556  26.528  23.513  1.00  0.00     0.141 A 
ATOM     17  C   UNL A   1      28.209  31.352  20.994  1.00  0.00     0.046 C 
ATOM     18  C   UNL A   1      28.510  30.163  21.856  1.00  0.00    -0.031 A 
ATOM     19  C   UNL A   1      27.486  29.463  22.501  1.00  0.00     0.117 A 
ATOM     20  C   UNL A   1      29.816  29.680  21.955  1.00  0.00     0.035 A 
ATOM     21  N   UNL A   1      27.621  28.311  23.205  1.00  0.00    -0.235 NA
ATOM     22  C   UNL A   1      29.961  28.511  22.695  1.00  0.00     0.085 A 
ATOM     23  C   UNL A   1      28.887  27.849  23.271  1.00  0.00     0.178 A 
ATOM     24  N   UNL A   1      31.033  27.718  22.989  1.00  0.00    -0.337 N 
ATOM     25  N   UNL A   1      29.267  26.623  23.765  1.00  0.00    -0.209 NA
ATOM     26  H   UNL A   1      31.980  27.952  22.853  1.00  0.00     0.168 HD
ENDBRANCH   9  16
ENDBRANCH   5   8
ENDBRANCH   3   4
ENDBRANCH   2   3
ENDBRANCH   1   2
BRANCH   1  27
ATOM     27  C   UNL A   1      34.935  29.322  27.517  1.00  0.00     0.116 C 
BRANCH  27  28
ATOM     28  N   UNL A   1      35.232  30.270  28.587  1.00  0.00    -0.352 N 
ATOM     29  C   UNL A   1      36.338  30.255  29.416  1.00  0.00     0.251 C 
ATOM     30  H   UNL A   1      34.581  30.994  28.733  1.00  0.00     0.163 HD
ATOM     31  O   UNL A   1      36.366  30.884  30.469  1.00  0.00    -0.269 OA
BRANCH  29  32
ATOM     32  C   UNL A   1      37.496  29.436  29.030  1.00  0.00     0.039 A 
ATOM     33  C   UNL A   1      38.203  29.739  27.865  1.00  0.00     0.014 A 
ATOM     34  C   UNL A   1      37.919  28.423  29.890  1.00  0.00     0.014 A 
ATOM     35  C   UNL A   1      39.421  29.111  27.642  1.00  0.00     0.010 A 
ATOM     36  C   UNL A   1      39.168  27.868  29.716  1.00  0.00     0.010 A 
ATOM     37  C   UNL A   1      39.926  28.218  28.600  1.00  0.00    -0.014 A 
BRANCH  37  38
ATOM     38  C   UNL A   1      41.328  27.818  28.526  1.00  0.00     0.031 A 
ATOM     39  C   UNL A   1      41.597  26.568  27.750  1.00  0.00     0.074 A 
ATOM     40  C   UNL A   1      42.354  28.608  28.901  1.00  0.00     0.049 A 
ATOM     41  N   UNL A   1      42.140  25.474  28.173  1.00  0.00    -0.248 NA
ATOM     42  C   UNL A   1      41.129  26.494  26.355  1.00  0.00     0.031 C 
ATOM     43  C   UNL A   1      42.318  29.994  29.374  1.00  0.00     0.029 A 
ATOM     44  N   UNL A   1      43.685  28.354  28.798  1.00  0.00    -0.354 N 
ATOM     45  C   UNL A   1      42.209  24.611  27.079  1.00  0.00     0.074 A 
ATOM     46  C   UNL A   1      41.472  25.250  26.017  1.00  0.00     0.031 C 
ATOM     47  C   UNL A   1      43.555  30.529  29.275  1.00  0.00     0.029 A 
ATOM     48  C   UNL A   1      44.484  29.482  28.890  1.00  0.00     0.049 A 
ATOM     49  H   UNL A   1      44.049  27.449  28.668  1.00  0.00     0.167 HD
ATOM     50  C   UNL A   1      43.007  23.506  27.075  1.00  0.00     0.031 A 
ATOM     51  C   UNL A   1      45.809  29.555  28.618  1.00  0.00     0.031 A 
ATOM     52  C   UNL A   1      43.491  23.188  28.390  1.00  0.00     0.049 A 
ATOM     53  C   UNL A   1      46.354  28.179  28.688  1.00  0.00     0.074 A 
ATOM     54  C   UNL A   1      42.895  22.837  29.584  1.00  0.00     0.029 A 
ATOM     55  N   UNL A   1      44.766  23.592  28.710  1.00  0.00    -0.354 N 
ATOM     56  N   UNL A   1      46.427  27.495  29.796  1.00  0.00    -0.248 NA
ATOM     57  C   UNL A   1      46.405  27.388  27.467  1.00  0.00     0.031 C 
ATOM     58  C   UNL A   1      43.646  23.528  30.578  1.00  0.00     0.029 A 
ATOM     59  C   UNL A   1      44.689  24.200  29.936  1.00  0.00     0.049 A 
ATOM     60  H   UNL A   1      45.576  23.469  28.165  1.00  0.00     0.167 HD
ATOM     61  C   UNL A   1      46.084  26.200  29.436  1.00  0.00     0.074 A 
ATOM     62  C   UNL A   1      46.195  26.170  27.977  1.00  0.00     0.031 C 
ATOM     63  C   UNL A   1      45.467  25.358  30.317  1.00  0.00     0.031 A 
BRANCH  50  64
ATOM     64  C   UNL A   1      43.632  22.900  25.845  1.00  0.00    -0.014 A 
ATOM     65  C   UNL A   1      43.728  21.498  25.751  1.00  0.00     0.009 A 
ATOM     66  C   UNL A   1      44.374  23.650  24.916  1.00  0.00     0.009 A 
ATOM     67  C   UNL A   1      44.577  20.885  24.821  1.00  0.00     0.001 A 
ATOM     68  C   UNL A   1      45.193  23.039  23.961  1.00  0.00     0.001 A 
ATOM     69  C   UNL A   1      45.315  21.657  23.932  1.00  0.00     0.000 A 
ENDBRANCH  50  64
BRANCH  51  70
ATOM     70  C   UNL A   1      46.568  30.699  28.076  1.00  0.00    -0.014 A 
ATOM     71  C   UNL A   1      46.139  31.371  26.923  1.00  0.00     0.009 A 
ATOM     72  C   UNL A   1      47.593  31.294  28.837  1.00  0.00     0.009 A 
ATOM     73  C   UNL A   1      46.692  32.609  26.564  1.00  0.00     0.001 A 
ATOM     74  C   UNL A   1      48.149  32.525  28.477  1.00  0.00     0.001 A 
ATOM     75  C   UNL A   1      47.687  33.190  27.347  1.00  0.00     0.000 A 
ENDBRANCH  51  70
BRANCH  63  76
ATOM     76  C   UNL A   1      45.315  25.811  31.751  1.00  0.00    -0.014 A 
ATOM     77  C   UNL A   1      44.230  26.593  32.187  1.00  0.00     0.009 A 
ATOM     78  C   UNL A   1      46.172  25.270  32.721  1.00  0.00     0.009 A 
ATOM     79  C   UNL A   1      44.022  26.843  33.547  1.00  0.00     0.001 A 
ATOM     80  C   UNL A   1      45.951  25.501  34.081  1.00  0.00     0.001 A 
ATOM     81  C   UNL A   1      44.878  26.289  34.494  1.00  0.00     0.000 A 
ENDBRANCH  63  76
ENDBRANCH  37  38
ENDBRANCH  29  32
ENDBRANCH  27  28
ENDBRANCH   1  27
TORSDOF 12
ENDMDL
