MODEL 1
REMARK VINA RESULT:      -9.6      0.000      0.000
REMARK SMILES C[NH2+]C[C@H](C)C(=O)NC[C@](C)(O)C(=O)NCCCCNC(=O)c1ccc(-c2c3nc(c(-c4ccccc4)c4ccc([nH]4)c(-c4ccccc4)c4nc(c(-c5ccccc5)c5ccc2[nH]5)C=C4)C=C3)cc1
REMARK SMILES IDX 16 1 15 2 13 3 14 4 10 6 11 7 9 8 8 9 6 10 7 11 4 13 5 14
REMARK SMILES IDX 3 15 2 16 1 17 12 20 17 22 18 23 19 24 20 25 21 26 22 28
REMARK SMILES IDX 23 29 24 30 70 31 25 32 69 33 26 34 27 35 28 36 63 37 29 38
REMARK SMILES IDX 68 39 62 40 64 41 30 42 67 43 61 44 60 45 31 47 53 48 38 49
REMARK SMILES IDX 52 50 39 51 42 52 51 53 65 54 40 55 41 56 50 58 66 59 43 60
REMARK SMILES IDX 32 61 33 62 37 63 34 64 36 65 35 66 54 67 55 68 59 69 56 70
REMARK SMILES IDX 58 71 57 72 44 73 45 74 49 75 46 76 48 77 47 78
REMARK H PARENT 15 5 8 12 2 18 2 19 12 21 20 27 64 46 42 57
REMARK Flexibility Score: inf
ROOT
ATOM      1  C   UNL A   1      36.763  22.144  25.291  1.00  0.00     0.116 C 
ENDROOT
BRANCH   1   2
ATOM      2  N   UNL A   1      35.938  21.900  26.457  1.00  0.00    -0.354 N 
ATOM      3  C   UNL A   1      34.576  21.840  26.565  1.00  0.00     0.253 C 
ATOM      4  O   UNL A   1      34.137  21.390  27.630  1.00  0.00    -0.272 OA
ATOM      5  H   UNL A   1      36.432  21.757  27.296  1.00  0.00     0.163 HD
BRANCH   3   6
ATOM      6  C   UNL A   1      33.618  22.250  25.395  1.00  0.00     0.157 C 
ATOM      7  C   UNL A   1      32.293  22.755  26.014  1.00  0.00     0.055 C 
BRANCH   6   8
ATOM      8  C   UNL A   1      33.289  21.029  24.501  1.00  0.00     0.160 C 
BRANCH   8   9
ATOM      9  N   UNL A   1      32.751  19.905  25.247  1.00  0.00    -0.352 N 
ATOM     10  C   UNL A   1      32.911  18.567  25.097  1.00  0.00     0.228 C 
ATOM     11  O   UNL A   1      32.175  17.831  25.762  1.00  0.00    -0.275 OA
ATOM     12  H   UNL A   1      32.165  20.159  25.997  1.00  0.00     0.163 HD
BRANCH  10  13
ATOM     13  C   UNL A   1      33.969  17.971  24.182  1.00  0.00     0.130 C 
ATOM     14  C   UNL A   1      34.947  17.047  24.908  1.00  0.00     0.024 C 
BRANCH  13  15
ATOM     15  C   UNL A   1      33.359  17.329  22.924  1.00  0.00     0.273 C 
BRANCH  15  16
ATOM     16  N   UNL A   1      32.037  17.820  22.515  1.00  0.00    -0.348 N 
ATOM     17  C   UNL A   1      32.098  18.794  21.431  1.00  0.00     0.330 C 
ATOM     18  H   UNL A   1      31.477  17.025  22.204  1.00  0.00     0.346 HD
ATOM     19  H   UNL A   1      31.623  18.287  23.321  1.00  0.00     0.346 HD
ENDBRANCH  15  16
ENDBRANCH  13  15
ENDBRANCH  10  13
ENDBRANCH   8   9
ENDBRANCH   6   8
BRANCH   6  20
ATOM     20  O   UNL A   1      34.121  23.296  24.556  1.00  0.00    -0.378 OA
ATOM     21  H   UNL A   1      33.534  24.065  24.611  1.00  0.00     0.212 HD
ENDBRANCH   6  20
ENDBRANCH   3   6
ENDBRANCH   1   2
BRANCH   1  22
ATOM     22  C   UNL A   1      36.969  20.925  24.403  1.00  0.00     0.023 C 
BRANCH  22  23
ATOM     23  C   UNL A   1      37.845  19.825  25.003  1.00  0.00     0.023 C 
BRANCH  23  24
ATOM     24  C   UNL A   1      39.075  20.294  25.776  1.00  0.00     0.116 C 
BRANCH  24  25
ATOM     25  N   UNL A   1      40.134  19.297  25.846  1.00  0.00    -0.352 N 
ATOM     26  C   UNL A   1      41.472  19.450  26.108  1.00  0.00     0.251 C 
ATOM     27  H   UNL A   1      39.844  18.370  25.679  1.00  0.00     0.163 HD
ATOM     28  O   UNL A   1      42.244  18.502  25.966  1.00  0.00    -0.269 OA
BRANCH  26  29
ATOM     29  C   UNL A   1      42.005  20.760  26.543  1.00  0.00     0.039 A 
ATOM     30  C   UNL A   1      42.511  21.640  25.583  1.00  0.00     0.014 A 
ATOM     31  C   UNL A   1      42.019  21.120  27.893  1.00  0.00     0.014 A 
ATOM     32  C   UNL A   1      42.964  22.904  25.970  1.00  0.00     0.010 A 
ATOM     33  C   UNL A   1      42.381  22.412  28.265  1.00  0.00     0.010 A 
ATOM     34  C   UNL A   1      42.867  23.316  27.310  1.00  0.00    -0.014 A 
BRANCH  34  35
ATOM     35  C   UNL A   1      43.279  24.685  27.723  1.00  0.00     0.031 A 
ATOM     36  C   UNL A   1      42.243  25.735  28.025  1.00  0.00     0.074 A 
ATOM     37  C   UNL A   1      44.589  24.998  27.787  1.00  0.00     0.049 A 
ATOM     38  N   UNL A   1      42.414  26.979  28.396  1.00  0.00    -0.248 NA
ATOM     39  C   UNL A   1      40.833  25.346  27.866  1.00  0.00     0.031 C 
ATOM     40  C   UNL A   1      45.695  24.090  27.473  1.00  0.00     0.029 A 
ATOM     41  N   UNL A   1      45.212  26.168  28.145  1.00  0.00    -0.354 N 
ATOM     42  C   UNL A   1      41.138  27.520  28.501  1.00  0.00     0.074 A 
ATOM     43  C   UNL A   1      40.208  26.491  28.095  1.00  0.00     0.031 C 
ATOM     44  C   UNL A   1      46.859  24.723  27.692  1.00  0.00     0.029 A 
ATOM     45  C   UNL A   1      46.584  26.090  28.121  1.00  0.00     0.049 A 
ATOM     46  H   UNL A   1      44.722  26.984  28.393  1.00  0.00     0.167 HD
ATOM     47  C   UNL A   1      40.768  28.754  28.922  1.00  0.00     0.031 A 
ATOM     48  C   UNL A   1      47.518  27.016  28.414  1.00  0.00     0.031 A 
ATOM     49  C   UNL A   1      41.690  29.780  29.332  1.00  0.00     0.049 A 
ATOM     50  C   UNL A   1      47.082  28.382  28.867  1.00  0.00     0.074 A 
ATOM     51  C   UNL A   1      41.412  31.042  29.825  1.00  0.00     0.029 A 
ATOM     52  N   UNL A   1      43.071  29.662  29.292  1.00  0.00    -0.354 N 
ATOM     53  N   UNL A   1      45.870  28.851  29.036  1.00  0.00    -0.248 NA
ATOM     54  C   UNL A   1      48.149  29.342  29.184  1.00  0.00     0.031 C 
ATOM     55  C   UNL A   1      42.624  31.710  30.026  1.00  0.00     0.029 A 
ATOM     56  C   UNL A   1      43.659  30.839  29.726  1.00  0.00     0.049 A 
ATOM     57  H   UNL A   1      43.562  28.860  28.997  1.00  0.00     0.167 HD
ATOM     58  C   UNL A   1      46.027  30.147  29.509  1.00  0.00     0.074 A 
ATOM     59  C   UNL A   1      47.452  30.382  29.620  1.00  0.00     0.031 C 
ATOM     60  C   UNL A   1      45.077  31.061  29.826  1.00  0.00     0.031 A 
BRANCH  47  61
ATOM     61  C   UNL A   1      39.295  29.062  28.953  1.00  0.00    -0.014 A 
ATOM     62  C   UNL A   1      38.635  29.588  27.829  1.00  0.00     0.009 A 
ATOM     63  C   UNL A   1      38.549  28.794  30.111  1.00  0.00     0.009 A 
ATOM     64  C   UNL A   1      37.271  29.877  27.879  1.00  0.00     0.001 A 
ATOM     65  C   UNL A   1      37.177  29.054  30.147  1.00  0.00     0.001 A 
ATOM     66  C   UNL A   1      36.541  29.606  29.035  1.00  0.00     0.000 A 
ENDBRANCH  47  61
BRANCH  48  67
ATOM     67  C   UNL A   1      48.963  26.678  28.312  1.00  0.00    -0.014 A 
ATOM     68  C   UNL A   1      49.646  26.826  27.095  1.00  0.00     0.009 A 
ATOM     69  C   UNL A   1      49.665  26.193  29.426  1.00  0.00     0.009 A 
ATOM     70  C   UNL A   1      50.991  26.462  26.987  1.00  0.00     0.001 A 
ATOM     71  C   UNL A   1      51.017  25.862  29.325  1.00  0.00     0.001 A 
ATOM     72  C   UNL A   1      51.676  25.985  28.103  1.00  0.00     0.000 A 
ENDBRANCH  48  67
BRANCH  60  73
ATOM     73  C   UNL A   1      45.550  32.386  30.361  1.00  0.00    -0.014 A 
ATOM     74  C   UNL A   1      45.796  33.476  29.512  1.00  0.00     0.009 A 
ATOM     75  C   UNL A   1      45.731  32.549  31.744  1.00  0.00     0.009 A 
ATOM     76  C   UNL A   1      46.256  34.687  30.033  1.00  0.00     0.001 A 
ATOM     77  C   UNL A   1      46.156  33.772  32.266  1.00  0.00     0.001 A 
ATOM     78  C   UNL A   1      46.431  34.836  31.408  1.00  0.00     0.000 A 
ENDBRANCH  60  73
ENDBRANCH  34  35
ENDBRANCH  26  29
ENDBRANCH  24  25
ENDBRANCH  23  24
ENDBRANCH  22  23
ENDBRANCH   1  22
TORSDOF 17
ENDMDL
MODEL 2
REMARK VINA RESULT:      -9.2      5.197     10.619
REMARK SMILES C[NH2+]C[C@H](C)C(=O)NC[C@](C)(O)C(=O)NCCCCNC(=O)c1ccc(-c2c3nc(c(-c4ccccc4)c4ccc([nH]4)c(-c4ccccc4)c4nc(c(-c5ccccc5)c5ccc2[nH]5)C=C4)C=C3)cc1
REMARK SMILES IDX 16 1 15 2 13 3 14 4 10 6 11 7 9 8 8 9 6 10 7 11 4 13 5 14
REMARK SMILES IDX 3 15 2 16 1 17 12 20 17 22 18 23 19 24 20 25 21 26 22 28
REMARK SMILES IDX 23 29 24 30 70 31 25 32 69 33 26 34 27 35 28 36 63 37 29 38
REMARK SMILES IDX 68 39 62 40 64 41 30 42 67 43 61 44 60 45 31 47 53 48 38 49
REMARK SMILES IDX 52 50 39 51 42 52 51 53 65 54 40 55 41 56 50 58 66 59 43 60
REMARK SMILES IDX 32 61 33 62 37 63 34 64 36 65 35 66 54 67 55 68 59 69 56 70
REMARK SMILES IDX 58 71 57 72 44 73 45 74 49 75 46 76 48 77 47 78
REMARK H PARENT 15 5 8 12 2 18 2 19 12 21 20 27 64 46 42 57
REMARK Flexibility Score: inf
ROOT
ATOM      1  C   UNL A   1      37.638  33.019  30.880  1.00  0.00     0.116 C 
ENDROOT
BRANCH   1   2
ATOM      2  N   UNL A   1      37.926  34.093  31.810  1.00  0.00    -0.354 N 
ATOM      3  C   UNL A   1      37.619  34.202  33.138  1.00  0.00     0.253 C 
ATOM      4  O   UNL A   1      38.181  35.118  33.750  1.00  0.00    -0.272 OA
ATOM      5  H   UNL A   1      38.414  34.857  31.429  1.00  0.00     0.163 HD
BRANCH   3   6
ATOM      6  C   UNL A   1      36.666  33.195  33.869  1.00  0.00     0.157 C 
ATOM      7  C   UNL A   1      36.656  33.551  35.375  1.00  0.00     0.055 C 
BRANCH   6   8
ATOM      8  C   UNL A   1      37.189  31.744  33.730  1.00  0.00     0.160 C 
BRANCH   8   9
ATOM      9  N   UNL A   1      37.674  31.190  34.982  1.00  0.00    -0.352 N 
ATOM     10  C   UNL A   1      38.876  30.665  35.326  1.00  0.00     0.228 C 
ATOM     11  O   UNL A   1      38.950  30.088  36.416  1.00  0.00    -0.275 OA
ATOM     12  H   UNL A   1      37.013  31.196  35.711  1.00  0.00     0.163 HD
BRANCH  10  13
ATOM     13  C   UNL A   1      40.106  30.800  34.444  1.00  0.00     0.130 C 
ATOM     14  C   UNL A   1      40.566  32.246  34.261  1.00  0.00     0.024 C 
BRANCH  13  15
ATOM     15  C   UNL A   1      41.244  29.860  34.882  1.00  0.00     0.273 C 
BRANCH  15  16
ATOM     16  N   UNL A   1      41.036  28.426  34.645  1.00  0.00    -0.348 N 
ATOM     17  C   UNL A   1      40.858  28.099  33.235  1.00  0.00     0.330 C 
ATOM     18  H   UNL A   1      41.848  27.918  34.995  1.00  0.00     0.346 HD
ATOM     19  H   UNL A   1      40.180  28.159  35.130  1.00  0.00     0.346 HD
ENDBRANCH  15  16
ENDBRANCH  13  15
ENDBRANCH  10  13
ENDBRANCH   8   9
ENDBRANCH   6   8
BRANCH   6  20
ATOM     20  O   UNL A   1      35.309  33.227  33.415  1.00  0.00    -0.378 OA
ATOM     21  H   UNL A   1      34.911  34.081  33.646  1.00  0.00     0.212 HD
ENDBRANCH   6  20
ENDBRANCH   3   6
ENDBRANCH   1   2
BRANCH   1  22
ATOM     22  C   UNL A   1      37.423  33.475  29.444  1.00  0.00     0.023 C 
BRANCH  22  23
ATOM     23  C   UNL A   1      35.962  33.642  29.028  1.00  0.00     0.023 C 
BRANCH  23  24
ATOM     24  C   UNL A   1      34.944  32.809  29.805  1.00  0.00     0.116 C 
BRANCH  24  25
ATOM     25  N   UNL A   1      34.164  31.912  28.964  1.00  0.00    -0.352 N 
ATOM     26  C   UNL A   1      34.547  30.776  28.295  1.00  0.00     0.251 C 
ATOM     27  H   UNL A   1      33.216  32.158  28.860  1.00  0.00     0.163 HD
ATOM     28  O   UNL A   1      33.778  30.236  27.500  1.00  0.00    -0.269 OA
BRANCH  26  29
ATOM     29  C   UNL A   1      35.895  30.203  28.504  1.00  0.00     0.039 A 
ATOM     30  C   UNL A   1      36.829  30.270  27.468  1.00  0.00     0.014 A 
ATOM     31  C   UNL A   1      36.238  29.591  29.711  1.00  0.00     0.014 A 
ATOM     32  C   UNL A   1      38.125  29.786  27.668  1.00  0.00     0.010 A 
ATOM     33  C   UNL A   1      37.553  29.196  29.943  1.00  0.00     0.010 A 
ATOM     34  C   UNL A   1      38.510  29.279  28.922  1.00  0.00    -0.014 A 
BRANCH  34  35
ATOM     35  C   UNL A   1      39.905  28.827  29.170  1.00  0.00     0.031 A 
ATOM     36  C   UNL A   1      40.893  29.738  29.852  1.00  0.00     0.074 A 
ATOM     37  C   UNL A   1      40.299  27.610  28.745  1.00  0.00     0.049 A 
ATOM     38  N   UNL A   1      42.148  29.516  30.150  1.00  0.00    -0.248 NA
ATOM     39  C   UNL A   1      40.415  31.078  30.225  1.00  0.00     0.031 C 
ATOM     40  C   UNL A   1      39.458  26.648  28.028  1.00  0.00     0.029 A 
ATOM     41  N   UNL A   1      41.509  26.971  28.861  1.00  0.00    -0.354 N 
ATOM     42  C   UNL A   1      42.610  30.691  30.731  1.00  0.00     0.074 A 
ATOM     43  C   UNL A   1      41.522  31.641  30.688  1.00  0.00     0.031 C 
ATOM     44  C   UNL A   1      40.165  25.527  27.805  1.00  0.00     0.029 A 
ATOM     45  C   UNL A   1      41.516  25.705  28.325  1.00  0.00     0.049 A 
ATOM     46  H   UNL A   1      42.296  27.381  29.285  1.00  0.00     0.167 HD
ATOM     47  C   UNL A   1      43.822  30.952  31.277  1.00  0.00     0.031 A 
ATOM     48  C   UNL A   1      42.500  24.788  28.262  1.00  0.00     0.031 A 
ATOM     49  C   UNL A   1      44.908  30.007  31.327  1.00  0.00     0.049 A 
ATOM     50  C   UNL A   1      43.841  25.106  28.863  1.00  0.00     0.074 A 
ATOM     51  C   UNL A   1      46.155  30.157  31.907  1.00  0.00     0.029 A 
ATOM     52  N   UNL A   1      44.875  28.737  30.773  1.00  0.00    -0.354 N 
ATOM     53  N   UNL A   1      44.236  26.193  29.479  1.00  0.00    -0.248 NA
ATOM     54  C   UNL A   1      44.869  24.058  28.773  1.00  0.00     0.031 C 
ATOM     55  C   UNL A   1      46.899  29.001  31.650  1.00  0.00     0.029 A 
ATOM     56  C   UNL A   1      46.090  28.103  30.973  1.00  0.00     0.049 A 
ATOM     57  H   UNL A   1      44.102  28.344  30.306  1.00  0.00     0.167 HD
ATOM     58  C   UNL A   1      45.544  25.950  29.877  1.00  0.00     0.074 A 
ATOM     59  C   UNL A   1      45.868  24.603  29.452  1.00  0.00     0.031 C 
ATOM     60  C   UNL A   1      46.401  26.766  30.540  1.00  0.00     0.031 A 
BRANCH  47  61
ATOM     61  C   UNL A   1      44.039  32.322  31.860  1.00  0.00    -0.014 A 
ATOM     62  C   UNL A   1      43.840  32.574  33.228  1.00  0.00     0.009 A 
ATOM     63  C   UNL A   1      44.480  33.371  31.037  1.00  0.00     0.009 A 
ATOM     64  C   UNL A   1      44.037  33.854  33.750  1.00  0.00     0.001 A 
ATOM     65  C   UNL A   1      44.707  34.642  31.568  1.00  0.00     0.001 A 
ATOM     66  C   UNL A   1      44.475  34.885  32.921  1.00  0.00     0.000 A 
ENDBRANCH  47  61
BRANCH  48  67
ATOM     67  C   UNL A   1      42.252  23.468  27.622  1.00  0.00    -0.014 A 
ATOM     68  C   UNL A   1      42.510  23.276  26.255  1.00  0.00     0.009 A 
ATOM     69  C   UNL A   1      41.742  22.395  28.370  1.00  0.00     0.009 A 
ATOM     70  C   UNL A   1      42.230  22.051  25.645  1.00  0.00     0.001 A 
ATOM     71  C   UNL A   1      41.494  21.161  27.766  1.00  0.00     0.001 A 
ATOM     72  C   UNL A   1      41.727  20.994  26.402  1.00  0.00     0.000 A 
ENDBRANCH  48  67
BRANCH  60  73
ATOM     73  C   UNL A   1      47.757  26.209  30.878  1.00  0.00    -0.014 A 
ATOM     74  C   UNL A   1      48.037  25.674  32.145  1.00  0.00     0.009 A 
ATOM     75  C   UNL A   1      48.765  26.200  29.900  1.00  0.00     0.009 A 
ATOM     76  C   UNL A   1      49.312  25.185  32.440  1.00  0.00     0.001 A 
ATOM     77  C   UNL A   1      50.027  25.677  30.185  1.00  0.00     0.001 A 
ATOM     78  C   UNL A   1      50.303  25.183  31.459  1.00  0.00     0.000 A 
ENDBRANCH  60  73
ENDBRANCH  34  35
ENDBRANCH  26  29
ENDBRANCH  24  25
ENDBRANCH  23  24
ENDBRANCH  22  23
ENDBRANCH   1  22
TORSDOF 17
ENDMDL
MODEL 3
REMARK VINA RESULT:      -9.1      4.799      8.590
REMARK SMILES C[NH2+]C[C@H](C)C(=O)NC[C@](C)(O)C(=O)NCCCCNC(=O)c1ccc(-c2c3nc(c(-c4ccccc4)c4ccc([nH]4)c(-c4ccccc4)c4nc(c(-c5ccccc5)c5ccc2[nH]5)C=C4)C=C3)cc1
REMARK SMILES IDX 16 1 15 2 13 3 14 4 10 6 11 7 9 8 8 9 6 10 7 11 4 13 5 14
REMARK SMILES IDX 3 15 2 16 1 17 12 20 17 22 18 23 19 24 20 25 21 26 22 28
REMARK SMILES IDX 23 29 24 30 70 31 25 32 69 33 26 34 27 35 28 36 63 37 29 38
REMARK SMILES IDX 68 39 62 40 64 41 30 42 67 43 61 44 60 45 31 47 53 48 38 49
REMARK SMILES IDX 52 50 39 51 42 52 51 53 65 54 40 55 41 56 50 58 66 59 43 60
REMARK SMILES IDX 32 61 33 62 37 63 34 64 36 65 35 66 54 67 55 68 59 69 56 70
REMARK SMILES IDX 58 71 57 72 44 73 45 74 49 75 46 76 48 77 47 78
REMARK H PARENT 15 5 8 12 2 18 2 19 12 21 20 27 64 46 42 57
REMARK Flexibility Score: inf
ROOT
ATOM      1  C   UNL A   1      31.674  29.568  24.881  1.00  0.00     0.116 C 
ENDROOT
BRANCH   1   2
ATOM      2  N   UNL A   1      30.653  30.580  24.700  1.00  0.00    -0.354 N 
ATOM      3  C   UNL A   1      29.724  30.712  23.706  1.00  0.00     0.253 C 
ATOM      4  O   UNL A   1      28.823  31.535  23.913  1.00  0.00    -0.272 OA
ATOM      5  H   UNL A   1      30.625  31.275  25.395  1.00  0.00     0.163 HD
BRANCH   3   6
ATOM      6  C   UNL A   1      29.746  29.836  22.407  1.00  0.00     0.157 C 
ATOM      7  C   UNL A   1      28.457  30.133  21.605  1.00  0.00     0.055 C 
BRANCH   6   8
ATOM      8  C   UNL A   1      29.746  28.328  22.762  1.00  0.00     0.160 C 
BRANCH   8   9
ATOM      9  N   UNL A   1      30.736  27.567  22.019  1.00  0.00    -0.352 N 
ATOM     10  C   UNL A   1      31.485  26.491  22.362  1.00  0.00     0.228 C 
ATOM     11  O   UNL A   1      32.393  26.165  21.591  1.00  0.00    -0.275 OA
ATOM     12  H   UNL A   1      30.890  27.891  21.102  1.00  0.00     0.163 HD
BRANCH  10  13
ATOM     13  C   UNL A   1      31.217  25.679  23.619  1.00  0.00     0.130 C 
ATOM     14  C   UNL A   1      30.723  24.262  23.331  1.00  0.00     0.024 C 
BRANCH  13  15
ATOM     15  C   UNL A   1      32.402  25.713  24.600  1.00  0.00     0.273 C 
BRANCH  15  16
ATOM     16  N   UNL A   1      32.345  24.774  25.728  1.00  0.00    -0.348 N 
ATOM     17  C   UNL A   1      33.603  24.071  25.951  1.00  0.00     0.330 C 
ATOM     18  H   UNL A   1      32.111  25.296  26.573  1.00  0.00     0.346 HD
ATOM     19  H   UNL A   1      31.640  24.073  25.504  1.00  0.00     0.346 HD
ENDBRANCH  15  16
ENDBRANCH  13  15
ENDBRANCH  10  13
ENDBRANCH   8   9
ENDBRANCH   6   8
BRANCH   6  20
ATOM     20  O   UNL A   1      30.855  30.090  21.539  1.00  0.00    -0.378 OA
ATOM     21  H   UNL A   1      31.444  29.320  21.532  1.00  0.00     0.212 HD
ENDBRANCH   6  20
ENDBRANCH   3   6
ENDBRANCH   1   2
BRANCH   1  22
ATOM     22  C   UNL A   1      31.638  28.877  26.237  1.00  0.00     0.023 C 
BRANCH  22  23
ATOM     23  C   UNL A   1      32.953  28.907  27.017  1.00  0.00     0.023 C 
BRANCH  23  24
ATOM     24  C   UNL A   1      33.926  30.025  26.647  1.00  0.00     0.116 C 
BRANCH  24  25
ATOM     25  N   UNL A   1      33.776  31.220  27.465  1.00  0.00    -0.352 N 
ATOM     26  C   UNL A   1      34.532  31.666  28.520  1.00  0.00     0.251 C 
ATOM     27  H   UNL A   1      33.015  31.797  27.223  1.00  0.00     0.163 HD
ATOM     28  O   UNL A   1      34.152  32.624  29.193  1.00  0.00    -0.269 OA
BRANCH  26  29
ATOM     29  C   UNL A   1      35.797  30.986  28.875  1.00  0.00     0.039 A 
ATOM     30  C   UNL A   1      37.002  31.500  28.391  1.00  0.00     0.014 A 
ATOM     31  C   UNL A   1      35.800  29.840  29.672  1.00  0.00     0.014 A 
ATOM     32  C   UNL A   1      38.211  30.906  28.763  1.00  0.00     0.010 A 
ATOM     33  C   UNL A   1      37.006  29.305  30.119  1.00  0.00     0.010 A 
ATOM     34  C   UNL A   1      38.226  29.826  29.663  1.00  0.00    -0.014 A 
BRANCH  34  35
ATOM     35  C   UNL A   1      39.508  29.229  30.123  1.00  0.00     0.031 A 
ATOM     36  C   UNL A   1      40.213  29.778  31.336  1.00  0.00     0.074 A 
ATOM     37  C   UNL A   1      40.063  28.218  29.427  1.00  0.00     0.049 A 
ATOM     38  N   UNL A   1      41.337  29.388  31.883  1.00  0.00    -0.248 NA
ATOM     39  C   UNL A   1      39.587  30.928  32.007  1.00  0.00     0.031 C 
ATOM     40  C   UNL A   1      39.511  27.624  28.206  1.00  0.00     0.029 A 
ATOM     41  N   UNL A   1      41.216  27.505  29.650  1.00  0.00    -0.354 N 
ATOM     42  C   UNL A   1      41.556  30.252  32.950  1.00  0.00     0.074 A 
ATOM     43  C   UNL A   1      40.485  31.222  32.936  1.00  0.00     0.031 C 
ATOM     44  C   UNL A   1      40.302  26.612  27.813  1.00  0.00     0.029 A 
ATOM     45  C   UNL A   1      41.436  26.511  28.726  1.00  0.00     0.049 A 
ATOM     46  H   UNL A   1      41.826  27.689  30.399  1.00  0.00     0.167 HD
ATOM     47  C   UNL A   1      42.545  30.227  33.876  1.00  0.00     0.031 A 
ATOM     48  C   UNL A   1      42.437  25.615  28.626  1.00  0.00     0.031 A 
ATOM     49  C   UNL A   1      43.611  29.260  33.897  1.00  0.00     0.049 A 
ATOM     50  C   UNL A   1      43.530  25.617  29.659  1.00  0.00     0.074 A 
ATOM     51  C   UNL A   1      44.629  29.119  34.823  1.00  0.00     0.029 A 
ATOM     52  N   UNL A   1      43.798  28.271  32.943  1.00  0.00    -0.354 N 
ATOM     53  N   UNL A   1      43.679  26.391  30.706  1.00  0.00    -0.248 NA
ATOM     54  C   UNL A   1      44.586  24.606  29.502  1.00  0.00     0.031 C 
ATOM     55  C   UNL A   1      45.467  28.083  34.398  1.00  0.00     0.029 A 
ATOM     56  C   UNL A   1      44.931  27.533  33.245  1.00  0.00     0.049 A 
ATOM     57  H   UNL A   1      43.213  28.117  32.166  1.00  0.00     0.167 HD
ATOM     58  C   UNL A   1      44.825  25.942  31.350  1.00  0.00     0.074 A 
ATOM     59  C   UNL A   1      45.319  24.815  30.586  1.00  0.00     0.031 C 
ATOM     60  C   UNL A   1      45.415  26.418  32.474  1.00  0.00     0.031 A 
BRANCH  47  61
ATOM     61  C   UNL A   1      42.521  31.288  34.943  1.00  0.00    -0.014 A 
ATOM     62  C   UNL A   1      43.132  32.538  34.744  1.00  0.00     0.009 A 
ATOM     63  C   UNL A   1      41.851  31.048  36.153  1.00  0.00     0.009 A 
ATOM     64  C   UNL A   1      43.109  33.507  35.749  1.00  0.00     0.001 A 
ATOM     65  C   UNL A   1      41.801  32.032  37.143  1.00  0.00     0.001 A 
ATOM     66  C   UNL A   1      42.439  33.255  36.945  1.00  0.00     0.000 A 
ENDBRANCH  47  61
BRANCH  48  67
ATOM     67  C   UNL A   1      42.445  24.623  27.518  1.00  0.00    -0.014 A 
ATOM     68  C   UNL A   1      41.819  23.376  27.671  1.00  0.00     0.009 A 
ATOM     69  C   UNL A   1      43.092  24.910  26.306  1.00  0.00     0.009 A 
ATOM     70  C   UNL A   1      41.870  22.426  26.648  1.00  0.00     0.001 A 
ATOM     71  C   UNL A   1      43.113  23.972  25.272  1.00  0.00     0.001 A 
ATOM     72  C   UNL A   1      42.513  22.727  25.448  1.00  0.00     0.000 A 
ENDBRANCH  48  67
BRANCH  60  73
ATOM     73  C   UNL A   1      46.639  25.694  32.966  1.00  0.00    -0.014 A 
ATOM     74  C   UNL A   1      46.548  24.637  33.885  1.00  0.00     0.009 A 
ATOM     75  C   UNL A   1      47.904  26.066  32.482  1.00  0.00     0.009 A 
ATOM     76  C   UNL A   1      47.702  23.998  34.343  1.00  0.00     0.001 A 
ATOM     77  C   UNL A   1      49.053  25.402  32.914  1.00  0.00     0.001 A 
ATOM     78  C   UNL A   1      48.952  24.377  33.854  1.00  0.00     0.000 A 
ENDBRANCH  60  73
ENDBRANCH  34  35
ENDBRANCH  26  29
ENDBRANCH  24  25
ENDBRANCH  23  24
ENDBRANCH  22  23
ENDBRANCH   1  22
TORSDOF 17
ENDMDL
