MODEL 1
REMARK VINA RESULT:     -11.5      0.000      0.000
REMARK SMILES C[C@@H](C(=O)NCCCCNC(=O)c1ccc(-c2c3nc(c(-c4ccccc4)c4ccc([nH]4)c(-c4ccccc4)c4nc(c(-c5ccccc5)c5ccc2[nH]5)C=C4)C=C3)cc1)c1ccc(-c2ccccc2)c(F)c1
REMARK SMILES IDX 7 1 6 2 5 3 3 4 4 5 2 7 1 8 61 9 62 10 73 11 63 12 71 13
REMARK SMILES IDX 64 14 72 15 65 16 66 17 70 18 67 19 69 20 68 21 8 22 9 23
REMARK SMILES IDX 10 24 11 25 12 27 13 28 14 29 60 30 15 31 59 32 16 33 17 34
REMARK SMILES IDX 18 35 53 36 19 37 58 38 52 39 54 40 20 41 57 42 51 43 50 44
REMARK SMILES IDX 21 46 43 47 28 48 42 49 29 50 32 51 41 52 55 53 30 54 31 55
REMARK SMILES IDX 40 57 56 58 33 59 22 60 23 61 27 62 24 63 26 64 25 65 44 66
REMARK SMILES IDX 45 67 49 68 46 69 48 70 47 71 34 72 35 73 39 74 36 75 38 76
REMARK SMILES IDX 37 77
REMARK H PARENT 5 6 10 26 54 45 32 56
REMARK Flexibility Score: inf
ROOT
ATOM      1  C   UNL A   1      32.475  28.533  24.833  1.00  0.00     0.023 C 
ENDROOT
BRANCH   1   2
ATOM      2  C   UNL A   1      31.957  27.114  24.590  1.00  0.00     0.116 C 
BRANCH   2   3
ATOM      3  N   UNL A   1      32.709  26.442  23.551  1.00  0.00    -0.356 N 
ATOM      4  C   UNL A   1      33.481  25.317  23.593  1.00  0.00     0.227 C 
ATOM      5  O   UNL A   1      33.998  24.985  22.524  1.00  0.00    -0.274 OA
ATOM      6  H   UNL A   1      32.654  26.869  22.665  1.00  0.00     0.163 HD
BRANCH   4   7
ATOM      7  C   UNL A   1      33.629  24.519  24.903  1.00  0.00     0.105 C 
ATOM      8  C   UNL A   1      34.907  24.867  25.671  1.00  0.00     0.023 C 
BRANCH   7   9
ATOM      9  C   UNL A   1      33.609  23.001  24.729  1.00  0.00    -0.033 A 
ATOM     10  C   UNL A   1      32.403  22.348  24.433  1.00  0.00     0.005 A 
ATOM     11  C   UNL A   1      34.742  22.213  24.978  1.00  0.00     0.044 A 
ATOM     12  C   UNL A   1      32.337  20.949  24.389  1.00  0.00     0.012 A 
ATOM     13  C   UNL A   1      34.669  20.821  24.918  1.00  0.00     0.131 A 
ATOM     14  C   UNL A   1      33.471  20.155  24.634  1.00  0.00     0.017 A 
ATOM     15  F   UNL A   1      35.792  20.126  25.159  1.00  0.00    -0.206 F 
BRANCH  14  16
ATOM     16  C   UNL A   1      33.387  18.685  24.618  1.00  0.00    -0.015 A 
ATOM     17  C   UNL A   1      33.959  17.935  23.577  1.00  0.00     0.009 A 
ATOM     18  C   UNL A   1      32.723  17.986  25.642  1.00  0.00     0.009 A 
ATOM     19  C   UNL A   1      33.873  16.540  23.562  1.00  0.00     0.001 A 
ATOM     20  C   UNL A   1      32.637  16.591  25.628  1.00  0.00     0.001 A 
ATOM     21  C   UNL A   1      33.212  15.869  24.587  1.00  0.00     0.000 A 
ENDBRANCH  14  16
ENDBRANCH   7   9
ENDBRANCH   4   7
ENDBRANCH   2   3
ENDBRANCH   1   2
BRANCH   1  22
ATOM     22  C   UNL A   1      33.768  28.623  25.647  1.00  0.00     0.023 C 
BRANCH  22  23
ATOM     23  C   UNL A   1      33.590  28.715  27.158  1.00  0.00     0.116 C 
BRANCH  23  24
ATOM     24  N   UNL A   1      33.640  30.081  27.652  1.00  0.00    -0.352 N 
ATOM     25  C   UNL A   1      34.660  30.739  28.296  1.00  0.00     0.251 C 
ATOM     26  H   UNL A   1      32.825  30.613  27.503  1.00  0.00     0.163 HD
ATOM     27  O   UNL A   1      34.474  31.862  28.756  1.00  0.00    -0.269 OA
BRANCH  25  28
ATOM     28  C   UNL A   1      35.969  30.075  28.473  1.00  0.00     0.039 A 
ATOM     29  C   UNL A   1      36.873  30.084  27.408  1.00  0.00     0.014 A 
ATOM     30  C   UNL A   1      36.314  29.474  29.686  1.00  0.00     0.014 A 
ATOM     31  C   UNL A   1      38.158  29.571  27.589  1.00  0.00     0.010 A 
ATOM     32  C   UNL A   1      37.615  29.019  29.885  1.00  0.00     0.010 A 
ATOM     33  C   UNL A   1      38.556  29.082  28.844  1.00  0.00    -0.014 A 
BRANCH  33  34
ATOM     34  C   UNL A   1      39.966  28.697  29.105  1.00  0.00     0.031 A 
ATOM     35  C   UNL A   1      40.936  29.683  29.694  1.00  0.00     0.074 A 
ATOM     36  C   UNL A   1      40.392  27.473  28.733  1.00  0.00     0.049 A 
ATOM     37  N   UNL A   1      42.216  29.540  29.924  1.00  0.00    -0.248 NA
ATOM     38  C   UNL A   1      40.404  31.008  30.053  1.00  0.00     0.031 C 
ATOM     39  C   UNL A   1      39.561  26.439  28.110  1.00  0.00     0.029 A 
ATOM     40  N   UNL A   1      41.635  26.895  28.812  1.00  0.00    -0.354 N 
ATOM     41  C   UNL A   1      42.646  30.755  30.441  1.00  0.00     0.074 A 
ATOM     42  C   UNL A   1      41.499  31.637  30.457  1.00  0.00     0.031 C 
ATOM     43  C   UNL A   1      40.312  25.350  27.880  1.00  0.00     0.029 A 
ATOM     44  C   UNL A   1      41.683  25.621  28.297  1.00  0.00     0.049 A 
ATOM     45  H   UNL A   1      42.416  27.349  29.201  1.00  0.00     0.167 HD
ATOM     46  C   UNL A   1      43.882  31.099  30.874  1.00  0.00     0.031 A 
ATOM     47  C   UNL A   1      42.718  24.771  28.158  1.00  0.00     0.031 A 
ATOM     48  C   UNL A   1      45.020  30.220  30.868  1.00  0.00     0.049 A 
ATOM     49  C   UNL A   1      44.083  25.194  28.625  1.00  0.00     0.074 A 
ATOM     50  C   UNL A   1      46.295  30.459  31.355  1.00  0.00     0.029 A 
ATOM     51  N   UNL A   1      45.028  28.939  30.340  1.00  0.00    -0.354 N 
ATOM     52  N   UNL A   1      44.452  26.316  29.193  1.00  0.00    -0.248 NA
ATOM     53  C   UNL A   1      45.174  24.227  28.436  1.00  0.00     0.031 C 
ATOM     54  C   UNL A   1      47.088  29.344  31.070  1.00  0.00     0.029 A 
ATOM     55  C   UNL A   1      46.294  28.390  30.457  1.00  0.00     0.049 A 
ATOM     56  H   UNL A   1      44.250  28.487  29.943  1.00  0.00     0.167 HD
ATOM     57  C   UNL A   1      45.810  26.183  29.445  1.00  0.00     0.074 A 
ATOM     58  C   UNL A   1      46.195  24.862  28.993  1.00  0.00     0.031 C 
ATOM     59  C   UNL A   1      46.665  27.077  29.998  1.00  0.00     0.031 A 
BRANCH  46  60
ATOM     60  C   UNL A   1      44.078  32.496  31.392  1.00  0.00    -0.014 A 
ATOM     61  C   UNL A   1      43.916  32.795  32.754  1.00  0.00     0.009 A 
ATOM     62  C   UNL A   1      44.505  33.509  30.521  1.00  0.00     0.009 A 
ATOM     63  C   UNL A   1      44.158  34.085  33.228  1.00  0.00     0.001 A 
ATOM     64  C   UNL A   1      44.770  34.793  31.001  1.00  0.00     0.001 A 
ATOM     65  C   UNL A   1      44.592  35.081  32.353  1.00  0.00     0.000 A 
ENDBRANCH  46  60
BRANCH  47  66
ATOM     66  C   UNL A   1      42.515  23.438  27.535  1.00  0.00    -0.014 A 
ATOM     67  C   UNL A   1      42.686  23.260  26.153  1.00  0.00     0.009 A 
ATOM     68  C   UNL A   1      42.119  22.339  28.314  1.00  0.00     0.009 A 
ATOM     69  C   UNL A   1      42.429  22.022  25.561  1.00  0.00     0.001 A 
ATOM     70  C   UNL A   1      41.894  21.094  27.725  1.00  0.00     0.001 A 
ATOM     71  C   UNL A   1      42.038  20.940  26.347  1.00  0.00     0.000 A 
ENDBRANCH  47  66
BRANCH  59  72
ATOM     72  C   UNL A   1      48.094  26.648  30.161  1.00  0.00    -0.014 A 
ATOM     73  C   UNL A   1      48.500  25.883  31.267  1.00  0.00     0.009 A 
ATOM     74  C   UNL A   1      49.041  26.982  29.180  1.00  0.00     0.009 A 
ATOM     75  C   UNL A   1      49.833  25.491  31.401  1.00  0.00     0.001 A 
ATOM     76  C   UNL A   1      50.366  26.565  29.303  1.00  0.00     0.001 A 
ATOM     77  C   UNL A   1      50.763  25.827  30.418  1.00  0.00     0.000 A 
ENDBRANCH  59  72
ENDBRANCH  33  34
ENDBRANCH  25  28
ENDBRANCH  23  24
ENDBRANCH  22  23
ENDBRANCH   1  22
TORSDOF 13
ENDMDL
MODEL 2
REMARK VINA RESULT:     -11.4      2.760      5.140
REMARK SMILES C[C@@H](C(=O)NCCCCNC(=O)c1ccc(-c2c3nc(c(-c4ccccc4)c4ccc([nH]4)c(-c4ccccc4)c4nc(c(-c5ccccc5)c5ccc2[nH]5)C=C4)C=C3)cc1)c1ccc(-c2ccccc2)c(F)c1
REMARK SMILES IDX 7 1 6 2 5 3 3 4 4 5 2 7 1 8 61 9 62 10 73 11 63 12 71 13
REMARK SMILES IDX 64 14 72 15 65 16 66 17 70 18 67 19 69 20 68 21 8 22 9 23
REMARK SMILES IDX 10 24 11 25 12 27 13 28 14 29 60 30 15 31 59 32 16 33 17 34
REMARK SMILES IDX 18 35 53 36 19 37 58 38 52 39 54 40 20 41 57 42 51 43 50 44
REMARK SMILES IDX 21 46 43 47 28 48 42 49 29 50 32 51 41 52 55 53 30 54 31 55
REMARK SMILES IDX 40 57 56 58 33 59 22 60 23 61 27 62 24 63 26 64 25 65 44 66
REMARK SMILES IDX 45 67 49 68 46 69 48 70 47 71 34 72 35 73 39 74 36 75 38 76
REMARK SMILES IDX 37 77
REMARK H PARENT 5 6 10 26 54 45 32 56
REMARK Flexibility Score: inf
ROOT
ATOM      1  C   UNL A   1      33.924  27.668  25.007  1.00  0.00     0.023 C 
ENDROOT
BRANCH   1   2
ATOM      2  C   UNL A   1      33.939  26.157  25.250  1.00  0.00     0.116 C 
BRANCH   2   3
ATOM      3  N   UNL A   1      33.994  25.417  24.006  1.00  0.00    -0.356 N 
ATOM      4  C   UNL A   1      33.003  24.848  23.260  1.00  0.00     0.227 C 
ATOM      5  O   UNL A   1      33.369  24.280  22.229  1.00  0.00    -0.274 OA
ATOM      6  H   UNL A   1      34.900  25.306  23.636  1.00  0.00     0.163 HD
BRANCH   4   7
ATOM      7  C   UNL A   1      31.529  24.974  23.693  1.00  0.00     0.105 C 
ATOM      8  C   UNL A   1      30.657  23.825  23.179  1.00  0.00     0.023 C 
BRANCH   7   9
ATOM      9  C   UNL A   1      30.850  26.276  23.269  1.00  0.00    -0.033 A 
ATOM     10  C   UNL A   1      31.592  27.268  22.611  1.00  0.00     0.005 A 
ATOM     11  C   UNL A   1      29.527  26.571  23.627  1.00  0.00     0.044 A 
ATOM     12  C   UNL A   1      31.024  28.516  22.322  1.00  0.00     0.012 A 
ATOM     13  C   UNL A   1      28.965  27.811  23.323  1.00  0.00     0.131 A 
ATOM     14  C   UNL A   1      29.697  28.814  22.676  1.00  0.00     0.017 A 
ATOM     15  F   UNL A   1      27.691  28.026  23.686  1.00  0.00    -0.206 F 
BRANCH  14  16
ATOM     16  C   UNL A   1      29.116  30.139  22.398  1.00  0.00    -0.015 A 
ATOM     17  C   UNL A   1      29.091  31.143  23.380  1.00  0.00     0.009 A 
ATOM     18  C   UNL A   1      28.561  30.437  21.141  1.00  0.00     0.009 A 
ATOM     19  C   UNL A   1      28.534  32.398  23.114  1.00  0.00     0.001 A 
ATOM     20  C   UNL A   1      28.004  31.691  20.874  1.00  0.00     0.001 A 
ATOM     21  C   UNL A   1      27.990  32.670  21.862  1.00  0.00     0.000 A 
ENDBRANCH  14  16
ENDBRANCH   7   9
ENDBRANCH   4   7
ENDBRANCH   2   3
ENDBRANCH   1   2
BRANCH   1  22
ATOM     22  C   UNL A   1      32.956  28.459  25.891  1.00  0.00     0.023 C 
BRANCH  22  23
ATOM     23  C   UNL A   1      33.419  28.696  27.323  1.00  0.00     0.116 C 
BRANCH  23  24
ATOM     24  N   UNL A   1      33.521  30.107  27.659  1.00  0.00    -0.352 N 
ATOM     25  C   UNL A   1      34.577  30.802  28.197  1.00  0.00     0.251 C 
ATOM     26  H   UNL A   1      32.717  30.643  27.474  1.00  0.00     0.163 HD
ATOM     27  O   UNL A   1      34.436  31.974  28.533  1.00  0.00    -0.269 OA
BRANCH  25  28
ATOM     28  C   UNL A   1      35.873  30.122  28.411  1.00  0.00     0.039 A 
ATOM     29  C   UNL A   1      36.794  30.093  27.362  1.00  0.00     0.014 A 
ATOM     30  C   UNL A   1      36.189  29.544  29.644  1.00  0.00     0.014 A 
ATOM     31  C   UNL A   1      38.068  29.564  27.577  1.00  0.00     0.010 A 
ATOM     32  C   UNL A   1      37.479  29.074  29.875  1.00  0.00     0.010 A 
ATOM     33  C   UNL A   1      38.438  29.099  28.849  1.00  0.00    -0.014 A 
BRANCH  33  34
ATOM     34  C   UNL A   1      39.837  28.699  29.142  1.00  0.00     0.031 A 
ATOM     35  C   UNL A   1      40.798  29.670  29.770  1.00  0.00     0.074 A 
ATOM     36  C   UNL A   1      40.263  27.476  28.766  1.00  0.00     0.049 A 
ATOM     37  N   UNL A   1      42.071  29.512  30.032  1.00  0.00    -0.248 NA
ATOM     38  C   UNL A   1      40.268  30.994  30.132  1.00  0.00     0.031 C 
ATOM     39  C   UNL A   1      39.441  26.457  28.109  1.00  0.00     0.029 A 
ATOM     40  N   UNL A   1      41.498  26.887  28.871  1.00  0.00    -0.354 N 
ATOM     41  C   UNL A   1      42.497  30.718  30.577  1.00  0.00     0.074 A 
ATOM     42  C   UNL A   1      41.357  31.609  30.573  1.00  0.00     0.031 C 
ATOM     43  C   UNL A   1      40.189  25.365  27.885  1.00  0.00     0.029 A 
ATOM     44  C   UNL A   1      41.550  25.619  28.342  1.00  0.00     0.049 A 
ATOM     45  H   UNL A   1      42.273  27.329  29.287  1.00  0.00     0.167 HD
ATOM     46  C   UNL A   1      43.723  31.046  31.046  1.00  0.00     0.031 A 
ATOM     47  C   UNL A   1      42.582  24.763  28.220  1.00  0.00     0.031 A 
ATOM     48  C   UNL A   1      44.854  30.157  31.060  1.00  0.00     0.049 A 
ATOM     49  C   UNL A   1      43.937  25.167  28.728  1.00  0.00     0.074 A 
ATOM     50  C   UNL A   1      46.117  30.380  31.584  1.00  0.00     0.029 A 
ATOM     51  N   UNL A   1      44.866  28.883  30.516  1.00  0.00    -0.354 N 
ATOM     52  N   UNL A   1      44.299  26.279  29.320  1.00  0.00    -0.248 NA
ATOM     53  C   UNL A   1      45.025  24.194  28.557  1.00  0.00     0.031 C 
ATOM     54  C   UNL A   1      46.909  29.262  31.306  1.00  0.00     0.029 A 
ATOM     55  C   UNL A   1      46.124  28.321  30.659  1.00  0.00     0.049 A 
ATOM     56  H   UNL A   1      44.095  28.442  30.092  1.00  0.00     0.167 HD
ATOM     57  C   UNL A   1      45.649  26.132  29.607  1.00  0.00     0.074 A 
ATOM     58  C   UNL A   1      46.036  24.813  29.148  1.00  0.00     0.031 C 
ATOM     59  C   UNL A   1      46.496  27.012  30.193  1.00  0.00     0.031 A 
BRANCH  46  60
ATOM     60  C   UNL A   1      43.917  32.434  31.588  1.00  0.00    -0.014 A 
ATOM     61  C   UNL A   1      43.817  32.698  32.962  1.00  0.00     0.009 A 
ATOM     62  C   UNL A   1      44.280  33.476  30.721  1.00  0.00     0.009 A 
ATOM     63  C   UNL A   1      44.056  33.982  33.455  1.00  0.00     0.001 A 
ATOM     64  C   UNL A   1      44.542  34.754  31.217  1.00  0.00     0.001 A 
ATOM     65  C   UNL A   1      44.425  35.007  32.583  1.00  0.00     0.000 A 
ENDBRANCH  46  60
BRANCH  47  66
ATOM     66  C   UNL A   1      42.385  23.439  27.574  1.00  0.00    -0.014 A 
ATOM     67  C   UNL A   1      42.640  23.265  26.205  1.00  0.00     0.009 A 
ATOM     68  C   UNL A   1      41.911  22.346  28.318  1.00  0.00     0.009 A 
ATOM     69  C   UNL A   1      42.390  22.038  25.588  1.00  0.00     0.001 A 
ATOM     70  C   UNL A   1      41.693  21.111  27.705  1.00  0.00     0.001 A 
ATOM     71  C   UNL A   1      41.921  20.961  26.338  1.00  0.00     0.000 A 
ENDBRANCH  47  66
BRANCH  59  72
ATOM     72  C   UNL A   1      47.917  26.569  30.389  1.00  0.00    -0.014 A 
ATOM     73  C   UNL A   1      48.313  25.895  31.557  1.00  0.00     0.009 A 
ATOM     74  C   UNL A   1      48.866  26.796  29.380  1.00  0.00     0.009 A 
ATOM     75  C   UNL A   1      49.638  25.489  31.721  1.00  0.00     0.001 A 
ATOM     76  C   UNL A   1      50.183  26.363  29.536  1.00  0.00     0.001 A 
ATOM     77  C   UNL A   1      50.570  25.718  30.709  1.00  0.00     0.000 A 
ENDBRANCH  59  72
ENDBRANCH  33  34
ENDBRANCH  25  28
ENDBRANCH  23  24
ENDBRANCH  22  23
ENDBRANCH   1  22
TORSDOF 13
ENDMDL
MODEL 3
REMARK VINA RESULT:     -11.3      2.847      6.157
REMARK SMILES C[C@@H](C(=O)NCCCCNC(=O)c1ccc(-c2c3nc(c(-c4ccccc4)c4ccc([nH]4)c(-c4ccccc4)c4nc(c(-c5ccccc5)c5ccc2[nH]5)C=C4)C=C3)cc1)c1ccc(-c2ccccc2)c(F)c1
REMARK SMILES IDX 7 1 6 2 5 3 3 4 4 5 2 7 1 8 61 9 62 10 73 11 63 12 71 13
REMARK SMILES IDX 64 14 72 15 65 16 66 17 70 18 67 19 69 20 68 21 8 22 9 23
REMARK SMILES IDX 10 24 11 25 12 27 13 28 14 29 60 30 15 31 59 32 16 33 17 34
REMARK SMILES IDX 18 35 53 36 19 37 58 38 52 39 54 40 20 41 57 42 51 43 50 44
REMARK SMILES IDX 21 46 43 47 28 48 42 49 29 50 32 51 41 52 55 53 30 54 31 55
REMARK SMILES IDX 40 57 56 58 33 59 22 60 23 61 27 62 24 63 26 64 25 65 44 66
REMARK SMILES IDX 45 67 49 68 46 69 48 70 47 71 34 72 35 73 39 74 36 75 38 76
REMARK SMILES IDX 37 77
REMARK H PARENT 5 6 10 26 54 45 32 56
REMARK Flexibility Score: inf
ROOT
ATOM      1  C   UNL A   1      36.094  23.341  23.599  1.00  0.00     0.023 C 
ENDROOT
BRANCH   1   2
ATOM      2  C   UNL A   1      34.800  24.126  23.376  1.00  0.00     0.116 C 
BRANCH   2   3
ATOM      3  N   UNL A   1      34.429  24.888  24.549  1.00  0.00    -0.356 N 
ATOM      4  C   UNL A   1      33.245  24.972  25.222  1.00  0.00     0.227 C 
ATOM      5  O   UNL A   1      33.241  25.715  26.206  1.00  0.00    -0.274 OA
ATOM      6  H   UNL A   1      35.154  25.438  24.926  1.00  0.00     0.163 HD
BRANCH   4   7
ATOM      7  C   UNL A   1      32.030  24.137  24.773  1.00  0.00     0.105 C 
ATOM      8  C   UNL A   1      30.764  24.446  25.577  1.00  0.00     0.023 C 
BRANCH   7   9
ATOM      9  C   UNL A   1      32.240  22.624  24.831  1.00  0.00    -0.033 A 
ATOM     10  C   UNL A   1      32.699  22.029  26.015  1.00  0.00     0.005 A 
ATOM     11  C   UNL A   1      32.106  21.815  23.694  1.00  0.00     0.044 A 
ATOM     12  C   UNL A   1      33.014  20.664  26.057  1.00  0.00     0.012 A 
ATOM     13  C   UNL A   1      32.409  20.454  23.749  1.00  0.00     0.131 A 
ATOM     14  C   UNL A   1      32.878  19.848  24.921  1.00  0.00     0.017 A 
ATOM     15  F   UNL A   1      32.252  19.734  22.627  1.00  0.00    -0.206 F 
BRANCH  14  16
ATOM     16  C   UNL A   1      33.242  18.422  24.962  1.00  0.00    -0.015 A 
ATOM     17  C   UNL A   1      32.461  17.492  25.670  1.00  0.00     0.009 A 
ATOM     18  C   UNL A   1      34.388  17.946  24.300  1.00  0.00     0.009 A 
ATOM     19  C   UNL A   1      32.812  16.139  25.711  1.00  0.00     0.001 A 
ATOM     20  C   UNL A   1      34.739  16.595  24.340  1.00  0.00     0.001 A 
ATOM     21  C   UNL A   1      33.951  15.692  25.047  1.00  0.00     0.000 A 
ENDBRANCH  14  16
ENDBRANCH   7   9
ENDBRANCH   4   7
ENDBRANCH   2   3
ENDBRANCH   1   2
BRANCH   1  22
ATOM     22  C   UNL A   1      35.919  21.974  24.266  1.00  0.00     0.023 C 
BRANCH  22  23
ATOM     23  C   UNL A   1      36.578  21.820  25.631  1.00  0.00     0.116 C 
BRANCH  23  24
ATOM     24  N   UNL A   1      37.635  20.821  25.641  1.00  0.00    -0.352 N 
ATOM     25  C   UNL A   1      38.960  20.957  25.978  1.00  0.00     0.251 C 
ATOM     26  H   UNL A   1      37.362  19.917  25.366  1.00  0.00     0.163 HD
ATOM     27  O   UNL A   1      39.738  20.024  25.803  1.00  0.00    -0.269 OA
BRANCH  25  28
ATOM     28  C   UNL A   1      39.456  22.243  26.513  1.00  0.00     0.039 A 
ATOM     29  C   UNL A   1      40.512  22.224  27.428  1.00  0.00     0.014 A 
ATOM     30  C   UNL A   1      38.905  23.458  26.096  1.00  0.00     0.014 A 
ATOM     31  C   UNL A   1      41.076  23.428  27.854  1.00  0.00     0.010 A 
ATOM     32  C   UNL A   1      39.509  24.654  26.473  1.00  0.00     0.010 A 
ATOM     33  C   UNL A   1      40.614  24.650  27.340  1.00  0.00    -0.014 A 
BRANCH  33  34
ATOM     34  C   UNL A   1      41.313  25.923  27.643  1.00  0.00     0.031 A 
ATOM     35  C   UNL A   1      40.652  26.984  28.478  1.00  0.00     0.074 A 
ATOM     36  C   UNL A   1      42.524  26.154  27.096  1.00  0.00     0.049 A 
ATOM     37  N   UNL A   1      41.087  28.180  28.783  1.00  0.00    -0.248 NA
ATOM     38  C   UNL A   1      39.321  26.670  29.022  1.00  0.00     0.031 C 
ATOM     39  C   UNL A   1      43.255  25.223  26.232  1.00  0.00     0.029 A 
ATOM     40  N   UNL A   1      43.348  27.250  27.173  1.00  0.00    -0.354 N 
ATOM     41  C   UNL A   1      40.082  28.766  29.544  1.00  0.00     0.074 A 
ATOM     42  C   UNL A   1      38.999  27.809  29.621  1.00  0.00     0.031 C 
ATOM     43  C   UNL A   1      44.423  25.780  25.874  1.00  0.00     0.029 A 
ATOM     44  C   UNL A   1      44.507  27.119  26.445  1.00  0.00     0.049 A 
ATOM     45  H   UNL A   1      43.130  28.051  27.700  1.00  0.00     0.167 HD
ATOM     46  C   UNL A   1      40.070  29.985  30.132  1.00  0.00     0.031 A 
ATOM     47  C   UNL A   1      45.516  27.987  26.243  1.00  0.00     0.031 A 
ATOM     48  C   UNL A   1      41.151  30.932  30.063  1.00  0.00     0.049 A 
ATOM     49  C   UNL A   1      45.460  29.343  26.890  1.00  0.00     0.074 A 
ATOM     50  C   UNL A   1      41.256  32.164  30.689  1.00  0.00     0.029 A 
ATOM     51  N   UNL A   1      42.306  30.763  29.318  1.00  0.00    -0.354 N 
ATOM     52  N   UNL A   1      44.541  29.846  27.677  1.00  0.00    -0.248 NA
ATOM     53  C   UNL A   1      46.586  30.249  26.623  1.00  0.00     0.031 C 
ATOM     54  C   UNL A   1      42.449  32.763  30.277  1.00  0.00     0.029 A 
ATOM     55  C   UNL A   1      43.113  31.882  29.439  1.00  0.00     0.049 A 
ATOM     56  H   UNL A   1      42.521  29.966  28.783  1.00  0.00     0.167 HD
ATOM     57  C   UNL A   1      44.985  31.116  28.014  1.00  0.00     0.074 A 
ATOM     58  C   UNL A   1      46.269  31.299  27.366  1.00  0.00     0.031 C 
ATOM     59  C   UNL A   1      44.383  32.053  28.785  1.00  0.00     0.031 A 
BRANCH  46  60
ATOM     60  C   UNL A   1      38.843  30.376  30.906  1.00  0.00    -0.014 A 
ATOM     61  C   UNL A   1      37.765  31.023  30.280  1.00  0.00     0.009 A 
ATOM     62  C   UNL A   1      38.732  30.027  32.259  1.00  0.00     0.009 A 
ATOM     63  C   UNL A   1      36.610  31.328  31.001  1.00  0.00     0.001 A 
ATOM     64  C   UNL A   1      37.566  30.311  32.972  1.00  0.00     0.001 A 
ATOM     65  C   UNL A   1      36.508  30.966  32.344  1.00  0.00     0.000 A 
ENDBRANCH  46  60
BRANCH  47  66
ATOM     66  C   UNL A   1      46.665  27.614  25.377  1.00  0.00    -0.014 A 
ATOM     67  C   UNL A   1      47.776  26.945  25.913  1.00  0.00     0.009 A 
ATOM     68  C   UNL A   1      46.671  27.953  24.015  1.00  0.00     0.009 A 
ATOM     69  C   UNL A   1      48.883  26.656  25.111  1.00  0.00     0.001 A 
ATOM     70  C   UNL A   1      47.765  27.635  23.209  1.00  0.00     0.001 A 
ATOM     71  C   UNL A   1      48.875  26.997  23.760  1.00  0.00     0.000 A 
ENDBRANCH  47  66
BRANCH  59  72
ATOM     72  C   UNL A   1      45.114  33.348  28.988  1.00  0.00    -0.014 A 
ATOM     73  C   UNL A   1      44.895  34.445  28.138  1.00  0.00     0.009 A 
ATOM     74  C   UNL A   1      46.007  33.487  30.061  1.00  0.00     0.009 A 
ATOM     75  C   UNL A   1      45.582  35.643  28.342  1.00  0.00     0.001 A 
ATOM     76  C   UNL A   1      46.670  34.695  30.280  1.00  0.00     0.001 A 
ATOM     77  C   UNL A   1      46.464  35.769  29.415  1.00  0.00     0.000 A 
ENDBRANCH  59  72
ENDBRANCH  33  34
ENDBRANCH  25  28
ENDBRANCH  23  24
ENDBRANCH  22  23
ENDBRANCH   1  22
TORSDOF 13
ENDMDL
