MODEL 1
REMARK VINA RESULT:     -10.7      0.000      0.000
REMARK SMILES O=C(NCCCCNC(=O)c1noc(-c2ccccc2C(F)(F)F)n1)c1ccc(-c2c3nc(c(-c4ccccc4)c4ccc([nH]4)c(-c4ccccc4)c4nc(c(-c5ccccc5)c5ccc2[nH]5)C=C4)C=C3)cc1
REMARK SMILES IDX 5 1 4 2 3 3 1 4 2 5 26 7 27 8 73 9 28 10 72 11 29 12 30 13
REMARK SMILES IDX 31 14 66 15 32 16 71 17 65 18 67 19 33 20 70 21 64 22 63 23
REMARK SMILES IDX 34 25 56 26 41 27 55 28 42 29 45 30 54 31 68 32 43 33 44 34
REMARK SMILES IDX 53 36 69 37 46 38 35 39 36 40 40 41 37 42 39 43 38 44 57 45
REMARK SMILES IDX 58 46 62 47 59 48 61 49 60 50 47 51 48 52 52 53 49 54 51 55
REMARK SMILES IDX 50 56 6 57 7 58 8 59 9 60 10 62 11 63 12 64 25 65 13 66
REMARK SMILES IDX 14 67 15 68 16 69 20 70 17 71 19 72 18 73 21 74 22 75 23 76
REMARK SMILES IDX 24 77
REMARK H PARENT 3 6 67 24 45 35 8 61
REMARK Flexibility Score: inf
ROOT
ATOM      1  C   UNL A   1      35.179  34.249  28.273  1.00  0.00     0.023 C 
ENDROOT
BRANCH   1   2
ATOM      2  C   UNL A   1      34.508  33.082  28.980  1.00  0.00     0.116 C 
BRANCH   2   3
ATOM      3  N   UNL A   1      33.868  32.154  28.060  1.00  0.00    -0.352 N 
ATOM      4  O   UNL A   1      33.758  30.374  26.668  1.00  0.00    -0.269 OA
ATOM      5  C   UNL A   1      34.359  30.977  27.555  1.00  0.00     0.251 C 
ATOM      6  H   UNL A   1      32.964  32.404  27.760  1.00  0.00     0.163 HD
BRANCH   5   7
ATOM      7  C   UNL A   1      35.636  30.448  28.075  1.00  0.00     0.039 A 
ATOM      8  C   UNL A   1      36.834  30.749  27.423  1.00  0.00     0.014 A 
ATOM      9  C   UNL A   1      35.634  29.634  29.211  1.00  0.00     0.014 A 
ATOM     10  C   UNL A   1      38.008  30.127  27.820  1.00  0.00     0.010 A 
ATOM     11  C   UNL A   1      36.835  29.088  29.670  1.00  0.00     0.010 A 
ATOM     12  C   UNL A   1      38.028  29.318  28.968  1.00  0.00    -0.014 A 
BRANCH  12  13
ATOM     13  C   UNL A   1      39.334  28.833  29.478  1.00  0.00     0.031 A 
ATOM     14  C   UNL A   1      39.973  27.580  28.953  1.00  0.00     0.074 A 
ATOM     15  C   UNL A   1      39.948  29.566  30.428  1.00  0.00     0.049 A 
ATOM     16  N   UNL A   1      41.117  27.041  29.295  1.00  0.00    -0.248 NA
ATOM     17  C   UNL A   1      39.244  26.832  27.917  1.00  0.00     0.031 C 
ATOM     18  C   UNL A   1      39.413  30.797  31.021  1.00  0.00     0.029 A 
ATOM     19  N   UNL A   1      41.157  29.399  31.052  1.00  0.00    -0.354 N 
ATOM     20  C   UNL A   1      41.236  25.883  28.536  1.00  0.00     0.074 A 
ATOM     21  C   UNL A   1      40.042  25.788  27.724  1.00  0.00     0.031 C 
ATOM     22  C   UNL A   1      40.307  31.296  31.885  1.00  0.00     0.029 A 
ATOM     23  C   UNL A   1      41.440  30.385  31.967  1.00  0.00     0.049 A 
ATOM     24  H   UNL A   1      41.763  28.647  30.863  1.00  0.00     0.167 HD
ATOM     25  C   UNL A   1      42.251  24.987  28.525  1.00  0.00     0.031 A 
ATOM     26  C   UNL A   1      42.481  30.528  32.805  1.00  0.00     0.031 A 
ATOM     27  C   UNL A   1      43.437  25.092  29.336  1.00  0.00     0.049 A 
ATOM     28  C   UNL A   1      43.564  29.490  32.794  1.00  0.00     0.074 A 
ATOM     29  C   UNL A   1      44.543  24.258  29.355  1.00  0.00     0.029 A 
ATOM     30  N   UNL A   1      43.669  26.083  30.276  1.00  0.00    -0.354 N 
ATOM     31  N   UNL A   1      43.687  28.435  32.028  1.00  0.00    -0.248 NA
ATOM     32  C   UNL A   1      44.650  29.664  33.767  1.00  0.00     0.031 C 
ATOM     33  C   UNL A   1      45.412  24.706  30.353  1.00  0.00     0.029 A 
ATOM     34  C   UNL A   1      44.880  25.857  30.912  1.00  0.00     0.049 A 
ATOM     35  H   UNL A   1      43.064  26.836  30.466  1.00  0.00     0.167 HD
ATOM     36  C   UNL A   1      44.872  27.825  32.416  1.00  0.00     0.074 A 
ATOM     37  C   UNL A   1      45.444  28.648  33.461  1.00  0.00     0.031 C 
ATOM     38  C   UNL A   1      45.432  26.681  31.954  1.00  0.00     0.031 A 
BRANCH  25  39
ATOM     39  C   UNL A   1      42.127  23.785  27.629  1.00  0.00    -0.014 A 
ATOM     40  C   UNL A   1      42.628  23.794  26.318  1.00  0.00     0.009 A 
ATOM     41  C   UNL A   1      41.592  22.592  28.142  1.00  0.00     0.009 A 
ATOM     42  C   UNL A   1      42.583  22.635  25.537  1.00  0.00     0.001 A 
ATOM     43  C   UNL A   1      41.570  21.430  27.369  1.00  0.00     0.001 A 
ATOM     44  C   UNL A   1      42.063  21.454  26.065  1.00  0.00     0.000 A 
ENDBRANCH  25  39
BRANCH  26  45
ATOM     45  C   UNL A   1      42.522  31.667  33.758  1.00  0.00    -0.014 A 
ATOM     46  C   UNL A   1      43.041  32.911  33.372  1.00  0.00     0.009 A 
ATOM     47  C   UNL A   1      42.058  31.504  35.074  1.00  0.00     0.009 A 
ATOM     48  C   UNL A   1      43.127  33.956  34.293  1.00  0.00     0.001 A 
ATOM     49  C   UNL A   1      42.109  32.562  35.982  1.00  0.00     0.001 A 
ATOM     50  C   UNL A   1      42.658  33.783  35.595  1.00  0.00     0.000 A 
ENDBRANCH  26  45
BRANCH  38  51
ATOM     51  C   UNL A   1      46.740  26.272  32.567  1.00  0.00    -0.014 A 
ATOM     52  C   UNL A   1      47.962  26.684  32.014  1.00  0.00     0.009 A 
ATOM     53  C   UNL A   1      46.748  25.480  33.725  1.00  0.00     0.009 A 
ATOM     54  C   UNL A   1      49.168  26.276  32.587  1.00  0.00     0.001 A 
ATOM     55  C   UNL A   1      47.955  25.102  34.315  1.00  0.00     0.001 A 
ATOM     56  C   UNL A   1      49.163  25.491  33.739  1.00  0.00     0.000 A 
ENDBRANCH  38  51
ENDBRANCH  12  13
ENDBRANCH   5   7
ENDBRANCH   2   3
ENDBRANCH   1   2
BRANCH   1  57
ATOM     57  C   UNL A   1      34.402  35.561  28.334  1.00  0.00     0.023 C 
BRANCH  57  58
ATOM     58  C   UNL A   1      33.186  35.534  29.258  1.00  0.00     0.116 C 
BRANCH  58  59
ATOM     59  N   UNL A   1      33.126  36.724  30.091  1.00  0.00    -0.349 N 
ATOM     60  C   UNL A   1      33.184  36.810  31.466  1.00  0.00     0.292 C 
ATOM     61  H   UNL A   1      33.034  37.579  29.612  1.00  0.00     0.163 HD
ATOM     62  O   UNL A   1      32.866  37.884  31.990  1.00  0.00    -0.266 OA
BRANCH  60  63
ATOM     63  C   UNL A   1      33.622  35.640  32.234  1.00  0.00     0.260 A 
ATOM     64  N   UNL A   1      32.797  34.632  32.567  1.00  0.00    -0.051 NA
ATOM     65  N   UNL A   1      34.917  35.480  32.698  1.00  0.00    -0.182 NA
ATOM     66  O   UNL A   1      33.621  33.753  33.275  1.00  0.00    -0.333 OA
ATOM     67  C   UNL A   1      34.853  34.334  33.324  1.00  0.00     0.259 A 
BRANCH  67  68
ATOM     68  C   UNL A   1      35.889  33.625  34.049  1.00  0.00     0.052 A 
ATOM     69  C   UNL A   1      36.289  34.122  35.304  1.00  0.00     0.014 A 
ATOM     70  C   UNL A   1      36.463  32.436  33.561  1.00  0.00     0.068 A 
ATOM     71  C   UNL A   1      37.242  33.452  36.070  1.00  0.00     0.001 A 
ATOM     72  C   UNL A   1      37.423  31.772  34.352  1.00  0.00     0.014 A 
ATOM     73  C   UNL A   1      37.809  32.276  35.594  1.00  0.00     0.001 A 
BRANCH  70  74
ATOM     74  C   UNL A   1      36.104  31.810  32.230  1.00  0.00     0.417 C 
ATOM     75  F   UNL A   1      36.384  30.473  32.212  1.00  0.00    -0.166 F 
ATOM     76  F   UNL A   1      34.771  31.904  31.963  1.00  0.00    -0.166 F 
ATOM     77  F   UNL A   1      36.747  32.312  31.144  1.00  0.00    -0.166 F 
ENDBRANCH  70  74
ENDBRANCH  67  68
ENDBRANCH  60  63
ENDBRANCH  58  59
ENDBRANCH  57  58
ENDBRANCH   1  57
TORSDOF 13
ENDMDL
MODEL 2
REMARK VINA RESULT:     -10.7      0.515      6.069
REMARK SMILES O=C(NCCCCNC(=O)c1noc(-c2ccccc2C(F)(F)F)n1)c1ccc(-c2c3nc(c(-c4ccccc4)c4ccc([nH]4)c(-c4ccccc4)c4nc(c(-c5ccccc5)c5ccc2[nH]5)C=C4)C=C3)cc1
REMARK SMILES IDX 5 1 4 2 3 3 1 4 2 5 26 7 27 8 73 9 28 10 72 11 29 12 30 13
REMARK SMILES IDX 31 14 66 15 32 16 71 17 65 18 67 19 33 20 70 21 64 22 63 23
REMARK SMILES IDX 34 25 56 26 41 27 55 28 42 29 45 30 54 31 68 32 43 33 44 34
REMARK SMILES IDX 53 36 69 37 46 38 35 39 36 40 40 41 37 42 39 43 38 44 57 45
REMARK SMILES IDX 58 46 62 47 59 48 61 49 60 50 47 51 48 52 52 53 49 54 51 55
REMARK SMILES IDX 50 56 6 57 7 58 8 59 9 60 10 62 11 63 12 64 25 65 13 66
REMARK SMILES IDX 14 67 15 68 16 69 20 70 17 71 19 72 18 73 21 74 22 75 23 76
REMARK SMILES IDX 24 77
REMARK H PARENT 3 6 67 24 45 35 8 61
REMARK Flexibility Score: inf
ROOT
ATOM      1  C   UNL A   1      35.126  34.472  28.461  1.00  0.00     0.023 C 
ENDROOT
BRANCH   1   2
ATOM      2  C   UNL A   1      34.475  33.287  29.156  1.00  0.00     0.116 C 
BRANCH   2   3
ATOM      3  N   UNL A   1      33.880  32.341  28.223  1.00  0.00    -0.352 N 
ATOM      4  O   UNL A   1      33.856  30.574  26.811  1.00  0.00    -0.269 OA
ATOM      5  C   UNL A   1      34.427  31.193  27.707  1.00  0.00     0.251 C 
ATOM      6  H   UNL A   1      32.966  32.552  27.925  1.00  0.00     0.163 HD
BRANCH   5   7
ATOM      7  C   UNL A   1      35.726  30.719  28.224  1.00  0.00     0.039 A 
ATOM      8  C   UNL A   1      35.774  29.634  29.103  1.00  0.00     0.014 A 
ATOM      9  C   UNL A   1      36.900  31.373  27.843  1.00  0.00     0.014 A 
ATOM     10  C   UNL A   1      36.975  29.290  29.706  1.00  0.00     0.010 A 
ATOM     11  C   UNL A   1      38.124  30.961  28.377  1.00  0.00     0.010 A 
ATOM     12  C   UNL A   1      38.167  29.927  29.324  1.00  0.00    -0.014 A 
BRANCH  12  13
ATOM     13  C   UNL A   1      39.454  29.400  29.840  1.00  0.00     0.031 A 
ATOM     14  C   UNL A   1      40.192  30.072  30.963  1.00  0.00     0.074 A 
ATOM     15  C   UNL A   1      39.944  28.278  29.277  1.00  0.00     0.049 A 
ATOM     16  N   UNL A   1      41.320  29.719  31.526  1.00  0.00    -0.248 NA
ATOM     17  C   UNL A   1      39.596  31.293  31.528  1.00  0.00     0.031 C 
ATOM     18  C   UNL A   1      39.317  27.547  28.171  1.00  0.00     0.029 A 
ATOM     19  N   UNL A   1      41.067  27.545  29.561  1.00  0.00    -0.354 N 
ATOM     20  C   UNL A   1      41.583  30.681  32.493  1.00  0.00     0.074 A 
ATOM     21  C   UNL A   1      40.503  31.643  32.433  1.00  0.00     0.031 C 
ATOM     22  C   UNL A   1      40.037  26.449  27.903  1.00  0.00     0.029 A 
ATOM     23  C   UNL A   1      41.214  26.438  28.760  1.00  0.00     0.049 A 
ATOM     24  H   UNL A   1      41.706  27.787  30.270  1.00  0.00     0.167 HD
ATOM     25  C   UNL A   1      42.631  30.750  33.347  1.00  0.00     0.031 A 
ATOM     26  C   UNL A   1      42.202  25.529  28.696  1.00  0.00     0.031 A 
ATOM     27  C   UNL A   1      43.701  29.786  33.400  1.00  0.00     0.049 A 
ATOM     28  C   UNL A   1      43.368  25.664  29.629  1.00  0.00     0.074 A 
ATOM     29  C   UNL A   1      44.780  29.745  34.267  1.00  0.00     0.029 A 
ATOM     30  N   UNL A   1      43.833  28.701  32.548  1.00  0.00    -0.354 N 
ATOM     31  N   UNL A   1      43.568  26.547  30.577  1.00  0.00    -0.248 NA
ATOM     32  C   UNL A   1      44.445  24.677  29.482  1.00  0.00     0.031 C 
ATOM     33  C   UNL A   1      45.600  28.676  33.897  1.00  0.00     0.029 A 
ATOM     34  C   UNL A   1      44.999  28.010  32.841  1.00  0.00     0.049 A 
ATOM     35  H   UNL A   1      43.195  28.458  31.838  1.00  0.00     0.167 HD
ATOM     36  C   UNL A   1      44.789  26.214  31.148  1.00  0.00     0.074 A 
ATOM     37  C   UNL A   1      45.263  25.030  30.463  1.00  0.00     0.031 C 
ATOM     38  C   UNL A   1      45.460  26.838  32.145  1.00  0.00     0.031 A 
BRANCH  25  39
ATOM     39  C   UNL A   1      42.705  31.922  34.287  1.00  0.00    -0.014 A 
ATOM     40  C   UNL A   1      42.112  31.879  35.558  1.00  0.00     0.009 A 
ATOM     41  C   UNL A   1      43.470  33.045  33.934  1.00  0.00     0.009 A 
ATOM     42  C   UNL A   1      42.273  32.945  36.449  1.00  0.00     0.001 A 
ATOM     43  C   UNL A   1      43.649  34.097  34.834  1.00  0.00     0.001 A 
ATOM     44  C   UNL A   1      43.047  34.047  36.089  1.00  0.00     0.000 A 
ENDBRANCH  25  39
BRANCH  26  45
ATOM     45  C   UNL A   1      42.156  24.445  27.680  1.00  0.00    -0.014 A 
ATOM     46  C   UNL A   1      42.747  24.613  26.420  1.00  0.00     0.009 A 
ATOM     47  C   UNL A   1      41.496  23.238  27.965  1.00  0.00     0.009 A 
ATOM     48  C   UNL A   1      42.648  23.609  25.455  1.00  0.00     0.001 A 
ATOM     49  C   UNL A   1      41.432  22.222  27.012  1.00  0.00     0.001 A 
ATOM     50  C   UNL A   1      41.994  22.414  25.752  1.00  0.00     0.000 A 
ENDBRANCH  26  45
BRANCH  38  51
ATOM     51  C   UNL A   1      46.769  26.232  32.563  1.00  0.00    -0.014 A 
ATOM     52  C   UNL A   1      46.831  25.261  33.573  1.00  0.00     0.009 A 
ATOM     53  C   UNL A   1      47.954  26.626  31.922  1.00  0.00     0.009 A 
ATOM     54  C   UNL A   1      48.059  24.725  33.962  1.00  0.00     0.001 A 
ATOM     55  C   UNL A   1      49.176  26.063  32.290  1.00  0.00     0.001 A 
ATOM     56  C   UNL A   1      49.230  25.122  33.316  1.00  0.00     0.000 A 
ENDBRANCH  38  51
ENDBRANCH  12  13
ENDBRANCH   5   7
ENDBRANCH   2   3
ENDBRANCH   1   2
BRANCH   1  57
ATOM     57  C   UNL A   1      34.245  35.715  28.366  1.00  0.00     0.023 C 
BRANCH  57  58
ATOM     58  C   UNL A   1      33.082  35.744  29.356  1.00  0.00     0.116 C 
BRANCH  58  59
ATOM     59  N   UNL A   1      33.135  36.925  30.202  1.00  0.00    -0.349 N 
ATOM     60  C   UNL A   1      33.279  36.990  31.573  1.00  0.00     0.292 C 
ATOM     61  H   UNL A   1      33.060  37.789  29.738  1.00  0.00     0.163 HD
ATOM     62  O   UNL A   1      33.050  38.072  32.125  1.00  0.00    -0.266 OA
BRANCH  60  63
ATOM     63  C   UNL A   1      33.700  35.790  32.301  1.00  0.00     0.260 A 
ATOM     64  N   UNL A   1      32.874  34.758  32.552  1.00  0.00    -0.051 NA
ATOM     65  N   UNL A   1      34.977  35.620  32.810  1.00  0.00    -0.182 NA
ATOM     66  O   UNL A   1      33.679  33.854  33.251  1.00  0.00    -0.333 OA
ATOM     67  C   UNL A   1      34.901  34.445  33.377  1.00  0.00     0.259 A 
BRANCH  67  68
ATOM     68  C   UNL A   1      35.915  33.713  34.111  1.00  0.00     0.052 A 
ATOM     69  C   UNL A   1      36.319  34.202  35.367  1.00  0.00     0.014 A 
ATOM     70  C   UNL A   1      36.464  32.509  33.627  1.00  0.00     0.068 A 
ATOM     71  C   UNL A   1      37.251  33.510  36.140  1.00  0.00     0.001 A 
ATOM     72  C   UNL A   1      37.402  31.823  34.426  1.00  0.00     0.014 A 
ATOM     73  C   UNL A   1      37.793  32.320  35.669  1.00  0.00     0.001 A 
BRANCH  70  74
ATOM     74  C   UNL A   1      36.097  31.890  32.295  1.00  0.00     0.417 C 
ATOM     75  F   UNL A   1      36.709  32.534  31.257  1.00  0.00    -0.166 F 
ATOM     76  F   UNL A   1      36.503  30.592  32.206  1.00  0.00    -0.166 F 
ATOM     77  F   UNL A   1      34.776  31.900  31.978  1.00  0.00    -0.166 F 
ENDBRANCH  70  74
ENDBRANCH  67  68
ENDBRANCH  60  63
ENDBRANCH  58  59
ENDBRANCH  57  58
ENDBRANCH   1  57
TORSDOF 13
ENDMDL
MODEL 3
REMARK VINA RESULT:     -10.5      4.434      7.306
REMARK SMILES O=C(NCCCCNC(=O)c1noc(-c2ccccc2C(F)(F)F)n1)c1ccc(-c2c3nc(c(-c4ccccc4)c4ccc([nH]4)c(-c4ccccc4)c4nc(c(-c5ccccc5)c5ccc2[nH]5)C=C4)C=C3)cc1
REMARK SMILES IDX 5 1 4 2 3 3 1 4 2 5 26 7 27 8 73 9 28 10 72 11 29 12 30 13
REMARK SMILES IDX 31 14 66 15 32 16 71 17 65 18 67 19 33 20 70 21 64 22 63 23
REMARK SMILES IDX 34 25 56 26 41 27 55 28 42 29 45 30 54 31 68 32 43 33 44 34
REMARK SMILES IDX 53 36 69 37 46 38 35 39 36 40 40 41 37 42 39 43 38 44 57 45
REMARK SMILES IDX 58 46 62 47 59 48 61 49 60 50 47 51 48 52 52 53 49 54 51 55
REMARK SMILES IDX 50 56 6 57 7 58 8 59 9 60 10 62 11 63 12 64 25 65 13 66
REMARK SMILES IDX 14 67 15 68 16 69 20 70 17 71 19 72 18 73 21 74 22 75 23 76
REMARK SMILES IDX 24 77
REMARK H PARENT 3 6 67 24 45 35 8 61
REMARK Flexibility Score: inf
ROOT
ATOM      1  C   UNL A   1      33.395  28.657  25.725  1.00  0.00     0.023 C 
ENDROOT
BRANCH   1   2
ATOM      2  C   UNL A   1      33.910  28.771  27.151  1.00  0.00     0.116 C 
BRANCH   2   3
ATOM      3  N   UNL A   1      33.765  30.111  27.700  1.00  0.00    -0.352 N 
ATOM      4  O   UNL A   1      34.346  31.900  28.956  1.00  0.00    -0.269 OA
ATOM      5  C   UNL A   1      34.670  30.836  28.433  1.00  0.00     0.251 C 
ATOM      6  H   UNL A   1      32.905  30.555  27.521  1.00  0.00     0.163 HD
BRANCH   5   7
ATOM      7  C   UNL A   1      36.039  30.311  28.609  1.00  0.00     0.039 A 
ATOM      8  C   UNL A   1      36.963  30.404  27.565  1.00  0.00     0.014 A 
ATOM      9  C   UNL A   1      36.396  29.706  29.817  1.00  0.00     0.014 A 
ATOM     10  C   UNL A   1      38.193  29.774  27.677  1.00  0.00     0.010 A 
ATOM     11  C   UNL A   1      37.673  29.158  29.964  1.00  0.00     0.010 A 
ATOM     12  C   UNL A   1      38.575  29.175  28.889  1.00  0.00    -0.014 A 
BRANCH  12  13
ATOM     13  C   UNL A   1      39.969  28.689  29.037  1.00  0.00     0.031 A 
ATOM     14  C   UNL A   1      40.378  27.312  28.597  1.00  0.00     0.074 A 
ATOM     15  C   UNL A   1      40.874  29.532  29.570  1.00  0.00     0.049 A 
ATOM     16  N   UNL A   1      41.562  26.755  28.654  1.00  0.00    -0.248 NA
ATOM     17  C   UNL A   1      39.335  26.447  28.024  1.00  0.00     0.031 C 
ATOM     18  C   UNL A   1      40.584  30.891  30.044  1.00  0.00     0.029 A 
ATOM     19  N   UNL A   1      42.218  29.386  29.792  1.00  0.00    -0.354 N 
ATOM     20  C   UNL A   1      41.405  25.472  28.147  1.00  0.00     0.074 A 
ATOM     21  C   UNL A   1      40.008  25.325  27.799  1.00  0.00     0.031 C 
ATOM     22  C   UNL A   1      41.722  31.467  30.454  1.00  0.00     0.029 A 
ATOM     23  C   UNL A   1      42.804  30.498  30.349  1.00  0.00     0.049 A 
ATOM     24  H   UNL A   1      42.716  28.566  29.573  1.00  0.00     0.167 HD
ATOM     25  C   UNL A   1      42.344  24.509  27.990  1.00  0.00     0.031 A 
ATOM     26  C   UNL A   1      44.066  30.709  30.760  1.00  0.00     0.031 A 
ATOM     27  C   UNL A   1      43.734  24.666  28.337  1.00  0.00     0.049 A 
ATOM     28  C   UNL A   1      45.068  29.603  30.610  1.00  0.00     0.074 A 
ATOM     29  C   UNL A   1      44.771  23.763  28.167  1.00  0.00     0.029 A 
ATOM     30  N   UNL A   1      44.280  25.792  28.932  1.00  0.00    -0.354 N 
ATOM     31  N   UNL A   1      44.914  28.418  30.073  1.00  0.00    -0.248 NA
ATOM     32  C   UNL A   1      46.418  29.865  31.125  1.00  0.00     0.031 C 
ATOM     33  C   UNL A   1      45.929  24.317  28.719  1.00  0.00     0.029 A 
ATOM     34  C   UNL A   1      45.630  25.590  29.176  1.00  0.00     0.049 A 
ATOM     35  H   UNL A   1      43.783  26.613  29.152  1.00  0.00     0.167 HD
ATOM     36  C   UNL A   1      46.151  27.797  30.174  1.00  0.00     0.074 A 
ATOM     37  C   UNL A   1      47.050  28.749  30.791  1.00  0.00     0.031 C 
ATOM     38  C   UNL A   1      46.508  26.546  29.796  1.00  0.00     0.031 A 
BRANCH  25  39
ATOM     39  C   UNL A   1      41.912  23.176  27.443  1.00  0.00    -0.014 A 
ATOM     40  C   UNL A   1      42.118  22.836  26.097  1.00  0.00     0.009 A 
ATOM     41  C   UNL A   1      41.385  22.209  28.314  1.00  0.00     0.009 A 
ATOM     42  C   UNL A   1      41.790  21.557  25.635  1.00  0.00     0.001 A 
ATOM     43  C   UNL A   1      41.082  20.926  27.855  1.00  0.00     0.001 A 
ATOM     44  C   UNL A   1      41.282  20.603  26.515  1.00  0.00     0.000 A 
ENDBRANCH  25  39
BRANCH  26  45
ATOM     45  C   UNL A   1      44.438  31.997  31.400  1.00  0.00    -0.014 A 
ATOM     46  C   UNL A   1      44.305  32.180  32.783  1.00  0.00     0.009 A 
ATOM     47  C   UNL A   1      44.913  33.063  30.617  1.00  0.00     0.009 A 
ATOM     48  C   UNL A   1      44.604  33.414  33.364  1.00  0.00     0.001 A 
ATOM     49  C   UNL A   1      45.249  34.282  31.205  1.00  0.00     0.001 A 
ATOM     50  C   UNL A   1      45.079  34.462  32.576  1.00  0.00     0.000 A 
ENDBRANCH  26  45
BRANCH  38  51
ATOM     51  C   UNL A   1      47.939  26.152  30.025  1.00  0.00    -0.014 A 
ATOM     52  C   UNL A   1      48.892  26.251  29.000  1.00  0.00     0.009 A 
ATOM     53  C   UNL A   1      48.342  25.695  31.289  1.00  0.00     0.009 A 
ATOM     54  C   UNL A   1      50.214  25.861  29.225  1.00  0.00     0.001 A 
ATOM     55  C   UNL A   1      49.671  25.338  31.521  1.00  0.00     0.001 A 
ATOM     56  C   UNL A   1      50.603  25.411  30.487  1.00  0.00     0.000 A 
ENDBRANCH  38  51
ENDBRANCH  12  13
ENDBRANCH   5   7
ENDBRANCH   2   3
ENDBRANCH   1   2
BRANCH   1  57
ATOM     57  C   UNL A   1      32.479  27.462  25.475  1.00  0.00     0.023 C 
BRANCH  57  58
ATOM     58  C   UNL A   1      31.972  26.776  26.742  1.00  0.00     0.116 C 
BRANCH  58  59
ATOM     59  N   UNL A   1      30.888  25.852  26.448  1.00  0.00    -0.349 N 
ATOM     60  C   UNL A   1      30.962  24.498  26.195  1.00  0.00     0.292 C 
ATOM     61  H   UNL A   1      29.985  26.244  26.427  1.00  0.00     0.163 HD
ATOM     62  O   UNL A   1      29.962  23.945  25.723  1.00  0.00    -0.266 OA
BRANCH  60  63
ATOM     63  C   UNL A   1      32.205  23.785  26.503  1.00  0.00     0.260 A 
ATOM     64  N   UNL A   1      32.451  23.225  27.701  1.00  0.00    -0.051 NA
ATOM     65  N   UNL A   1      33.240  23.639  25.594  1.00  0.00    -0.182 NA
ATOM     66  O   UNL A   1      33.721  22.664  27.547  1.00  0.00    -0.333 OA
ATOM     67  C   UNL A   1      34.126  22.967  26.281  1.00  0.00     0.259 A 
BRANCH  67  68
ATOM     68  C   UNL A   1      35.449  22.522  25.886  1.00  0.00     0.052 A 
ATOM     69  C   UNL A   1      36.546  23.363  26.149  1.00  0.00     0.014 A 
ATOM     70  C   UNL A   1      35.668  21.261  25.299  1.00  0.00     0.068 A 
ATOM     71  C   UNL A   1      37.846  22.965  25.841  1.00  0.00     0.001 A 
ATOM     72  C   UNL A   1      36.991  20.875  24.998  1.00  0.00     0.014 A 
ATOM     73  C   UNL A   1      38.069  21.719  25.265  1.00  0.00     0.001 A 
BRANCH  70  74
ATOM     74  C   UNL A   1      34.565  20.275  24.978  1.00  0.00     0.417 C 
ATOM     75  F   UNL A   1      33.781  20.717  23.951  1.00  0.00    -0.166 F 
ATOM     76  F   UNL A   1      35.056  19.073  24.569  1.00  0.00    -0.166 F 
ATOM     77  F   UNL A   1      33.694  20.009  25.987  1.00  0.00    -0.166 F 
ENDBRANCH  70  74
ENDBRANCH  67  68
ENDBRANCH  60  63
ENDBRANCH  58  59
ENDBRANCH  57  58
ENDBRANCH   1  57
TORSDOF 13
ENDMDL
