MODEL 1
REMARK VINA RESULT:     -11.6      0.000      0.000
REMARK SMILES O=C(NCCCCNC(=O)c1ccc(-c2c3nc(c(-c4ccccc4)c4ccc([nH]4)c(-c4ccccc4)c4nc(c(-c5ccccc5)c5ccc2[nH]5)C=C4)C=C3)cc1)C1=Cc2c(ccc(Cl)c2-c2ccccc2)O[C@H]1C(F)(F)F
REMARK SMILES IDX 6 1 5 2 4 3 3 4 1 5 2 6 59 8 60 9 75 10 61 11 74 12 62 13
REMARK SMILES IDX 67 14 63 15 65 16 64 17 66 18 76 19 77 20 78 21 79 22 68 23
REMARK SMILES IDX 69 24 73 25 70 26 72 27 71 28 7 29 8 30 9 31 10 33 11 34
REMARK SMILES IDX 12 35 58 36 13 37 57 38 14 39 15 40 16 41 51 42 17 43 56 44
REMARK SMILES IDX 50 45 52 46 18 47 55 48 49 49 48 50 19 52 41 53 26 54 40 55
REMARK SMILES IDX 27 56 30 57 39 58 53 59 28 60 29 61 38 63 54 64 31 65 20 66
REMARK SMILES IDX 21 67 25 68 22 69 24 70 23 71 42 72 43 73 47 74 44 75 46 76
REMARK SMILES IDX 45 77 32 78 33 79 37 80 34 81 36 82 35 83
REMARK H PARENT 3 7 8 32 52 51 30 62
REMARK Flexibility Score: inf
ROOT
ATOM      1  C   UNL A   1      33.014  29.568  25.337  1.00  0.00     0.023 C 
ENDROOT
BRANCH   1   2
ATOM      2  C   UNL A   1      33.829  28.867  24.250  1.00  0.00     0.023 C 
BRANCH   2   3
ATOM      3  C   UNL A   1      33.255  28.927  22.839  1.00  0.00     0.116 C 
BRANCH   3   4
ATOM      4  N   UNL A   1      33.553  27.774  22.011  1.00  0.00    -0.352 N 
ATOM      5  O   UNL A   1      33.592  25.608  21.408  1.00  0.00    -0.270 OA
ATOM      6  C   UNL A   1      33.212  26.463  22.203  1.00  0.00     0.251 C 
ATOM      7  H   UNL A   1      34.073  27.961  21.196  1.00  0.00     0.163 HD
BRANCH   6   8
ATOM      8  C   UNL A   1      32.367  26.058  23.349  1.00  0.00     0.067 C 
ATOM      9  C   UNL A   1      32.979  25.375  24.327  1.00  0.00     0.026 C 
ATOM     10  C   UNL A   1      30.881  25.931  23.198  1.00  0.00     0.314 C 
ATOM     11  C   UNL A   1      32.612  23.935  24.229  1.00  0.00     0.027 A 
ATOM     12  O   UNL A   1      30.402  24.560  23.417  1.00  0.00    -0.475 OA
ATOM     13  C   UNL A   1      31.336  23.609  23.747  1.00  0.00     0.128 A 
ATOM     14  C   UNL A   1      33.602  22.947  24.461  1.00  0.00     0.011 A 
ATOM     15  C   UNL A   1      31.024  22.283  23.477  1.00  0.00     0.049 A 
ATOM     16  C   UNL A   1      33.278  21.621  24.138  1.00  0.00     0.049 A 
ATOM     17  C   UNL A   1      32.000  21.295  23.651  1.00  0.00     0.025 A 
ATOM     18  Cl  UNL A   1      34.444  20.352  24.254  1.00  0.00    -0.084 Cl
BRANCH  10  19
ATOM     19  C   UNL A   1      30.132  26.923  24.116  1.00  0.00     0.429 C 
ATOM     20  F   UNL A   1      30.698  27.050  25.340  1.00  0.00    -0.167 F 
ATOM     21  F   UNL A   1      30.093  28.160  23.563  1.00  0.00    -0.167 F 
ATOM     22  F   UNL A   1      28.846  26.545  24.324  1.00  0.00    -0.167 F 
ENDBRANCH  10  19
BRANCH  14  23
ATOM     23  C   UNL A   1      34.925  23.415  24.915  1.00  0.00    -0.016 A 
ATOM     24  C   UNL A   1      35.226  23.443  26.286  1.00  0.00     0.009 A 
ATOM     25  C   UNL A   1      35.982  23.515  23.993  1.00  0.00     0.009 A 
ATOM     26  C   UNL A   1      36.551  23.466  26.723  1.00  0.00     0.001 A 
ATOM     27  C   UNL A   1      37.307  23.529  24.431  1.00  0.00     0.001 A 
ATOM     28  C   UNL A   1      37.590  23.481  25.795  1.00  0.00     0.000 A 
ENDBRANCH  14  23
ENDBRANCH   6   8
ENDBRANCH   3   4
ENDBRANCH   2   3
ENDBRANCH   1   2
BRANCH   1  29
ATOM     29  C   UNL A   1      33.459  29.364  26.786  1.00  0.00     0.116 C 
BRANCH  29  30
ATOM     30  N   UNL A   1      33.531  30.576  27.584  1.00  0.00    -0.352 N 
ATOM     31  C   UNL A   1      34.558  31.073  28.361  1.00  0.00     0.251 C 
ATOM     32  H   UNL A   1      32.718  31.131  27.568  1.00  0.00     0.163 HD
ATOM     33  O   UNL A   1      34.398  32.120  28.974  1.00  0.00    -0.269 OA
BRANCH  31  34
ATOM     34  C   UNL A   1      35.824  30.315  28.514  1.00  0.00     0.039 A 
ATOM     35  C   UNL A   1      36.729  30.315  27.446  1.00  0.00     0.014 A 
ATOM     36  C   UNL A   1      36.145  29.639  29.692  1.00  0.00     0.014 A 
ATOM     37  C   UNL A   1      37.994  29.741  27.604  1.00  0.00     0.010 A 
ATOM     38  C   UNL A   1      37.433  29.131  29.874  1.00  0.00     0.010 A 
ATOM     39  C   UNL A   1      38.380  29.200  28.841  1.00  0.00    -0.014 A 
BRANCH  39  40
ATOM     40  C   UNL A   1      39.787  28.778  29.082  1.00  0.00     0.031 A 
ATOM     41  C   UNL A   1      40.779  29.702  29.730  1.00  0.00     0.074 A 
ATOM     42  C   UNL A   1      40.194  27.566  28.651  1.00  0.00     0.049 A 
ATOM     43  N   UNL A   1      42.040  29.488  30.015  1.00  0.00    -0.248 NA
ATOM     44  C   UNL A   1      40.301  31.046  30.084  1.00  0.00     0.031 C 
ATOM     45  C   UNL A   1      39.355  26.586  27.956  1.00  0.00     0.029 A 
ATOM     46  N   UNL A   1      41.417  26.948  28.738  1.00  0.00    -0.354 N 
ATOM     47  C   UNL A   1      42.510  30.673  30.565  1.00  0.00     0.074 A 
ATOM     48  C   UNL A   1      41.411  31.615  30.534  1.00  0.00     0.031 C 
ATOM     49  C   UNL A   1      40.074  25.478  27.721  1.00  0.00     0.029 A 
ATOM     50  C   UNL A   1      41.431  25.677  28.216  1.00  0.00     0.049 A 
ATOM     51  H   UNL A   1      42.209  27.376  29.137  1.00  0.00     0.167 HD
ATOM     52  C   UNL A   1      43.739  30.951  31.066  1.00  0.00     0.031 A 
ATOM     53  C   UNL A   1      42.421  24.767  28.151  1.00  0.00     0.031 A 
ATOM     54  C   UNL A   1      44.835  30.019  31.109  1.00  0.00     0.049 A 
ATOM     55  C   UNL A   1      43.772  25.098  28.715  1.00  0.00     0.074 A 
ATOM     56  C   UNL A   1      46.092  30.189  31.665  1.00  0.00     0.029 A 
ATOM     57  N   UNL A   1      44.808  28.744  30.568  1.00  0.00    -0.354 N 
ATOM     58  N   UNL A   1      44.173  26.194  29.311  1.00  0.00    -0.248 NA
ATOM     59  C   UNL A   1      44.805  24.057  28.604  1.00  0.00     0.031 C 
ATOM     60  C   UNL A   1      46.841  29.033  31.420  1.00  0.00     0.029 A 
ATOM     61  C   UNL A   1      46.035  28.125  30.752  1.00  0.00     0.049 A 
ATOM     62  H   UNL A   1      44.033  28.337  30.118  1.00  0.00     0.167 HD
ATOM     63  C   UNL A   1      45.493  25.965  29.673  1.00  0.00     0.074 A 
ATOM     64  C   UNL A   1      45.822  24.621  29.240  1.00  0.00     0.031 C 
ATOM     65  C   UNL A   1      46.355  26.792  30.311  1.00  0.00     0.031 A 
BRANCH  52  66
ATOM     66  C   UNL A   1      43.962  32.339  31.601  1.00  0.00    -0.014 A 
ATOM     67  C   UNL A   1      43.744  32.639  32.955  1.00  0.00     0.009 A 
ATOM     68  C   UNL A   1      44.414  33.353  30.743  1.00  0.00     0.009 A 
ATOM     69  C   UNL A   1      43.930  33.940  33.429  1.00  0.00     0.001 A 
ATOM     70  C   UNL A   1      44.626  34.646  31.227  1.00  0.00     0.001 A 
ATOM     71  C   UNL A   1      44.373  34.941  32.565  1.00  0.00     0.000 A 
ENDBRANCH  52  66
BRANCH  53  72
ATOM     72  C   UNL A   1      42.159  23.427  27.567  1.00  0.00    -0.014 A 
ATOM     73  C   UNL A   1      42.517  23.157  26.236  1.00  0.00     0.009 A 
ATOM     74  C   UNL A   1      41.550  22.416  28.326  1.00  0.00     0.009 A 
ATOM     75  C   UNL A   1      42.248  21.910  25.671  1.00  0.00     0.001 A 
ATOM     76  C   UNL A   1      41.305  21.161  27.765  1.00  0.00     0.001 A 
ATOM     77  C   UNL A   1      41.647  20.912  26.436  1.00  0.00     0.000 A 
ENDBRANCH  53  72
BRANCH  65  78
ATOM     78  C   UNL A   1      47.727  26.254  30.605  1.00  0.00    -0.014 A 
ATOM     79  C   UNL A   1      48.045  25.718  31.862  1.00  0.00     0.009 A 
ATOM     80  C   UNL A   1      48.710  26.272  29.603  1.00  0.00     0.009 A 
ATOM     81  C   UNL A   1      49.333  25.244  32.121  1.00  0.00     0.001 A 
ATOM     82  C   UNL A   1      49.989  25.775  29.857  1.00  0.00     0.001 A 
ATOM     83  C   UNL A   1      50.303  25.271  31.119  1.00  0.00     0.000 A 
ENDBRANCH  65  78
ENDBRANCH  39  40
ENDBRANCH  31  34
ENDBRANCH  29  30
ENDBRANCH   1  29
TORSDOF 13
ENDMDL
MODEL 2
REMARK VINA RESULT:     -11.5      2.966      7.713
REMARK SMILES O=C(NCCCCNC(=O)c1ccc(-c2c3nc(c(-c4ccccc4)c4ccc([nH]4)c(-c4ccccc4)c4nc(c(-c5ccccc5)c5ccc2[nH]5)C=C4)C=C3)cc1)C1=Cc2c(ccc(Cl)c2-c2ccccc2)O[C@H]1C(F)(F)F
REMARK SMILES IDX 6 1 5 2 4 3 3 4 1 5 2 6 59 8 60 9 75 10 61 11 74 12 62 13
REMARK SMILES IDX 67 14 63 15 65 16 64 17 66 18 76 19 77 20 78 21 79 22 68 23
REMARK SMILES IDX 69 24 73 25 70 26 72 27 71 28 7 29 8 30 9 31 10 33 11 34
REMARK SMILES IDX 12 35 58 36 13 37 57 38 14 39 15 40 16 41 51 42 17 43 56 44
REMARK SMILES IDX 50 45 52 46 18 47 55 48 49 49 48 50 19 52 41 53 26 54 40 55
REMARK SMILES IDX 27 56 30 57 39 58 53 59 28 60 29 61 38 63 54 64 31 65 20 66
REMARK SMILES IDX 21 67 25 68 22 69 24 70 23 71 42 72 43 73 47 74 44 75 46 76
REMARK SMILES IDX 45 77 32 78 33 79 37 80 34 81 36 82 35 83
REMARK H PARENT 3 7 8 32 52 51 30 62
REMARK Flexibility Score: inf
ROOT
ATOM      1  C   UNL A   1      36.046  22.080  25.815  1.00  0.00     0.023 C 
ENDROOT
BRANCH   1   2
ATOM      2  C   UNL A   1      35.166  22.597  26.953  1.00  0.00     0.023 C 
BRANCH   2   3
ATOM      3  C   UNL A   1      33.974  21.722  27.327  1.00  0.00     0.116 C 
BRANCH   3   4
ATOM      4  N   UNL A   1      32.757  22.449  27.635  1.00  0.00    -0.352 N 
ATOM      5  O   UNL A   1      31.018  23.828  27.275  1.00  0.00    -0.270 OA
ATOM      6  C   UNL A   1      32.006  23.255  26.824  1.00  0.00     0.251 C 
ATOM      7  H   UNL A   1      32.426  22.348  28.556  1.00  0.00     0.163 HD
BRANCH   6   8
ATOM      8  C   UNL A   1      32.354  23.431  25.396  1.00  0.00     0.067 C 
ATOM      9  C   UNL A   1      32.864  24.622  25.051  1.00  0.00     0.026 C 
ATOM     10  C   UNL A   1      31.704  22.588  24.340  1.00  0.00     0.314 C 
ATOM     11  C   UNL A   1      31.822  25.422  24.349  1.00  0.00     0.027 A 
ATOM     12  O   UNL A   1      30.904  23.378  23.395  1.00  0.00    -0.475 OA
ATOM     13  C   UNL A   1      30.874  24.739  23.574  1.00  0.00     0.128 A 
ATOM     14  C   UNL A   1      31.714  26.811  24.615  1.00  0.00     0.011 A 
ATOM     15  C   UNL A   1      29.789  25.431  23.051  1.00  0.00     0.049 A 
ATOM     16  C   UNL A   1      30.587  27.478  24.114  1.00  0.00     0.049 A 
ATOM     17  C   UNL A   1      29.635  26.792  23.340  1.00  0.00     0.025 A 
ATOM     18  Cl  UNL A   1      30.282  29.138  24.482  1.00  0.00    -0.084 Cl
BRANCH  10  19
ATOM     19  C   UNL A   1      32.741  21.725  23.587  1.00  0.00     0.429 C 
ATOM     20  F   UNL A   1      33.287  20.753  24.358  1.00  0.00    -0.167 F 
ATOM     21  F   UNL A   1      32.179  21.117  22.516  1.00  0.00    -0.167 F 
ATOM     22  F   UNL A   1      33.774  22.470  23.121  1.00  0.00    -0.167 F 
ENDBRANCH  10  19
BRANCH  14  23
ATOM     23  C   UNL A   1      32.741  27.409  25.489  1.00  0.00    -0.016 A 
ATOM     24  C   UNL A   1      33.832  28.089  24.925  1.00  0.00     0.009 A 
ATOM     25  C   UNL A   1      32.470  27.591  26.857  1.00  0.00     0.009 A 
ATOM     26  C   UNL A   1      34.567  29.003  25.681  1.00  0.00     0.001 A 
ATOM     27  C   UNL A   1      33.200  28.511  27.609  1.00  0.00     0.001 A 
ATOM     28  C   UNL A   1      34.233  29.234  27.014  1.00  0.00     0.000 A 
ENDBRANCH  14  23
ENDBRANCH   6   8
ENDBRANCH   3   4
ENDBRANCH   2   3
ENDBRANCH   1   2
BRANCH   1  29
ATOM     29  C   UNL A   1      37.243  22.943  25.411  1.00  0.00     0.116 C 
BRANCH  29  30
ATOM     30  N   UNL A   1      38.541  22.313  25.586  1.00  0.00    -0.352 N 
ATOM     31  C   UNL A   1      39.684  22.779  26.203  1.00  0.00     0.251 C 
ATOM     32  H   UNL A   1      38.619  21.410  25.201  1.00  0.00     0.163 HD
ATOM     33  O   UNL A   1      40.689  22.081  26.220  1.00  0.00    -0.269 OA
BRANCH  31  34
ATOM     34  C   UNL A   1      39.725  24.144  26.784  1.00  0.00     0.039 A 
ATOM     35  C   UNL A   1      39.163  24.342  28.051  1.00  0.00     0.014 A 
ATOM     36  C   UNL A   1      40.331  25.213  26.122  1.00  0.00     0.014 A 
ATOM     37  C   UNL A   1      39.313  25.573  28.696  1.00  0.00     0.010 A 
ATOM     38  C   UNL A   1      40.543  26.418  26.796  1.00  0.00     0.010 A 
ATOM     39  C   UNL A   1      40.060  26.602  28.099  1.00  0.00    -0.014 A 
BRANCH  39  40
ATOM     40  C   UNL A   1      40.401  27.834  28.861  1.00  0.00     0.031 A 
ATOM     41  C   UNL A   1      41.727  27.982  29.554  1.00  0.00     0.074 A 
ATOM     42  C   UNL A   1      39.477  28.810  28.984  1.00  0.00     0.049 A 
ATOM     43  N   UNL A   1      42.182  28.991  30.254  1.00  0.00    -0.248 NA
ATOM     44  C   UNL A   1      42.651  26.842  29.469  1.00  0.00     0.031 C 
ATOM     45  C   UNL A   1      38.129  28.778  28.412  1.00  0.00     0.029 A 
ATOM     46  N   UNL A   1      39.534  30.021  29.628  1.00  0.00    -0.354 N 
ATOM     47  C   UNL A   1      43.436  28.603  30.707  1.00  0.00     0.074 A 
ATOM     48  C   UNL A   1      43.651  27.250  30.237  1.00  0.00     0.031 C 
ATOM     49  C   UNL A   1      37.505  29.933  28.692  1.00  0.00     0.029 A 
ATOM     50  C   UNL A   1      38.392  30.772  29.490  1.00  0.00     0.049 A 
ATOM     51  H   UNL A   1      40.318  30.323  30.139  1.00  0.00     0.167 HD
ATOM     52  C   UNL A   1      44.337  29.310  31.433  1.00  0.00     0.031 A 
ATOM     53  C   UNL A   1      38.091  32.003  29.944  1.00  0.00     0.031 A 
ATOM     54  C   UNL A   1      44.136  30.658  31.896  1.00  0.00     0.049 A 
ATOM     55  C   UNL A   1      39.106  32.767  30.745  1.00  0.00     0.074 A 
ATOM     56  C   UNL A   1      45.021  31.478  32.575  1.00  0.00     0.029 A 
ATOM     57  N   UNL A   1      42.965  31.380  31.738  1.00  0.00    -0.354 N 
ATOM     58  N   UNL A   1      40.321  32.418  31.087  1.00  0.00    -0.248 NA
ATOM     59  C   UNL A   1      38.707  34.103  31.210  1.00  0.00     0.031 C 
ATOM     60  C   UNL A   1      44.370  32.683  32.866  1.00  0.00     0.029 A 
ATOM     61  C   UNL A   1      43.095  32.628  32.328  1.00  0.00     0.049 A 
ATOM     62  H   UNL A   1      42.159  31.056  31.275  1.00  0.00     0.167 HD
ATOM     63  C   UNL A   1      40.843  33.500  31.782  1.00  0.00     0.074 A 
ATOM     64  C   UNL A   1      39.816  34.522  31.803  1.00  0.00     0.031 C 
ATOM     65  C   UNL A   1      42.065  33.635  32.351  1.00  0.00     0.031 A 
BRANCH  52  66
ATOM     66  C   UNL A   1      45.628  28.621  31.781  1.00  0.00    -0.014 A 
ATOM     67  C   UNL A   1      45.757  27.874  32.963  1.00  0.00     0.009 A 
ATOM     68  C   UNL A   1      46.722  28.706  30.907  1.00  0.00     0.009 A 
ATOM     69  C   UNL A   1      46.971  27.263  33.284  1.00  0.00     0.001 A 
ATOM     70  C   UNL A   1      47.927  28.072  31.218  1.00  0.00     0.001 A 
ATOM     71  C   UNL A   1      48.054  27.361  32.410  1.00  0.00     0.000 A 
ENDBRANCH  52  66
BRANCH  53  72
ATOM     72  C   UNL A   1      36.780  32.618  29.612  1.00  0.00    -0.014 A 
ATOM     73  C   UNL A   1      35.718  32.546  30.527  1.00  0.00     0.009 A 
ATOM     74  C   UNL A   1      36.580  33.271  28.386  1.00  0.00     0.009 A 
ATOM     75  C   UNL A   1      34.474  33.095  30.211  1.00  0.00     0.001 A 
ATOM     76  C   UNL A   1      35.342  33.841  28.083  1.00  0.00     0.001 A 
ATOM     77  C   UNL A   1      34.288  33.745  28.992  1.00  0.00     0.000 A 
ENDBRANCH  53  72
BRANCH  65  78
ATOM     78  C   UNL A   1      42.367  34.948  33.015  1.00  0.00    -0.014 A 
ATOM     79  C   UNL A   1      43.140  35.929  32.374  1.00  0.00     0.009 A 
ATOM     80  C   UNL A   1      41.858  35.213  34.296  1.00  0.00     0.009 A 
ATOM     81  C   UNL A   1      43.428  37.133  33.018  1.00  0.00     0.001 A 
ATOM     82  C   UNL A   1      42.126  36.428  34.928  1.00  0.00     0.001 A 
ATOM     83  C   UNL A   1      42.920  37.383  34.293  1.00  0.00     0.000 A 
ENDBRANCH  65  78
ENDBRANCH  39  40
ENDBRANCH  31  34
ENDBRANCH  29  30
ENDBRANCH   1  29
TORSDOF 13
ENDMDL
MODEL 3
REMARK VINA RESULT:     -11.5      0.475      5.817
REMARK SMILES O=C(NCCCCNC(=O)c1ccc(-c2c3nc(c(-c4ccccc4)c4ccc([nH]4)c(-c4ccccc4)c4nc(c(-c5ccccc5)c5ccc2[nH]5)C=C4)C=C3)cc1)C1=Cc2c(ccc(Cl)c2-c2ccccc2)O[C@H]1C(F)(F)F
REMARK SMILES IDX 6 1 5 2 4 3 3 4 1 5 2 6 59 8 60 9 75 10 61 11 74 12 62 13
REMARK SMILES IDX 67 14 63 15 65 16 64 17 66 18 76 19 77 20 78 21 79 22 68 23
REMARK SMILES IDX 69 24 73 25 70 26 72 27 71 28 7 29 8 30 9 31 10 33 11 34
REMARK SMILES IDX 12 35 58 36 13 37 57 38 14 39 15 40 16 41 51 42 17 43 56 44
REMARK SMILES IDX 50 45 52 46 18 47 55 48 49 49 48 50 19 52 41 53 26 54 40 55
REMARK SMILES IDX 27 56 30 57 39 58 53 59 28 60 29 61 38 63 54 64 31 65 20 66
REMARK SMILES IDX 21 67 25 68 22 69 24 70 23 71 42 72 43 73 47 74 44 75 46 76
REMARK SMILES IDX 45 77 32 78 33 79 37 80 34 81 36 82 35 83
REMARK H PARENT 3 7 8 32 52 51 30 62
REMARK Flexibility Score: inf
ROOT
ATOM      1  C   UNL A   1      33.051  29.401  25.365  1.00  0.00     0.023 C 
ENDROOT
BRANCH   1   2
ATOM      2  C   UNL A   1      33.906  28.724  24.294  1.00  0.00     0.023 C 
BRANCH   2   3
ATOM      3  C   UNL A   1      33.422  28.877  22.856  1.00  0.00     0.116 C 
BRANCH   3   4
ATOM      4  N   UNL A   1      33.653  27.722  22.009  1.00  0.00    -0.352 N 
ATOM      5  O   UNL A   1      33.598  25.562  21.388  1.00  0.00    -0.270 OA
ATOM      6  C   UNL A   1      33.274  26.422  22.202  1.00  0.00     0.251 C 
ATOM      7  H   UNL A   1      34.153  27.899  21.180  1.00  0.00     0.163 HD
BRANCH   6   8
ATOM      8  C   UNL A   1      32.453  26.035  23.371  1.00  0.00     0.067 C 
ATOM      9  C   UNL A   1      33.080  25.348  24.336  1.00  0.00     0.026 C 
ATOM     10  C   UNL A   1      30.961  25.930  23.259  1.00  0.00     0.314 C 
ATOM     11  C   UNL A   1      32.689  23.913  24.256  1.00  0.00     0.027 A 
ATOM     12  O   UNL A   1      30.468  24.567  23.498  1.00  0.00    -0.475 OA
ATOM     13  C   UNL A   1      31.397  23.604  23.808  1.00  0.00     0.128 A 
ATOM     14  C   UNL A   1      33.670  22.912  24.467  1.00  0.00     0.011 A 
ATOM     15  C   UNL A   1      31.058  22.281  23.553  1.00  0.00     0.049 A 
ATOM     16  C   UNL A   1      33.318  21.589  24.159  1.00  0.00     0.049 A 
ATOM     17  C   UNL A   1      32.024  21.280  23.707  1.00  0.00     0.025 A 
ATOM     18  Cl  UNL A   1      34.468  20.303  24.252  1.00  0.00    -0.084 Cl
BRANCH  10  19
ATOM     19  C   UNL A   1      30.251  26.937  24.190  1.00  0.00     0.429 C 
ATOM     20  F   UNL A   1      28.918  26.716  24.298  1.00  0.00    -0.167 F 
ATOM     21  F   UNL A   1      30.767  26.888  25.442  1.00  0.00    -0.167 F 
ATOM     22  F   UNL A   1      30.395  28.214  23.756  1.00  0.00    -0.167 F 
ENDBRANCH  10  19
BRANCH  14  23
ATOM     23  C   UNL A   1      35.011  23.362  24.884  1.00  0.00    -0.016 A 
ATOM     24  C   UNL A   1      35.316  23.485  26.249  1.00  0.00     0.009 A 
ATOM     25  C   UNL A   1      36.069  23.349  23.958  1.00  0.00     0.009 A 
ATOM     26  C   UNL A   1      36.642  23.490  26.684  1.00  0.00     0.001 A 
ATOM     27  C   UNL A   1      37.394  23.346  24.395  1.00  0.00     0.001 A 
ATOM     28  C   UNL A   1      37.678  23.393  25.758  1.00  0.00     0.000 A 
ENDBRANCH  14  23
ENDBRANCH   6   8
ENDBRANCH   3   4
ENDBRANCH   2   3
ENDBRANCH   1   2
BRANCH   1  29
ATOM     29  C   UNL A   1      33.477  29.210  26.822  1.00  0.00     0.116 C 
BRANCH  29  30
ATOM     30  N   UNL A   1      33.577  30.435  27.598  1.00  0.00    -0.352 N 
ATOM     31  C   UNL A   1      34.631  30.945  28.328  1.00  0.00     0.251 C 
ATOM     32  H   UNL A   1      32.763  30.988  27.606  1.00  0.00     0.163 HD
ATOM     33  O   UNL A   1      34.493  32.001  28.931  1.00  0.00    -0.269 OA
BRANCH  31  34
ATOM     34  C   UNL A   1      35.904  30.192  28.443  1.00  0.00     0.039 A 
ATOM     35  C   UNL A   1      36.746  30.137  27.326  1.00  0.00     0.014 A 
ATOM     36  C   UNL A   1      36.293  29.572  29.633  1.00  0.00     0.014 A 
ATOM     37  C   UNL A   1      38.018  29.568  27.438  1.00  0.00     0.010 A 
ATOM     38  C   UNL A   1      37.590  29.069  29.764  1.00  0.00     0.010 A 
ATOM     39  C   UNL A   1      38.475  29.086  28.676  1.00  0.00    -0.014 A 
BRANCH  39  40
ATOM     40  C   UNL A   1      39.893  28.672  28.854  1.00  0.00     0.031 A 
ATOM     41  C   UNL A   1      40.355  27.289  28.487  1.00  0.00     0.074 A 
ATOM     42  C   UNL A   1      40.766  29.535  29.415  1.00  0.00     0.049 A 
ATOM     43  N   UNL A   1      41.555  26.772  28.576  1.00  0.00    -0.248 NA
ATOM     44  C   UNL A   1      39.335  26.362  27.977  1.00  0.00     0.031 C 
ATOM     45  C   UNL A   1      40.445  30.889  29.871  1.00  0.00     0.029 A 
ATOM     46  N   UNL A   1      42.104  29.402  29.693  1.00  0.00    -0.354 N 
ATOM     47  C   UNL A   1      41.433  25.456  28.149  1.00  0.00     0.074 A 
ATOM     48  C   UNL A   1      40.033  25.243  27.843  1.00  0.00     0.031 C 
ATOM     49  C   UNL A   1      41.562  31.476  30.329  1.00  0.00     0.029 A 
ATOM     50  C   UNL A   1      42.669  30.532  30.232  1.00  0.00     0.049 A 
ATOM     51  H   UNL A   1      42.610  28.575  29.523  1.00  0.00     0.167 HD
ATOM     52  C   UNL A   1      42.396  24.512  28.008  1.00  0.00     0.031 A 
ATOM     53  C   UNL A   1      43.939  30.788  30.600  1.00  0.00     0.031 A 
ATOM     54  C   UNL A   1      43.790  24.717  28.301  1.00  0.00     0.049 A 
ATOM     55  C   UNL A   1      44.988  29.727  30.432  1.00  0.00     0.074 A 
ATOM     56  C   UNL A   1      44.848  23.842  28.119  1.00  0.00     0.029 A 
ATOM     57  N   UNL A   1      44.320  25.874  28.848  1.00  0.00    -0.354 N 
ATOM     58  N   UNL A   1      44.869  28.517  29.943  1.00  0.00    -0.248 NA
ATOM     59  C   UNL A   1      46.351  30.077  30.858  1.00  0.00     0.031 C 
ATOM     60  C   UNL A   1      46.013  24.454  28.597  1.00  0.00     0.029 A 
ATOM     61  C   UNL A   1      45.686  25.728  29.034  1.00  0.00     0.049 A 
ATOM     62  H   UNL A   1      43.803  26.682  29.071  1.00  0.00     0.167 HD
ATOM     63  C   UNL A   1      46.145  27.971  29.975  1.00  0.00     0.074 A 
ATOM     64  C   UNL A   1      47.024  28.985  30.520  1.00  0.00     0.031 C 
ATOM     65  C   UNL A   1      46.551  26.739  29.584  1.00  0.00     0.031 A 
BRANCH  52  66
ATOM     66  C   UNL A   1      41.961  23.158  27.521  1.00  0.00    -0.014 A 
ATOM     67  C   UNL A   1      41.967  22.842  26.153  1.00  0.00     0.009 A 
ATOM     68  C   UNL A   1      41.559  22.180  28.443  1.00  0.00     0.009 A 
ATOM     69  C   UNL A   1      41.535  21.587  25.715  1.00  0.00     0.001 A 
ATOM     70  C   UNL A   1      41.154  20.918  28.003  1.00  0.00     0.001 A 
ATOM     71  C   UNL A   1      41.130  20.626  26.641  1.00  0.00     0.000 A 
ENDBRANCH  52  66
BRANCH  53  72
ATOM     72  C   UNL A   1      44.305  32.129  31.123  1.00  0.00    -0.014 A 
ATOM     73  C   UNL A   1      44.253  32.385  32.502  1.00  0.00     0.009 A 
ATOM     74  C   UNL A   1      44.699  33.158  30.254  1.00  0.00     0.009 A 
ATOM     75  C   UNL A   1      44.567  33.651  32.999  1.00  0.00     0.001 A 
ATOM     76  C   UNL A   1      45.036  34.416  30.756  1.00  0.00     0.001 A 
ATOM     77  C   UNL A   1      44.963  34.664  32.127  1.00  0.00     0.000 A 
ENDBRANCH  53  72
BRANCH  65  78
ATOM     78  C   UNL A   1      48.018  26.435  29.705  1.00  0.00    -0.014 A 
ATOM     79  C   UNL A   1      48.906  26.701  28.651  1.00  0.00     0.009 A 
ATOM     80  C   UNL A   1      48.519  25.887  30.896  1.00  0.00     0.009 A 
ATOM     81  C   UNL A   1      50.261  26.389  28.775  1.00  0.00     0.001 A 
ATOM     82  C   UNL A   1      49.878  25.599  31.026  1.00  0.00     0.001 A 
ATOM     83  C   UNL A   1      50.746  25.840  29.963  1.00  0.00     0.000 A 
ENDBRANCH  65  78
ENDBRANCH  39  40
ENDBRANCH  31  34
ENDBRANCH  29  30
ENDBRANCH   1  29
TORSDOF 13
ENDMDL
