MODEL 1
REMARK VINA RESULT:     -10.8      0.000      0.000
REMARK SMILES CC(=O)c1cc(C(=O)NC[C@H]2CC[C@H](C(=O)NCCCCNC(=O)c3ccc(-c4c5nc(c(-c6ccccc6)c6ccc([nH]6)c(-c6ccccc6)c6nc(c(-c7ccccc7)c7ccc4[nH]7)C=C6)C=C5)cc3)O2)n(C)c1
REMARK SMILES IDX 18 1 17 2 15 3 16 4 14 6 11 7 12 8 73 9 13 10 10 11 9 12
REMARK SMILES IDX 7 13 8 14 6 16 4 17 5 18 76 19 74 20 75 21 2 22 1 23 3 24
REMARK SMILES IDX 19 25 20 26 21 27 22 28 23 29 24 31 25 32 26 33 72 34 27 35
REMARK SMILES IDX 71 36 28 37 29 38 30 39 65 40 31 41 70 42 64 43 66 44 32 45
REMARK SMILES IDX 69 46 63 47 62 48 33 50 55 51 40 52 54 53 41 54 44 55 53 56
REMARK SMILES IDX 67 57 42 58 43 59 52 61 68 62 45 63 34 64 35 65 39 66 36 67
REMARK SMILES IDX 38 68 37 69 56 70 57 71 61 72 58 73 60 74 59 75 46 76 47 77
REMARK SMILES IDX 51 78 48 79 50 80 49 81
REMARK H PARENT 17 5 9 15 22 30 66 49 44 60
REMARK Flexibility Score: inf
ROOT
ATOM      1  C   UNL A   1      33.883  31.811  28.119  1.00  0.00     0.116 C 
ENDROOT
BRANCH   1   2
ATOM      2  N   UNL A   1      35.007  30.902  28.220  1.00  0.00    -0.354 N 
ATOM      3  C   UNL A   1      35.208  29.691  27.626  1.00  0.00     0.249 C 
ATOM      4  O   UNL A   1      36.234  29.070  27.915  1.00  0.00    -0.272 OA
ATOM      5  H   UNL A   1      35.738  31.206  28.807  1.00  0.00     0.163 HD
BRANCH   3   6
ATOM      6  C   UNL A   1      34.170  29.083  26.663  1.00  0.00     0.207 C 
ATOM      7  C   UNL A   1      32.148  29.752  25.681  1.00  0.00     0.138 C 
ATOM      8  C   UNL A   1      31.774  28.938  26.905  1.00  0.00     0.037 C 
ATOM      9  O   UNL A   1      33.555  30.018  25.787  1.00  0.00    -0.363 OA
ATOM     10  C   UNL A   1      33.069  28.308  27.370  1.00  0.00     0.045 C 
BRANCH   7  11
ATOM     11  C   UNL A   1      31.959  29.055  24.336  1.00  0.00     0.148 C 
BRANCH  11  12
ATOM     12  N   UNL A   1      30.591  28.910  23.904  1.00  0.00    -0.348 N 
ATOM     13  C   UNL A   1      29.815  27.785  23.775  1.00  0.00     0.268 C 
ATOM     14  O   UNL A   1      28.712  27.969  23.255  1.00  0.00    -0.268 OA
ATOM     15  H   UNL A   1      30.140  29.752  23.665  1.00  0.00     0.163 HD
BRANCH  13  16
ATOM     16  C   UNL A   1      30.257  26.447  24.157  1.00  0.00     0.107 A 
ATOM     17  C   UNL A   1      30.681  24.648  25.544  1.00  0.00     0.036 A 
ATOM     18  C   UNL A   1      30.086  25.932  25.447  1.00  0.00     0.045 A 
ATOM     19  C   UNL A   1      31.174  24.383  24.286  1.00  0.00     0.097 A 
ATOM     20  N   UNL A   1      30.999  25.489  23.487  1.00  0.00    -0.346 N 
ATOM     21  C   UNL A   1      31.670  25.577  22.209  1.00  0.00     0.150 C 
BRANCH  17  22
ATOM     22  C   UNL A   1      30.817  23.749  26.690  1.00  0.00     0.161 C 
ATOM     23  C   UNL A   1      32.192  23.252  27.058  1.00  0.00     0.093 C 
ATOM     24  O   UNL A   1      29.839  23.411  27.358  1.00  0.00    -0.294 OA
ENDBRANCH  17  22
ENDBRANCH  13  16
ENDBRANCH  11  12
ENDBRANCH   7  11
ENDBRANCH   3   6
ENDBRANCH   1   2
BRANCH   1  25
ATOM     25  C   UNL A   1      34.003  32.953  29.126  1.00  0.00     0.023 C 
BRANCH  25  26
ATOM     26  C   UNL A   1      33.428  34.272  28.614  1.00  0.00     0.023 C 
BRANCH  26  27
ATOM     27  C   UNL A   1      33.798  35.485  29.459  1.00  0.00     0.116 C 
BRANCH  27  28
ATOM     28  N   UNL A   1      32.732  35.941  30.338  1.00  0.00    -0.352 N 
ATOM     29  C   UNL A   1      32.648  35.758  31.702  1.00  0.00     0.251 C 
ATOM     30  H   UNL A   1      31.992  36.433  29.914  1.00  0.00     0.163 HD
ATOM     31  O   UNL A   1      31.673  36.118  32.341  1.00  0.00    -0.269 OA
BRANCH  29  32
ATOM     32  C   UNL A   1      33.767  35.056  32.360  1.00  0.00     0.039 A 
ATOM     33  C   UNL A   1      33.582  33.737  32.777  1.00  0.00     0.014 A 
ATOM     34  C   UNL A   1      35.023  35.662  32.421  1.00  0.00     0.014 A 
ATOM     35  C   UNL A   1      34.688  32.990  33.183  1.00  0.00     0.010 A 
ATOM     36  C   UNL A   1      36.130  34.897  32.758  1.00  0.00     0.010 A 
ATOM     37  C   UNL A   1      35.974  33.551  33.131  1.00  0.00    -0.014 A 
BRANCH  37  38
ATOM     38  C   UNL A   1      37.183  32.757  33.453  1.00  0.00     0.031 A 
ATOM     39  C   UNL A   1      37.915  33.010  34.738  1.00  0.00     0.074 A 
ATOM     40  C   UNL A   1      37.677  31.887  32.550  1.00  0.00     0.049 A 
ATOM     41  N   UNL A   1      39.061  32.529  35.145  1.00  0.00    -0.248 NA
ATOM     42  C   UNL A   1      37.290  33.956  35.677  1.00  0.00     0.031 C 
ATOM     43  C   UNL A   1      37.081  31.579  31.248  1.00  0.00     0.029 A 
ATOM     44  N   UNL A   1      38.810  31.113  32.585  1.00  0.00    -0.354 N 
ATOM     45  C   UNL A   1      39.309  33.138  36.369  1.00  0.00     0.074 A 
ATOM     46  C   UNL A   1      38.216  34.050  36.620  1.00  0.00     0.031 C 
ATOM     47  C   UNL A   1      37.843  30.670  30.618  1.00  0.00     0.029 A 
ATOM     48  C   UNL A   1      39.002  30.363  31.451  1.00  0.00     0.049 A 
ATOM     49  H   UNL A   1      39.428  31.098  33.352  1.00  0.00     0.167 HD
ATOM     50  C   UNL A   1      40.346  32.942  37.215  1.00  0.00     0.031 A 
ATOM     51  C   UNL A   1      40.005  29.532  31.114  1.00  0.00     0.031 A 
ATOM     52  C   UNL A   1      41.418  32.015  36.978  1.00  0.00     0.049 A 
ATOM     53  C   UNL A   1      41.145  29.329  32.072  1.00  0.00     0.074 A 
ATOM     54  C   UNL A   1      42.480  31.697  37.804  1.00  0.00     0.029 A 
ATOM     55  N   UNL A   1      41.557  31.252  35.829  1.00  0.00    -0.354 N 
ATOM     56  N   UNL A   1      41.336  29.869  33.252  1.00  0.00    -0.248 NA
ATOM     57  C   UNL A   1      42.204  28.396  31.657  1.00  0.00     0.031 C 
ATOM     58  C   UNL A   1      43.285  30.767  37.139  1.00  0.00     0.029 A 
ATOM     59  C   UNL A   1      42.699  30.475  35.918  1.00  0.00     0.049 A 
ATOM     60  H   UNL A   1      40.938  31.261  35.064  1.00  0.00     0.167 HD
ATOM     61  C   UNL A   1      42.521  29.322  33.730  1.00  0.00     0.074 A 
ATOM     62  C   UNL A   1      43.000  28.404  32.718  1.00  0.00     0.031 C 
ATOM     63  C   UNL A   1      43.152  29.559  34.904  1.00  0.00     0.031 A 
BRANCH  50  64
ATOM     64  C   UNL A   1      40.369  33.757  38.476  1.00  0.00    -0.014 A 
ATOM     65  C   UNL A   1      39.746  33.298  39.648  1.00  0.00     0.009 A 
ATOM     66  C   UNL A   1      41.037  34.989  38.498  1.00  0.00     0.009 A 
ATOM     67  C   UNL A   1      39.762  34.076  40.806  1.00  0.00     0.001 A 
ATOM     68  C   UNL A   1      41.075  35.752  39.666  1.00  0.00     0.001 A 
ATOM     69  C   UNL A   1      40.429  35.300  40.816  1.00  0.00     0.000 A 
ENDBRANCH  50  64
BRANCH  51  70
ATOM     70  C   UNL A   1      39.975  28.815  29.813  1.00  0.00    -0.014 A 
ATOM     71  C   UNL A   1      40.523  29.407  28.665  1.00  0.00     0.009 A 
ATOM     72  C   UNL A   1      39.396  27.540  29.710  1.00  0.00     0.009 A 
ATOM     73  C   UNL A   1      40.473  28.746  27.435  1.00  0.00     0.001 A 
ATOM     74  C   UNL A   1      39.369  26.872  28.484  1.00  0.00     0.001 A 
ATOM     75  C   UNL A   1      39.899  27.479  27.346  1.00  0.00     0.000 A 
ENDBRANCH  51  70
BRANCH  63  76
ATOM     76  C   UNL A   1      44.407  28.785  35.182  1.00  0.00    -0.014 A 
ATOM     77  C   UNL A   1      45.667  29.300  34.845  1.00  0.00     0.009 A 
ATOM     78  C   UNL A   1      44.327  27.555  35.853  1.00  0.00     0.009 A 
ATOM     79  C   UNL A   1      46.825  28.587  35.160  1.00  0.00     0.001 A 
ATOM     80  C   UNL A   1      45.486  26.856  36.188  1.00  0.00     0.001 A 
ATOM     81  C   UNL A   1      46.734  27.370  35.836  1.00  0.00     0.000 A 
ENDBRANCH  63  76
ENDBRANCH  37  38
ENDBRANCH  29  32
ENDBRANCH  27  28
ENDBRANCH  26  27
ENDBRANCH  25  26
ENDBRANCH   1  25
TORSDOF 15
ENDMDL
MODEL 2
REMARK VINA RESULT:     -10.8      4.376      6.691
REMARK SMILES CC(=O)c1cc(C(=O)NC[C@H]2CC[C@H](C(=O)NCCCCNC(=O)c3ccc(-c4c5nc(c(-c6ccccc6)c6ccc([nH]6)c(-c6ccccc6)c6nc(c(-c7ccccc7)c7ccc4[nH]7)C=C6)C=C5)cc3)O2)n(C)c1
REMARK SMILES IDX 18 1 17 2 15 3 16 4 14 6 11 7 12 8 73 9 13 10 10 11 9 12
REMARK SMILES IDX 7 13 8 14 6 16 4 17 5 18 76 19 74 20 75 21 2 22 1 23 3 24
REMARK SMILES IDX 19 25 20 26 21 27 22 28 23 29 24 31 25 32 26 33 72 34 27 35
REMARK SMILES IDX 71 36 28 37 29 38 30 39 65 40 31 41 70 42 64 43 66 44 32 45
REMARK SMILES IDX 69 46 63 47 62 48 33 50 55 51 40 52 54 53 41 54 44 55 53 56
REMARK SMILES IDX 67 57 42 58 43 59 52 61 68 62 45 63 34 64 35 65 39 66 36 67
REMARK SMILES IDX 38 68 37 69 56 70 57 71 61 72 58 73 60 74 59 75 46 76 47 77
REMARK SMILES IDX 51 78 48 79 50 80 49 81
REMARK H PARENT 17 5 9 15 22 30 66 49 44 60
REMARK Flexibility Score: inf
ROOT
ATOM      1  C   UNL A   1      31.392  29.361  24.089  1.00  0.00     0.116 C 
ENDROOT
BRANCH   1   2
ATOM      2  N   UNL A   1      32.547  29.174  23.234  1.00  0.00    -0.354 N 
ATOM      3  C   UNL A   1      32.994  28.050  22.604  1.00  0.00     0.249 C 
ATOM      4  O   UNL A   1      34.049  28.128  21.967  1.00  0.00    -0.272 OA
ATOM      5  H   UNL A   1      33.091  29.981  23.085  1.00  0.00     0.163 HD
BRANCH   3   6
ATOM      6  C   UNL A   1      32.246  26.709  22.717  1.00  0.00     0.207 C 
ATOM      7  C   UNL A   1      32.698  24.561  23.544  1.00  0.00     0.138 C 
ATOM      8  C   UNL A   1      32.967  24.504  22.052  1.00  0.00     0.037 C 
ATOM      9  O   UNL A   1      32.561  25.951  23.878  1.00  0.00    -0.363 OA
ATOM     10  C   UNL A   1      32.427  25.809  21.505  1.00  0.00     0.045 C 
BRANCH   7  11
ATOM     11  C   UNL A   1      31.407  23.894  24.013  1.00  0.00     0.148 C 
BRANCH  11  12
ATOM     12  N   UNL A   1      31.252  23.791  25.443  1.00  0.00    -0.348 N 
ATOM     13  C   UNL A   1      32.075  23.230  26.387  1.00  0.00     0.268 C 
ATOM     14  O   UNL A   1      31.606  23.181  27.527  1.00  0.00    -0.268 OA
ATOM     15  H   UNL A   1      30.424  24.186  25.799  1.00  0.00     0.163 HD
BRANCH  13  16
ATOM     16  C   UNL A   1      33.389  22.667  26.086  1.00  0.00     0.107 A 
ATOM     17  C   UNL A   1      35.689  22.595  25.876  1.00  0.00     0.036 A 
ATOM     18  C   UNL A   1      34.582  23.351  26.342  1.00  0.00     0.045 A 
ATOM     19  C   UNL A   1      35.146  21.433  25.375  1.00  0.00     0.097 A 
ATOM     20  N   UNL A   1      33.774  21.515  25.421  1.00  0.00    -0.346 N 
ATOM     21  C   UNL A   1      32.962  20.552  24.709  1.00  0.00     0.150 C 
BRANCH  17  22
ATOM     22  C   UNL A   1      37.116  22.914  25.859  1.00  0.00     0.161 C 
ATOM     23  C   UNL A   1      38.096  21.819  25.521  1.00  0.00     0.093 C 
ATOM     24  O   UNL A   1      37.521  24.052  26.098  1.00  0.00    -0.294 OA
ENDBRANCH  17  22
ENDBRANCH  13  16
ENDBRANCH  11  12
ENDBRANCH   7  11
ENDBRANCH   3   6
ENDBRANCH   1   2
BRANCH   1  25
ATOM     25  C   UNL A   1      31.782  29.312  25.564  1.00  0.00     0.023 C 
BRANCH  25  26
ATOM     26  C   UNL A   1      33.273  29.074  25.788  1.00  0.00     0.023 C 
BRANCH  26  27
ATOM     27  C   UNL A   1      33.699  29.103  27.251  1.00  0.00     0.116 C 
BRANCH  27  28
ATOM     28  N   UNL A   1      33.744  30.439  27.827  1.00  0.00    -0.352 N 
ATOM     29  C   UNL A   1      34.811  31.027  28.473  1.00  0.00     0.251 C 
ATOM     30  H   UNL A   1      32.925  30.981  27.747  1.00  0.00     0.163 HD
ATOM     31  O   UNL A   1      34.723  32.130  28.987  1.00  0.00    -0.269 OA
BRANCH  29  32
ATOM     32  C   UNL A   1      36.058  30.244  28.569  1.00  0.00     0.039 A 
ATOM     33  C   UNL A   1      36.966  30.290  27.510  1.00  0.00     0.014 A 
ATOM     34  C   UNL A   1      36.377  29.598  29.765  1.00  0.00     0.014 A 
ATOM     35  C   UNL A   1      38.241  29.752  27.683  1.00  0.00     0.010 A 
ATOM     36  C   UNL A   1      37.667  29.126  29.958  1.00  0.00     0.010 A 
ATOM     37  C   UNL A   1      38.614  29.209  28.923  1.00  0.00    -0.014 A 
BRANCH  37  38
ATOM     38  C   UNL A   1      39.991  28.724  29.177  1.00  0.00     0.031 A 
ATOM     39  C   UNL A   1      41.006  29.657  29.772  1.00  0.00     0.074 A 
ATOM     40  C   UNL A   1      40.354  27.489  28.781  1.00  0.00     0.049 A 
ATOM     41  N   UNL A   1      42.291  29.479  29.944  1.00  0.00    -0.248 NA
ATOM     42  C   UNL A   1      40.517  30.978  30.200  1.00  0.00     0.031 C 
ATOM     43  C   UNL A   1      39.471  26.501  28.156  1.00  0.00     0.029 A 
ATOM     44  N   UNL A   1      41.572  26.859  28.831  1.00  0.00    -0.354 N 
ATOM     45  C   UNL A   1      42.766  30.673  30.468  1.00  0.00     0.074 A 
ATOM     46  C   UNL A   1      41.643  31.580  30.550  1.00  0.00     0.031 C 
ATOM     47  C   UNL A   1      40.173  25.385  27.897  1.00  0.00     0.029 A 
ATOM     48  C   UNL A   1      41.561  25.593  28.298  1.00  0.00     0.049 A 
ATOM     49  H   UNL A   1      42.379  27.275  29.212  1.00  0.00     0.167 HD
ATOM     50  C   UNL A   1      44.023  30.982  30.861  1.00  0.00     0.031 A 
ATOM     51  C   UNL A   1      42.560  24.704  28.138  1.00  0.00     0.031 A 
ATOM     52  C   UNL A   1      45.133  30.071  30.807  1.00  0.00     0.049 A 
ATOM     53  C   UNL A   1      43.948  25.070  28.586  1.00  0.00     0.074 A 
ATOM     54  C   UNL A   1      46.431  30.269  31.242  1.00  0.00     0.029 A 
ATOM     55  N   UNL A   1      45.071  28.788  30.288  1.00  0.00    -0.354 N 
ATOM     56  N   UNL A   1      44.370  26.184  29.133  1.00  0.00    -0.248 NA
ATOM     57  C   UNL A   1      44.994  24.053  28.401  1.00  0.00     0.031 C 
ATOM     58  C   UNL A   1      47.166  29.114  30.952  1.00  0.00     0.029 A 
ATOM     59  C   UNL A   1      46.314  28.185  30.377  1.00  0.00     0.049 A 
ATOM     60  H   UNL A   1      44.265  28.367  29.912  1.00  0.00     0.167 HD
ATOM     61  C   UNL A   1      45.723  25.992  29.382  1.00  0.00     0.074 A 
ATOM     62  C   UNL A   1      46.049  24.654  28.934  1.00  0.00     0.031 C 
ATOM     63  C   UNL A   1      46.614  26.849  29.935  1.00  0.00     0.031 A 
BRANCH  50  64
ATOM     64  C   UNL A   1      44.260  32.371  31.382  1.00  0.00    -0.014 A 
ATOM     65  C   UNL A   1      44.621  33.418  30.518  1.00  0.00     0.009 A 
ATOM     66  C   UNL A   1      44.102  32.639  32.749  1.00  0.00     0.009 A 
ATOM     67  C   UNL A   1      44.854  34.699  31.021  1.00  0.00     0.001 A 
ATOM     68  C   UNL A   1      44.309  33.928  33.245  1.00  0.00     0.001 A 
ATOM     69  C   UNL A   1      44.695  34.953  32.383  1.00  0.00     0.000 A 
ENDBRANCH  50  64
BRANCH  51  70
ATOM     70  C   UNL A   1      42.285  23.374  27.537  1.00  0.00    -0.014 A 
ATOM     71  C   UNL A   1      42.657  23.105  26.211  1.00  0.00     0.009 A 
ATOM     72  C   UNL A   1      41.649  22.369  28.282  1.00  0.00     0.009 A 
ATOM     73  C   UNL A   1      42.377  21.864  25.635  1.00  0.00     0.001 A 
ATOM     74  C   UNL A   1      41.392  21.120  27.710  1.00  0.00     0.001 A 
ATOM     75  C   UNL A   1      41.748  20.872  26.386  1.00  0.00     0.000 A 
ENDBRANCH  51  70
BRANCH  63  76
ATOM     76  C   UNL A   1      48.018  26.356  30.129  1.00  0.00    -0.014 A 
ATOM     77  C   UNL A   1      48.422  25.770  31.338  1.00  0.00     0.009 A 
ATOM     78  C   UNL A   1      48.927  26.419  29.061  1.00  0.00     0.009 A 
ATOM     79  C   UNL A   1      49.718  25.272  31.479  1.00  0.00     0.001 A 
ATOM     80  C   UNL A   1      50.214  25.899  29.198  1.00  0.00     0.001 A 
ATOM     81  C   UNL A   1      50.610  25.330  30.408  1.00  0.00     0.000 A 
ENDBRANCH  63  76
ENDBRANCH  37  38
ENDBRANCH  29  32
ENDBRANCH  27  28
ENDBRANCH  26  27
ENDBRANCH  25  26
ENDBRANCH   1  25
TORSDOF 15
ENDMDL
MODEL 3
REMARK VINA RESULT:     -10.7      2.287      6.879
REMARK SMILES CC(=O)c1cc(C(=O)NC[C@H]2CC[C@H](C(=O)NCCCCNC(=O)c3ccc(-c4c5nc(c(-c6ccccc6)c6ccc([nH]6)c(-c6ccccc6)c6nc(c(-c7ccccc7)c7ccc4[nH]7)C=C6)C=C5)cc3)O2)n(C)c1
REMARK SMILES IDX 18 1 17 2 15 3 16 4 14 6 11 7 12 8 73 9 13 10 10 11 9 12
REMARK SMILES IDX 7 13 8 14 6 16 4 17 5 18 76 19 74 20 75 21 2 22 1 23 3 24
REMARK SMILES IDX 19 25 20 26 21 27 22 28 23 29 24 31 25 32 26 33 72 34 27 35
REMARK SMILES IDX 71 36 28 37 29 38 30 39 65 40 31 41 70 42 64 43 66 44 32 45
REMARK SMILES IDX 69 46 63 47 62 48 33 50 55 51 40 52 54 53 41 54 44 55 53 56
REMARK SMILES IDX 67 57 42 58 43 59 52 61 68 62 45 63 34 64 35 65 39 66 36 67
REMARK SMILES IDX 38 68 37 69 56 70 57 71 61 72 58 73 60 74 59 75 46 76 47 77
REMARK SMILES IDX 51 78 48 79 50 80 49 81
REMARK H PARENT 17 5 9 15 22 30 66 49 44 60
REMARK Flexibility Score: inf
ROOT
ATOM      1  C   UNL A   1      32.297  29.945  25.496  1.00  0.00     0.116 C 
ENDROOT
BRANCH   1   2
ATOM      2  N   UNL A   1      31.250  30.038  24.499  1.00  0.00    -0.354 N 
ATOM      3  C   UNL A   1      30.574  29.048  23.847  1.00  0.00     0.249 C 
ATOM      4  O   UNL A   1      29.753  29.381  22.986  1.00  0.00    -0.272 OA
ATOM      5  H   UNL A   1      30.986  30.955  24.255  1.00  0.00     0.163 HD
BRANCH   3   6
ATOM      6  C   UNL A   1      30.852  27.560  24.129  1.00  0.00     0.207 C 
ATOM      7  C   UNL A   1      31.778  26.292  25.871  1.00  0.00     0.138 C 
ATOM      8  C   UNL A   1      32.895  26.509  24.868  1.00  0.00     0.037 C 
ATOM      9  O   UNL A   1      30.715  27.178  25.492  1.00  0.00    -0.363 OA
ATOM     10  C   UNL A   1      32.219  27.098  23.648  1.00  0.00     0.045 C 
BRANCH   7  11
ATOM     11  C   UNL A   1      31.164  24.894  25.890  1.00  0.00     0.148 C 
BRANCH  11  12
ATOM     12  N   UNL A   1      31.506  24.087  27.036  1.00  0.00    -0.348 N 
ATOM     13  C   UNL A   1      32.444  23.094  27.174  1.00  0.00     0.268 C 
ATOM     14  O   UNL A   1      32.413  22.493  28.251  1.00  0.00    -0.268 OA
ATOM     15  H   UNL A   1      30.985  24.279  27.848  1.00  0.00     0.163 HD
BRANCH  13  16
ATOM     16  C   UNL A   1      33.381  22.711  26.121  1.00  0.00     0.107 A 
ATOM     17  C   UNL A   1      35.279  22.808  24.806  1.00  0.00     0.036 A 
ATOM     18  C   UNL A   1      34.623  23.332  25.951  1.00  0.00     0.045 A 
ATOM     19  C   UNL A   1      34.432  21.838  24.318  1.00  0.00     0.097 A 
ATOM     20  N   UNL A   1      33.266  21.843  25.048  1.00  0.00    -0.346 N 
ATOM     21  C   UNL A   1      32.108  21.117  24.576  1.00  0.00     0.150 C 
BRANCH  17  22
ATOM     22  C   UNL A   1      36.553  23.178  24.190  1.00  0.00     0.161 C 
ATOM     23  C   UNL A   1      37.695  23.589  25.085  1.00  0.00     0.093 C 
ATOM     24  O   UNL A   1      36.707  23.143  22.969  1.00  0.00    -0.294 OA
ENDBRANCH  17  22
ENDBRANCH  13  16
ENDBRANCH  11  12
ENDBRANCH   7  11
ENDBRANCH   3   6
ENDBRANCH   1   2
BRANCH   1  25
ATOM     25  C   UNL A   1      31.804  30.419  26.861  1.00  0.00     0.023 C 
BRANCH  25  26
ATOM     26  C   UNL A   1      31.342  31.874  26.866  1.00  0.00     0.023 C 
BRANCH  26  27
ATOM     27  C   UNL A   1      32.475  32.891  26.811  1.00  0.00     0.116 C 
BRANCH  27  28
ATOM     28  N   UNL A   1      32.223  34.101  27.579  1.00  0.00    -0.352 N 
ATOM     29  C   UNL A   1      33.004  34.617  28.591  1.00  0.00     0.251 C 
ATOM     30  H   UNL A   1      31.408  34.605  27.352  1.00  0.00     0.163 HD
ATOM     31  O   UNL A   1      32.666  35.603  29.226  1.00  0.00    -0.269 OA
BRANCH  29  32
ATOM     32  C   UNL A   1      34.249  33.896  28.921  1.00  0.00     0.039 A 
ATOM     33  C   UNL A   1      35.463  34.400  28.454  1.00  0.00     0.014 A 
ATOM     34  C   UNL A   1      34.208  32.818  29.807  1.00  0.00     0.014 A 
ATOM     35  C   UNL A   1      36.655  33.870  28.947  1.00  0.00     0.010 A 
ATOM     36  C   UNL A   1      35.393  32.340  30.349  1.00  0.00     0.010 A 
ATOM     37  C   UNL A   1      36.627  32.870  29.932  1.00  0.00    -0.014 A 
BRANCH  37  38
ATOM     38  C   UNL A   1      37.869  32.357  30.556  1.00  0.00     0.031 A 
ATOM     39  C   UNL A   1      38.553  31.158  29.966  1.00  0.00     0.074 A 
ATOM     40  C   UNL A   1      38.320  32.901  31.703  1.00  0.00     0.049 A 
ATOM     41  N   UNL A   1      39.563  30.470  30.433  1.00  0.00    -0.248 NA
ATOM     42  C   UNL A   1      38.009  30.646  28.698  1.00  0.00     0.031 C 
ATOM     43  C   UNL A   1      37.722  34.043  32.398  1.00  0.00     0.029 A 
ATOM     44  N   UNL A   1      39.382  32.549  32.499  1.00  0.00    -0.354 N 
ATOM     45  C   UNL A   1      39.752  29.428  29.536  1.00  0.00     0.074 A 
ATOM     46  C   UNL A   1      38.731  29.550  28.519  1.00  0.00     0.031 C 
ATOM     47  C   UNL A   1      38.436  34.309  33.504  1.00  0.00     0.029 A 
ATOM     48  C   UNL A   1      39.514  33.331  33.620  1.00  0.00     0.049 A 
ATOM     49  H   UNL A   1      39.991  31.806  32.286  1.00  0.00     0.167 HD
ATOM     50  C   UNL A   1      40.701  28.464  29.548  1.00  0.00     0.031 A 
ATOM     51  C   UNL A   1      40.396  33.261  34.634  1.00  0.00     0.031 A 
ATOM     52  C   UNL A   1      41.733  28.359  30.543  1.00  0.00     0.049 A 
ATOM     53  C   UNL A   1      41.444  32.182  34.624  1.00  0.00     0.074 A 
ATOM     54  C   UNL A   1      42.780  27.458  30.606  1.00  0.00     0.029 A 
ATOM     55  N   UNL A   1      41.849  29.191  31.645  1.00  0.00    -0.354 N 
ATOM     56  N   UNL A   1      41.645  31.237  33.737  1.00  0.00    -0.248 NA
ATOM     57  C   UNL A   1      42.389  32.165  35.750  1.00  0.00     0.031 C 
ATOM     58  C   UNL A   1      43.510  27.721  31.770  1.00  0.00     0.029 A 
ATOM     59  C   UNL A   1      42.941  28.813  32.406  1.00  0.00     0.049 A 
ATOM     60  H   UNL A   1      41.244  29.939  31.857  1.00  0.00     0.167 HD
ATOM     61  C   UNL A   1      42.755  30.531  34.183  1.00  0.00     0.074 A 
ATOM     62  C   UNL A   1      43.188  31.160  35.414  1.00  0.00     0.031 C 
ATOM     63  C   UNL A   1      43.362  29.460  33.621  1.00  0.00     0.031 A 
BRANCH  50  64
ATOM     64  C   UNL A   1      40.659  27.442  28.449  1.00  0.00    -0.014 A 
ATOM     65  C   UNL A   1      39.950  26.239  28.603  1.00  0.00     0.009 A 
ATOM     66  C   UNL A   1      41.320  27.692  27.238  1.00  0.00     0.009 A 
ATOM     67  C   UNL A   1      39.935  25.293  27.578  1.00  0.00     0.001 A 
ATOM     68  C   UNL A   1      41.280  26.755  26.204  1.00  0.00     0.001 A 
ATOM     69  C   UNL A   1      40.597  25.553  26.378  1.00  0.00     0.000 A 
ENDBRANCH  50  64
BRANCH  51  70
ATOM     70  C   UNL A   1      40.339  34.248  35.742  1.00  0.00    -0.014 A 
ATOM     71  C   UNL A   1      41.001  35.480  35.629  1.00  0.00     0.009 A 
ATOM     72  C   UNL A   1      39.627  33.965  36.918  1.00  0.00     0.009 A 
ATOM     73  C   UNL A   1      40.971  36.400  36.680  1.00  0.00     0.001 A 
ATOM     74  C   UNL A   1      39.579  34.897  37.958  1.00  0.00     0.001 A 
ATOM     75  C   UNL A   1      40.257  36.109  37.841  1.00  0.00     0.000 A 
ENDBRANCH  51  70
BRANCH  63  76
ATOM     76  C   UNL A   1      44.585  28.921  34.303  1.00  0.00    -0.014 A 
ATOM     77  C   UNL A   1      44.493  27.889  35.249  1.00  0.00     0.009 A 
ATOM     78  C   UNL A   1      45.850  29.408  33.941  1.00  0.00     0.009 A 
ATOM     79  C   UNL A   1      45.648  27.368  35.834  1.00  0.00     0.001 A 
ATOM     80  C   UNL A   1      47.004  28.868  34.509  1.00  0.00     0.001 A 
ATOM     81  C   UNL A   1      46.902  27.852  35.459  1.00  0.00     0.000 A 
ENDBRANCH  63  76
ENDBRANCH  37  38
ENDBRANCH  29  32
ENDBRANCH  27  28
ENDBRANCH  26  27
ENDBRANCH  25  26
ENDBRANCH   1  25
TORSDOF 15
ENDMDL
