MODEL 1
REMARK VINA RESULT:     -10.1      0.000      0.000
REMARK SMILES COC(=O)C[C@H](NC(=O)N[C@H]1CCCC1(C)C)C(=O)NCCCCNC(=O)c1ccc(-c2c3nc(c(-c4ccccc4)c4ccc([nH]4)c(-c4ccccc4)c4nc(c(-c5ccccc5)c5ccc2[nH]5)C=C4)C=C3)cc1
REMARK SMILES IDX 22 1 21 2 20 3 18 4 19 5 6 7 5 8 3 9 4 10 2 11 1 12 7 13
REMARK SMILES IDX 8 14 9 16 10 17 11 19 12 20 15 21 13 22 14 23 16 24 17 25
REMARK SMILES IDX 23 26 24 27 25 28 26 29 27 31 28 32 29 33 75 34 30 35 74 36
REMARK SMILES IDX 31 37 32 38 33 39 68 40 34 41 73 42 67 43 69 44 35 45 72 46
REMARK SMILES IDX 66 47 65 48 36 50 58 51 43 52 57 53 44 54 47 55 56 56 70 57
REMARK SMILES IDX 45 58 46 59 55 61 71 62 48 63 37 64 38 65 42 66 39 67 41 68
REMARK SMILES IDX 40 69 59 70 60 71 64 72 61 73 63 74 62 75 49 76 50 77 54 78
REMARK SMILES IDX 51 79 53 80 52 81
REMARK H PARENT 20 6 7 15 10 18 25 30 69 49 47 60
REMARK Flexibility Score: inf
ROOT
ATOM      1  C   UNL A   1      34.826  24.100  25.766  1.00  0.00     0.023 C 
ENDROOT
BRANCH   1   2
ATOM      2  C   UNL A   1      33.848  23.267  24.933  1.00  0.00     0.116 C 
BRANCH   2   3
ATOM      3  N   UNL A   1      33.547  23.602  23.554  1.00  0.00    -0.354 N 
ATOM      4  C   UNL A   1      33.350  24.752  22.859  1.00  0.00     0.243 C 
ATOM      5  O   UNL A   1      33.551  24.687  21.637  1.00  0.00    -0.273 OA
ATOM      6  H   UNL A   1      33.466  22.802  22.984  1.00  0.00     0.163 HD
BRANCH   4   7
ATOM      7  C   UNL A   1      32.979  26.110  23.466  1.00  0.00     0.184 C 
BRANCH   7   8
ATOM      8  C   UNL A   1      31.458  26.202  23.661  1.00  0.00     0.157 C 
BRANCH   8   9
ATOM      9  C   UNL A   1      30.752  26.850  22.502  1.00  0.00     0.308 C 
ATOM     10  O   UNL A   1      31.061  26.678  21.330  1.00  0.00    -0.252 OA
BRANCH   9  11
ATOM     11  O   UNL A   1      29.769  27.680  22.949  1.00  0.00    -0.469 OA
ATOM     12  C   UNL A   1      29.720  28.997  22.381  1.00  0.00     0.282 C 
ENDBRANCH   9  11
ENDBRANCH   8   9
ENDBRANCH   7   8
BRANCH   7  13
ATOM     13  N   UNL A   1      33.542  27.283  22.818  1.00  0.00    -0.326 N 
ATOM     14  C   UNL A   1      33.840  28.518  23.225  1.00  0.00     0.315 C 
ATOM     15  H   UNL A   1      33.749  27.132  21.868  1.00  0.00     0.166 HD
ATOM     16  O   UNL A   1      34.166  29.328  22.352  1.00  0.00    -0.249 OA
ATOM     17  N   UNL A   1      33.895  28.933  24.492  1.00  0.00    -0.335 N 
ATOM     18  H   UNL A   1      34.329  29.815  24.560  1.00  0.00     0.165 HD
BRANCH  17  19
ATOM     19  C   UNL A   1      33.490  28.439  25.811  1.00  0.00     0.089 C 
ATOM     20  C   UNL A   1      34.597  28.589  26.870  1.00  0.00     0.025 C 
ATOM     21  C   UNL A   1      32.340  29.288  26.425  1.00  0.00    -0.015 C 
ATOM     22  C   UNL A   1      34.353  29.876  27.651  1.00  0.00     0.003 C 
ATOM     23  C   UNL A   1      33.085  30.473  27.068  1.00  0.00     0.008 C 
ATOM     24  C   UNL A   1      31.308  29.794  25.412  1.00  0.00     0.013 C 
ATOM     25  C   UNL A   1      31.609  28.459  27.500  1.00  0.00     0.013 C 
ENDBRANCH  17  19
ENDBRANCH   7  13
ENDBRANCH   4   7
ENDBRANCH   2   3
ENDBRANCH   1   2
BRANCH   1  26
ATOM     26  C   UNL A   1      36.190  23.524  26.156  1.00  0.00     0.023 C 
BRANCH  26  27
ATOM     27  C   UNL A   1      37.266  23.547  25.080  1.00  0.00     0.116 C 
BRANCH  27  28
ATOM     28  N   UNL A   1      38.375  22.666  25.391  1.00  0.00    -0.352 N 
ATOM     29  C   UNL A   1      39.524  22.918  26.102  1.00  0.00     0.251 C 
ATOM     30  H   UNL A   1      38.293  21.749  25.040  1.00  0.00     0.163 HD
ATOM     31  O   UNL A   1      40.406  22.077  26.154  1.00  0.00    -0.269 OA
BRANCH  29  32
ATOM     32  C   UNL A   1      39.711  24.228  26.766  1.00  0.00     0.039 A 
ATOM     33  C   UNL A   1      39.180  24.397  28.047  1.00  0.00     0.014 A 
ATOM     34  C   UNL A   1      40.390  25.279  26.142  1.00  0.00     0.014 A 
ATOM     35  C   UNL A   1      39.384  25.598  28.729  1.00  0.00     0.010 A 
ATOM     36  C   UNL A   1      40.640  26.457  26.847  1.00  0.00     0.010 A 
ATOM     37  C   UNL A   1      40.145  26.625  28.149  1.00  0.00    -0.014 A 
BRANCH  37  38
ATOM     38  C   UNL A   1      40.454  27.858  28.916  1.00  0.00     0.031 A 
ATOM     39  C   UNL A   1      41.756  27.996  29.655  1.00  0.00     0.074 A 
ATOM     40  C   UNL A   1      39.539  28.845  28.975  1.00  0.00     0.049 A 
ATOM     41  N   UNL A   1      42.189  29.000  30.375  1.00  0.00    -0.248 NA
ATOM     42  C   UNL A   1      42.685  26.858  29.591  1.00  0.00     0.031 C 
ATOM     43  C   UNL A   1      38.222  28.818  28.332  1.00  0.00     0.029 A 
ATOM     44  N   UNL A   1      39.574  30.064  29.605  1.00  0.00    -0.354 N 
ATOM     45  C   UNL A   1      43.435  28.614  30.854  1.00  0.00     0.074 A 
ATOM     46  C   UNL A   1      43.671  27.268  30.378  1.00  0.00     0.031 C 
ATOM     47  C   UNL A   1      37.589  29.976  28.581  1.00  0.00     0.029 A 
ATOM     48  C   UNL A   1      38.434  30.810  29.428  1.00  0.00     0.049 A 
ATOM     49  H   UNL A   1      40.345  30.374  30.134  1.00  0.00     0.167 HD
ATOM     50  C   UNL A   1      44.309  29.321  31.608  1.00  0.00     0.031 A 
ATOM     51  C   UNL A   1      38.101  32.025  29.902  1.00  0.00     0.031 A 
ATOM     52  C   UNL A   1      44.080  30.662  32.077  1.00  0.00     0.049 A 
ATOM     53  C   UNL A   1      39.083  32.775  30.758  1.00  0.00     0.074 A 
ATOM     54  C   UNL A   1      44.935  31.480  32.794  1.00  0.00     0.029 A 
ATOM     55  N   UNL A   1      42.909  31.377  31.886  1.00  0.00    -0.354 N 
ATOM     56  N   UNL A   1      40.290  32.427  31.129  1.00  0.00    -0.248 NA
ATOM     57  C   UNL A   1      38.655  34.091  31.257  1.00  0.00     0.031 C 
ATOM     58  C   UNL A   1      44.262  32.670  33.087  1.00  0.00     0.029 A 
ATOM     59  C   UNL A   1      43.007  32.614  32.502  1.00  0.00     0.049 A 
ATOM     60  H   UNL A   1      42.124  31.055  31.386  1.00  0.00     0.167 HD
ATOM     61  C   UNL A   1      40.774  33.488  31.883  1.00  0.00     0.074 A 
ATOM     62  C   UNL A   1      39.741  34.501  31.897  1.00  0.00     0.031 C 
ATOM     63  C   UNL A   1      41.969  33.611  32.512  1.00  0.00     0.031 A 
BRANCH  50  64
ATOM     64  C   UNL A   1      45.604  28.658  31.985  1.00  0.00    -0.014 A 
ATOM     65  C   UNL A   1      46.755  28.810  31.195  1.00  0.00     0.009 A 
ATOM     66  C   UNL A   1      45.694  27.933  33.183  1.00  0.00     0.009 A 
ATOM     67  C   UNL A   1      47.963  28.230  31.588  1.00  0.00     0.001 A 
ATOM     68  C   UNL A   1      46.909  27.376  33.585  1.00  0.00     0.001 A 
ATOM     69  C   UNL A   1      48.041  27.519  32.785  1.00  0.00     0.000 A 
ENDBRANCH  50  64
BRANCH  51  70
ATOM     70  C   UNL A   1      36.773  32.616  29.586  1.00  0.00    -0.014 A 
ATOM     71  C   UNL A   1      35.697  32.475  30.476  1.00  0.00     0.009 A 
ATOM     72  C   UNL A   1      36.566  33.296  28.376  1.00  0.00     0.009 A 
ATOM     73  C   UNL A   1      34.434  32.972  30.144  1.00  0.00     0.001 A 
ATOM     74  C   UNL A   1      35.312  33.820  28.061  1.00  0.00     0.001 A 
ATOM     75  C   UNL A   1      34.244  33.646  28.940  1.00  0.00     0.000 A 
ENDBRANCH  51  70
BRANCH  63  76
ATOM     76  C   UNL A   1      42.227  34.894  33.251  1.00  0.00    -0.014 A 
ATOM     77  C   UNL A   1      43.007  35.914  32.683  1.00  0.00     0.009 A 
ATOM     78  C   UNL A   1      41.656  35.096  34.516  1.00  0.00     0.009 A 
ATOM     79  C   UNL A   1      43.235  37.099  33.384  1.00  0.00     0.001 A 
ATOM     80  C   UNL A   1      41.862  36.295  35.202  1.00  0.00     0.001 A 
ATOM     81  C   UNL A   1      42.659  37.290  34.640  1.00  0.00     0.000 A 
ENDBRANCH  63  76
ENDBRANCH  37  38
ENDBRANCH  29  32
ENDBRANCH  27  28
ENDBRANCH  26  27
ENDBRANCH   1  26
TORSDOF 16
ENDMDL
MODEL 2
REMARK VINA RESULT:     -10.1      0.388      5.902
REMARK SMILES COC(=O)C[C@H](NC(=O)N[C@H]1CCCC1(C)C)C(=O)NCCCCNC(=O)c1ccc(-c2c3nc(c(-c4ccccc4)c4ccc([nH]4)c(-c4ccccc4)c4nc(c(-c5ccccc5)c5ccc2[nH]5)C=C4)C=C3)cc1
REMARK SMILES IDX 22 1 21 2 20 3 18 4 19 5 6 7 5 8 3 9 4 10 2 11 1 12 7 13
REMARK SMILES IDX 8 14 9 16 10 17 11 19 12 20 15 21 13 22 14 23 16 24 17 25
REMARK SMILES IDX 23 26 24 27 25 28 26 29 27 31 28 32 29 33 75 34 30 35 74 36
REMARK SMILES IDX 31 37 32 38 33 39 68 40 34 41 73 42 67 43 69 44 35 45 72 46
REMARK SMILES IDX 66 47 65 48 36 50 58 51 43 52 57 53 44 54 47 55 56 56 70 57
REMARK SMILES IDX 45 58 46 59 55 61 71 62 48 63 37 64 38 65 42 66 39 67 41 68
REMARK SMILES IDX 40 69 59 70 60 71 64 72 61 73 63 74 62 75 49 76 50 77 54 78
REMARK SMILES IDX 51 79 53 80 52 81
REMARK H PARENT 20 6 7 15 10 18 25 30 69 49 47 60
REMARK Flexibility Score: inf
ROOT
ATOM      1  C   UNL A   1      34.560  23.834  26.053  1.00  0.00     0.023 C 
ENDROOT
BRANCH   1   2
ATOM      2  C   UNL A   1      33.518  23.120  25.187  1.00  0.00     0.116 C 
BRANCH   2   3
ATOM      3  N   UNL A   1      33.331  23.457  23.789  1.00  0.00    -0.354 N 
ATOM      4  C   UNL A   1      33.271  24.608  23.071  1.00  0.00     0.243 C 
ATOM      5  O   UNL A   1      33.541  24.509  21.865  1.00  0.00    -0.273 OA
ATOM      6  H   UNL A   1      33.221  22.658  23.223  1.00  0.00     0.163 HD
BRANCH   4   7
ATOM      7  C   UNL A   1      32.974  26.001  23.639  1.00  0.00     0.184 C 
BRANCH   7   8
ATOM      8  C   UNL A   1      31.464  26.162  23.874  1.00  0.00     0.157 C 
BRANCH   8   9
ATOM      9  C   UNL A   1      30.749  26.789  22.708  1.00  0.00     0.308 C 
ATOM     10  O   UNL A   1      31.160  26.756  21.556  1.00  0.00    -0.252 OA
BRANCH   9  11
ATOM     11  O   UNL A   1      29.625  27.431  23.131  1.00  0.00    -0.469 OA
ATOM     12  C   UNL A   1      29.367  28.729  22.576  1.00  0.00     0.282 C 
ENDBRANCH   9  11
ENDBRANCH   8   9
ENDBRANCH   7   8
BRANCH   7  13
ATOM     13  N   UNL A   1      33.564  27.126  22.935  1.00  0.00    -0.326 N 
ATOM     14  C   UNL A   1      33.896  28.372  23.282  1.00  0.00     0.315 C 
ATOM     15  H   UNL A   1      33.764  26.925  21.993  1.00  0.00     0.166 HD
ATOM     16  O   UNL A   1      34.240  29.130  22.370  1.00  0.00    -0.249 OA
ATOM     17  N   UNL A   1      33.966  28.845  24.527  1.00  0.00    -0.335 N 
ATOM     18  H   UNL A   1      34.422  29.717  24.552  1.00  0.00     0.165 HD
BRANCH  17  19
ATOM     19  C   UNL A   1      33.552  28.425  25.869  1.00  0.00     0.089 C 
ATOM     20  C   UNL A   1      34.636  28.676  26.933  1.00  0.00     0.025 C 
ATOM     21  C   UNL A   1      32.368  29.278  26.409  1.00  0.00    -0.015 C 
ATOM     22  C   UNL A   1      34.342  30.003  27.625  1.00  0.00     0.003 C 
ATOM     23  C   UNL A   1      33.067  30.523  26.985  1.00  0.00     0.008 C 
ATOM     24  C   UNL A   1      31.340  29.685  25.350  1.00  0.00     0.013 C 
ATOM     25  C   UNL A   1      31.643  28.497  27.524  1.00  0.00     0.013 C 
ENDBRANCH  17  19
ENDBRANCH   7  13
ENDBRANCH   4   7
ENDBRANCH   2   3
ENDBRANCH   1   2
BRANCH   1  26
ATOM     26  C   UNL A   1      35.910  23.171  26.334  1.00  0.00     0.023 C 
BRANCH  26  27
ATOM     27  C   UNL A   1      37.056  23.549  25.407  1.00  0.00     0.116 C 
BRANCH  27  28
ATOM     28  N   UNL A   1      38.212  22.690  25.581  1.00  0.00    -0.352 N 
ATOM     29  C   UNL A   1      39.432  22.965  26.152  1.00  0.00     0.251 C 
ATOM     30  H   UNL A   1      38.108  21.773  25.239  1.00  0.00     0.163 HD
ATOM     31  O   UNL A   1      40.331  22.143  26.096  1.00  0.00    -0.269 OA
BRANCH  29  32
ATOM     32  C   UNL A   1      39.670  24.277  26.795  1.00  0.00     0.039 A 
ATOM     33  C   UNL A   1      39.215  24.461  28.102  1.00  0.00     0.014 A 
ATOM     34  C   UNL A   1      40.323  25.317  26.125  1.00  0.00     0.014 A 
ATOM     35  C   UNL A   1      39.469  25.664  28.764  1.00  0.00     0.010 A 
ATOM     36  C   UNL A   1      40.625  26.498  26.806  1.00  0.00     0.010 A 
ATOM     37  C   UNL A   1      40.207  26.679  28.133  1.00  0.00    -0.014 A 
BRANCH  37  38
ATOM     38  C   UNL A   1      40.571  27.914  28.873  1.00  0.00     0.031 A 
ATOM     39  C   UNL A   1      39.590  29.043  29.012  1.00  0.00     0.074 A 
ATOM     40  C   UNL A   1      41.809  28.029  29.392  1.00  0.00     0.049 A 
ATOM     41  N   UNL A   1      39.741  30.192  29.622  1.00  0.00    -0.248 NA
ATOM     42  C   UNL A   1      38.276  28.870  28.374  1.00  0.00     0.031 C 
ATOM     43  C   UNL A   1      42.867  27.020  29.295  1.00  0.00     0.029 A 
ATOM     44  N   UNL A   1      42.390  29.048  30.107  1.00  0.00    -0.354 N 
ATOM     45  C   UNL A   1      38.547  30.879  29.437  1.00  0.00     0.074 A 
ATOM     46  C   UNL A   1      37.698  30.037  28.623  1.00  0.00     0.031 C 
ATOM     47  C   UNL A   1      43.956  27.459  29.946  1.00  0.00     0.029 A 
ATOM     48  C   UNL A   1      43.689  28.792  30.475  1.00  0.00     0.049 A 
ATOM     49  H   UNL A   1      41.919  29.882  30.335  1.00  0.00     0.167 HD
ATOM     50  C   UNL A   1      38.186  32.094  29.915  1.00  0.00     0.031 A 
ATOM     51  C   UNL A   1      44.571  29.550  31.154  1.00  0.00     0.031 A 
ATOM     52  C   UNL A   1      39.027  32.930  30.730  1.00  0.00     0.049 A 
ATOM     53  C   UNL A   1      44.149  30.905  31.649  1.00  0.00     0.074 A 
ATOM     54  C   UNL A   1      38.723  34.148  31.312  1.00  0.00     0.029 A 
ATOM     55  N   UNL A   1      40.338  32.641  31.071  1.00  0.00    -0.354 N 
ATOM     56  N   UNL A   1      42.987  31.501  31.536  1.00  0.00    -0.248 NA
ATOM     57  C   UNL A   1      45.161  31.690  32.371  1.00  0.00     0.031 C 
ATOM     58  C   UNL A   1      39.868  34.625  31.957  1.00  0.00     0.029 A 
ATOM     59  C   UNL A   1      40.867  33.675  31.825  1.00  0.00     0.049 A 
ATOM     60  H   UNL A   1      40.822  31.822  30.815  1.00  0.00     0.167 HD
ATOM     61  C   UNL A   1      43.122  32.718  32.192  1.00  0.00     0.074 A 
ATOM     62  C   UNL A   1      44.469  32.765  32.720  1.00  0.00     0.031 C 
ATOM     63  C   UNL A   1      42.211  33.711  32.340  1.00  0.00     0.031 A 
BRANCH  50  64
ATOM     64  C   UNL A   1      36.817  32.605  29.565  1.00  0.00    -0.014 A 
ATOM     65  C   UNL A   1      36.569  33.233  28.333  1.00  0.00     0.009 A 
ATOM     66  C   UNL A   1      35.746  32.389  30.446  1.00  0.00     0.009 A 
ATOM     67  C   UNL A   1      35.280  33.655  28.003  1.00  0.00     0.001 A 
ATOM     68  C   UNL A   1      34.454  32.790  30.101  1.00  0.00     0.001 A 
ATOM     69  C   UNL A   1      34.222  33.427  28.883  1.00  0.00     0.000 A 
ENDBRANCH  50  64
BRANCH  51  70
ATOM     70  C   UNL A   1      45.950  29.053  31.405  1.00  0.00    -0.014 A 
ATOM     71  C   UNL A   1      46.971  29.269  30.467  1.00  0.00     0.009 A 
ATOM     72  C   UNL A   1      46.245  28.331  32.572  1.00  0.00     0.009 A 
ATOM     73  C   UNL A   1      48.247  28.741  30.676  1.00  0.00     0.001 A 
ATOM     74  C   UNL A   1      47.529  27.832  32.794  1.00  0.00     0.001 A 
ATOM     75  C   UNL A   1      48.526  28.027  31.840  1.00  0.00     0.000 A 
ENDBRANCH  51  70
BRANCH  63  76
ATOM     76  C   UNL A   1      42.637  34.923  33.121  1.00  0.00    -0.014 A 
ATOM     77  C   UNL A   1      43.248  36.017  32.488  1.00  0.00     0.009 A 
ATOM     78  C   UNL A   1      42.394  34.982  34.501  1.00  0.00     0.009 A 
ATOM     79  C   UNL A   1      43.636  37.133  33.230  1.00  0.00     0.001 A 
ATOM     80  C   UNL A   1      42.756  36.113  35.236  1.00  0.00     0.001 A 
ATOM     81  C   UNL A   1      43.385  37.183  34.601  1.00  0.00     0.000 A 
ENDBRANCH  63  76
ENDBRANCH  37  38
ENDBRANCH  29  32
ENDBRANCH  27  28
ENDBRANCH  26  27
ENDBRANCH   1  26
TORSDOF 16
ENDMDL
MODEL 3
REMARK VINA RESULT:     -10.0      2.677      8.028
REMARK SMILES COC(=O)C[C@H](NC(=O)N[C@H]1CCCC1(C)C)C(=O)NCCCCNC(=O)c1ccc(-c2c3nc(c(-c4ccccc4)c4ccc([nH]4)c(-c4ccccc4)c4nc(c(-c5ccccc5)c5ccc2[nH]5)C=C4)C=C3)cc1
REMARK SMILES IDX 22 1 21 2 20 3 18 4 19 5 6 7 5 8 3 9 4 10 2 11 1 12 7 13
REMARK SMILES IDX 8 14 9 16 10 17 11 19 12 20 15 21 13 22 14 23 16 24 17 25
REMARK SMILES IDX 23 26 24 27 25 28 26 29 27 31 28 32 29 33 75 34 30 35 74 36
REMARK SMILES IDX 31 37 32 38 33 39 68 40 34 41 73 42 67 43 69 44 35 45 72 46
REMARK SMILES IDX 66 47 65 48 36 50 58 51 43 52 57 53 44 54 47 55 56 56 70 57
REMARK SMILES IDX 45 58 46 59 55 61 71 62 48 63 37 64 38 65 42 66 39 67 41 68
REMARK SMILES IDX 40 69 59 70 60 71 64 72 61 73 63 74 62 75 49 76 50 77 54 78
REMARK SMILES IDX 51 79 53 80 52 81
REMARK H PARENT 20 6 7 15 10 18 25 30 69 49 47 60
REMARK Flexibility Score: inf
ROOT
ATOM      1  C   UNL A   1      33.361  27.586  24.977  1.00  0.00     0.023 C 
ENDROOT
BRANCH   1   2
ATOM      2  C   UNL A   1      32.331  26.652  25.619  1.00  0.00     0.116 C 
BRANCH   2   3
ATOM      3  N   UNL A   1      31.563  25.708  24.830  1.00  0.00    -0.354 N 
ATOM      4  C   UNL A   1      31.582  24.364  24.643  1.00  0.00     0.243 C 
ATOM      5  O   UNL A   1      30.520  23.856  24.253  1.00  0.00    -0.273 OA
ATOM      6  H   UNL A   1      30.857  26.149  24.302  1.00  0.00     0.163 HD
BRANCH   4   7
ATOM      7  C   UNL A   1      32.766  23.436  24.941  1.00  0.00     0.184 C 
BRANCH   7   8
ATOM      8  C   UNL A   1      32.791  22.275  23.936  1.00  0.00     0.157 C 
BRANCH   8   9
ATOM      9  C   UNL A   1      32.153  21.021  24.468  1.00  0.00     0.308 C 
ATOM     10  O   UNL A   1      31.386  20.995  25.421  1.00  0.00    -0.252 OA
BRANCH   9  11
ATOM     11  O   UNL A   1      32.590  19.934  23.772  1.00  0.00    -0.469 OA
ATOM     12  C   UNL A   1      32.541  18.667  24.443  1.00  0.00     0.282 C 
ENDBRANCH   9  11
ENDBRANCH   8   9
ENDBRANCH   7   8
BRANCH   7  13
ATOM     13  N   UNL A   1      32.916  23.001  26.320  1.00  0.00    -0.326 N 
ATOM     14  C   UNL A   1      33.956  22.645  27.076  1.00  0.00     0.315 C 
ATOM     15  H   UNL A   1      32.059  22.958  26.802  1.00  0.00     0.166 HD
ATOM     16  O   UNL A   1      33.699  22.168  28.185  1.00  0.00    -0.249 OA
ATOM     17  N   UNL A   1      35.243  22.832  26.776  1.00  0.00    -0.335 N 
ATOM     18  H   UNL A   1      35.818  22.679  27.560  1.00  0.00     0.165 HD
BRANCH  17  19
ATOM     19  C   UNL A   1      36.037  23.202  25.601  1.00  0.00     0.089 C 
ATOM     20  C   UNL A   1      37.269  24.053  25.957  1.00  0.00     0.025 C 
ATOM     21  C   UNL A   1      36.687  21.963  24.921  1.00  0.00    -0.015 C 
ATOM     22  C   UNL A   1      38.481  23.133  26.067  1.00  0.00     0.003 C 
ATOM     23  C   UNL A   1      37.966  21.741  25.749  1.00  0.00     0.008 C 
ATOM     24  C   UNL A   1      35.819  20.701  24.931  1.00  0.00     0.013 C 
ATOM     25  C   UNL A   1      37.039  22.307  23.459  1.00  0.00     0.013 C 
ENDBRANCH  17  19
ENDBRANCH   7  13
ENDBRANCH   4   7
ENDBRANCH   2   3
ENDBRANCH   1   2
BRANCH   1  26
ATOM     26  C   UNL A   1      34.042  28.671  25.815  1.00  0.00     0.023 C 
BRANCH  26  27
ATOM     27  C   UNL A   1      33.599  28.783  27.266  1.00  0.00     0.116 C 
BRANCH  27  28
ATOM     28  N   UNL A   1      33.588  30.156  27.734  1.00  0.00    -0.352 N 
ATOM     29  C   UNL A   1      34.570  30.873  28.374  1.00  0.00     0.251 C 
ATOM     30  H   UNL A   1      32.751  30.649  27.569  1.00  0.00     0.163 HD
ATOM     31  O   UNL A   1      34.330  31.990  28.803  1.00  0.00    -0.269 OA
BRANCH  29  32
ATOM     32  C   UNL A   1      35.907  30.273  28.584  1.00  0.00     0.039 A 
ATOM     33  C   UNL A   1      36.821  30.318  27.528  1.00  0.00     0.014 A 
ATOM     34  C   UNL A   1      36.261  29.668  29.794  1.00  0.00     0.014 A 
ATOM     35  C   UNL A   1      38.111  29.814  27.705  1.00  0.00     0.010 A 
ATOM     36  C   UNL A   1      37.567  29.215  29.987  1.00  0.00     0.010 A 
ATOM     37  C   UNL A   1      38.505  29.290  28.946  1.00  0.00    -0.014 A 
BRANCH  37  38
ATOM     38  C   UNL A   1      39.907  28.854  29.168  1.00  0.00     0.031 A 
ATOM     39  C   UNL A   1      40.911  29.785  29.787  1.00  0.00     0.074 A 
ATOM     40  C   UNL A   1      40.284  27.622  28.775  1.00  0.00     0.049 A 
ATOM     41  N   UNL A   1      42.176  29.572  30.052  1.00  0.00    -0.248 NA
ATOM     42  C   UNL A   1      40.443  31.133  30.142  1.00  0.00     0.031 C 
ATOM     43  C   UNL A   1      39.415  26.635  28.128  1.00  0.00     0.029 A 
ATOM     44  N   UNL A   1      41.498  26.986  28.861  1.00  0.00    -0.354 N 
ATOM     45  C   UNL A   1      42.655  30.756  30.597  1.00  0.00     0.074 A 
ATOM     46  C   UNL A   1      41.557  31.699  30.587  1.00  0.00     0.031 C 
ATOM     47  C   UNL A   1      40.117  25.514  27.900  1.00  0.00     0.029 A 
ATOM     48  C   UNL A   1      41.490  25.711  28.348  1.00  0.00     0.049 A 
ATOM     49  H   UNL A   1      42.299  27.404  29.254  1.00  0.00     0.167 HD
ATOM     50  C   UNL A   1      43.891  31.029  31.077  1.00  0.00     0.031 A 
ATOM     51  C   UNL A   1      42.481  24.805  28.242  1.00  0.00     0.031 A 
ATOM     52  C   UNL A   1      44.982  30.091  31.093  1.00  0.00     0.049 A 
ATOM     53  C   UNL A   1      43.850  25.147  28.759  1.00  0.00     0.074 A 
ATOM     54  C   UNL A   1      46.253  30.259  31.618  1.00  0.00     0.029 A 
ATOM     55  N   UNL A   1      44.937  28.816  30.555  1.00  0.00    -0.354 N 
ATOM     56  N   UNL A   1      44.260  26.243  29.349  1.00  0.00    -0.248 NA
ATOM     57  C   UNL A   1      44.892  24.122  28.601  1.00  0.00     0.031 C 
ATOM     58  C   UNL A   1      46.995  29.106  31.345  1.00  0.00     0.029 A 
ATOM     59  C   UNL A   1      46.169  28.199  30.703  1.00  0.00     0.049 A 
ATOM     60  H   UNL A   1      44.148  28.408  30.131  1.00  0.00     0.167 HD
ATOM     61  C   UNL A   1      45.599  26.030  29.653  1.00  0.00     0.074 A 
ATOM     62  C   UNL A   1      45.924  24.693  29.204  1.00  0.00     0.031 C 
ATOM     63  C   UNL A   1      46.481  26.870  30.247  1.00  0.00     0.031 A 
BRANCH  50  64
ATOM     64  C   UNL A   1      44.142  32.407  31.623  1.00  0.00    -0.014 A 
ATOM     65  C   UNL A   1      44.007  32.680  32.994  1.00  0.00     0.009 A 
ATOM     66  C   UNL A   1      44.589  33.425  30.768  1.00  0.00     0.009 A 
ATOM     67  C   UNL A   1      44.293  33.953  33.492  1.00  0.00     0.001 A 
ATOM     68  C   UNL A   1      44.900  34.689  31.273  1.00  0.00     0.001 A 
ATOM     69  C   UNL A   1      44.746  34.954  32.633  1.00  0.00     0.000 A 
ENDBRANCH  50  64
BRANCH  51  70
ATOM     70  C   UNL A   1      42.224  23.483  27.612  1.00  0.00    -0.014 A 
ATOM     71  C   UNL A   1      42.496  23.272  26.251  1.00  0.00     0.009 A 
ATOM     72  C   UNL A   1      41.672  22.432  28.362  1.00  0.00     0.009 A 
ATOM     73  C   UNL A   1      42.188  22.050  25.648  1.00  0.00     0.001 A 
ATOM     74  C   UNL A   1      41.396  21.201  27.765  1.00  0.00     0.001 A 
ATOM     75  C   UNL A   1      41.642  21.016  26.405  1.00  0.00     0.000 A 
ENDBRANCH  51  70
BRANCH  63  76
ATOM     76  C   UNL A   1      47.877  26.357  30.464  1.00  0.00    -0.014 A 
ATOM     77  C   UNL A   1      48.252  25.758  31.677  1.00  0.00     0.009 A 
ATOM     78  C   UNL A   1      48.820  26.446  29.428  1.00  0.00     0.009 A 
ATOM     79  C   UNL A   1      49.553  25.288  31.859  1.00  0.00     0.001 A 
ATOM     80  C   UNL A   1      50.113  25.948  29.603  1.00  0.00     0.001 A 
ATOM     81  C   UNL A   1      50.480  25.379  30.821  1.00  0.00     0.000 A 
ENDBRANCH  63  76
ENDBRANCH  37  38
ENDBRANCH  29  32
ENDBRANCH  27  28
ENDBRANCH  26  27
ENDBRANCH   1  26
TORSDOF 16
ENDMDL
