MODEL 1
REMARK VINA RESULT:      -8.9      0.000      0.000
REMARK SMILES COc1cc(C=C2C(=O)N(C)C(=S)N(C)C2=O)c(Br)cc1OCC(=O)NCCCCNC(=O)c1ccc(-c2c3nc(c(-c4ccccc4)c4ccc([nH]4)c(-c4ccccc4)c4nc(c(-c5ccccc5)c5ccc2[nH]5)C=C4)C=C3)cc1
REMARK SMILES IDX 28 1 27 2 26 3 24 4 25 5 23 7 22 8 21 9 3 10 4 11 5 12 20 13
REMARK SMILES IDX 18 14 19 15 2 16 1 17 6 18 7 19 8 20 16 21 9 22 10 23 14 24
REMARK SMILES IDX 17 25 11 26 12 27 15 28 13 29 29 30 30 31 31 32 32 33 33 35
REMARK SMILES IDX 34 36 35 37 81 38 36 39 80 40 37 41 38 42 39 43 74 44 40 45
REMARK SMILES IDX 79 46 73 47 75 48 41 49 78 50 72 51 71 52 42 54 64 55 49 56
REMARK SMILES IDX 63 57 50 58 53 59 62 60 76 61 51 62 52 63 61 65 77 66 54 67
REMARK SMILES IDX 43 68 44 69 48 70 45 71 47 72 46 73 65 74 66 75 70 76 67 77
REMARK SMILES IDX 69 78 68 79 55 80 56 81 60 82 57 83 59 84 58 85
REMARK H PARENT 26 6 31 34 75 53 53 64
REMARK Flexibility Score: inf
ROOT
ATOM      1  C   UNL A   1      37.341  33.658  29.161  1.00  0.00     0.023 C 
ENDROOT
BRANCH   1   2
ATOM      2  C   UNL A   1      37.616  33.190  30.588  1.00  0.00     0.116 C 
BRANCH   2   3
ATOM      3  N   UNL A   1      37.345  34.202  31.584  1.00  0.00    -0.353 N 
ATOM      4  C   UNL A   1      36.951  34.027  32.881  1.00  0.00     0.257 C 
ATOM      5  O   UNL A   1      37.023  34.999  33.639  1.00  0.00    -0.271 OA
ATOM      6  H   UNL A   1      37.457  35.136  31.291  1.00  0.00     0.163 HD
BRANCH   4   7
ATOM      7  C   UNL A   1      36.532  32.633  33.379  1.00  0.00     0.329 C 
BRANCH   7   8
ATOM      8  O   UNL A   1      37.235  32.045  34.461  1.00  0.00    -0.480 OA
BRANCH   8   9
ATOM      9  C   UNL A   1      38.484  31.528  34.268  1.00  0.00     0.163 A 
ATOM     10  C   UNL A   1      39.710  32.084  34.607  1.00  0.00     0.161 A 
ATOM     11  C   UNL A   1      40.882  31.331  34.454  1.00  0.00     0.059 A 
ATOM     12  C   UNL A   1      40.924  30.076  33.832  1.00  0.00    -0.006 A 
ATOM     13  C   UNL A   1      38.483  30.257  33.679  1.00  0.00     0.066 A 
ATOM     14  C   UNL A   1      39.677  29.549  33.445  1.00  0.00     0.029 A 
ATOM     15  Br  UNL A   1      39.478  27.840  32.621  1.00  0.00    -0.050 Br
BRANCH  10  16
ATOM     16  O   UNL A   1      39.802  33.315  35.188  1.00  0.00    -0.493 OA
ATOM     17  C   UNL A   1      40.446  34.288  34.359  1.00  0.00     0.278 C 
ENDBRANCH  10  16
BRANCH  12  18
ATOM     18  C   UNL A   1      42.205  29.323  33.701  1.00  0.00     0.029 C 
ATOM     19  C   UNL A   1      42.771  28.380  34.487  1.00  0.00     0.106 C 
ATOM     20  C   UNL A   1      42.224  27.883  35.750  1.00  0.00     0.265 C 
ATOM     21  C   UNL A   1      43.926  27.629  33.960  1.00  0.00     0.265 C 
ATOM     22  O   UNL A   1      41.951  28.621  36.689  1.00  0.00    -0.268 OA
ATOM     23  N   UNL A   1      42.017  26.513  35.723  1.00  0.00    -0.288 N 
ATOM     24  N   UNL A   1      43.924  26.274  34.314  1.00  0.00    -0.288 N 
ATOM     25  O   UNL A   1      44.751  28.168  33.228  1.00  0.00    -0.268 OA
ATOM     26  C   UNL A   1      40.829  26.077  36.462  1.00  0.00     0.156 C 
ATOM     27  C   UNL A   1      42.924  25.640  35.101  1.00  0.00     0.185 C 
ATOM     28  C   UNL A   1      45.005  25.481  33.724  1.00  0.00     0.156 C 
ATOM     29  S   UNL A   1      42.846  23.959  35.293  1.00  0.00    -0.040 S 
ENDBRANCH  12  18
ENDBRANCH   8   9
ENDBRANCH   7   8
ENDBRANCH   4   7
ENDBRANCH   2   3
ENDBRANCH   1   2
BRANCH   1  30
ATOM     30  C   UNL A   1      35.881  33.582  28.706  1.00  0.00     0.023 C 
BRANCH  30  31
ATOM     31  C   UNL A   1      34.952  32.732  29.566  1.00  0.00     0.116 C 
BRANCH  31  32
ATOM     32  N   UNL A   1      34.161  31.782  28.803  1.00  0.00    -0.352 N 
ATOM     33  C   UNL A   1      34.534  30.580  28.255  1.00  0.00     0.251 C 
ATOM     34  H   UNL A   1      33.221  32.038  28.658  1.00  0.00     0.163 HD
ATOM     35  O   UNL A   1      33.735  29.946  27.570  1.00  0.00    -0.269 OA
BRANCH  33  36
ATOM     36  C   UNL A   1      35.905  30.059  28.453  1.00  0.00     0.039 A 
ATOM     37  C   UNL A   1      36.813  30.147  27.392  1.00  0.00     0.014 A 
ATOM     38  C   UNL A   1      36.299  29.482  29.663  1.00  0.00     0.014 A 
ATOM     39  C   UNL A   1      38.129  29.711  27.564  1.00  0.00     0.010 A 
ATOM     40  C   UNL A   1      37.628  29.111  29.855  1.00  0.00     0.010 A 
ATOM     41  C   UNL A   1      38.555  29.217  28.806  1.00  0.00    -0.014 A 
BRANCH  41  42
ATOM     42  C   UNL A   1      39.959  28.785  29.021  1.00  0.00     0.031 A 
ATOM     43  C   UNL A   1      40.961  29.740  29.612  1.00  0.00     0.074 A 
ATOM     44  C   UNL A   1      40.353  27.557  28.629  1.00  0.00     0.049 A 
ATOM     45  N   UNL A   1      42.244  29.573  29.813  1.00  0.00    -0.248 NA
ATOM     46  C   UNL A   1      40.457  31.065  30.006  1.00  0.00     0.031 C 
ATOM     47  C   UNL A   1      39.493  26.545  28.011  1.00  0.00     0.029 A 
ATOM     48  N   UNL A   1      41.585  26.954  28.689  1.00  0.00    -0.354 N 
ATOM     49  C   UNL A   1      42.702  30.777  30.332  1.00  0.00     0.074 A 
ATOM     50  C   UNL A   1      41.572  31.679  30.375  1.00  0.00     0.031 C 
ATOM     51  C   UNL A   1      40.219  25.440  27.771  1.00  0.00     0.029 A 
ATOM     52  C   UNL A   1      41.599  25.677  28.183  1.00  0.00     0.049 A 
ATOM     53  H   UNL A   1      42.383  27.395  29.060  1.00  0.00     0.167 HD
ATOM     54  C   UNL A   1      43.949  31.101  30.754  1.00  0.00     0.031 A 
ATOM     55  C   UNL A   1      42.609  24.797  28.062  1.00  0.00     0.031 A 
ATOM     56  C   UNL A   1      45.071  30.202  30.732  1.00  0.00     0.049 A 
ATOM     57  C   UNL A   1      43.982  25.176  28.544  1.00  0.00     0.074 A 
ATOM     58  C   UNL A   1      46.362  30.422  31.183  1.00  0.00     0.029 A 
ATOM     59  N   UNL A   1      45.036  28.909  30.234  1.00  0.00    -0.354 N 
ATOM     60  N   UNL A   1      44.387  26.300  29.083  1.00  0.00    -0.248 NA
ATOM     61  C   UNL A   1      45.033  24.157  28.413  1.00  0.00     0.031 C 
ATOM     62  C   UNL A   1      47.117  29.274  30.924  1.00  0.00     0.029 A 
ATOM     63  C   UNL A   1      46.283  28.322  30.357  1.00  0.00     0.049 A 
ATOM     64  H   UNL A   1      44.241  28.473  29.850  1.00  0.00     0.167 HD
ATOM     65  C   UNL A   1      45.728  26.111  29.388  1.00  0.00     0.074 A 
ATOM     66  C   UNL A   1      46.066  24.762  28.983  1.00  0.00     0.031 C 
ATOM     67  C   UNL A   1      46.602  26.977  29.958  1.00  0.00     0.031 A 
BRANCH  54  68
ATOM     68  C   UNL A   1      44.159  32.496  31.272  1.00  0.00    -0.014 A 
ATOM     69  C   UNL A   1      44.549  33.539  30.417  1.00  0.00     0.009 A 
ATOM     70  C   UNL A   1      43.940  32.777  32.629  1.00  0.00     0.009 A 
ATOM     71  C   UNL A   1      44.755  34.826  30.919  1.00  0.00     0.001 A 
ATOM     72  C   UNL A   1      44.119  34.071  33.123  1.00  0.00     0.001 A 
ATOM     73  C   UNL A   1      44.536  35.092  32.270  1.00  0.00     0.000 A 
ENDBRANCH  54  68
BRANCH  55  74
ATOM     74  C   UNL A   1      42.359  23.452  27.482  1.00  0.00    -0.014 A 
ATOM     75  C   UNL A   1      41.883  22.408  28.291  1.00  0.00     0.009 A 
ATOM     76  C   UNL A   1      42.604  23.200  26.124  1.00  0.00     0.009 A 
ATOM     77  C   UNL A   1      41.683  21.133  27.757  1.00  0.00     0.001 A 
ATOM     78  C   UNL A   1      42.379  21.932  25.587  1.00  0.00     0.001 A 
ATOM     79  C   UNL A   1      41.928  20.896  26.404  1.00  0.00     0.000 A 
ENDBRANCH  55  74
BRANCH  67  80
ATOM     80  C   UNL A   1      47.993  26.475  30.224  1.00  0.00    -0.014 A 
ATOM     81  C   UNL A   1      48.339  25.894  31.452  1.00  0.00     0.009 A 
ATOM     82  C   UNL A   1      48.961  26.554  29.209  1.00  0.00     0.009 A 
ATOM     83  C   UNL A   1      49.638  25.433  31.672  1.00  0.00     0.001 A 
ATOM     84  C   UNL A   1      50.251  26.068  29.422  1.00  0.00     0.001 A 
ATOM     85  C   UNL A   1      50.592  25.516  30.657  1.00  0.00     0.000 A 
ENDBRANCH  67  80
ENDBRANCH  41  42
ENDBRANCH  33  36
ENDBRANCH  31  32
ENDBRANCH  30  31
ENDBRANCH   1  30
TORSDOF 15
ENDMDL
MODEL 2
REMARK VINA RESULT:      -8.8      4.696     10.030
REMARK SMILES COc1cc(C=C2C(=O)N(C)C(=S)N(C)C2=O)c(Br)cc1OCC(=O)NCCCCNC(=O)c1ccc(-c2c3nc(c(-c4ccccc4)c4ccc([nH]4)c(-c4ccccc4)c4nc(c(-c5ccccc5)c5ccc2[nH]5)C=C4)C=C3)cc1
REMARK SMILES IDX 28 1 27 2 26 3 24 4 25 5 23 7 22 8 21 9 3 10 4 11 5 12 20 13
REMARK SMILES IDX 18 14 19 15 2 16 1 17 6 18 7 19 8 20 16 21 9 22 10 23 14 24
REMARK SMILES IDX 17 25 11 26 12 27 15 28 13 29 29 30 30 31 31 32 32 33 33 35
REMARK SMILES IDX 34 36 35 37 81 38 36 39 80 40 37 41 38 42 39 43 74 44 40 45
REMARK SMILES IDX 79 46 73 47 75 48 41 49 78 50 72 51 71 52 42 54 64 55 49 56
REMARK SMILES IDX 63 57 50 58 53 59 62 60 76 61 51 62 52 63 61 65 77 66 54 67
REMARK SMILES IDX 43 68 44 69 48 70 45 71 47 72 46 73 65 74 66 75 70 76 67 77
REMARK SMILES IDX 69 78 68 79 55 80 56 81 60 82 57 83 59 84 58 85
REMARK H PARENT 26 6 31 34 75 53 53 64
REMARK Flexibility Score: inf
ROOT
ATOM      1  C   UNL A   1      30.296  32.268  25.012  1.00  0.00     0.023 C 
ENDROOT
BRANCH   1   2
ATOM      2  C   UNL A   1      29.204  31.483  24.291  1.00  0.00     0.116 C 
BRANCH   2   3
ATOM      3  N   UNL A   1      29.573  31.094  22.948  1.00  0.00    -0.353 N 
ATOM      4  C   UNL A   1      29.908  29.851  22.490  1.00  0.00     0.257 C 
ATOM      5  O   UNL A   1      29.937  29.677  21.268  1.00  0.00    -0.271 OA
ATOM      6  H   UNL A   1      29.585  31.817  22.278  1.00  0.00     0.163 HD
BRANCH   4   7
ATOM      7  C   UNL A   1      30.138  28.698  23.483  1.00  0.00     0.329 C 
BRANCH   7   8
ATOM      8  O   UNL A   1      31.039  28.886  24.562  1.00  0.00    -0.480 OA
BRANCH   8   9
ATOM      9  C   UNL A   1      32.028  27.975  24.798  1.00  0.00     0.163 A 
ATOM     10  C   UNL A   1      32.804  27.819  25.938  1.00  0.00     0.161 A 
ATOM     11  C   UNL A   1      33.676  26.727  26.043  1.00  0.00     0.059 A 
ATOM     12  C   UNL A   1      33.937  25.837  24.992  1.00  0.00    -0.006 A 
ATOM     13  C   UNL A   1      32.232  27.079  23.741  1.00  0.00     0.066 A 
ATOM     14  C   UNL A   1      33.181  26.041  23.822  1.00  0.00     0.029 A 
ATOM     15  Br  UNL A   1      33.328  24.932  22.278  1.00  0.00    -0.050 Br
BRANCH  10  16
ATOM     16  O   UNL A   1      32.667  28.645  27.016  1.00  0.00    -0.493 OA
ATOM     17  C   UNL A   1      31.545  28.319  27.842  1.00  0.00     0.278 C 
ENDBRANCH  10  16
BRANCH  12  18
ATOM     18  C   UNL A   1      34.877  24.692  25.167  1.00  0.00     0.029 C 
ATOM     19  C   UNL A   1      34.688  23.449  25.666  1.00  0.00     0.106 C 
ATOM     20  C   UNL A   1      33.434  22.933  26.214  1.00  0.00     0.265 C 
ATOM     21  C   UNL A   1      35.751  22.447  25.470  1.00  0.00     0.265 C 
ATOM     22  O   UNL A   1      32.837  23.483  27.133  1.00  0.00    -0.268 OA
ATOM     23  N   UNL A   1      32.999  21.802  25.543  1.00  0.00    -0.288 N 
ATOM     24  N   UNL A   1      35.269  21.161  25.200  1.00  0.00    -0.288 N 
ATOM     25  O   UNL A   1      36.937  22.769  25.485  1.00  0.00    -0.268 OA
ATOM     26  C   UNL A   1      31.543  21.713  25.409  1.00  0.00     0.156 C 
ATOM     27  C   UNL A   1      33.893  20.810  25.110  1.00  0.00     0.185 C 
ATOM     28  C   UNL A   1      36.300  20.163  24.903  1.00  0.00     0.156 C 
ATOM     29  S   UNL A   1      33.373  19.300  24.544  1.00  0.00    -0.040 S 
ENDBRANCH  12  18
ENDBRANCH   8   9
ENDBRANCH   7   8
ENDBRANCH   4   7
ENDBRANCH   2   3
ENDBRANCH   1   2
BRANCH   1  30
ATOM     30  C   UNL A   1      30.951  31.560  26.200  1.00  0.00     0.023 C 
BRANCH  30  31
ATOM     31  C   UNL A   1      32.255  32.165  26.708  1.00  0.00     0.116 C 
BRANCH  31  32
ATOM     32  N   UNL A   1      32.105  33.507  27.241  1.00  0.00    -0.352 N 
ATOM     33  C   UNL A   1      32.915  34.196  28.111  1.00  0.00     0.251 C 
ATOM     34  H   UNL A   1      31.306  33.994  26.936  1.00  0.00     0.163 HD
ATOM     35  O   UNL A   1      32.578  35.307  28.512  1.00  0.00    -0.269 OA
BRANCH  33  36
ATOM     36  C   UNL A   1      34.176  33.592  28.596  1.00  0.00     0.039 A 
ATOM     37  C   UNL A   1      35.373  33.947  27.965  1.00  0.00     0.014 A 
ATOM     38  C   UNL A   1      34.189  32.679  29.654  1.00  0.00     0.014 A 
ATOM     39  C   UNL A   1      36.585  33.433  28.432  1.00  0.00     0.010 A 
ATOM     40  C   UNL A   1      35.403  32.221  30.161  1.00  0.00     0.010 A 
ATOM     41  C   UNL A   1      36.613  32.589  29.552  1.00  0.00    -0.014 A 
BRANCH  41  42
ATOM     42  C   UNL A   1      37.894  32.064  30.089  1.00  0.00     0.031 A 
ATOM     43  C   UNL A   1      38.453  30.766  29.572  1.00  0.00     0.074 A 
ATOM     44  C   UNL A   1      38.525  32.718  31.084  1.00  0.00     0.049 A 
ATOM     45  N   UNL A   1      39.517  30.110  29.962  1.00  0.00    -0.248 NA
ATOM     46  C   UNL A   1      37.702  30.106  28.492  1.00  0.00     0.031 C 
ATOM     47  C   UNL A   1      38.074  33.967  31.700  1.00  0.00     0.029 A 
ATOM     48  N   UNL A   1      39.683  32.414  31.756  1.00  0.00    -0.354 N 
ATOM     49  C   UNL A   1      39.548  28.953  29.193  1.00  0.00     0.074 A 
ATOM     50  C   UNL A   1      38.376  28.974  28.347  1.00  0.00     0.031 C 
ATOM     51  C   UNL A   1      38.958  34.335  32.643  1.00  0.00     0.029 A 
ATOM     52  C   UNL A   1      40.016  33.332  32.723  1.00  0.00     0.049 A 
ATOM     53  H   UNL A   1      40.224  31.615  31.564  1.00  0.00     0.167 HD
ATOM     54  C   UNL A   1      40.479  27.968  29.178  1.00  0.00     0.031 A 
ATOM     55  C   UNL A   1      41.053  33.361  33.579  1.00  0.00     0.031 A 
ATOM     56  C   UNL A   1      41.657  27.952  30.003  1.00  0.00     0.049 A 
ATOM     57  C   UNL A   1      42.077  32.261  33.538  1.00  0.00     0.074 A 
ATOM     58  C   UNL A   1      42.683  27.023  30.025  1.00  0.00     0.029 A 
ATOM     59  N   UNL A   1      41.967  28.914  30.951  1.00  0.00    -0.354 N 
ATOM     60  N   UNL A   1      42.121  31.202  32.768  1.00  0.00    -0.248 NA
ATOM     61  C   UNL A   1      43.202  32.370  34.478  1.00  0.00     0.031 C 
ATOM     62  C   UNL A   1      43.596  27.403  31.013  1.00  0.00     0.029 A 
ATOM     63  C   UNL A   1      43.164  28.596  31.571  1.00  0.00     0.049 A 
ATOM     64  H   UNL A   1      41.419  29.707  31.154  1.00  0.00     0.167 HD
ATOM     65  C   UNL A   1      43.293  30.538  33.103  1.00  0.00     0.074 A 
ATOM     66  C   UNL A   1      43.936  31.319  34.140  1.00  0.00     0.031 C 
ATOM     67  C   UNL A   1      43.795  29.387  32.594  1.00  0.00     0.031 A 
BRANCH  54  68
ATOM     68  C   UNL A   1      40.250  26.820  28.235  1.00  0.00    -0.014 A 
ATOM     69  C   UNL A   1      39.465  25.717  28.608  1.00  0.00     0.009 A 
ATOM     70  C   UNL A   1      40.806  26.853  26.948  1.00  0.00     0.009 A 
ATOM     71  C   UNL A   1      39.276  24.653  27.725  1.00  0.00     0.001 A 
ATOM     72  C   UNL A   1      40.592  25.800  26.056  1.00  0.00     0.001 A 
ATOM     73  C   UNL A   1      39.836  24.696  26.449  1.00  0.00     0.000 A 
ENDBRANCH  54  68
BRANCH  55  74
ATOM     74  C   UNL A   1      41.197  34.488  34.536  1.00  0.00    -0.014 A 
ATOM     75  C   UNL A   1      40.611  34.417  35.810  1.00  0.00     0.009 A 
ATOM     76  C   UNL A   1      41.909  35.643  34.181  1.00  0.00     0.009 A 
ATOM     77  C   UNL A   1      40.713  35.491  36.698  1.00  0.00     0.001 A 
ATOM     78  C   UNL A   1      42.031  36.705  35.080  1.00  0.00     0.001 A 
ATOM     79  C   UNL A   1      41.426  36.632  36.333  1.00  0.00     0.000 A 
ENDBRANCH  55  74
BRANCH  67  80
ATOM     80  C   UNL A   1      45.129  28.929  33.114  1.00  0.00    -0.014 A 
ATOM     81  C   UNL A   1      45.226  28.002  34.162  1.00  0.00     0.009 A 
ATOM     82  C   UNL A   1      46.305  29.411  32.517  1.00  0.00     0.009 A 
ATOM     83  C   UNL A   1      46.479  27.591  34.624  1.00  0.00     0.001 A 
ATOM     84  C   UNL A   1      47.553  28.979  32.963  1.00  0.00     0.001 A 
ATOM     85  C   UNL A   1      47.640  28.076  34.023  1.00  0.00     0.000 A 
ENDBRANCH  67  80
ENDBRANCH  41  42
ENDBRANCH  33  36
ENDBRANCH  31  32
ENDBRANCH  30  31
ENDBRANCH   1  30
TORSDOF 15
ENDMDL
MODEL 3
REMARK VINA RESULT:      -8.7      4.633      8.319
REMARK SMILES COc1cc(C=C2C(=O)N(C)C(=S)N(C)C2=O)c(Br)cc1OCC(=O)NCCCCNC(=O)c1ccc(-c2c3nc(c(-c4ccccc4)c4ccc([nH]4)c(-c4ccccc4)c4nc(c(-c5ccccc5)c5ccc2[nH]5)C=C4)C=C3)cc1
REMARK SMILES IDX 28 1 27 2 26 3 24 4 25 5 23 7 22 8 21 9 3 10 4 11 5 12 20 13
REMARK SMILES IDX 18 14 19 15 2 16 1 17 6 18 7 19 8 20 16 21 9 22 10 23 14 24
REMARK SMILES IDX 17 25 11 26 12 27 15 28 13 29 29 30 30 31 31 32 32 33 33 35
REMARK SMILES IDX 34 36 35 37 81 38 36 39 80 40 37 41 38 42 39 43 74 44 40 45
REMARK SMILES IDX 79 46 73 47 75 48 41 49 78 50 72 51 71 52 42 54 64 55 49 56
REMARK SMILES IDX 63 57 50 58 53 59 62 60 76 61 51 62 52 63 61 65 77 66 54 67
REMARK SMILES IDX 43 68 44 69 48 70 45 71 47 72 46 73 65 74 66 75 70 76 67 77
REMARK SMILES IDX 69 78 68 79 55 80 56 81 60 82 57 83 59 84 58 85
REMARK H PARENT 26 6 31 34 75 53 53 64
REMARK Flexibility Score: inf
ROOT
ATOM      1  C   UNL A   1      30.579  32.238  25.089  1.00  0.00     0.023 C 
ENDROOT
BRANCH   1   2
ATOM      2  C   UNL A   1      29.421  31.415  24.532  1.00  0.00     0.116 C 
BRANCH   2   3
ATOM      3  N   UNL A   1      29.595  31.051  23.144  1.00  0.00    -0.353 N 
ATOM      4  C   UNL A   1      29.830  29.811  22.618  1.00  0.00     0.257 C 
ATOM      5  O   UNL A   1      29.690  29.667  21.400  1.00  0.00    -0.271 OA
ATOM      6  H   UNL A   1      29.537  31.789  22.494  1.00  0.00     0.163 HD
BRANCH   4   7
ATOM      7  C   UNL A   1      30.159  28.629  23.547  1.00  0.00     0.329 C 
BRANCH   7   8
ATOM      8  O   UNL A   1      31.050  28.831  24.632  1.00  0.00    -0.480 OA
BRANCH   8   9
ATOM      9  C   UNL A   1      32.067  27.948  24.858  1.00  0.00     0.163 A 
ATOM     10  C   UNL A   1      32.972  27.926  25.911  1.00  0.00     0.161 A 
ATOM     11  C   UNL A   1      33.859  26.850  26.043  1.00  0.00     0.059 A 
ATOM     12  C   UNL A   1      34.003  25.838  25.084  1.00  0.00    -0.006 A 
ATOM     13  C   UNL A   1      32.154  26.931  23.900  1.00  0.00     0.066 A 
ATOM     14  C   UNL A   1      33.114  25.905  23.994  1.00  0.00     0.029 A 
ATOM     15  Br  UNL A   1      33.090  24.617  22.588  1.00  0.00    -0.050 Br
BRANCH  10  16
ATOM     16  O   UNL A   1      32.954  28.876  26.891  1.00  0.00    -0.493 OA
ATOM     17  C   UNL A   1      34.260  29.245  27.347  1.00  0.00     0.278 C 
ENDBRANCH  10  16
BRANCH  12  18
ATOM     18  C   UNL A   1      34.967  24.717  25.284  1.00  0.00     0.029 C 
ATOM     19  C   UNL A   1      34.790  23.460  25.751  1.00  0.00     0.106 C 
ATOM     20  C   UNL A   1      33.527  22.899  26.229  1.00  0.00     0.265 C 
ATOM     21  C   UNL A   1      35.891  22.493  25.590  1.00  0.00     0.265 C 
ATOM     22  O   UNL A   1      32.872  23.414  27.128  1.00  0.00    -0.268 OA
ATOM     23  N   UNL A   1      33.159  21.768  25.518  1.00  0.00    -0.288 N 
ATOM     24  N   UNL A   1      35.459  21.199  25.274  1.00  0.00    -0.288 N 
ATOM     25  O   UNL A   1      37.064  22.848  25.668  1.00  0.00    -0.268 OA
ATOM     26  C   UNL A   1      31.713  21.641  25.313  1.00  0.00     0.156 C 
ATOM     27  C   UNL A   1      34.101  20.811  25.112  1.00  0.00     0.185 C 
ATOM     28  C   UNL A   1      36.532  20.236  25.010  1.00  0.00     0.156 C 
ATOM     29  S   UNL A   1      33.653  19.298  24.495  1.00  0.00    -0.040 S 
ENDBRANCH  12  18
ENDBRANCH   8   9
ENDBRANCH   7   8
ENDBRANCH   4   7
ENDBRANCH   2   3
ENDBRANCH   1   2
BRANCH   1  30
ATOM     30  C   UNL A   1      31.098  31.810  26.464  1.00  0.00     0.023 C 
BRANCH  30  31
ATOM     31  C   UNL A   1      32.391  32.470  26.930  1.00  0.00     0.116 C 
BRANCH  31  32
ATOM     32  N   UNL A   1      32.207  33.822  27.429  1.00  0.00    -0.352 N 
ATOM     33  C   UNL A   1      32.989  34.544  28.298  1.00  0.00     0.251 C 
ATOM     34  H   UNL A   1      31.406  34.288  27.096  1.00  0.00     0.163 HD
ATOM     35  O   UNL A   1      32.625  35.658  28.666  1.00  0.00    -0.269 OA
BRANCH  33  36
ATOM     36  C   UNL A   1      34.249  33.973  28.822  1.00  0.00     0.039 A 
ATOM     37  C   UNL A   1      34.205  33.231  30.007  1.00  0.00     0.014 A 
ATOM     38  C   UNL A   1      35.467  34.167  28.165  1.00  0.00     0.014 A 
ATOM     39  C   UNL A   1      35.368  32.637  30.501  1.00  0.00     0.010 A 
ATOM     40  C   UNL A   1      36.613  33.518  28.621  1.00  0.00     0.010 A 
ATOM     41  C   UNL A   1      36.576  32.751  29.797  1.00  0.00    -0.014 A 
BRANCH  41  42
ATOM     42  C   UNL A   1      37.816  32.094  30.283  1.00  0.00     0.031 A 
ATOM     43  C   UNL A   1      38.640  32.743  31.362  1.00  0.00     0.074 A 
ATOM     44  C   UNL A   1      38.237  30.947  29.714  1.00  0.00     0.049 A 
ATOM     45  N   UNL A   1      39.786  32.362  31.869  1.00  0.00    -0.248 NA
ATOM     46  C   UNL A   1      38.120  33.998  31.927  1.00  0.00     0.031 C 
ATOM     47  C   UNL A   1      37.552  30.231  28.636  1.00  0.00     0.029 A 
ATOM     48  N   UNL A   1      39.352  30.185  29.964  1.00  0.00    -0.354 N 
ATOM     49  C   UNL A   1      40.132  33.341  32.792  1.00  0.00     0.074 A 
ATOM     50  C   UNL A   1      39.100  34.353  32.744  1.00  0.00     0.031 C 
ATOM     51  C   UNL A   1      38.248  29.123  28.334  1.00  0.00     0.029 A 
ATOM     52  C   UNL A   1      39.445  29.069  29.169  1.00  0.00     0.049 A 
ATOM     53  H   UNL A   1      40.020  30.416  30.648  1.00  0.00     0.167 HD
ATOM     54  C   UNL A   1      41.204  33.386  33.620  1.00  0.00     0.031 A 
ATOM     55  C   UNL A   1      40.388  28.111  29.116  1.00  0.00     0.031 A 
ATOM     56  C   UNL A   1      42.221  32.372  33.686  1.00  0.00     0.049 A 
ATOM     57  C   UNL A   1      41.564  28.179  30.050  1.00  0.00     0.074 A 
ATOM     58  C   UNL A   1      43.319  32.305  34.527  1.00  0.00     0.029 A 
ATOM     59  N   UNL A   1      42.264  31.246  32.880  1.00  0.00    -0.354 N 
ATOM     60  N   UNL A   1      41.849  29.083  30.955  1.00  0.00    -0.248 NA
ATOM     61  C   UNL A   1      42.541  27.084  29.964  1.00  0.00     0.031 C 
ATOM     62  C   UNL A   1      44.047  31.156  34.204  1.00  0.00     0.029 A 
ATOM     63  C   UNL A   1      43.375  30.482  33.196  1.00  0.00     0.049 A 
ATOM     64  H   UNL A   1      41.603  31.021  32.186  1.00  0.00     0.167 HD
ATOM     65  C   UNL A   1      43.016  28.649  31.569  1.00  0.00     0.074 A 
ATOM     66  C   UNL A   1      43.381  27.396  30.941  1.00  0.00     0.031 C 
ATOM     67  C   UNL A   1      43.720  29.234  32.569  1.00  0.00     0.031 A 
BRANCH  54  68
ATOM     68  C   UNL A   1      41.326  34.583  34.521  1.00  0.00    -0.014 A 
ATOM     69  C   UNL A   1      42.075  35.708  34.139  1.00  0.00     0.009 A 
ATOM     70  C   UNL A   1      40.663  34.597  35.757  1.00  0.00     0.009 A 
ATOM     71  C   UNL A   1      42.191  36.804  34.996  1.00  0.00     0.001 A 
ATOM     72  C   UNL A   1      40.757  35.707  36.599  1.00  0.00     0.001 A 
ATOM     73  C   UNL A   1      41.529  36.805  36.223  1.00  0.00     0.000 A 
ENDBRANCH  54  68
BRANCH  55  74
ATOM     74  C   UNL A   1      40.250  26.982  28.160  1.00  0.00    -0.014 A 
ATOM     75  C   UNL A   1      40.830  27.057  26.884  1.00  0.00     0.009 A 
ATOM     76  C   UNL A   1      39.531  25.829  28.512  1.00  0.00     0.009 A 
ATOM     77  C   UNL A   1      40.670  26.013  25.970  1.00  0.00     0.001 A 
ATOM     78  C   UNL A   1      39.395  24.776  27.605  1.00  0.00     0.001 A 
ATOM     79  C   UNL A   1      39.955  24.872  26.333  1.00  0.00     0.000 A 
ENDBRANCH  55  74
BRANCH  67  80
ATOM     80  C   UNL A   1      44.927  28.500  33.080  1.00  0.00    -0.014 A 
ATOM     81  C   UNL A   1      44.830  27.567  34.122  1.00  0.00     0.009 A 
ATOM     82  C   UNL A   1      46.177  28.723  32.479  1.00  0.00     0.009 A 
ATOM     83  C   UNL A   1      45.968  26.897  34.576  1.00  0.00     0.001 A 
ATOM     84  C   UNL A   1      47.306  28.032  32.916  1.00  0.00     0.001 A 
ATOM     85  C   UNL A   1      47.203  27.126  33.971  1.00  0.00     0.000 A 
ENDBRANCH  67  80
ENDBRANCH  41  42
ENDBRANCH  33  36
ENDBRANCH  31  32
ENDBRANCH  30  31
ENDBRANCH   1  30
TORSDOF 15
ENDMDL
