MODEL 1
REMARK VINA RESULT:     -11.7      0.000      0.000
REMARK SMILES Cc1nc(C(=O)NCCCCNC(=O)c2ccc(-c3c4nc(c(-c5ccccc5)c5ccc([nH]5)c(-c5ccccc5)c5nc(c(-c6ccccc6)c6ccc3[nH]6)C=C5)C=C4)cc2)nn1-c1cccc(C(F)(F)F)c1
REMARK SMILES IDX 9 1 8 2 7 3 5 4 6 5 4 7 1 8 2 9 3 10 64 11 63 12 65 13 66 14
REMARK SMILES IDX 74 15 67 16 69 17 68 18 70 19 71 20 72 21 73 22 10 23 11 24
REMARK SMILES IDX 12 25 13 26 14 28 15 29 16 30 62 31 17 32 61 33 18 34 19 35
REMARK SMILES IDX 20 36 55 37 21 38 60 39 54 40 56 41 22 42 59 43 53 44 52 45
REMARK SMILES IDX 23 47 45 48 30 49 44 50 31 51 34 52 43 53 57 54 32 55 33 56
REMARK SMILES IDX 42 58 58 59 35 60 24 61 25 62 29 63 26 64 28 65 27 66 46 67
REMARK SMILES IDX 47 68 51 69 48 70 50 71 49 72 36 73 37 74 41 75 38 76 40 77
REMARK SMILES IDX 39 78
REMARK H PARENT 7 6 12 27 56 46 34 57
REMARK Flexibility Score: inf
ROOT
ATOM      1  C   UNL A   1      36.633  21.084  24.977  1.00  0.00     0.023 C 
ENDROOT
BRANCH   1   2
ATOM      2  C   UNL A   1      35.202  20.538  25.046  1.00  0.00     0.116 C 
BRANCH   2   3
ATOM      3  N   UNL A   1      34.546  20.812  26.315  1.00  0.00    -0.349 N 
ATOM      4  C   UNL A   1      33.646  21.806  26.672  1.00  0.00     0.290 C 
ATOM      5  O   UNL A   1      33.306  21.846  27.857  1.00  0.00    -0.266 OA
ATOM      6  H   UNL A   1      34.779  20.188  27.041  1.00  0.00     0.163 HD
BRANCH   4   7
ATOM      7  C   UNL A   1      33.160  22.785  25.674  1.00  0.00     0.239 A 
ATOM      8  C   UNL A   1      30.823  24.056  23.277  1.00  0.00     0.090 C 
ATOM      9  C   UNL A   1      31.840  23.762  24.315  1.00  0.00     0.130 A 
ATOM     10  N   UNL A   1      31.985  22.621  24.961  1.00  0.00    -0.207 NA
ATOM     11  N   UNL A   1      32.851  24.619  24.698  1.00  0.00    -0.217 N 
ATOM     12  N   UNL A   1      33.807  23.917  25.344  1.00  0.00    -0.140 NA
BRANCH  11  13
ATOM     13  C   UNL A   1      32.936  26.031  24.657  1.00  0.00     0.067 A 
ATOM     14  C   UNL A   1      33.463  26.646  23.513  1.00  0.00     0.028 A 
ATOM     15  C   UNL A   1      32.628  26.798  25.789  1.00  0.00     0.041 A 
ATOM     16  C   UNL A   1      33.640  28.028  23.484  1.00  0.00     0.003 A 
ATOM     17  C   UNL A   1      32.860  28.184  25.783  1.00  0.00     0.058 A 
ATOM     18  C   UNL A   1      33.344  28.792  24.613  1.00  0.00     0.013 A 
BRANCH  17  19
ATOM     19  C   UNL A   1      32.639  29.020  27.022  1.00  0.00     0.416 C 
ATOM     20  F   UNL A   1      31.412  28.813  27.576  1.00  0.00    -0.166 F 
ATOM     21  F   UNL A   1      33.545  28.753  28.000  1.00  0.00    -0.166 F 
ATOM     22  F   UNL A   1      32.721  30.361  26.789  1.00  0.00    -0.166 F 
ENDBRANCH  17  19
ENDBRANCH  11  13
ENDBRANCH   4   7
ENDBRANCH   2   3
ENDBRANCH   1   2
BRANCH   1  23
ATOM     23  C   UNL A   1      37.757  20.044  24.911  1.00  0.00     0.023 C 
BRANCH  23  24
ATOM     24  C   UNL A   1      38.987  20.372  25.749  1.00  0.00     0.116 C 
BRANCH  24  25
ATOM     25  N   UNL A   1      39.994  19.312  25.756  1.00  0.00    -0.352 N 
ATOM     26  C   UNL A   1      41.366  19.457  25.895  1.00  0.00     0.251 C 
ATOM     27  H   UNL A   1      39.661  18.392  25.651  1.00  0.00     0.163 HD
ATOM     28  O   UNL A   1      42.141  18.595  25.524  1.00  0.00    -0.269 OA
BRANCH  26  29
ATOM     29  C   UNL A   1      41.869  20.695  26.520  1.00  0.00     0.039 A 
ATOM     30  C   UNL A   1      42.320  21.771  25.751  1.00  0.00     0.014 A 
ATOM     31  C   UNL A   1      41.817  20.777  27.908  1.00  0.00     0.014 A 
ATOM     32  C   UNL A   1      42.620  22.973  26.393  1.00  0.00     0.010 A 
ATOM     33  C   UNL A   1      41.977  21.996  28.520  1.00  0.00     0.010 A 
ATOM     34  C   UNL A   1      42.415  23.090  27.777  1.00  0.00    -0.014 A 
BRANCH  34  35
ATOM     35  C   UNL A   1      42.481  24.395  28.436  1.00  0.00     0.031 A 
ATOM     36  C   UNL A   1      41.386  25.326  28.047  1.00  0.00     0.074 A 
ATOM     37  C   UNL A   1      43.294  24.653  29.486  1.00  0.00     0.049 A 
ATOM     38  N   UNL A   1      41.492  26.441  27.405  1.00  0.00    -0.248 NA
ATOM     39  C   UNL A   1      39.991  24.907  28.280  1.00  0.00     0.031 C 
ATOM     40  C   UNL A   1      44.186  23.704  30.170  1.00  0.00     0.029 A 
ATOM     41  N   UNL A   1      43.405  25.772  30.260  1.00  0.00    -0.354 N 
ATOM     42  C   UNL A   1      40.206  26.978  27.361  1.00  0.00     0.074 A 
ATOM     43  C   UNL A   1      39.309  25.915  27.730  1.00  0.00     0.031 C 
ATOM     44  C   UNL A   1      44.529  24.194  31.380  1.00  0.00     0.029 A 
ATOM     45  C   UNL A   1      44.051  25.559  31.476  1.00  0.00     0.049 A 
ATOM     46  H   UNL A   1      43.058  26.651  29.985  1.00  0.00     0.167 HD
ATOM     47  C   UNL A   1      40.019  28.327  27.344  1.00  0.00     0.031 A 
ATOM     48  C   UNL A   1      44.196  26.434  32.500  1.00  0.00     0.031 A 
ATOM     49  C   UNL A   1      41.256  29.017  27.078  1.00  0.00     0.049 A 
ATOM     50  C   UNL A   1      44.014  27.791  31.955  1.00  0.00     0.074 A 
ATOM     51  C   UNL A   1      42.075  29.239  25.996  1.00  0.00     0.029 A 
ATOM     52  N   UNL A   1      41.985  29.268  28.209  1.00  0.00    -0.354 N 
ATOM     53  N   UNL A   1      44.845  28.334  31.113  1.00  0.00    -0.248 NA
ATOM     54  C   UNL A   1      42.718  28.447  32.070  1.00  0.00     0.031 C 
ATOM     55  C   UNL A   1      43.385  29.434  26.533  1.00  0.00     0.029 A 
ATOM     56  C   UNL A   1      43.316  29.382  27.924  1.00  0.00     0.049 A 
ATOM     57  H   UNL A   1      41.600  29.356  29.111  1.00  0.00     0.167 HD
ATOM     58  C   UNL A   1      44.037  29.084  30.282  1.00  0.00     0.074 A 
ATOM     59  C   UNL A   1      42.797  29.274  31.023  1.00  0.00     0.031 C 
ATOM     60  C   UNL A   1      44.318  29.194  28.952  1.00  0.00     0.031 A 
BRANCH  47  61
ATOM     61  C   UNL A   1      38.914  29.036  28.106  1.00  0.00    -0.014 A 
ATOM     62  C   UNL A   1      38.763  28.756  29.479  1.00  0.00     0.009 A 
ATOM     63  C   UNL A   1      37.838  29.696  27.482  1.00  0.00     0.009 A 
ATOM     64  C   UNL A   1      37.578  29.056  30.165  1.00  0.00     0.001 A 
ATOM     65  C   UNL A   1      36.666  30.027  28.171  1.00  0.00     0.001 A 
ATOM     66  C   UNL A   1      36.526  29.684  29.507  1.00  0.00     0.000 A 
ENDBRANCH  47  61
BRANCH  48  67
ATOM     67  C   UNL A   1      44.338  26.190  33.949  1.00  0.00    -0.014 A 
ATOM     68  C   UNL A   1      43.239  25.788  34.724  1.00  0.00     0.009 A 
ATOM     69  C   UNL A   1      45.620  26.074  34.514  1.00  0.00     0.009 A 
ATOM     70  C   UNL A   1      43.420  25.243  36.002  1.00  0.00     0.001 A 
ATOM     71  C   UNL A   1      45.801  25.527  35.790  1.00  0.00     0.001 A 
ATOM     72  C   UNL A   1      44.703  25.096  36.527  1.00  0.00     0.000 A 
ENDBRANCH  48  67
BRANCH  60  73
ATOM     73  C   UNL A   1      45.729  28.922  28.514  1.00  0.00    -0.014 A 
ATOM     74  C   UNL A   1      46.758  29.876  28.545  1.00  0.00     0.009 A 
ATOM     75  C   UNL A   1      46.041  27.611  28.124  1.00  0.00     0.009 A 
ATOM     76  C   UNL A   1      48.060  29.529  28.168  1.00  0.00     0.001 A 
ATOM     77  C   UNL A   1      47.343  27.260  27.769  1.00  0.00     0.001 A 
ATOM     78  C   UNL A   1      48.351  28.220  27.784  1.00  0.00     0.000 A 
ENDBRANCH  60  73
ENDBRANCH  34  35
ENDBRANCH  26  29
ENDBRANCH  24  25
ENDBRANCH  23  24
ENDBRANCH   1  23
TORSDOF 13
ENDMDL
MODEL 2
REMARK VINA RESULT:     -11.5      5.061      9.677
REMARK SMILES Cc1nc(C(=O)NCCCCNC(=O)c2ccc(-c3c4nc(c(-c5ccccc5)c5ccc([nH]5)c(-c5ccccc5)c5nc(c(-c6ccccc6)c6ccc3[nH]6)C=C5)C=C4)cc2)nn1-c1cccc(C(F)(F)F)c1
REMARK SMILES IDX 9 1 8 2 7 3 5 4 6 5 4 7 1 8 2 9 3 10 64 11 63 12 65 13 66 14
REMARK SMILES IDX 74 15 67 16 69 17 68 18 70 19 71 20 72 21 73 22 10 23 11 24
REMARK SMILES IDX 12 25 13 26 14 28 15 29 16 30 62 31 17 32 61 33 18 34 19 35
REMARK SMILES IDX 20 36 55 37 21 38 60 39 54 40 56 41 22 42 59 43 53 44 52 45
REMARK SMILES IDX 23 47 45 48 30 49 44 50 31 51 34 52 43 53 57 54 32 55 33 56
REMARK SMILES IDX 42 58 58 59 35 60 24 61 25 62 29 63 26 64 28 65 27 66 46 67
REMARK SMILES IDX 47 68 51 69 48 70 50 71 49 72 36 73 37 74 41 75 38 76 40 77
REMARK SMILES IDX 39 78
REMARK H PARENT 7 6 12 27 56 46 34 57
REMARK Flexibility Score: inf
ROOT
ATOM      1  C   UNL A   1      33.978  33.483  28.383  1.00  0.00     0.023 C 
ENDROOT
BRANCH   1   2
ATOM      2  C   UNL A   1      33.447  32.245  27.652  1.00  0.00     0.116 C 
BRANCH   2   3
ATOM      3  N   UNL A   1      34.113  31.015  28.054  1.00  0.00    -0.349 N 
ATOM      4  C   UNL A   1      34.222  29.793  27.406  1.00  0.00     0.290 C 
ATOM      5  O   UNL A   1      34.788  28.887  28.023  1.00  0.00    -0.266 OA
ATOM      6  H   UNL A   1      34.562  31.058  28.930  1.00  0.00     0.163 HD
BRANCH   4   7
ATOM      7  C   UNL A   1      33.645  29.593  26.057  1.00  0.00     0.239 A 
ATOM      8  C   UNL A   1      33.550  28.180  22.768  1.00  0.00     0.090 C 
ATOM      9  C   UNL A   1      33.349  28.763  24.116  1.00  0.00     0.130 A 
ATOM     10  N   UNL A   1      34.239  28.803  25.089  1.00  0.00    -0.207 NA
ATOM     11  N   UNL A   1      32.217  29.437  24.526  1.00  0.00    -0.217 N 
ATOM     12  N   UNL A   1      32.506  30.164  25.627  1.00  0.00    -0.140 NA
BRANCH  11  13
ATOM     13  C   UNL A   1      30.874  29.346  24.088  1.00  0.00     0.067 A 
ATOM     14  C   UNL A   1      30.385  28.108  23.651  1.00  0.00     0.028 A 
ATOM     15  C   UNL A   1      30.086  30.498  23.962  1.00  0.00     0.041 A 
ATOM     16  C   UNL A   1      29.095  28.013  23.131  1.00  0.00     0.003 A 
ATOM     17  C   UNL A   1      28.806  30.415  23.385  1.00  0.00     0.058 A 
ATOM     18  C   UNL A   1      28.312  29.160  22.995  1.00  0.00     0.013 A 
BRANCH  17  19
ATOM     19  C   UNL A   1      27.977  31.653  23.137  1.00  0.00     0.416 C 
ATOM     20  F   UNL A   1      28.611  32.791  23.535  1.00  0.00    -0.166 F 
ATOM     21  F   UNL A   1      27.677  31.827  21.822  1.00  0.00    -0.166 F 
ATOM     22  F   UNL A   1      26.784  31.643  23.797  1.00  0.00    -0.166 F 
ENDBRANCH  17  19
ENDBRANCH  11  13
ENDBRANCH   4   7
ENDBRANCH   2   3
ENDBRANCH   1   2
BRANCH   1  23
ATOM     23  C   UNL A   1      32.970  34.610  28.637  1.00  0.00     0.023 C 
BRANCH  23  24
ATOM     24  C   UNL A   1      33.500  35.772  29.468  1.00  0.00     0.116 C 
BRANCH  24  25
ATOM     25  N   UNL A   1      32.765  35.987  30.715  1.00  0.00    -0.352 N 
ATOM     26  C   UNL A   1      32.891  35.275  31.898  1.00  0.00     0.251 C 
ATOM     27  H   UNL A   1      32.108  36.719  30.713  1.00  0.00     0.163 HD
ATOM     28  O   UNL A   1      32.009  35.269  32.737  1.00  0.00    -0.269 OA
BRANCH  26  29
ATOM     29  C   UNL A   1      34.141  34.523  32.121  1.00  0.00     0.039 A 
ATOM     30  C   UNL A   1      34.201  33.138  31.951  1.00  0.00     0.014 A 
ATOM     31  C   UNL A   1      35.278  35.256  32.447  1.00  0.00     0.014 A 
ATOM     32  C   UNL A   1      35.445  32.510  32.008  1.00  0.00     0.010 A 
ATOM     33  C   UNL A   1      36.512  34.661  32.365  1.00  0.00     0.010 A 
ATOM     34  C   UNL A   1      36.604  33.283  32.183  1.00  0.00    -0.014 A 
BRANCH  34  35
ATOM     35  C   UNL A   1      37.931  32.693  32.002  1.00  0.00     0.031 A 
ATOM     36  C   UNL A   1      38.724  32.589  33.259  1.00  0.00     0.074 A 
ATOM     37  C   UNL A   1      38.313  32.065  30.867  1.00  0.00     0.049 A 
ATOM     38  N   UNL A   1      39.821  33.205  33.551  1.00  0.00    -0.248 NA
ATOM     39  C   UNL A   1      38.165  31.811  34.380  1.00  0.00     0.031 C 
ATOM     40  C   UNL A   1      37.491  31.817  29.672  1.00  0.00     0.029 A 
ATOM     41  N   UNL A   1      39.464  31.390  30.577  1.00  0.00    -0.354 N 
ATOM     42  C   UNL A   1      40.214  32.712  34.794  1.00  0.00     0.074 A 
ATOM     43  C   UNL A   1      39.073  32.022  35.336  1.00  0.00     0.031 C 
ATOM     44  C   UNL A   1      38.057  30.847  28.923  1.00  0.00     0.029 A 
ATOM     45  C   UNL A   1      39.364  30.548  29.472  1.00  0.00     0.049 A 
ATOM     46  H   UNL A   1      40.290  31.489  31.103  1.00  0.00     0.167 HD
ATOM     47  C   UNL A   1      41.533  32.635  35.123  1.00  0.00     0.031 A 
ATOM     48  C   UNL A   1      40.286  29.662  29.022  1.00  0.00     0.031 A 
ATOM     49  C   UNL A   1      42.342  33.375  34.189  1.00  0.00     0.049 A 
ATOM     50  C   UNL A   1      41.595  30.069  29.563  1.00  0.00     0.074 A 
ATOM     51  C   UNL A   1      42.614  34.695  33.913  1.00  0.00     0.029 A 
ATOM     52  N   UNL A   1      42.711  32.638  33.095  1.00  0.00    -0.354 N 
ATOM     53  N   UNL A   1      42.195  31.170  29.214  1.00  0.00    -0.248 NA
ATOM     54  C   UNL A   1      42.111  29.426  30.764  1.00  0.00     0.031 C 
ATOM     55  C   UNL A   1      42.968  34.738  32.529  1.00  0.00     0.029 A 
ATOM     56  C   UNL A   1      42.958  33.441  32.018  1.00  0.00     0.049 A 
ATOM     57  H   UNL A   1      42.788  31.657  33.086  1.00  0.00     0.167 HD
ATOM     58  C   UNL A   1      42.823  31.588  30.370  1.00  0.00     0.074 A 
ATOM     59  C   UNL A   1      42.904  30.402  31.213  1.00  0.00     0.031 C 
ATOM     60  C   UNL A   1      42.916  32.916  30.670  1.00  0.00     0.031 A 
BRANCH  47  61
ATOM     61  C   UNL A   1      42.144  31.479  35.894  1.00  0.00    -0.014 A 
ATOM     62  C   UNL A   1      42.899  31.771  37.049  1.00  0.00     0.009 A 
ATOM     63  C   UNL A   1      42.285  30.181  35.369  1.00  0.00     0.009 A 
ATOM     64  C   UNL A   1      43.791  30.841  37.598  1.00  0.00     0.001 A 
ATOM     65  C   UNL A   1      43.150  29.238  35.935  1.00  0.00     0.001 A 
ATOM     66  C   UNL A   1      43.923  29.576  37.035  1.00  0.00     0.000 A 
ENDBRANCH  47  61
BRANCH  48  67
ATOM     67  C   UNL A   1      40.110  28.401  28.275  1.00  0.00    -0.014 A 
ATOM     68  C   UNL A   1      40.735  28.205  27.033  1.00  0.00     0.009 A 
ATOM     69  C   UNL A   1      39.561  27.279  28.920  1.00  0.00     0.009 A 
ATOM     70  C   UNL A   1      40.850  26.923  26.480  1.00  0.00     0.001 A 
ATOM     71  C   UNL A   1      39.678  25.998  28.368  1.00  0.00     0.001 A 
ATOM     72  C   UNL A   1      40.337  25.818  27.156  1.00  0.00     0.000 A 
ENDBRANCH  48  67
BRANCH  60  73
ATOM     73  C   UNL A   1      42.783  33.896  29.539  1.00  0.00    -0.014 A 
ATOM     74  C   UNL A   1      43.740  34.058  28.525  1.00  0.00     0.009 A 
ATOM     75  C   UNL A   1      41.592  34.632  29.463  1.00  0.00     0.009 A 
ATOM     76  C   UNL A   1      43.518  34.958  27.477  1.00  0.00     0.001 A 
ATOM     77  C   UNL A   1      41.361  35.513  28.406  1.00  0.00     0.001 A 
ATOM     78  C   UNL A   1      42.327  35.681  27.417  1.00  0.00     0.000 A 
ENDBRANCH  60  73
ENDBRANCH  34  35
ENDBRANCH  26  29
ENDBRANCH  24  25
ENDBRANCH  23  24
ENDBRANCH   1  23
TORSDOF 13
ENDMDL
MODEL 3
REMARK VINA RESULT:     -11.5      3.172      7.784
REMARK SMILES Cc1nc(C(=O)NCCCCNC(=O)c2ccc(-c3c4nc(c(-c5ccccc5)c5ccc([nH]5)c(-c5ccccc5)c5nc(c(-c6ccccc6)c6ccc3[nH]6)C=C5)C=C4)cc2)nn1-c1cccc(C(F)(F)F)c1
REMARK SMILES IDX 9 1 8 2 7 3 5 4 6 5 4 7 1 8 2 9 3 10 64 11 63 12 65 13 66 14
REMARK SMILES IDX 74 15 67 16 69 17 68 18 70 19 71 20 72 21 73 22 10 23 11 24
REMARK SMILES IDX 12 25 13 26 14 28 15 29 16 30 62 31 17 32 61 33 18 34 19 35
REMARK SMILES IDX 20 36 55 37 21 38 60 39 54 40 56 41 22 42 59 43 53 44 52 45
REMARK SMILES IDX 23 47 45 48 30 49 44 50 31 51 34 52 43 53 57 54 32 55 33 56
REMARK SMILES IDX 42 58 58 59 35 60 24 61 25 62 29 63 26 64 28 65 27 66 46 67
REMARK SMILES IDX 47 68 51 69 48 70 50 71 49 72 36 73 37 74 41 75 38 76 40 77
REMARK SMILES IDX 39 78
REMARK H PARENT 7 6 12 27 56 46 34 57
REMARK Flexibility Score: inf
ROOT
ATOM      1  C   UNL A   1      35.358  29.688  27.427  1.00  0.00     0.023 C 
ENDROOT
BRANCH   1   2
ATOM      2  C   UNL A   1      34.413  28.631  26.845  1.00  0.00     0.116 C 
BRANCH   2   3
ATOM      3  N   UNL A   1      33.146  28.545  27.555  1.00  0.00    -0.349 N 
ATOM      4  C   UNL A   1      32.014  27.785  27.296  1.00  0.00     0.290 C 
ATOM      5  O   UNL A   1      31.041  27.972  28.031  1.00  0.00    -0.266 OA
ATOM      6  H   UNL A   1      33.081  29.121  28.352  1.00  0.00     0.163 HD
BRANCH   4   7
ATOM      7  C   UNL A   1      31.981  26.831  26.164  1.00  0.00     0.239 A 
ATOM      8  C   UNL A   1      31.633  25.931  22.716  1.00  0.00     0.090 C 
ATOM      9  C   UNL A   1      31.930  26.118  24.156  1.00  0.00     0.130 A 
ATOM     10  N   UNL A   1      31.710  27.211  24.861  1.00  0.00    -0.207 NA
ATOM     11  N   UNL A   1      32.405  25.136  25.001  1.00  0.00    -0.217 N 
ATOM     12  N   UNL A   1      32.190  25.508  26.281  1.00  0.00    -0.140 NA
BRANCH  11  13
ATOM     13  C   UNL A   1      33.168  23.973  24.736  1.00  0.00     0.067 A 
ATOM     14  C   UNL A   1      32.578  22.717  24.925  1.00  0.00     0.028 A 
ATOM     15  C   UNL A   1      34.530  24.070  24.423  1.00  0.00     0.041 A 
ATOM     16  C   UNL A   1      33.335  21.559  24.757  1.00  0.00     0.003 A 
ATOM     17  C   UNL A   1      35.311  22.906  24.310  1.00  0.00     0.058 A 
ATOM     18  C   UNL A   1      34.694  21.653  24.455  1.00  0.00     0.013 A 
BRANCH  17  19
ATOM     19  C   UNL A   1      36.802  22.982  24.080  1.00  0.00     0.416 C 
ATOM     20  F   UNL A   1      37.431  21.808  24.363  1.00  0.00    -0.166 F 
ATOM     21  F   UNL A   1      37.116  23.278  22.790  1.00  0.00    -0.166 F 
ATOM     22  F   UNL A   1      37.418  23.927  24.844  1.00  0.00    -0.166 F 
ENDBRANCH  17  19
ENDBRANCH  11  13
ENDBRANCH   4   7
ENDBRANCH   2   3
ENDBRANCH   1   2
BRANCH   1  23
ATOM     23  C   UNL A   1      34.744  31.062  27.722  1.00  0.00     0.023 C 
BRANCH  23  24
ATOM     24  C   UNL A   1      35.715  32.091  28.289  1.00  0.00     0.116 C 
BRANCH  24  25
ATOM     25  N   UNL A   1      35.265  32.697  29.542  1.00  0.00    -0.352 N 
ATOM     26  C   UNL A   1      35.486  32.230  30.828  1.00  0.00     0.251 C 
ATOM     27  H   UNL A   1      34.748  33.531  29.463  1.00  0.00     0.163 HD
ATOM     28  O   UNL A   1      34.783  32.570  31.762  1.00  0.00    -0.269 OA
BRANCH  26  29
ATOM     29  C   UNL A   1      36.614  31.303  31.042  1.00  0.00     0.039 A 
ATOM     30  C   UNL A   1      36.436  29.918  31.021  1.00  0.00     0.014 A 
ATOM     31  C   UNL A   1      37.878  31.862  31.202  1.00  0.00     0.014 A 
ATOM     32  C   UNL A   1      37.564  29.097  31.057  1.00  0.00     0.010 A 
ATOM     33  C   UNL A   1      38.989  31.063  31.097  1.00  0.00     0.010 A 
ATOM     34  C   UNL A   1      38.843  29.678  31.061  1.00  0.00    -0.014 A 
BRANCH  34  35
ATOM     35  C   UNL A   1      40.037  28.859  30.850  1.00  0.00     0.031 A 
ATOM     36  C   UNL A   1      40.813  28.589  32.093  1.00  0.00     0.074 A 
ATOM     37  C   UNL A   1      40.283  28.191  29.700  1.00  0.00     0.049 A 
ATOM     38  N   UNL A   1      42.008  28.988  32.377  1.00  0.00    -0.248 NA
ATOM     39  C   UNL A   1      40.135  27.906  33.210  1.00  0.00     0.031 C 
ATOM     40  C   UNL A   1      39.414  28.119  28.515  1.00  0.00     0.029 A 
ATOM     41  N   UNL A   1      41.287  27.322  29.382  1.00  0.00    -0.354 N 
ATOM     42  C   UNL A   1      42.320  28.410  33.606  1.00  0.00     0.074 A 
ATOM     43  C   UNL A   1      41.079  27.930  34.155  1.00  0.00     0.031 C 
ATOM     44  C   UNL A   1      39.783  27.076  27.742  1.00  0.00     0.029 A 
ATOM     45  C   UNL A   1      41.021  26.532  28.266  1.00  0.00     0.049 A 
ATOM     46  H   UNL A   1      42.124  27.259  29.896  1.00  0.00     0.167 HD
ATOM     47  C   UNL A   1      43.607  28.086  33.913  1.00  0.00     0.031 A 
ATOM     48  C   UNL A   1      41.758  25.501  27.788  1.00  0.00     0.031 A 
ATOM     49  C   UNL A   1      44.526  28.683  32.978  1.00  0.00     0.049 A 
ATOM     50  C   UNL A   1      43.127  25.651  28.315  1.00  0.00     0.074 A 
ATOM     51  C   UNL A   1      45.031  29.935  32.717  1.00  0.00     0.029 A 
ATOM     52  N   UNL A   1      44.739  27.910  31.867  1.00  0.00    -0.354 N 
ATOM     53  N   UNL A   1      43.914  26.630  27.973  1.00  0.00    -0.248 NA
ATOM     54  C   UNL A   1      43.531  24.904  29.498  1.00  0.00     0.031 C 
ATOM     55  C   UNL A   1      45.370  29.937  31.330  1.00  0.00     0.029 A 
ATOM     56  C   UNL A   1      45.116  28.673  30.799  1.00  0.00     0.049 A 
ATOM     57  H   UNL A   1      44.635  26.931  31.843  1.00  0.00     0.167 HD
ATOM     58  C   UNL A   1      44.622  26.906  29.126  1.00  0.00     0.074 A 
ATOM     59  C   UNL A   1      44.496  25.710  29.949  1.00  0.00     0.031 C 
ATOM     60  C   UNL A   1      44.961  28.189  29.444  1.00  0.00     0.031 A 
BRANCH  47  61
ATOM     61  C   UNL A   1      44.005  26.825  34.657  1.00  0.00    -0.014 A 
ATOM     62  C   UNL A   1      43.738  25.580  34.052  1.00  0.00     0.009 A 
ATOM     63  C   UNL A   1      44.322  26.797  36.028  1.00  0.00     0.009 A 
ATOM     64  C   UNL A   1      43.720  24.391  34.794  1.00  0.00     0.001 A 
ATOM     65  C   UNL A   1      44.338  25.608  36.766  1.00  0.00     0.001 A 
ATOM     66  C   UNL A   1      44.011  24.407  36.154  1.00  0.00     0.000 A 
ENDBRANCH  47  61
BRANCH  48  67
ATOM     67  C   UNL A   1      41.345  24.307  27.025  1.00  0.00    -0.014 A 
ATOM     68  C   UNL A   1      42.280  23.564  26.285  1.00  0.00     0.009 A 
ATOM     69  C   UNL A   1      40.084  23.732  27.259  1.00  0.00     0.009 A 
ATOM     70  C   UNL A   1      41.979  22.271  25.838  1.00  0.00     0.001 A 
ATOM     71  C   UNL A   1      39.785  22.438  26.814  1.00  0.00     0.001 A 
ATOM     72  C   UNL A   1      40.738  21.702  26.118  1.00  0.00     0.000 A 
ENDBRANCH  48  67
BRANCH  60  73
ATOM     73  C   UNL A   1      44.995  29.196  28.330  1.00  0.00    -0.014 A 
ATOM     74  C   UNL A   1      43.907  30.008  27.974  1.00  0.00     0.009 A 
ATOM     75  C   UNL A   1      46.216  29.378  27.664  1.00  0.00     0.009 A 
ATOM     76  C   UNL A   1      44.035  30.959  26.956  1.00  0.00     0.001 A 
ATOM     77  C   UNL A   1      46.349  30.341  26.664  1.00  0.00     0.001 A 
ATOM     78  C   UNL A   1      45.257  31.127  26.305  1.00  0.00     0.000 A 
ENDBRANCH  60  73
ENDBRANCH  34  35
ENDBRANCH  26  29
ENDBRANCH  24  25
ENDBRANCH  23  24
ENDBRANCH   1  23
TORSDOF 13
ENDMDL
