MODEL 1
REMARK VINA RESULT:     -13.8      0.000      0.000
REMARK SMILES Cc1ccc(NC(=O)c2ccccc2NC(=O)[C@H]2CCCC[C@H]2C(=O)NCCCCNC(=O)c2ccc(-c3c4nc(c(-c5ccccc5)c5ccc([nH]5)c(-c5ccccc5)c5nc(c(-c6ccccc6)c6ccc3[nH]6)C=C5)C=C4)cc2)cc1
REMARK SMILES IDX 27 1 26 2 24 3 25 4 23 6 18 7 19 8 20 9 22 10 21 11 16 12
REMARK SMILES IDX 15 13 17 15 14 16 9 17 10 18 11 19 13 20 12 21 7 22 6 23
REMARK SMILES IDX 8 25 5 26 1 27 2 28 3 29 83 30 4 31 82 32 28 33 29 34 30 35
REMARK SMILES IDX 31 36 32 37 33 39 34 40 35 41 81 42 36 43 80 44 37 45 38 46
REMARK SMILES IDX 39 47 74 48 40 49 79 50 73 51 75 52 41 53 78 54 72 55 71 56
REMARK SMILES IDX 42 58 64 59 49 60 63 61 50 62 53 63 62 64 76 65 51 66 52 67
REMARK SMILES IDX 61 69 77 70 54 71 43 72 44 73 48 74 45 75 47 76 46 77 65 78
REMARK SMILES IDX 66 79 70 80 67 81 69 82 68 83 55 84 56 85 60 86 57 87 59 88
REMARK SMILES IDX 58 89
REMARK H PARENT 26 5 15 14 6 24 31 38 75 57 53 68
REMARK Flexibility Score: inf
ROOT
ATOM      1  C   UNL A   1      34.988  29.361  27.426  1.00  0.00     0.116 C 
ENDROOT
BRANCH   1   2
ATOM      2  N   UNL A   1      33.630  28.932  27.728  1.00  0.00    -0.356 N 
ATOM      3  C   UNL A   1      32.547  28.647  26.968  1.00  0.00     0.223 C 
ATOM      4  O   UNL A   1      31.486  28.492  27.588  1.00  0.00    -0.275 OA
ATOM      5  H   UNL A   1      33.464  28.827  28.693  1.00  0.00     0.163 HD
BRANCH   3   6
ATOM      6  C   UNL A   1      32.518  28.533  25.439  1.00  0.00     0.091 C 
ATOM      7  C   UNL A   1      33.276  27.310  24.878  1.00  0.00     0.091 C 
ATOM      8  C   UNL A   1      33.383  27.385  23.341  1.00  0.00     0.014 C 
ATOM      9  C   UNL A   1      32.058  27.728  22.647  1.00  0.00     0.001 C 
ATOM     10  C   UNL A   1      31.205  28.878  24.736  1.00  0.00     0.014 C 
ATOM     11  C   UNL A   1      31.411  28.985  23.223  1.00  0.00     0.001 C 
BRANCH   7  12
ATOM     12  C   UNL A   1      32.620  25.996  25.222  1.00  0.00     0.228 C 
ATOM     13  N   UNL A   1      33.234  24.786  25.183  1.00  0.00    -0.325 N 
ATOM     14  H   UNL A   1      32.653  24.096  25.575  1.00  0.00     0.169 HD
ATOM     15  O   UNL A   1      31.447  25.983  25.618  1.00  0.00    -0.274 OA
BRANCH  13  16
ATOM     16  C   UNL A   1      34.445  24.218  24.753  1.00  0.00     0.054 A 
ATOM     17  C   UNL A   1      34.543  23.652  23.450  1.00  0.00     0.063 A 
ATOM     18  C   UNL A   1      35.741  23.003  23.072  1.00  0.00     0.016 A 
ATOM     19  C   UNL A   1      36.834  22.938  23.929  1.00  0.00     0.001 A 
ATOM     20  C   UNL A   1      35.585  24.203  25.566  1.00  0.00     0.027 A 
ATOM     21  C   UNL A   1      36.758  23.551  25.170  1.00  0.00     0.002 A 
BRANCH  17  22
ATOM     22  C   UNL A   1      33.450  23.468  22.442  1.00  0.00     0.257 C 
ATOM     23  N   UNL A   1      32.591  22.399  22.330  1.00  0.00    -0.322 N 
ATOM     24  H   UNL A   1      32.026  22.453  21.526  1.00  0.00     0.170 HD
ATOM     25  O   UNL A   1      33.331  24.343  21.575  1.00  0.00    -0.269 OA
BRANCH  23  26
ATOM     26  C   UNL A   1      32.335  21.255  23.091  1.00  0.00     0.041 A 
ATOM     27  C   UNL A   1      32.854  17.485  25.052  1.00  0.00     0.044 C 
ATOM     28  C   UNL A   1      32.518  18.784  24.384  1.00  0.00    -0.051 A 
ATOM     29  C   UNL A   1      32.509  19.975  25.123  1.00  0.00     0.005 A 
ATOM     30  C   UNL A   1      32.286  18.837  23.009  1.00  0.00     0.005 A 
ATOM     31  C   UNL A   1      32.402  21.211  24.479  1.00  0.00     0.026 A 
ATOM     32  C   UNL A   1      32.163  20.068  22.368  1.00  0.00     0.026 A 
ENDBRANCH  23  26
ENDBRANCH  17  22
ENDBRANCH  13  16
ENDBRANCH   7  12
ENDBRANCH   3   6
ENDBRANCH   1   2
BRANCH   1  33
ATOM     33  C   UNL A   1      35.087  30.888  27.418  1.00  0.00     0.023 C 
BRANCH  33  34
ATOM     34  C   UNL A   1      34.172  31.663  28.345  1.00  0.00     0.023 C 
BRANCH  34  35
ATOM     35  C   UNL A   1      34.787  32.927  28.900  1.00  0.00     0.116 C 
BRANCH  35  36
ATOM     36  N   UNL A   1      33.849  33.895  29.463  1.00  0.00    -0.352 N 
ATOM     37  C   UNL A   1      33.711  34.334  30.778  1.00  0.00     0.251 C 
ATOM     38  H   UNL A   1      33.222  34.295  28.818  1.00  0.00     0.163 HD
ATOM     39  O   UNL A   1      32.855  35.146  31.064  1.00  0.00    -0.269 OA
BRANCH  37  40
ATOM     40  C   UNL A   1      34.736  33.930  31.787  1.00  0.00     0.039 A 
ATOM     41  C   UNL A   1      35.859  34.755  31.912  1.00  0.00     0.014 A 
ATOM     42  C   UNL A   1      34.787  32.623  32.240  1.00  0.00     0.014 A 
ATOM     43  C   UNL A   1      37.100  34.164  32.136  1.00  0.00     0.010 A 
ATOM     44  C   UNL A   1      36.021  32.012  32.257  1.00  0.00     0.010 A 
ATOM     45  C   UNL A   1      37.183  32.775  32.131  1.00  0.00    -0.014 A 
BRANCH  45  46
ATOM     46  C   UNL A   1      38.423  32.046  31.878  1.00  0.00     0.031 A 
ATOM     47  C   UNL A   1      38.373  30.757  31.141  1.00  0.00     0.074 A 
ATOM     48  C   UNL A   1      39.620  32.556  32.259  1.00  0.00     0.049 A 
ATOM     49  N   UNL A   1      39.261  29.827  31.249  1.00  0.00    -0.248 NA
ATOM     50  C   UNL A   1      37.277  30.387  30.249  1.00  0.00     0.031 C 
ATOM     51  C   UNL A   1      40.943  32.053  31.876  1.00  0.00     0.029 A 
ATOM     52  N   UNL A   1      39.942  33.557  33.173  1.00  0.00    -0.354 N 
ATOM     53  C   UNL A   1      39.029  28.908  30.251  1.00  0.00     0.074 A 
ATOM     54  C   UNL A   1      37.737  29.254  29.714  1.00  0.00     0.031 C 
ATOM     55  C   UNL A   1      41.848  32.492  32.766  1.00  0.00     0.029 A 
ATOM     56  C   UNL A   1      41.116  33.160  33.824  1.00  0.00     0.049 A 
ATOM     57  H   UNL A   1      39.438  34.387  33.331  1.00  0.00     0.167 HD
ATOM     58  C   UNL A   1      40.016  28.039  29.897  1.00  0.00     0.031 A 
ATOM     59  C   UNL A   1      41.212  32.844  35.151  1.00  0.00     0.031 A 
ATOM     60  C   UNL A   1      41.184  28.167  30.766  1.00  0.00     0.049 A 
ATOM     61  C   UNL A   1      41.703  31.422  35.396  1.00  0.00     0.074 A 
ATOM     62  C   UNL A   1      42.413  28.786  30.611  1.00  0.00     0.029 A 
ATOM     63  N   UNL A   1      41.062  27.866  32.118  1.00  0.00    -0.354 N 
ATOM     64  N   UNL A   1      41.740  30.500  34.473  1.00  0.00    -0.248 NA
ATOM     65  C   UNL A   1      42.130  30.907  36.699  1.00  0.00     0.031 C 
ATOM     66  C   UNL A   1      43.002  28.921  31.896  1.00  0.00     0.029 A 
ATOM     67  C   UNL A   1      42.144  28.356  32.823  1.00  0.00     0.049 A 
ATOM     68  H   UNL A   1      40.309  27.374  32.516  1.00  0.00     0.167 HD
ATOM     69  C   UNL A   1      42.150  29.310  35.015  1.00  0.00     0.074 A 
ATOM     70  C   UNL A   1      42.397  29.619  36.411  1.00  0.00     0.031 C 
ATOM     71  C   UNL A   1      42.224  28.170  34.267  1.00  0.00     0.031 A 
BRANCH  58  72
ATOM     72  C   UNL A   1      40.031  27.273  28.592  1.00  0.00    -0.014 A 
ATOM     73  C   UNL A   1      39.374  26.031  28.511  1.00  0.00     0.009 A 
ATOM     74  C   UNL A   1      40.715  27.675  27.432  1.00  0.00     0.009 A 
ATOM     75  C   UNL A   1      39.477  25.204  27.383  1.00  0.00     0.001 A 
ATOM     76  C   UNL A   1      40.854  26.840  26.314  1.00  0.00     0.001 A 
ATOM     77  C   UNL A   1      40.242  25.597  26.294  1.00  0.00     0.000 A 
ENDBRANCH  58  72
BRANCH  59  78
ATOM     78  C   UNL A   1      40.257  33.565  36.031  1.00  0.00    -0.014 A 
ATOM     79  C   UNL A   1      39.032  32.942  36.332  1.00  0.00     0.009 A 
ATOM     80  C   UNL A   1      40.684  34.631  36.834  1.00  0.00     0.009 A 
ATOM     81  C   UNL A   1      38.321  33.285  37.486  1.00  0.00     0.001 A 
ATOM     82  C   UNL A   1      39.965  34.976  37.985  1.00  0.00     0.001 A 
ATOM     83  C   UNL A   1      38.809  34.277  38.332  1.00  0.00     0.000 A 
ENDBRANCH  59  78
BRANCH  71  84
ATOM     84  C   UNL A   1      42.431  26.769  34.791  1.00  0.00    -0.014 A 
ATOM     85  C   UNL A   1      41.581  26.131  35.701  1.00  0.00     0.009 A 
ATOM     86  C   UNL A   1      43.464  25.980  34.231  1.00  0.00     0.009 A 
ATOM     87  C   UNL A   1      41.774  24.789  36.063  1.00  0.00     0.001 A 
ATOM     88  C   UNL A   1      43.632  24.632  34.552  1.00  0.00     0.001 A 
ATOM     89  C   UNL A   1      42.791  24.037  35.479  1.00  0.00     0.000 A 
ENDBRANCH  71  84
ENDBRANCH  45  46
ENDBRANCH  37  40
ENDBRANCH  35  36
ENDBRANCH  34  35
ENDBRANCH  33  34
ENDBRANCH   1  33
TORSDOF 15
ENDMDL
MODEL 2
REMARK VINA RESULT:     -13.7      4.683     10.073
REMARK SMILES Cc1ccc(NC(=O)c2ccccc2NC(=O)[C@H]2CCCC[C@H]2C(=O)NCCCCNC(=O)c2ccc(-c3c4nc(c(-c5ccccc5)c5ccc([nH]5)c(-c5ccccc5)c5nc(c(-c6ccccc6)c6ccc3[nH]6)C=C5)C=C4)cc2)cc1
REMARK SMILES IDX 27 1 26 2 24 3 25 4 23 6 18 7 19 8 20 9 22 10 21 11 16 12
REMARK SMILES IDX 15 13 17 15 14 16 9 17 10 18 11 19 13 20 12 21 7 22 6 23
REMARK SMILES IDX 8 25 5 26 1 27 2 28 3 29 83 30 4 31 82 32 28 33 29 34 30 35
REMARK SMILES IDX 31 36 32 37 33 39 34 40 35 41 81 42 36 43 80 44 37 45 38 46
REMARK SMILES IDX 39 47 74 48 40 49 79 50 73 51 75 52 41 53 78 54 72 55 71 56
REMARK SMILES IDX 42 58 64 59 49 60 63 61 50 62 53 63 62 64 76 65 51 66 52 67
REMARK SMILES IDX 61 69 77 70 54 71 43 72 44 73 48 74 45 75 47 76 46 77 65 78
REMARK SMILES IDX 66 79 70 80 67 81 69 82 68 83 55 84 56 85 60 86 57 87 59 88
REMARK SMILES IDX 58 89
REMARK H PARENT 26 5 15 14 6 24 31 38 75 57 53 68
REMARK Flexibility Score: inf
ROOT
ATOM      1  C   UNL A   1      38.283  23.858  26.344  1.00  0.00     0.116 C 
ENDROOT
BRANCH   1   2
ATOM      2  N   UNL A   1      37.835  23.573  24.988  1.00  0.00    -0.356 N 
ATOM      3  C   UNL A   1      36.741  22.965  24.472  1.00  0.00     0.223 C 
ATOM      4  O   UNL A   1      36.786  22.731  23.256  1.00  0.00    -0.275 OA
ATOM      5  H   UNL A   1      38.463  23.890  24.299  1.00  0.00     0.163 HD
BRANCH   3   6
ATOM      6  C   UNL A   1      35.497  22.525  25.251  1.00  0.00     0.091 C 
ATOM      7  C   UNL A   1      34.596  23.688  25.721  1.00  0.00     0.091 C 
ATOM      8  C   UNL A   1      33.493  23.182  26.673  1.00  0.00     0.014 C 
ATOM      9  C   UNL A   1      32.762  21.933  26.161  1.00  0.00     0.001 C 
ATOM     10  C   UNL A   1      34.764  21.278  24.755  1.00  0.00     0.014 C 
ATOM     11  C   UNL A   1      33.727  20.814  25.780  1.00  0.00     0.001 C 
BRANCH   7  12
ATOM     12  C   UNL A   1      33.916  24.409  24.583  1.00  0.00     0.228 C 
ATOM     13  N   UNL A   1      33.347  25.638  24.670  1.00  0.00    -0.325 N 
ATOM     14  H   UNL A   1      33.088  25.957  23.776  1.00  0.00     0.169 HD
ATOM     15  O   UNL A   1      33.893  23.891  23.458  1.00  0.00    -0.274 OA
BRANCH  13  16
ATOM     16  C   UNL A   1      33.016  26.593  25.645  1.00  0.00     0.054 A 
ATOM     17  C   UNL A   1      31.723  26.582  26.242  1.00  0.00     0.063 A 
ATOM     18  C   UNL A   1      31.378  27.608  27.152  1.00  0.00     0.016 A 
ATOM     19  C   UNL A   1      32.285  28.603  27.502  1.00  0.00     0.001 A 
ATOM     20  C   UNL A   1      33.931  27.563  26.071  1.00  0.00     0.027 A 
ATOM     21  C   UNL A   1      33.564  28.570  26.972  1.00  0.00     0.002 A 
BRANCH  17  22
ATOM     22  C   UNL A   1      30.555  25.713  25.891  1.00  0.00     0.257 C 
ATOM     23  N   UNL A   1      29.628  25.924  24.897  1.00  0.00    -0.322 N 
ATOM     24  H   UNL A   1      28.890  25.272  24.924  1.00  0.00     0.170 HD
ATOM     25  O   UNL A   1      30.360  24.718  26.601  1.00  0.00    -0.269 OA
BRANCH  23  26
ATOM     26  C   UNL A   1      29.488  26.849  23.859  1.00  0.00     0.041 A 
ATOM     27  C   UNL A   1      28.968  30.542  21.756  1.00  0.00     0.044 C 
ATOM     28  C   UNL A   1      29.112  29.177  22.358  1.00  0.00    -0.051 A 
ATOM     29  C   UNL A   1      30.366  28.554  22.402  1.00  0.00     0.005 A 
ATOM     30  C   UNL A   1      28.017  28.544  22.950  1.00  0.00     0.005 A 
ATOM     31  C   UNL A   1      30.552  27.382  23.140  1.00  0.00     0.026 A 
ATOM     32  C   UNL A   1      28.199  27.366  23.672  1.00  0.00     0.026 A 
ENDBRANCH  23  26
ENDBRANCH  17  22
ENDBRANCH  13  16
ENDBRANCH   7  12
ENDBRANCH   3   6
ENDBRANCH   1   2
BRANCH   1  33
ATOM     33  C   UNL A   1      39.238  22.771  26.842  1.00  0.00     0.023 C 
BRANCH  33  34
ATOM     34  C   UNL A   1      40.370  22.349  25.925  1.00  0.00     0.023 C 
BRANCH  34  35
ATOM     35  C   UNL A   1      41.539  21.718  26.645  1.00  0.00     0.116 C 
BRANCH  35  36
ATOM     36  N   UNL A   1      42.253  20.679  25.907  1.00  0.00    -0.352 N 
ATOM     37  C   UNL A   1      43.440  20.763  25.182  1.00  0.00     0.251 C 
ATOM     38  H   UNL A   1      41.834  19.789  25.925  1.00  0.00     0.163 HD
ATOM     39  O   UNL A   1      43.881  19.784  24.617  1.00  0.00    -0.269 OA
BRANCH  37  40
ATOM     40  C   UNL A   1      44.245  22.019  25.256  1.00  0.00     0.039 A 
ATOM     41  C   UNL A   1      45.144  22.131  26.322  1.00  0.00     0.014 A 
ATOM     42  C   UNL A   1      43.823  23.155  24.588  1.00  0.00     0.014 A 
ATOM     43  C   UNL A   1      45.308  23.372  26.930  1.00  0.00     0.010 A 
ATOM     44  C   UNL A   1      43.817  24.335  25.298  1.00  0.00     0.010 A 
ATOM     45  C   UNL A   1      44.500  24.426  26.513  1.00  0.00    -0.014 A 
BRANCH  45  46
ATOM     46  C   UNL A   1      44.222  25.599  27.336  1.00  0.00     0.031 A 
ATOM     47  C   UNL A   1      42.881  26.234  27.272  1.00  0.00     0.074 A 
ATOM     48  C   UNL A   1      45.153  26.083  28.196  1.00  0.00     0.049 A 
ATOM     49  N   UNL A   1      42.650  27.471  27.558  1.00  0.00    -0.248 NA
ATOM     50  C   UNL A   1      41.683  25.529  26.823  1.00  0.00     0.031 C 
ATOM     51  C   UNL A   1      44.937  27.097  29.233  1.00  0.00     0.029 A 
ATOM     52  N   UNL A   1      46.529  25.881  28.267  1.00  0.00    -0.354 N 
ATOM     53  C   UNL A   1      41.285  27.637  27.630  1.00  0.00     0.074 A 
ATOM     54  C   UNL A   1      40.729  26.426  27.081  1.00  0.00     0.031 C 
ATOM     55  C   UNL A   1      46.122  27.638  29.563  1.00  0.00     0.029 A 
ATOM     56  C   UNL A   1      47.106  27.099  28.646  1.00  0.00     0.049 A 
ATOM     57  H   UNL A   1      47.006  25.039  28.085  1.00  0.00     0.167 HD
ATOM     58  C   UNL A   1      40.775  28.725  28.273  1.00  0.00     0.031 A 
ATOM     59  C   UNL A   1      47.932  27.857  27.862  1.00  0.00     0.031 A 
ATOM     60  C   UNL A   1      41.831  29.640  28.705  1.00  0.00     0.049 A 
ATOM     61  C   UNL A   1      47.394  29.259  27.604  1.00  0.00     0.074 A 
ATOM     62  C   UNL A   1      42.436  29.871  29.929  1.00  0.00     0.029 A 
ATOM     63  N   UNL A   1      42.623  30.265  27.748  1.00  0.00    -0.354 N 
ATOM     64  N   UNL A   1      46.160  29.615  27.836  1.00  0.00    -0.248 NA
ATOM     65  C   UNL A   1      48.175  30.349  27.015  1.00  0.00     0.031 C 
ATOM     66  C   UNL A   1      43.642  30.584  29.693  1.00  0.00     0.029 A 
ATOM     67  C   UNL A   1      43.749  30.809  28.332  1.00  0.00     0.049 A 
ATOM     68  H   UNL A   1      42.409  30.312  26.789  1.00  0.00     0.167 HD
ATOM     69  C   UNL A   1      45.961  30.908  27.429  1.00  0.00     0.074 A 
ATOM     70  C   UNL A   1      47.258  31.332  26.935  1.00  0.00     0.031 C 
ATOM     71  C   UNL A   1      44.736  31.506  27.515  1.00  0.00     0.031 A 
BRANCH  58  72
ATOM     72  C   UNL A   1      39.345  28.819  28.756  1.00  0.00    -0.014 A 
ATOM     73  C   UNL A   1      38.354  29.318  27.890  1.00  0.00     0.009 A 
ATOM     74  C   UNL A   1      38.913  28.498  30.054  1.00  0.00     0.009 A 
ATOM     75  C   UNL A   1      37.045  29.572  28.323  1.00  0.00     0.001 A 
ATOM     76  C   UNL A   1      37.616  28.782  30.506  1.00  0.00     0.001 A 
ATOM     77  C   UNL A   1      36.682  29.331  29.641  1.00  0.00     0.000 A 
ENDBRANCH  58  72
BRANCH  59  78
ATOM     78  C   UNL A   1      48.753  27.082  26.897  1.00  0.00    -0.014 A 
ATOM     79  C   UNL A   1      48.460  27.207  25.526  1.00  0.00     0.009 A 
ATOM     80  C   UNL A   1      49.994  26.551  27.273  1.00  0.00     0.009 A 
ATOM     81  C   UNL A   1      49.434  26.937  24.560  1.00  0.00     0.001 A 
ATOM     82  C   UNL A   1      50.964  26.276  26.301  1.00  0.00     0.001 A 
ATOM     83  C   UNL A   1      50.699  26.507  24.952  1.00  0.00     0.000 A 
ENDBRANCH  59  78
BRANCH  71  84
ATOM     84  C   UNL A   1      44.339  32.824  26.895  1.00  0.00    -0.014 A 
ATOM     85  C   UNL A   1      44.173  33.033  25.520  1.00  0.00     0.009 A 
ATOM     86  C   UNL A   1      43.966  33.891  27.745  1.00  0.00     0.009 A 
ATOM     87  C   UNL A   1      43.698  34.255  25.021  1.00  0.00     0.001 A 
ATOM     88  C   UNL A   1      43.448  35.092  27.257  1.00  0.00     0.001 A 
ATOM     89  C   UNL A   1      43.324  35.278  25.888  1.00  0.00     0.000 A 
ENDBRANCH  71  84
ENDBRANCH  45  46
ENDBRANCH  37  40
ENDBRANCH  35  36
ENDBRANCH  34  35
ENDBRANCH  33  34
ENDBRANCH   1  33
TORSDOF 15
ENDMDL
MODEL 3
REMARK VINA RESULT:     -13.2      2.520      4.123
REMARK SMILES Cc1ccc(NC(=O)c2ccccc2NC(=O)[C@H]2CCCC[C@H]2C(=O)NCCCCNC(=O)c2ccc(-c3c4nc(c(-c5ccccc5)c5ccc([nH]5)c(-c5ccccc5)c5nc(c(-c6ccccc6)c6ccc3[nH]6)C=C5)C=C4)cc2)cc1
REMARK SMILES IDX 27 1 26 2 24 3 25 4 23 6 18 7 19 8 20 9 22 10 21 11 16 12
REMARK SMILES IDX 15 13 17 15 14 16 9 17 10 18 11 19 13 20 12 21 7 22 6 23
REMARK SMILES IDX 8 25 5 26 1 27 2 28 3 29 83 30 4 31 82 32 28 33 29 34 30 35
REMARK SMILES IDX 31 36 32 37 33 39 34 40 35 41 81 42 36 43 80 44 37 45 38 46
REMARK SMILES IDX 39 47 74 48 40 49 79 50 73 51 75 52 41 53 78 54 72 55 71 56
REMARK SMILES IDX 42 58 64 59 49 60 63 61 50 62 53 63 62 64 76 65 51 66 52 67
REMARK SMILES IDX 61 69 77 70 54 71 43 72 44 73 48 74 45 75 47 76 46 77 65 78
REMARK SMILES IDX 66 79 70 80 67 81 69 82 68 83 55 84 56 85 60 86 57 87 59 88
REMARK SMILES IDX 58 89
REMARK H PARENT 26 5 15 14 6 24 31 38 75 57 53 68
REMARK Flexibility Score: inf
ROOT
ATOM      1  C   UNL A   1      32.217  29.372  25.870  1.00  0.00     0.116 C 
ENDROOT
BRANCH   1   2
ATOM      2  N   UNL A   1      33.128  29.304  24.736  1.00  0.00    -0.356 N 
ATOM      3  C   UNL A   1      33.398  28.356  23.807  1.00  0.00     0.223 C 
ATOM      4  O   UNL A   1      34.386  28.576  23.092  1.00  0.00    -0.275 OA
ATOM      5  H   UNL A   1      33.664  30.121  24.621  1.00  0.00     0.163 HD
BRANCH   3   6
ATOM      6  C   UNL A   1      32.621  27.053  23.591  1.00  0.00     0.091 C 
ATOM      7  C   UNL A   1      33.430  25.772  23.892  1.00  0.00     0.091 C 
ATOM      8  C   UNL A   1      32.657  24.514  23.447  1.00  0.00     0.014 C 
ATOM      9  C   UNL A   1      31.189  24.501  23.898  1.00  0.00     0.001 C 
ATOM     10  C   UNL A   1      31.156  27.029  24.030  1.00  0.00     0.014 C 
ATOM     11  C   UNL A   1      30.452  25.777  23.504  1.00  0.00     0.001 C 
BRANCH   7  12
ATOM     12  C   UNL A   1      33.759  25.608  25.355  1.00  0.00     0.228 C 
ATOM     13  N   UNL A   1      34.641  24.708  25.857  1.00  0.00    -0.325 N 
ATOM     14  H   UNL A   1      34.790  24.875  26.815  1.00  0.00     0.169 HD
ATOM     15  O   UNL A   1      33.238  26.363  26.187  1.00  0.00    -0.274 OA
BRANCH  13  16
ATOM     16  C   UNL A   1      35.406  23.610  25.428  1.00  0.00     0.054 A 
ATOM     17  C   UNL A   1      35.084  22.298  25.879  1.00  0.00     0.063 A 
ATOM     18  C   UNL A   1      35.922  21.221  25.510  1.00  0.00     0.016 A 
ATOM     19  C   UNL A   1      37.030  21.410  24.691  1.00  0.00     0.001 A 
ATOM     20  C   UNL A   1      36.483  23.759  24.546  1.00  0.00     0.027 A 
ATOM     21  C   UNL A   1      37.300  22.677  24.199  1.00  0.00     0.002 A 
BRANCH  17  22
ATOM     22  C   UNL A   1      34.049  21.899  26.885  1.00  0.00     0.257 C 
ATOM     23  N   UNL A   1      32.989  21.044  26.696  1.00  0.00    -0.322 N 
ATOM     24  H   UNL A   1      32.383  21.017  27.472  1.00  0.00     0.170 HD
ATOM     25  O   UNL A   1      34.114  22.432  28.000  1.00  0.00    -0.269 OA
BRANCH  23  26
ATOM     26  C   UNL A   1      32.570  20.205  25.659  1.00  0.00     0.041 A 
ATOM     27  C   UNL A   1      32.532  17.988  21.998  1.00  0.00     0.044 C 
ATOM     28  C   UNL A   1      32.389  18.743  23.284  1.00  0.00    -0.051 A 
ATOM     29  C   UNL A   1      32.570  18.089  24.510  1.00  0.00     0.005 A 
ATOM     30  C   UNL A   1      32.153  20.119  23.277  1.00  0.00     0.005 A 
ATOM     31  C   UNL A   1      32.645  18.817  25.700  1.00  0.00     0.026 A 
ATOM     32  C   UNL A   1      32.212  20.844  24.466  1.00  0.00     0.026 A 
ENDBRANCH  23  26
ENDBRANCH  17  22
ENDBRANCH  13  16
ENDBRANCH   7  12
ENDBRANCH   3   6
ENDBRANCH   1   2
BRANCH   1  33
ATOM     33  C   UNL A   1      31.750  30.810  26.106  1.00  0.00     0.023 C 
BRANCH  33  34
ATOM     34  C   UNL A   1      32.467  31.623  27.167  1.00  0.00     0.023 C 
BRANCH  34  35
ATOM     35  C   UNL A   1      33.667  30.928  27.766  1.00  0.00     0.116 C 
BRANCH  35  36
ATOM     36  N   UNL A   1      34.590  31.783  28.508  1.00  0.00    -0.352 N 
ATOM     37  C   UNL A   1      35.783  31.453  29.150  1.00  0.00     0.251 C 
ATOM     38  H   UNL A   1      34.332  32.730  28.563  1.00  0.00     0.163 HD
ATOM     39  O   UNL A   1      36.418  32.306  29.734  1.00  0.00    -0.269 OA
BRANCH  37  40
ATOM     40  C   UNL A   1      36.352  30.085  28.959  1.00  0.00     0.039 A 
ATOM     41  C   UNL A   1      36.684  29.372  30.115  1.00  0.00     0.014 A 
ATOM     42  C   UNL A   1      36.914  29.730  27.745  1.00  0.00     0.014 A 
ATOM     43  C   UNL A   1      37.829  28.580  30.106  1.00  0.00     0.010 A 
ATOM     44  C   UNL A   1      38.149  29.121  27.778  1.00  0.00     0.010 A 
ATOM     45  C   UNL A   1      38.645  28.608  28.979  1.00  0.00    -0.014 A 
BRANCH  45  46
ATOM     46  C   UNL A   1      40.057  28.235  28.999  1.00  0.00     0.031 A 
ATOM     47  C   UNL A   1      40.473  26.924  28.439  1.00  0.00     0.074 A 
ATOM     48  C   UNL A   1      40.996  29.092  29.472  1.00  0.00     0.049 A 
ATOM     49  N   UNL A   1      41.542  26.293  28.791  1.00  0.00    -0.248 NA
ATOM     50  C   UNL A   1      39.679  26.183  27.461  1.00  0.00     0.031 C 
ATOM     51  C   UNL A   1      42.449  28.947  29.346  1.00  0.00     0.029 A 
ATOM     52  N   UNL A   1      40.884  30.220  30.281  1.00  0.00    -0.354 N 
ATOM     53  C   UNL A   1      41.731  25.260  27.901  1.00  0.00     0.074 A 
ATOM     54  C   UNL A   1      40.504  25.182  27.149  1.00  0.00     0.031 C 
ATOM     55  C   UNL A   1      43.043  29.700  30.287  1.00  0.00     0.029 A 
ATOM     56  C   UNL A   1      41.993  30.227  31.136  1.00  0.00     0.049 A 
ATOM     57  H   UNL A   1      40.161  30.887  30.257  1.00  0.00     0.167 HD
ATOM     58  C   UNL A   1      42.957  24.673  27.805  1.00  0.00     0.031 A 
ATOM     59  C   UNL A   1      41.942  30.071  32.494  1.00  0.00     0.031 A 
ATOM     60  C   UNL A   1      43.886  25.200  28.804  1.00  0.00     0.049 A 
ATOM     61  C   UNL A   1      42.740  28.870  32.990  1.00  0.00     0.074 A 
ATOM     62  C   UNL A   1      44.917  26.122  28.740  1.00  0.00     0.029 A 
ATOM     63  N   UNL A   1      43.619  25.000  30.154  1.00  0.00    -0.354 N 
ATOM     64  N   UNL A   1      43.173  27.917  32.211  1.00  0.00    -0.248 NA
ATOM     65  C   UNL A   1      43.059  28.614  34.396  1.00  0.00     0.031 C 
ATOM     66  C   UNL A   1      45.223  26.530  30.065  1.00  0.00     0.029 A 
ATOM     67  C   UNL A   1      44.399  25.833  30.931  1.00  0.00     0.049 A 
ATOM     68  H   UNL A   1      42.966  24.354  30.505  1.00  0.00     0.167 HD
ATOM     69  C   UNL A   1      43.782  26.942  32.957  1.00  0.00     0.074 A 
ATOM     70  C   UNL A   1      43.700  27.432  34.320  1.00  0.00     0.031 C 
ATOM     71  C   UNL A   1      44.279  25.807  32.384  1.00  0.00     0.031 A 
BRANCH  58  72
ATOM     72  C   UNL A   1      43.393  23.830  26.628  1.00  0.00    -0.014 A 
ATOM     73  C   UNL A   1      43.401  22.427  26.748  1.00  0.00     0.009 A 
ATOM     74  C   UNL A   1      43.864  24.338  25.406  1.00  0.00     0.009 A 
ATOM     75  C   UNL A   1      43.935  21.596  25.752  1.00  0.00     0.001 A 
ATOM     76  C   UNL A   1      44.433  23.518  24.421  1.00  0.00     0.001 A 
ATOM     77  C   UNL A   1      44.479  22.145  24.599  1.00  0.00     0.000 A 
ENDBRANCH  58  72
BRANCH  59  78
ATOM     78  C   UNL A   1      40.696  30.571  33.129  1.00  0.00    -0.014 A 
ATOM     79  C   UNL A   1      40.416  31.948  33.046  1.00  0.00     0.009 A 
ATOM     80  C   UNL A   1      39.657  29.692  33.461  1.00  0.00     0.009 A 
ATOM     81  C   UNL A   1      39.104  32.418  33.158  1.00  0.00     0.001 A 
ATOM     82  C   UNL A   1      38.345  30.169  33.580  1.00  0.00     0.001 A 
ATOM     83  C   UNL A   1      38.064  31.521  33.388  1.00  0.00     0.000 A 
ENDBRANCH  59  78
BRANCH  71  84
ATOM     84  C   UNL A   1      44.754  24.572  33.112  1.00  0.00    -0.014 A 
ATOM     85  C   UNL A   1      46.039  24.414  33.643  1.00  0.00     0.009 A 
ATOM     86  C   UNL A   1      43.816  23.558  33.414  1.00  0.00     0.009 A 
ATOM     87  C   UNL A   1      46.380  23.283  34.402  1.00  0.00     0.001 A 
ATOM     88  C   UNL A   1      44.136  22.454  34.208  1.00  0.00     0.001 A 
ATOM     89  C   UNL A   1      45.427  22.312  34.694  1.00  0.00     0.000 A 
ENDBRANCH  71  84
ENDBRANCH  45  46
ENDBRANCH  37  40
ENDBRANCH  35  36
ENDBRANCH  34  35
ENDBRANCH  33  34
ENDBRANCH   1  33
TORSDOF 15
ENDMDL
