MODEL 1
REMARK VINA RESULT:      -9.8      0.000      0.000
REMARK SMILES CCOc1ccccc1[C@@H](O)[C@@H](C)[C@@H](C)C(=O)NCCCCNC(=O)c1ccc(-c2c3nc(c(-c4ccccc4)c4ccc([nH]4)c(-c4ccccc4)c4nc(c(-c5ccccc5)c5ccc2[nH]5)C=C4)C=C3)cc1
REMARK SMILES IDX 19 1 18 2 16 3 17 4 14 6 15 7 12 8 13 9 10 10 9 11 4 12 5 13
REMARK SMILES IDX 6 14 8 15 7 16 3 17 2 18 1 19 11 20 20 22 21 23 22 24 23 25
REMARK SMILES IDX 24 26 25 28 26 29 27 30 73 31 28 32 72 33 29 34 30 35 31 36
REMARK SMILES IDX 66 37 32 38 71 39 65 40 67 41 33 42 70 43 64 44 63 45 34 47
REMARK SMILES IDX 56 48 41 49 55 50 42 51 45 52 54 53 68 54 43 55 44 56 53 58
REMARK SMILES IDX 69 59 46 60 35 61 36 62 40 63 37 64 39 65 38 66 57 67 58 68
REMARK SMILES IDX 62 69 59 70 61 71 60 72 47 73 48 74 52 75 49 76 51 77 50 78
REMARK H PARENT 18 5 11 21 23 27 67 46 45 57
REMARK Flexibility Score: inf
ROOT
ATOM      1  C   UNL A   1      34.998  21.807  24.509  1.00  0.00     0.116 C 
ENDROOT
BRANCH   1   2
ATOM      2  N   UNL A   1      33.577  21.915  24.249  1.00  0.00    -0.356 N 
ATOM      3  C   UNL A   1      32.617  22.655  24.869  1.00  0.00     0.223 C 
ATOM      4  O   UNL A   1      31.453  22.520  24.482  1.00  0.00    -0.275 OA
ATOM      5  H   UNL A   1      33.252  21.365  23.500  1.00  0.00     0.163 HD
BRANCH   3   6
ATOM      6  C   UNL A   1      32.949  23.640  25.991  1.00  0.00     0.081 C 
ATOM      7  C   UNL A   1      32.245  23.197  27.275  1.00  0.00     0.018 C 
BRANCH   6   8
ATOM      8  C   UNL A   1      32.797  25.124  25.546  1.00  0.00     0.031 C 
ATOM      9  C   UNL A   1      34.143  25.841  25.771  1.00  0.00     0.011 C 
BRANCH   8  10
ATOM     10  C   UNL A   1      31.571  25.847  26.155  1.00  0.00     0.152 C 
BRANCH  10  11
ATOM     11  C   UNL A   1      31.681  27.356  26.101  1.00  0.00     0.023 A 
ATOM     12  C   UNL A   1      31.529  28.052  24.895  1.00  0.00     0.125 A 
ATOM     13  C   UNL A   1      31.562  29.447  24.865  1.00  0.00     0.047 A 
ATOM     14  C   UNL A   1      31.744  30.165  26.049  1.00  0.00     0.004 A 
ATOM     15  C   UNL A   1      31.884  28.096  27.281  1.00  0.00     0.010 A 
ATOM     16  C   UNL A   1      31.915  29.489  27.255  1.00  0.00     0.001 A 
BRANCH  12  17
ATOM     17  O   UNL A   1      31.476  27.359  23.717  1.00  0.00    -0.493 OA
BRANCH  17  18
ATOM     18  C   UNL A   1      32.510  27.735  22.801  1.00  0.00     0.226 C 
ATOM     19  C   UNL A   1      32.932  26.492  22.032  1.00  0.00     0.049 C 
ENDBRANCH  17  18
ENDBRANCH  12  17
ENDBRANCH  10  11
BRANCH  10  20
ATOM     20  O   UNL A   1      30.404  25.479  25.407  1.00  0.00    -0.388 OA
ATOM     21  H   UNL A   1      29.730  26.172  25.497  1.00  0.00     0.211 HD
ENDBRANCH  10  20
ENDBRANCH   8  10
ENDBRANCH   6   8
ENDBRANCH   3   6
ENDBRANCH   1   2
BRANCH   1  22
ATOM     22  C   UNL A   1      35.814  22.717  23.586  1.00  0.00     0.023 C 
BRANCH  22  23
ATOM     23  C   UNL A   1      36.857  23.576  24.293  1.00  0.00     0.023 C 
BRANCH  23  24
ATOM     24  C   UNL A   1      37.204  23.124  25.701  1.00  0.00     0.116 C 
BRANCH  24  25
ATOM     25  N   UNL A   1      38.458  22.388  25.778  1.00  0.00    -0.352 N 
ATOM     26  C   UNL A   1      39.670  22.827  26.250  1.00  0.00     0.251 C 
ATOM     27  H   UNL A   1      38.434  21.460  25.450  1.00  0.00     0.163 HD
ATOM     28  O   UNL A   1      40.674  22.129  26.163  1.00  0.00    -0.269 OA
BRANCH  26  29
ATOM     29  C   UNL A   1      39.749  24.182  26.826  1.00  0.00     0.039 A 
ATOM     30  C   UNL A   1      39.275  24.392  28.122  1.00  0.00     0.014 A 
ATOM     31  C   UNL A   1      40.372  25.211  26.115  1.00  0.00     0.014 A 
ATOM     32  C   UNL A   1      39.497  25.622  28.739  1.00  0.00     0.010 A 
ATOM     33  C   UNL A   1      40.657  26.408  26.757  1.00  0.00     0.010 A 
ATOM     34  C   UNL A   1      40.227  26.623  28.077  1.00  0.00    -0.014 A 
BRANCH  34  35
ATOM     35  C   UNL A   1      40.567  27.900  28.745  1.00  0.00     0.031 A 
ATOM     36  C   UNL A   1      41.910  28.068  29.396  1.00  0.00     0.074 A 
ATOM     37  C   UNL A   1      39.637  28.871  28.841  1.00  0.00     0.049 A 
ATOM     38  N   UNL A   1      42.364  29.071  30.103  1.00  0.00    -0.248 NA
ATOM     39  C   UNL A   1      42.860  26.951  29.258  1.00  0.00     0.031 C 
ATOM     40  C   UNL A   1      38.282  28.810  28.289  1.00  0.00     0.029 A 
ATOM     41  N   UNL A   1      39.691  30.099  29.451  1.00  0.00    -0.354 N 
ATOM     42  C   UNL A   1      43.635  28.695  30.516  1.00  0.00     0.074 A 
ATOM     43  C   UNL A   1      43.867  27.359  30.015  1.00  0.00     0.031 C 
ATOM     44  C   UNL A   1      37.643  29.958  28.564  1.00  0.00     0.029 A 
ATOM     45  C   UNL A   1      38.524  30.817  29.347  1.00  0.00     0.049 A 
ATOM     46  H   UNL A   1      40.489  30.433  29.920  1.00  0.00     0.167 HD
ATOM     47  C   UNL A   1      44.534  29.406  31.235  1.00  0.00     0.031 A 
ATOM     48  C   UNL A   1      38.200  32.029  29.835  1.00  0.00     0.031 A 
ATOM     49  C   UNL A   1      44.313  30.744  31.709  1.00  0.00     0.049 A 
ATOM     50  C   UNL A   1      39.216  32.792  30.638  1.00  0.00     0.074 A 
ATOM     51  C   UNL A   1      45.195  31.580  32.371  1.00  0.00     0.029 A 
ATOM     52  N   UNL A   1      43.123  31.440  31.573  1.00  0.00    -0.354 N 
ATOM     53  N   UNL A   1      40.445  32.457  30.947  1.00  0.00    -0.248 NA
ATOM     54  C   UNL A   1      38.800  34.104  31.155  1.00  0.00     0.031 C 
ATOM     55  C   UNL A   1      44.521  32.765  32.681  1.00  0.00     0.029 A 
ATOM     56  C   UNL A   1      43.236  32.685  32.168  1.00  0.00     0.049 A 
ATOM     57  H   UNL A   1      42.316  31.101  31.122  1.00  0.00     0.167 HD
ATOM     58  C   UNL A   1      40.958  33.525  31.670  1.00  0.00     0.074 A 
ATOM     59  C   UNL A   1      39.912  34.524  31.744  1.00  0.00     0.031 C 
ATOM     60  C   UNL A   1      42.185  33.666  32.226  1.00  0.00     0.031 A 
BRANCH  47  61
ATOM     61  C   UNL A   1      45.843  28.743  31.559  1.00  0.00    -0.014 A 
ATOM     62  C   UNL A   1      46.954  28.872  30.712  1.00  0.00     0.009 A 
ATOM     63  C   UNL A   1      45.975  28.015  32.751  1.00  0.00     0.009 A 
ATOM     64  C   UNL A   1      48.164  28.256  31.036  1.00  0.00     0.001 A 
ATOM     65  C   UNL A   1      47.194  27.423  33.086  1.00  0.00     0.001 A 
ATOM     66  C   UNL A   1      48.285  27.537  32.226  1.00  0.00     0.000 A 
ENDBRANCH  47  61
BRANCH  48  67
ATOM     67  C   UNL A   1      36.856  32.607  29.576  1.00  0.00    -0.014 A 
ATOM     68  C   UNL A   1      35.828  32.464  30.520  1.00  0.00     0.009 A 
ATOM     69  C   UNL A   1      36.587  33.286  28.378  1.00  0.00     0.009 A 
ATOM     70  C   UNL A   1      34.551  32.962  30.259  1.00  0.00     0.001 A 
ATOM     71  C   UNL A   1      35.315  33.809  28.130  1.00  0.00     0.001 A 
ATOM     72  C   UNL A   1      34.296  33.637  29.066  1.00  0.00     0.000 A 
ENDBRANCH  48  67
BRANCH  60  73
ATOM     73  C   UNL A   1      42.475  34.960  32.932  1.00  0.00    -0.014 A 
ATOM     74  C   UNL A   1      43.204  35.982  32.305  1.00  0.00     0.009 A 
ATOM     75  C   UNL A   1      41.967  35.175  34.223  1.00  0.00     0.009 A 
ATOM     76  C   UNL A   1      43.440  37.186  32.970  1.00  0.00     0.001 A 
ATOM     77  C   UNL A   1      42.182  36.390  34.873  1.00  0.00     0.001 A 
ATOM     78  C   UNL A   1      42.924  37.391  34.250  1.00  0.00     0.000 A 
ENDBRANCH  60  73
ENDBRANCH  34  35
ENDBRANCH  26  29
ENDBRANCH  24  25
ENDBRANCH  23  24
ENDBRANCH  22  23
ENDBRANCH   1  22
TORSDOF 17
ENDMDL
MODEL 2
REMARK VINA RESULT:      -9.7      2.149      3.491
REMARK SMILES CCOc1ccccc1[C@@H](O)[C@@H](C)[C@@H](C)C(=O)NCCCCNC(=O)c1ccc(-c2c3nc(c(-c4ccccc4)c4ccc([nH]4)c(-c4ccccc4)c4nc(c(-c5ccccc5)c5ccc2[nH]5)C=C4)C=C3)cc1
REMARK SMILES IDX 19 1 18 2 16 3 17 4 14 6 15 7 12 8 13 9 10 10 9 11 4 12 5 13
REMARK SMILES IDX 6 14 8 15 7 16 3 17 2 18 1 19 11 20 20 22 21 23 22 24 23 25
REMARK SMILES IDX 24 26 25 28 26 29 27 30 73 31 28 32 72 33 29 34 30 35 31 36
REMARK SMILES IDX 66 37 32 38 71 39 65 40 67 41 33 42 70 43 64 44 63 45 34 47
REMARK SMILES IDX 56 48 41 49 55 50 42 51 45 52 54 53 68 54 43 55 44 56 53 58
REMARK SMILES IDX 69 59 46 60 35 61 36 62 40 63 37 64 39 65 38 66 57 67 58 68
REMARK SMILES IDX 62 69 59 70 61 71 60 72 47 73 48 74 52 75 49 76 51 77 50 78
REMARK H PARENT 18 5 11 21 23 27 67 46 45 57
REMARK Flexibility Score: inf
ROOT
ATOM      1  C   UNL A   1      34.809  21.006  24.871  1.00  0.00     0.116 C 
ENDROOT
BRANCH   1   2
ATOM      2  N   UNL A   1      33.734  21.361  25.776  1.00  0.00    -0.356 N 
ATOM      3  C   UNL A   1      33.078  22.541  25.953  1.00  0.00     0.223 C 
ATOM      4  O   UNL A   1      32.227  22.592  26.844  1.00  0.00    -0.275 OA
ATOM      5  H   UNL A   1      33.427  20.629  26.358  1.00  0.00     0.163 HD
BRANCH   3   6
ATOM      6  C   UNL A   1      33.353  23.763  25.075  1.00  0.00     0.081 C 
ATOM      7  C   UNL A   1      34.437  24.620  25.731  1.00  0.00     0.018 C 
BRANCH   6   8
ATOM      8  C   UNL A   1      32.047  24.465  24.604  1.00  0.00     0.031 C 
ATOM      9  C   UNL A   1      32.136  24.694  23.082  1.00  0.00     0.011 C 
BRANCH   8  10
ATOM     10  C   UNL A   1      31.671  25.723  25.425  1.00  0.00     0.152 C 
BRANCH  10  11
ATOM     11  C   UNL A   1      30.706  26.640  24.704  1.00  0.00     0.023 A 
ATOM     12  C   UNL A   1      31.086  27.932  24.316  1.00  0.00     0.125 A 
ATOM     13  C   UNL A   1      30.215  28.745  23.590  1.00  0.00     0.047 A 
ATOM     14  C   UNL A   1      28.949  28.272  23.239  1.00  0.00     0.004 A 
ATOM     15  C   UNL A   1      29.419  26.187  24.358  1.00  0.00     0.010 A 
ATOM     16  C   UNL A   1      28.548  26.996  23.631  1.00  0.00     0.001 A 
BRANCH  12  17
ATOM     17  O   UNL A   1      32.270  28.451  24.761  1.00  0.00    -0.493 OA
BRANCH  17  18
ATOM     18  C   UNL A   1      32.097  29.463  25.758  1.00  0.00     0.226 C 
ATOM     19  C   UNL A   1      32.690  28.947  27.060  1.00  0.00     0.049 C 
ENDBRANCH  17  18
ENDBRANCH  12  17
ENDBRANCH  10  11
BRANCH  10  20
ATOM     20  O   UNL A   1      31.032  25.304  26.639  1.00  0.00    -0.388 OA
ATOM     21  H   UNL A   1      30.388  25.976  26.913  1.00  0.00     0.211 HD
ENDBRANCH  10  20
ENDBRANCH   8  10
ENDBRANCH   6   8
ENDBRANCH   3   6
ENDBRANCH   1   2
BRANCH   1  22
ATOM     22  C   UNL A   1      36.172  21.453  25.408  1.00  0.00     0.023 C 
BRANCH  22  23
ATOM     23  C   UNL A   1      37.350  20.599  24.952  1.00  0.00     0.023 C 
BRANCH  23  24
ATOM     24  C   UNL A   1      38.669  20.917  25.636  1.00  0.00     0.116 C 
BRANCH  24  25
ATOM     25  N   UNL A   1      39.604  19.801  25.633  1.00  0.00    -0.352 N 
ATOM     26  C   UNL A   1      40.922  19.799  26.017  1.00  0.00     0.251 C 
ATOM     27  H   UNL A   1      39.245  18.939  25.317  1.00  0.00     0.163 HD
ATOM     28  O   UNL A   1      41.623  18.804  25.867  1.00  0.00    -0.269 OA
BRANCH  26  29
ATOM     29  C   UNL A   1      41.492  21.039  26.573  1.00  0.00     0.039 A 
ATOM     30  C   UNL A   1      42.070  21.965  25.703  1.00  0.00     0.014 A 
ATOM     31  C   UNL A   1      41.371  21.316  27.937  1.00  0.00     0.014 A 
ATOM     32  C   UNL A   1      42.459  23.211  26.192  1.00  0.00     0.010 A 
ATOM     33  C   UNL A   1      41.690  22.583  28.407  1.00  0.00     0.010 A 
ATOM     34  C   UNL A   1      42.232  23.544  27.537  1.00  0.00    -0.014 A 
BRANCH  34  35
ATOM     35  C   UNL A   1      42.539  24.895  28.061  1.00  0.00     0.031 A 
ATOM     36  C   UNL A   1      43.935  25.222  28.510  1.00  0.00     0.074 A 
ATOM     37  C   UNL A   1      41.547  25.794  28.210  1.00  0.00     0.049 A 
ATOM     38  N   UNL A   1      44.384  26.313  29.076  1.00  0.00    -0.248 NA
ATOM     39  C   UNL A   1      44.955  24.176  28.327  1.00  0.00     0.031 C 
ATOM     40  C   UNL A   1      40.143  25.580  27.851  1.00  0.00     0.029 A 
ATOM     41  N   UNL A   1      41.568  27.069  28.717  1.00  0.00    -0.354 N 
ATOM     42  C   UNL A   1      45.726  26.074  29.340  1.00  0.00     0.074 A 
ATOM     43  C   UNL A   1      46.010  24.724  28.910  1.00  0.00     0.031 C 
ATOM     44  C   UNL A   1      39.444  26.693  28.126  1.00  0.00     0.029 A 
ATOM     45  C   UNL A   1      40.339  27.681  28.719  1.00  0.00     0.049 A 
ATOM     46  H   UNL A   1      42.387  27.502  29.049  1.00  0.00     0.167 HD
ATOM     47  C   UNL A   1      46.642  26.911  29.879  1.00  0.00     0.031 A 
ATOM     48  C   UNL A   1      39.972  28.900  29.158  1.00  0.00     0.031 A 
ATOM     49  C   UNL A   1      46.365  28.263  30.280  1.00  0.00     0.049 A 
ATOM     50  C   UNL A   1      41.011  29.805  29.760  1.00  0.00     0.074 A 
ATOM     51  C   UNL A   1      47.246  29.218  30.756  1.00  0.00     0.029 A 
ATOM     52  N   UNL A   1      45.110  28.849  30.256  1.00  0.00    -0.354 N 
ATOM     53  N   UNL A   1      42.294  29.595  29.924  1.00  0.00    -0.248 NA
ATOM     54  C   UNL A   1      40.549  31.119  30.232  1.00  0.00     0.031 C 
ATOM     55  C   UNL A   1      46.514  30.368  31.067  1.00  0.00     0.029 A 
ATOM     56  C   UNL A   1      45.187  30.143  30.739  1.00  0.00     0.049 A 
ATOM     57  H   UNL A   1      44.285  28.410  29.943  1.00  0.00     0.167 HD
ATOM     58  C   UNL A   1      42.798  30.757  30.493  1.00  0.00     0.074 A 
ATOM     59  C   UNL A   1      41.685  31.673  30.634  1.00  0.00     0.031 C 
ATOM     60  C   UNL A   1      44.069  31.040  30.866  1.00  0.00     0.031 A 
BRANCH  47  61
ATOM     61  C   UNL A   1      48.036  26.383  30.070  1.00  0.00    -0.014 A 
ATOM     62  C   UNL A   1      48.429  25.784  31.277  1.00  0.00     0.009 A 
ATOM     63  C   UNL A   1      48.953  26.448  29.010  1.00  0.00     0.009 A 
ATOM     64  C   UNL A   1      49.726  25.291  31.430  1.00  0.00     0.001 A 
ATOM     65  C   UNL A   1      50.241  25.929  29.158  1.00  0.00     0.001 A 
ATOM     66  C   UNL A   1      50.629  25.358  30.369  1.00  0.00     0.000 A 
ENDBRANCH  47  61
BRANCH  48  67
ATOM     67  C   UNL A   1      38.560  29.347  29.041  1.00  0.00    -0.014 A 
ATOM     68  C   UNL A   1      37.678  29.199  30.122  1.00  0.00     0.009 A 
ATOM     69  C   UNL A   1      38.081  29.903  27.845  1.00  0.00     0.009 A 
ATOM     70  C   UNL A   1      36.338  29.571  29.999  1.00  0.00     0.001 A 
ATOM     71  C   UNL A   1      36.746  30.301  27.734  1.00  0.00     0.001 A 
ATOM     72  C   UNL A   1      35.874  30.125  28.807  1.00  0.00     0.000 A 
ENDBRANCH  48  67
BRANCH  60  73
ATOM     73  C   UNL A   1      44.330  32.407  31.432  1.00  0.00    -0.014 A 
ATOM     74  C   UNL A   1      44.638  33.492  30.598  1.00  0.00     0.009 A 
ATOM     75  C   UNL A   1      44.215  32.619  32.815  1.00  0.00     0.009 A 
ATOM     76  C   UNL A   1      44.852  34.759  31.141  1.00  0.00     0.001 A 
ATOM     77  C   UNL A   1      44.403  33.893  33.352  1.00  0.00     0.001 A 
ATOM     78  C   UNL A   1      44.728  34.960  32.516  1.00  0.00     0.000 A 
ENDBRANCH  60  73
ENDBRANCH  34  35
ENDBRANCH  26  29
ENDBRANCH  24  25
ENDBRANCH  23  24
ENDBRANCH  22  23
ENDBRANCH   1  22
TORSDOF 17
ENDMDL
MODEL 3
REMARK VINA RESULT:      -9.7      2.409      6.916
REMARK SMILES CCOc1ccccc1[C@@H](O)[C@@H](C)[C@@H](C)C(=O)NCCCCNC(=O)c1ccc(-c2c3nc(c(-c4ccccc4)c4ccc([nH]4)c(-c4ccccc4)c4nc(c(-c5ccccc5)c5ccc2[nH]5)C=C4)C=C3)cc1
REMARK SMILES IDX 19 1 18 2 16 3 17 4 14 6 15 7 12 8 13 9 10 10 9 11 4 12 5 13
REMARK SMILES IDX 6 14 8 15 7 16 3 17 2 18 1 19 11 20 20 22 21 23 22 24 23 25
REMARK SMILES IDX 24 26 25 28 26 29 27 30 73 31 28 32 72 33 29 34 30 35 31 36
REMARK SMILES IDX 66 37 32 38 71 39 65 40 67 41 33 42 70 43 64 44 63 45 34 47
REMARK SMILES IDX 56 48 41 49 55 50 42 51 45 52 54 53 68 54 43 55 44 56 53 58
REMARK SMILES IDX 69 59 46 60 35 61 36 62 40 63 37 64 39 65 38 66 57 67 58 68
REMARK SMILES IDX 62 69 59 70 61 71 60 72 47 73 48 74 52 75 49 76 51 77 50 78
REMARK H PARENT 18 5 11 21 23 27 67 46 45 57
REMARK Flexibility Score: inf
ROOT
ATOM      1  C   UNL A   1      34.937  21.300  24.964  1.00  0.00     0.116 C 
ENDROOT
BRANCH   1   2
ATOM      2  N   UNL A   1      33.928  21.738  25.908  1.00  0.00    -0.356 N 
ATOM      3  C   UNL A   1      33.259  22.919  26.005  1.00  0.00     0.223 C 
ATOM      4  O   UNL A   1      32.480  23.058  26.952  1.00  0.00    -0.275 OA
ATOM      5  H   UNL A   1      33.688  21.072  26.592  1.00  0.00     0.163 HD
BRANCH   3   6
ATOM      6  C   UNL A   1      33.432  24.038  24.975  1.00  0.00     0.081 C 
ATOM      7  C   UNL A   1      34.531  24.990  25.447  1.00  0.00     0.018 C 
BRANCH   6   8
ATOM      8  C   UNL A   1      32.073  24.651  24.527  1.00  0.00     0.031 C 
ATOM      9  C   UNL A   1      32.054  24.720  22.987  1.00  0.00     0.011 C 
BRANCH   8  10
ATOM     10  C   UNL A   1      31.710  25.978  25.237  1.00  0.00     0.152 C 
BRANCH  10  11
ATOM     11  C   UNL A   1      30.567  26.716  24.573  1.00  0.00     0.023 A 
ATOM     12  C   UNL A   1      30.767  27.958  23.955  1.00  0.00     0.125 A 
ATOM     13  C   UNL A   1      29.725  28.599  23.285  1.00  0.00     0.047 A 
ATOM     14  C   UNL A   1      28.464  28.000  23.223  1.00  0.00     0.004 A 
ATOM     15  C   UNL A   1      29.285  26.138  24.518  1.00  0.00     0.010 A 
ATOM     16  C   UNL A   1      28.242  26.775  23.847  1.00  0.00     0.001 A 
BRANCH  12  17
ATOM     17  O   UNL A   1      31.959  28.609  24.117  1.00  0.00    -0.493 OA
BRANCH  17  18
ATOM     18  C   UNL A   1      32.621  28.878  22.877  1.00  0.00     0.226 C 
ATOM     19  C   UNL A   1      34.020  28.287  22.952  1.00  0.00     0.049 C 
ENDBRANCH  17  18
ENDBRANCH  12  17
ENDBRANCH  10  11
BRANCH  10  20
ATOM     20  O   UNL A   1      31.302  25.682  26.580  1.00  0.00    -0.388 OA
ATOM     21  H   UNL A   1      30.538  26.232  26.814  1.00  0.00     0.211 HD
ENDBRANCH  10  20
ENDBRANCH   8  10
ENDBRANCH   6   8
ENDBRANCH   3   6
ENDBRANCH   1   2
BRANCH   1  22
ATOM     22  C   UNL A   1      36.334  21.787  25.361  1.00  0.00     0.023 C 
BRANCH  22  23
ATOM     23  C   UNL A   1      37.476  20.873  24.929  1.00  0.00     0.023 C 
BRANCH  23  24
ATOM     24  C   UNL A   1      38.786  21.102  25.662  1.00  0.00     0.116 C 
BRANCH  24  25
ATOM     25  N   UNL A   1      39.654  19.933  25.672  1.00  0.00    -0.352 N 
ATOM     26  C   UNL A   1      40.968  19.856  26.060  1.00  0.00     0.251 C 
ATOM     27  H   UNL A   1      39.246  19.092  25.361  1.00  0.00     0.163 HD
ATOM     28  O   UNL A   1      41.610  18.821  25.921  1.00  0.00    -0.269 OA
BRANCH  26  29
ATOM     29  C   UNL A   1      41.608  21.066  26.610  1.00  0.00     0.039 A 
ATOM     30  C   UNL A   1      42.027  22.065  25.730  1.00  0.00     0.014 A 
ATOM     31  C   UNL A   1      41.708  21.240  27.992  1.00  0.00     0.014 A 
ATOM     32  C   UNL A   1      42.477  23.281  26.242  1.00  0.00     0.010 A 
ATOM     33  C   UNL A   1      42.086  22.476  28.499  1.00  0.00     0.010 A 
ATOM     34  C   UNL A   1      42.469  23.509  27.628  1.00  0.00    -0.014 A 
BRANCH  34  35
ATOM     35  C   UNL A   1      42.843  24.826  28.195  1.00  0.00     0.031 A 
ATOM     36  C   UNL A   1      41.787  25.871  28.416  1.00  0.00     0.074 A 
ATOM     37  C   UNL A   1      44.140  25.107  28.429  1.00  0.00     0.049 A 
ATOM     38  N   UNL A   1      41.924  27.109  28.819  1.00  0.00    -0.248 NA
ATOM     39  C   UNL A   1      40.397  25.485  28.120  1.00  0.00     0.031 C 
ATOM     40  C   UNL A   1      45.262  24.191  28.213  1.00  0.00     0.029 A 
ATOM     41  N   UNL A   1      44.734  26.255  28.889  1.00  0.00    -0.354 N 
ATOM     42  C   UNL A   1      40.648  27.654  28.796  1.00  0.00     0.074 A 
ATOM     43  C   UNL A   1      39.755  26.629  28.304  1.00  0.00     0.031 C 
ATOM     44  C   UNL A   1      46.404  24.804  28.564  1.00  0.00     0.029 A 
ATOM     45  C   UNL A   1      46.101  26.166  28.987  1.00  0.00     0.049 A 
ATOM     46  H   UNL A   1      44.228  27.065  29.125  1.00  0.00     0.167 HD
ATOM     47  C   UNL A   1      40.253  28.894  29.166  1.00  0.00     0.031 A 
ATOM     48  C   UNL A   1      47.009  27.085  29.368  1.00  0.00     0.031 A 
ATOM     49  C   UNL A   1      41.137  29.903  29.681  1.00  0.00     0.049 A 
ATOM     50  C   UNL A   1      46.542  28.457  29.766  1.00  0.00     0.074 A 
ATOM     51  C   UNL A   1      40.819  31.160  30.165  1.00  0.00     0.029 A 
ATOM     52  N   UNL A   1      42.513  29.771  29.775  1.00  0.00    -0.354 N 
ATOM     53  N   UNL A   1      45.321  28.930  29.820  1.00  0.00    -0.248 NA
ATOM     54  C   UNL A   1      47.580  29.420  30.160  1.00  0.00     0.031 C 
ATOM     55  C   UNL A   1      42.011  31.809  30.505  1.00  0.00     0.029 A 
ATOM     56  C   UNL A   1      43.063  30.936  30.279  1.00  0.00     0.049 A 
ATOM     57  H   UNL A   1      43.023  28.968  29.520  1.00  0.00     0.167 HD
ATOM     58  C   UNL A   1      45.441  30.235  30.279  1.00  0.00     0.074 A 
ATOM     59  C   UNL A   1      46.852  30.475  30.500  1.00  0.00     0.031 C 
ATOM     60  C   UNL A   1      44.469  31.153  30.497  1.00  0.00     0.031 A 
BRANCH  47  61
ATOM     61  C   UNL A   1      38.796  29.230  29.022  1.00  0.00    -0.014 A 
ATOM     62  C   UNL A   1      38.265  29.662  27.797  1.00  0.00     0.009 A 
ATOM     63  C   UNL A   1      37.935  29.069  30.119  1.00  0.00     0.009 A 
ATOM     64  C   UNL A   1      36.906  29.958  27.681  1.00  0.00     0.001 A 
ATOM     65  C   UNL A   1      36.572  29.342  29.993  1.00  0.00     0.001 A 
ATOM     66  C   UNL A   1      36.060  29.793  28.778  1.00  0.00     0.000 A 
ENDBRANCH  47  61
BRANCH  48  67
ATOM     67  C   UNL A   1      48.454  26.741  29.401  1.00  0.00    -0.014 A 
ATOM     68  C   UNL A   1      49.248  26.905  28.256  1.00  0.00     0.009 A 
ATOM     69  C   UNL A   1      49.043  26.231  30.568  1.00  0.00     0.009 A 
ATOM     70  C   UNL A   1      50.595  26.537  28.269  1.00  0.00     0.001 A 
ATOM     71  C   UNL A   1      50.398  25.889  30.587  1.00  0.00     0.001 A 
ATOM     72  C   UNL A   1      51.170  26.033  29.435  1.00  0.00     0.000 A 
ENDBRANCH  48  67
BRANCH  60  73
ATOM     73  C   UNL A   1      44.896  32.491  31.032  1.00  0.00    -0.014 A 
ATOM     74  C   UNL A   1      45.195  33.555  30.169  1.00  0.00     0.009 A 
ATOM     75  C   UNL A   1      44.948  32.699  32.419  1.00  0.00     0.009 A 
ATOM     76  C   UNL A   1      45.564  34.798  30.687  1.00  0.00     0.001 A 
ATOM     77  C   UNL A   1      45.291  33.949  32.933  1.00  0.00     0.001 A 
ATOM     78  C   UNL A   1      45.606  34.995  32.067  1.00  0.00     0.000 A 
ENDBRANCH  60  73
ENDBRANCH  34  35
ENDBRANCH  26  29
ENDBRANCH  24  25
ENDBRANCH  23  24
ENDBRANCH  22  23
ENDBRANCH   1  22
TORSDOF 17
ENDMDL
