MODEL 1
REMARK VINA RESULT:     -11.6      0.000      0.000
REMARK SMILES Cc1cc(OC(F)(F)F)cc2c1O[C@H](C(F)(F)F)C(C(=O)NCCCCNC(=O)c1ccc(-c3c4nc(c(-c5ccccc5)c5ccc([nH]5)c(-c5ccccc5)c5nc(c(-c6ccccc6)c6ccc3[nH]6)C=C5)C=C4)cc1)=C2
REMARK SMILES IDX 24 1 23 2 22 3 20 4 21 5 19 7 1 8 2 9 3 10 12 11 4 12 11 13
REMARK SMILES IDX 13 14 10 15 78 16 14 17 5 18 6 19 7 20 8 21 9 22 15 23 16 24
REMARK SMILES IDX 17 25 18 26 25 27 26 28 27 29 28 30 29 32 30 33 31 34 77 35
REMARK SMILES IDX 32 36 76 37 33 38 34 39 35 40 70 41 36 42 75 43 69 44 71 45
REMARK SMILES IDX 37 46 74 47 68 48 67 49 38 51 60 52 45 53 59 54 46 55 49 56
REMARK SMILES IDX 58 57 72 58 47 59 48 60 57 62 73 63 50 64 39 65 40 66 44 67
REMARK SMILES IDX 41 68 43 69 42 70 61 71 62 72 66 73 63 74 65 75 64 76 51 77
REMARK SMILES IDX 52 78 56 79 53 80 55 81 54 82
REMARK H PARENT 22 6 27 31 71 50 49 61
REMARK Flexibility Score: inf
ROOT
ATOM      1  C   UNL A   1      39.196  22.508  26.372  1.00  0.00     0.023 C 
ENDROOT
BRANCH   1   2
ATOM      2  C   UNL A   1      38.028  23.411  25.989  1.00  0.00     0.116 C 
BRANCH   2   3
ATOM      3  N   UNL A   1      37.604  23.193  24.618  1.00  0.00    -0.352 N 
ATOM      4  C   UNL A   1      36.436  23.203  23.933  1.00  0.00     0.251 C 
ATOM      5  O   UNL A   1      36.533  22.940  22.730  1.00  0.00    -0.270 OA
ATOM      6  H   UNL A   1      38.366  22.981  24.032  1.00  0.00     0.163 HD
BRANCH   4   7
ATOM      7  C   UNL A   1      35.095  23.498  24.519  1.00  0.00     0.067 C 
ATOM      8  C   UNL A   1      30.263  23.444  26.333  1.00  0.00     0.048 C 
ATOM      9  C   UNL A   1      31.262  24.497  25.941  1.00  0.00    -0.005 A 
ATOM     10  C   UNL A   1      30.943  25.849  26.145  1.00  0.00     0.054 A 
ATOM     11  C   UNL A   1      32.523  24.168  25.428  1.00  0.00     0.131 A 
ATOM     12  C   UNL A   1      31.854  26.857  25.818  1.00  0.00     0.130 A 
ATOM     13  C   UNL A   1      33.442  25.165  25.096  1.00  0.00     0.021 A 
ATOM     14  O   UNL A   1      32.794  22.845  25.221  1.00  0.00    -0.475 OA
ATOM     15  C   UNL A   1      33.102  26.506  25.292  1.00  0.00     0.058 A 
ATOM     16  C   UNL A   1      34.727  24.793  24.514  1.00  0.00     0.025 C 
ATOM     17  C   UNL A   1      34.191  22.467  25.132  1.00  0.00     0.314 C 
BRANCH  12  18
ATOM     18  O   UNL A   1      31.656  28.201  25.957  1.00  0.00    -0.406 OA
BRANCH  18  19
ATOM     19  C   UNL A   1      31.860  28.770  27.239  1.00  0.00     0.573 C 
ATOM     20  F   UNL A   1      30.954  28.307  28.128  1.00  0.00    -0.132 F 
ATOM     21  F   UNL A   1      33.106  28.513  27.692  1.00  0.00    -0.132 F 
ATOM     22  F   UNL A   1      31.713  30.110  27.149  1.00  0.00    -0.132 F 
ENDBRANCH  18  19
ENDBRANCH  12  18
BRANCH  17  23
ATOM     23  C   UNL A   1      34.676  21.993  26.515  1.00  0.00     0.429 C 
ATOM     24  F   UNL A   1      33.699  21.293  27.143  1.00  0.00    -0.167 F 
ATOM     25  F   UNL A   1      35.746  21.167  26.434  1.00  0.00    -0.167 F 
ATOM     26  F   UNL A   1      35.029  23.016  27.324  1.00  0.00    -0.167 F 
ENDBRANCH  17  23
ENDBRANCH   4   7
ENDBRANCH   2   3
ENDBRANCH   1   2
BRANCH   1  27
ATOM     27  C   UNL A   1      39.197  21.160  25.648  1.00  0.00     0.023 C 
BRANCH  27  28
ATOM     28  C   UNL A   1      39.711  19.981  26.473  1.00  0.00     0.116 C 
BRANCH  28  29
ATOM     29  N   UNL A   1      40.856  19.313  25.874  1.00  0.00    -0.352 N 
ATOM     30  C   UNL A   1      42.135  19.795  25.744  1.00  0.00     0.251 C 
ATOM     31  H   UNL A   1      40.695  18.409  25.520  1.00  0.00     0.163 HD
ATOM     32  O   UNL A   1      42.995  19.165  25.140  1.00  0.00    -0.269 OA
BRANCH  30  33
ATOM     33  C   UNL A   1      42.445  21.108  26.330  1.00  0.00     0.039 A 
ATOM     34  C   UNL A   1      42.733  22.177  25.478  1.00  0.00     0.014 A 
ATOM     35  C   UNL A   1      42.383  21.282  27.715  1.00  0.00     0.014 A 
ATOM     36  C   UNL A   1      42.913  23.449  26.018  1.00  0.00     0.010 A 
ATOM     37  C   UNL A   1      42.524  22.556  28.248  1.00  0.00     0.010 A 
ATOM     38  C   UNL A   1      42.793  23.646  27.402  1.00  0.00    -0.014 A 
BRANCH  38  39
ATOM     39  C   UNL A   1      43.003  24.977  28.008  1.00  0.00     0.031 A 
ATOM     40  C   UNL A   1      44.374  25.351  28.487  1.00  0.00     0.074 A 
ATOM     41  C   UNL A   1      41.966  25.816  28.179  1.00  0.00     0.049 A 
ATOM     42  N   UNL A   1      44.752  26.406  29.159  1.00  0.00    -0.248 NA
ATOM     43  C   UNL A   1      45.459  24.402  28.184  1.00  0.00     0.031 C 
ATOM     44  C   UNL A   1      40.588  25.564  27.751  1.00  0.00     0.029 A 
ATOM     45  N   UNL A   1      41.913  27.052  28.770  1.00  0.00    -0.354 N 
ATOM     46  C   UNL A   1      46.114  26.241  29.371  1.00  0.00     0.074 A 
ATOM     47  C   UNL A   1      46.491  24.973  28.787  1.00  0.00     0.031 C 
ATOM     48  C   UNL A   1      39.829  26.623  28.078  1.00  0.00     0.029 A 
ATOM     49  C   UNL A   1      40.658  27.607  28.771  1.00  0.00     0.049 A 
ATOM     50  H   UNL A   1      42.701  27.499  29.156  1.00  0.00     0.167 HD
ATOM     51  C   UNL A   1      46.977  27.080  29.988  1.00  0.00     0.031 A 
ATOM     52  C   UNL A   1      40.224  28.774  29.284  1.00  0.00     0.031 A 
ATOM     53  C   UNL A   1      46.606  28.344  30.558  1.00  0.00     0.049 A 
ATOM     54  C   UNL A   1      41.194  29.672  29.997  1.00  0.00     0.074 A 
ATOM     55  C   UNL A   1      47.414  29.274  31.188  1.00  0.00     0.029 A 
ATOM     56  N   UNL A   1      45.320  28.860  30.557  1.00  0.00    -0.354 N 
ATOM     57  N   UNL A   1      42.478  29.500  30.202  1.00  0.00    -0.248 NA
ATOM     58  C   UNL A   1      40.654  30.919  30.557  1.00  0.00     0.031 C 
ATOM     59  C   UNL A   1      46.609  30.343  31.595  1.00  0.00     0.029 A 
ATOM     60  C   UNL A   1      45.309  30.092  31.185  1.00  0.00     0.049 A 
ATOM     61  H   UNL A   1      44.532  28.416  30.168  1.00  0.00     0.167 HD
ATOM     62  C   UNL A   1      42.902  30.620  30.903  1.00  0.00     0.074 A 
ATOM     63  C   UNL A   1      41.743  31.471  31.080  1.00  0.00     0.031 C 
ATOM     64  C   UNL A   1      44.142  30.916  31.359  1.00  0.00     0.031 A 
BRANCH  51  65
ATOM     65  C   UNL A   1      48.408  26.648  30.076  1.00  0.00    -0.014 A 
ATOM     66  C   UNL A   1      48.844  25.815  31.118  1.00  0.00     0.009 A 
ATOM     67  C   UNL A   1      49.323  27.046  29.089  1.00  0.00     0.009 A 
ATOM     68  C   UNL A   1      50.176  25.404  31.180  1.00  0.00     0.001 A 
ATOM     69  C   UNL A   1      50.650  26.618  29.144  1.00  0.00     0.001 A 
ATOM     70  C   UNL A   1      51.075  25.801  30.192  1.00  0.00     0.000 A 
ENDBRANCH  51  65
BRANCH  52  71
ATOM     71  C   UNL A   1      38.800  29.161  29.132  1.00  0.00    -0.014 A 
ATOM     72  C   UNL A   1      37.903  28.972  30.193  1.00  0.00     0.009 A 
ATOM     73  C   UNL A   1      38.337  29.741  27.942  1.00  0.00     0.009 A 
ATOM     74  C   UNL A   1      36.565  29.348  30.062  1.00  0.00     0.001 A 
ATOM     75  C   UNL A   1      37.002  30.132  27.820  1.00  0.00     0.001 A 
ATOM     76  C   UNL A   1      36.117  29.933  28.878  1.00  0.00     0.000 A 
ENDBRANCH  52  71
BRANCH  64  77
ATOM     77  C   UNL A   1      44.319  32.213  32.090  1.00  0.00    -0.014 A 
ATOM     78  C   UNL A   1      44.592  33.399  31.392  1.00  0.00     0.009 A 
ATOM     79  C   UNL A   1      44.126  32.263  33.479  1.00  0.00     0.009 A 
ATOM     80  C   UNL A   1      44.680  34.612  32.076  1.00  0.00     0.001 A 
ATOM     81  C   UNL A   1      44.196  33.480  34.157  1.00  0.00     0.001 A 
ATOM     82  C   UNL A   1      44.476  34.653  33.455  1.00  0.00     0.000 A 
ENDBRANCH  64  77
ENDBRANCH  38  39
ENDBRANCH  30  33
ENDBRANCH  28  29
ENDBRANCH  27  28
ENDBRANCH   1  27
TORSDOF 14
ENDMDL
MODEL 2
REMARK VINA RESULT:     -11.5      0.686      5.868
REMARK SMILES Cc1cc(OC(F)(F)F)cc2c1O[C@H](C(F)(F)F)C(C(=O)NCCCCNC(=O)c1ccc(-c3c4nc(c(-c5ccccc5)c5ccc([nH]5)c(-c5ccccc5)c5nc(c(-c6ccccc6)c6ccc3[nH]6)C=C5)C=C4)cc1)=C2
REMARK SMILES IDX 24 1 23 2 22 3 20 4 21 5 19 7 1 8 2 9 3 10 12 11 4 12 11 13
REMARK SMILES IDX 13 14 10 15 78 16 14 17 5 18 6 19 7 20 8 21 9 22 15 23 16 24
REMARK SMILES IDX 17 25 18 26 25 27 26 28 27 29 28 30 29 32 30 33 31 34 77 35
REMARK SMILES IDX 32 36 76 37 33 38 34 39 35 40 70 41 36 42 75 43 69 44 71 45
REMARK SMILES IDX 37 46 74 47 68 48 67 49 38 51 60 52 45 53 59 54 46 55 49 56
REMARK SMILES IDX 58 57 72 58 47 59 48 60 57 62 73 63 50 64 39 65 40 66 44 67
REMARK SMILES IDX 41 68 43 69 42 70 61 71 62 72 66 73 63 74 65 75 64 76 51 77
REMARK SMILES IDX 52 78 56 79 53 80 55 81 54 82
REMARK H PARENT 22 6 27 31 71 50 49 61
REMARK Flexibility Score: inf
ROOT
ATOM      1  C   UNL A   1      39.077  22.857  26.533  1.00  0.00     0.023 C 
ENDROOT
BRANCH   1   2
ATOM      2  C   UNL A   1      38.041  23.823  25.966  1.00  0.00     0.116 C 
BRANCH   2   3
ATOM      3  N   UNL A   1      37.596  23.422  24.645  1.00  0.00    -0.352 N 
ATOM      4  C   UNL A   1      36.412  23.289  24.001  1.00  0.00     0.251 C 
ATOM      5  O   UNL A   1      36.493  22.891  22.834  1.00  0.00    -0.270 OA
ATOM      6  H   UNL A   1      38.353  23.183  24.063  1.00  0.00     0.163 HD
BRANCH   4   7
ATOM      7  C   UNL A   1      35.072  23.579  24.591  1.00  0.00     0.067 C 
ATOM      8  C   UNL A   1      30.255  23.500  26.445  1.00  0.00     0.048 C 
ATOM      9  C   UNL A   1      31.237  24.557  26.021  1.00  0.00    -0.005 A 
ATOM     10  C   UNL A   1      30.902  25.909  26.200  1.00  0.00     0.054 A 
ATOM     11  C   UNL A   1      32.498  24.234  25.506  1.00  0.00     0.131 A 
ATOM     12  C   UNL A   1      31.796  26.922  25.843  1.00  0.00     0.130 A 
ATOM     13  C   UNL A   1      33.401  25.235  25.145  1.00  0.00     0.021 A 
ATOM     14  O   UNL A   1      32.784  22.911  25.325  1.00  0.00    -0.475 OA
ATOM     15  C   UNL A   1      33.045  26.576  25.315  1.00  0.00     0.058 A 
ATOM     16  C   UNL A   1      34.687  24.869  24.561  1.00  0.00     0.025 C 
ATOM     17  C   UNL A   1      34.186  22.550  25.233  1.00  0.00     0.314 C 
BRANCH  12  18
ATOM     18  O   UNL A   1      31.582  28.266  25.955  1.00  0.00    -0.406 OA
BRANCH  18  19
ATOM     19  C   UNL A   1      31.794  28.866  27.221  1.00  0.00     0.573 C 
ATOM     20  F   UNL A   1      30.969  28.343  28.154  1.00  0.00    -0.132 F 
ATOM     21  F   UNL A   1      33.076  28.718  27.620  1.00  0.00    -0.132 F 
ATOM     22  F   UNL A   1      31.534  30.188  27.125  1.00  0.00    -0.132 F 
ENDBRANCH  18  19
ENDBRANCH  12  18
BRANCH  17  23
ATOM     23  C   UNL A   1      34.688  22.112  26.622  1.00  0.00     0.429 C 
ATOM     24  F   UNL A   1      35.777  21.312  26.499  1.00  0.00    -0.167 F 
ATOM     25  F   UNL A   1      35.070  23.160  27.389  1.00  0.00    -0.167 F 
ATOM     26  F   UNL A   1      33.757  21.429  27.323  1.00  0.00    -0.167 F 
ENDBRANCH  17  23
ENDBRANCH   4   7
ENDBRANCH   2   3
ENDBRANCH   1   2
BRANCH   1  27
ATOM     27  C   UNL A   1      39.155  21.526  25.782  1.00  0.00     0.023 C 
BRANCH  27  28
ATOM     28  C   UNL A   1      39.608  20.333  26.621  1.00  0.00     0.116 C 
BRANCH  28  29
ATOM     29  N   UNL A   1      40.676  19.563  26.000  1.00  0.00    -0.352 N 
ATOM     30  C   UNL A   1      41.990  19.925  25.842  1.00  0.00     0.251 C 
ATOM     31  H   UNL A   1      40.425  18.677  25.651  1.00  0.00     0.163 HD
ATOM     32  O   UNL A   1      42.776  19.219  25.222  1.00  0.00    -0.269 OA
BRANCH  30  33
ATOM     33  C   UNL A   1      42.431  21.205  26.418  1.00  0.00     0.039 A 
ATOM     34  C   UNL A   1      42.768  22.252  25.558  1.00  0.00     0.014 A 
ATOM     35  C   UNL A   1      42.443  21.374  27.806  1.00  0.00     0.014 A 
ATOM     36  C   UNL A   1      43.074  23.502  26.094  1.00  0.00     0.010 A 
ATOM     37  C   UNL A   1      42.710  22.629  28.335  1.00  0.00     0.010 A 
ATOM     38  C   UNL A   1      43.030  23.699  27.483  1.00  0.00    -0.014 A 
BRANCH  38  39
ATOM     39  C   UNL A   1      43.374  25.004  28.083  1.00  0.00     0.031 A 
ATOM     40  C   UNL A   1      42.285  26.004  28.327  1.00  0.00     0.074 A 
ATOM     41  C   UNL A   1      44.656  25.309  28.353  1.00  0.00     0.049 A 
ATOM     42  N   UNL A   1      42.380  27.247  28.721  1.00  0.00    -0.248 NA
ATOM     43  C   UNL A   1      40.906  25.551  28.076  1.00  0.00     0.031 C 
ATOM     44  C   UNL A   1      45.802  24.416  28.163  1.00  0.00     0.029 A 
ATOM     45  N   UNL A   1      45.210  26.465  28.840  1.00  0.00    -0.354 N 
ATOM     46  C   UNL A   1      41.078  27.727  28.751  1.00  0.00     0.074 A 
ATOM     47  C   UNL A   1      40.214  26.656  28.306  1.00  0.00     0.031 C 
ATOM     48  C   UNL A   1      46.920  25.055  28.546  1.00  0.00     0.029 A 
ATOM     49  C   UNL A   1      46.574  26.408  28.971  1.00  0.00     0.049 A 
ATOM     50  H   UNL A   1      44.678  27.261  29.073  1.00  0.00     0.167 HD
ATOM     51  C   UNL A   1      40.641  28.949  29.129  1.00  0.00     0.031 A 
ATOM     52  C   UNL A   1      47.448  27.349  29.378  1.00  0.00     0.031 A 
ATOM     53  C   UNL A   1      41.496  30.008  29.583  1.00  0.00     0.049 A 
ATOM     54  C   UNL A   1      46.942  28.711  29.758  1.00  0.00     0.074 A 
ATOM     55  C   UNL A   1      41.144  31.277  30.006  1.00  0.00     0.029 A 
ATOM     56  N   UNL A   1      42.875  29.917  29.681  1.00  0.00    -0.354 N 
ATOM     57  N   UNL A   1      45.709  29.157  29.772  1.00  0.00    -0.248 NA
ATOM     58  C   UNL A   1      47.947  29.701  30.170  1.00  0.00     0.031 C 
ATOM     59  C   UNL A   1      42.316  31.966  30.335  1.00  0.00     0.029 A 
ATOM     60  C   UNL A   1      43.392  31.112  30.149  1.00  0.00     0.049 A 
ATOM     61  H   UNL A   1      43.408  29.122  29.452  1.00  0.00     0.167 HD
ATOM     62  C   UNL A   1      45.787  30.473  30.204  1.00  0.00     0.074 A 
ATOM     63  C   UNL A   1      47.188  30.752  30.453  1.00  0.00     0.031 C 
ATOM     64  C   UNL A   1      44.789  31.371  30.378  1.00  0.00     0.031 A 
BRANCH  51  65
ATOM     65  C   UNL A   1      39.165  29.200  29.065  1.00  0.00    -0.014 A 
ATOM     66  C   UNL A   1      38.556  29.595  27.864  1.00  0.00     0.009 A 
ATOM     67  C   UNL A   1      38.370  29.002  30.204  1.00  0.00     0.009 A 
ATOM     68  C   UNL A   1      37.178  29.809  27.811  1.00  0.00     0.001 A 
ATOM     69  C   UNL A   1      36.990  29.198  30.142  1.00  0.00     0.001 A 
ATOM     70  C   UNL A   1      36.397  29.605  28.947  1.00  0.00     0.000 A 
ENDBRANCH  51  65
BRANCH  52  71
ATOM     71  C   UNL A   1      48.894  27.026  29.455  1.00  0.00    -0.014 A 
ATOM     72  C   UNL A   1      49.426  26.451  30.618  1.00  0.00     0.009 A 
ATOM     73  C   UNL A   1      49.741  27.267  28.363  1.00  0.00     0.009 A 
ATOM     74  C   UNL A   1      50.782  26.131  30.690  1.00  0.00     0.001 A 
ATOM     75  C   UNL A   1      51.095  26.929  28.432  1.00  0.00     0.001 A 
ATOM     76  C   UNL A   1      51.615  26.365  29.596  1.00  0.00     0.000 A 
ENDBRANCH  52  71
BRANCH  64  77
ATOM     77  C   UNL A   1      45.164  32.738  30.865  1.00  0.00    -0.014 A 
ATOM     78  C   UNL A   1      45.266  33.008  32.238  1.00  0.00     0.009 A 
ATOM     79  C   UNL A   1      45.501  33.739  29.941  1.00  0.00     0.009 A 
ATOM     80  C   UNL A   1      45.689  34.264  32.676  1.00  0.00     0.001 A 
ATOM     81  C   UNL A   1      45.942  34.987  30.383  1.00  0.00     0.001 A 
ATOM     82  C   UNL A   1      46.032  35.249  31.750  1.00  0.00     0.000 A 
ENDBRANCH  64  77
ENDBRANCH  38  39
ENDBRANCH  30  33
ENDBRANCH  28  29
ENDBRANCH  27  28
ENDBRANCH   1  27
TORSDOF 14
ENDMDL
MODEL 3
REMARK VINA RESULT:     -11.4      3.219      8.768
REMARK SMILES Cc1cc(OC(F)(F)F)cc2c1O[C@H](C(F)(F)F)C(C(=O)NCCCCNC(=O)c1ccc(-c3c4nc(c(-c5ccccc5)c5ccc([nH]5)c(-c5ccccc5)c5nc(c(-c6ccccc6)c6ccc3[nH]6)C=C5)C=C4)cc1)=C2
REMARK SMILES IDX 24 1 23 2 22 3 20 4 21 5 19 7 1 8 2 9 3 10 12 11 4 12 11 13
REMARK SMILES IDX 13 14 10 15 78 16 14 17 5 18 6 19 7 20 8 21 9 22 15 23 16 24
REMARK SMILES IDX 17 25 18 26 25 27 26 28 27 29 28 30 29 32 30 33 31 34 77 35
REMARK SMILES IDX 32 36 76 37 33 38 34 39 35 40 70 41 36 42 75 43 69 44 71 45
REMARK SMILES IDX 37 46 74 47 68 48 67 49 38 51 60 52 45 53 59 54 46 55 49 56
REMARK SMILES IDX 58 57 72 58 47 59 48 60 57 62 73 63 50 64 39 65 40 66 44 67
REMARK SMILES IDX 41 68 43 69 42 70 61 71 62 72 66 73 63 74 65 75 64 76 51 77
REMARK SMILES IDX 52 78 56 79 53 80 55 81 54 82
REMARK H PARENT 22 6 27 31 71 50 49 61
REMARK Flexibility Score: inf
ROOT
ATOM      1  C   UNL A   1      34.696  31.008  27.985  1.00  0.00     0.023 C 
ENDROOT
BRANCH   1   2
ATOM      2  C   UNL A   1      34.473  29.636  27.357  1.00  0.00     0.116 C 
BRANCH   2   3
ATOM      3  N   UNL A   1      33.200  29.062  27.751  1.00  0.00    -0.352 N 
ATOM      4  C   UNL A   1      32.348  28.126  27.269  1.00  0.00     0.251 C 
ATOM      5  O   UNL A   1      31.328  27.950  27.943  1.00  0.00    -0.270 OA
ATOM      6  H   UNL A   1      32.867  29.457  28.588  1.00  0.00     0.163 HD
BRANCH   4   7
ATOM      7  C   UNL A   1      32.557  27.329  26.024  1.00  0.00     0.067 C 
ATOM      8  C   UNL A   1      32.421  25.171  21.337  1.00  0.00     0.048 C 
ATOM      9  C   UNL A   1      33.057  24.849  22.661  1.00  0.00    -0.005 A 
ATOM     10  C   UNL A   1      33.919  23.745  22.752  1.00  0.00     0.054 A 
ATOM     11  C   UNL A   1      32.859  25.650  23.792  1.00  0.00     0.131 A 
ATOM     12  C   UNL A   1      34.550  23.426  23.958  1.00  0.00     0.130 A 
ATOM     13  C   UNL A   1      33.482  25.343  25.004  1.00  0.00     0.021 A 
ATOM     14  O   UNL A   1      31.998  26.703  23.676  1.00  0.00    -0.475 OA
ATOM     15  C   UNL A   1      34.325  24.231  25.080  1.00  0.00     0.058 A 
ATOM     16  C   UNL A   1      33.214  26.164  26.179  1.00  0.00     0.025 C 
ATOM     17  C   UNL A   1      32.127  27.767  24.653  1.00  0.00     0.314 C 
BRANCH  12  18
ATOM     18  O   UNL A   1      35.395  22.375  24.175  1.00  0.00    -0.406 OA
BRANCH  18  19
ATOM     19  C   UNL A   1      36.758  22.540  23.824  1.00  0.00     0.573 C 
ATOM     20  F   UNL A   1      36.911  22.620  22.484  1.00  0.00    -0.132 F 
ATOM     21  F   UNL A   1      37.279  23.644  24.402  1.00  0.00    -0.132 F 
ATOM     22  F   UNL A   1      37.453  21.468  24.262  1.00  0.00    -0.132 F 
ENDBRANCH  18  19
ENDBRANCH  12  18
BRANCH  17  23
ATOM     23  C   UNL A   1      33.020  28.881  24.074  1.00  0.00     0.429 C 
ATOM     24  F   UNL A   1      32.731  29.085  22.765  1.00  0.00    -0.167 F 
ATOM     25  F   UNL A   1      32.835  30.070  24.695  1.00  0.00    -0.167 F 
ATOM     26  F   UNL A   1      34.337  28.592  24.161  1.00  0.00    -0.167 F 
ENDBRANCH  17  23
ENDBRANCH   4   7
ENDBRANCH   2   3
ENDBRANCH   1   2
BRANCH   1  27
ATOM     27  C   UNL A   1      33.471  31.923  27.919  1.00  0.00     0.023 C 
BRANCH  27  28
ATOM     28  C   UNL A   1      33.778  33.405  27.714  1.00  0.00     0.116 C 
BRANCH  28  29
ATOM     29  N   UNL A   1      33.240  34.256  28.764  1.00  0.00    -0.352 N 
ATOM     30  C   UNL A   1      33.696  34.392  30.051  1.00  0.00     0.251 C 
ATOM     31  H   UNL A   1      32.455  34.799  28.523  1.00  0.00     0.163 HD
ATOM     32  O   UNL A   1      33.100  35.081  30.870  1.00  0.00    -0.269 OA
BRANCH  30  33
ATOM     33  C   UNL A   1      34.915  33.663  30.436  1.00  0.00     0.039 A 
ATOM     34  C   UNL A   1      34.809  32.597  31.333  1.00  0.00     0.014 A 
ATOM     35  C   UNL A   1      36.139  34.002  29.853  1.00  0.00     0.014 A 
ATOM     36  C   UNL A   1      35.938  31.829  31.613  1.00  0.00     0.010 A 
ATOM     37  C   UNL A   1      37.253  33.212  30.103  1.00  0.00     0.010 A 
ATOM     38  C   UNL A   1      37.159  32.123  30.986  1.00  0.00    -0.014 A 
BRANCH  38  39
ATOM     39  C   UNL A   1      38.380  31.344  31.281  1.00  0.00     0.031 A 
ATOM     40  C   UNL A   1      39.275  31.788  32.398  1.00  0.00     0.074 A 
ATOM     41  C   UNL A   1      38.708  30.285  30.519  1.00  0.00     0.049 A 
ATOM     42  N   UNL A   1      40.450  31.331  32.744  1.00  0.00    -0.248 NA
ATOM     43  C   UNL A   1      38.791  32.906  33.226  1.00  0.00     0.031 C 
ATOM     44  C   UNL A   1      37.914  29.757  29.408  1.00  0.00     0.029 A 
ATOM     45  N   UNL A   1      39.809  29.469  30.563  1.00  0.00    -0.354 N 
ATOM     46  C   UNL A   1      40.852  32.115  33.816  1.00  0.00     0.074 A 
ATOM     47  C   UNL A   1      39.814  33.095  34.047  1.00  0.00     0.031 C 
ATOM     48  C   UNL A   1      38.548  28.692  28.887  1.00  0.00     0.029 A 
ATOM     49  C   UNL A   1      39.805  28.490  29.602  1.00  0.00     0.049 A 
ATOM     50  H   UNL A   1      40.533  29.575  31.223  1.00  0.00     0.167 HD
ATOM     51  C   UNL A   1      41.981  32.017  34.553  1.00  0.00     0.031 A 
ATOM     52  C   UNL A   1      40.721  27.543  29.323  1.00  0.00     0.031 A 
ATOM     53  C   UNL A   1      43.007  31.037  34.333  1.00  0.00     0.049 A 
ATOM     54  C   UNL A   1      41.985  27.477  30.131  1.00  0.00     0.074 A 
ATOM     55  C   UNL A   1      44.181  30.847  35.039  1.00  0.00     0.029 A 
ATOM     56  N   UNL A   1      42.975  30.077  33.335  1.00  0.00    -0.354 N 
ATOM     57  N   UNL A   1      42.359  28.231  31.137  1.00  0.00    -0.248 NA
ATOM     58  C   UNL A   1      42.956  26.437  29.762  1.00  0.00     0.031 C 
ATOM     59  C   UNL A   1      44.875  29.785  34.450  1.00  0.00     0.029 A 
ATOM     60  C   UNL A   1      44.114  29.295  33.400  1.00  0.00     0.049 A 
ATOM     61  H   UNL A   1      42.250  29.967  32.678  1.00  0.00     0.167 HD
ATOM     62  C   UNL A   1      43.600  27.751  31.528  1.00  0.00     0.074 A 
ATOM     63  C   UNL A   1      43.914  26.634  30.660  1.00  0.00     0.031 C 
ATOM     64  C   UNL A   1      44.410  28.196  32.519  1.00  0.00     0.031 A 
BRANCH  51  65
ATOM     65  C   UNL A   1      42.161  33.002  35.667  1.00  0.00    -0.014 A 
ATOM     66  C   UNL A   1      42.791  34.235  35.440  1.00  0.00     0.009 A 
ATOM     67  C   UNL A   1      41.663  32.713  36.946  1.00  0.00     0.009 A 
ATOM     68  C   UNL A   1      42.937  35.154  36.481  1.00  0.00     0.001 A 
ATOM     69  C   UNL A   1      41.794  33.641  37.980  1.00  0.00     0.001 A 
ATOM     70  C   UNL A   1      42.435  34.857  37.747  1.00  0.00     0.000 A 
ENDBRANCH  51  65
BRANCH  52  71
ATOM     71  C   UNL A   1      40.467  26.573  28.229  1.00  0.00    -0.014 A 
ATOM     72  C   UNL A   1      39.688  25.432  28.468  1.00  0.00     0.009 A 
ATOM     73  C   UNL A   1      40.977  26.795  26.941  1.00  0.00     0.009 A 
ATOM     74  C   UNL A   1      39.433  24.524  27.439  1.00  0.00     0.001 A 
ATOM     75  C   UNL A   1      40.704  25.893  25.910  1.00  0.00     0.001 A 
ATOM     76  C   UNL A   1      39.937  24.758  26.160  1.00  0.00     0.000 A 
ENDBRANCH  52  71
BRANCH  64  77
ATOM     77  C   UNL A   1      45.710  27.479  32.726  1.00  0.00    -0.014 A 
ATOM     78  C   UNL A   1      45.779  26.341  33.544  1.00  0.00     0.009 A 
ATOM     79  C   UNL A   1      46.854  27.895  32.030  1.00  0.00     0.009 A 
ATOM     80  C   UNL A   1      46.978  25.638  33.668  1.00  0.00     0.001 A 
ATOM     81  C   UNL A   1      48.047  27.179  32.142  1.00  0.00     0.001 A 
ATOM     82  C   UNL A   1      48.108  26.054  32.964  1.00  0.00     0.000 A 
ENDBRANCH  64  77
ENDBRANCH  38  39
ENDBRANCH  30  33
ENDBRANCH  28  29
ENDBRANCH  27  28
ENDBRANCH   1  27
TORSDOF 14
ENDMDL
