MODEL 1
REMARK VINA RESULT:     -12.8      0.000      0.000
REMARK SMILES COc1ccc(Cl)c2c1N[C@@H](c1ccc(C(=O)NCCCCNC(=O)c3ccc(-c4c5nc(c(-c6ccccc6)c6ccc([nH]6)c(-c6ccccc6)c6nc(c(-c7ccccc7)c7ccc4[nH]7)C=C6)C=C5)cc3)cc1)[C@@H]1CC=C[C@H]21
REMARK SMILES IDX 20 1 19 2 18 3 16 4 17 5 15 7 12 8 13 9 75 10 14 11 74 12
REMARK SMILES IDX 11 13 3 14 4 15 9 16 5 17 8 18 10 19 6 20 80 21 7 23 76 24
REMARK SMILES IDX 79 25 77 26 78 27 2 28 1 29 21 30 22 31 23 32 24 33 25 35
REMARK SMILES IDX 26 36 27 37 73 38 28 39 72 40 29 41 30 42 31 43 66 44 32 45
REMARK SMILES IDX 71 46 65 47 67 48 33 49 70 50 64 51 63 52 34 54 56 55 41 56
REMARK SMILES IDX 55 57 42 58 45 59 54 60 68 61 43 62 44 63 53 65 69 66 46 67
REMARK SMILES IDX 35 68 36 69 40 70 37 71 39 72 38 73 57 74 58 75 62 76 59 77
REMARK SMILES IDX 61 78 60 79 47 80 48 81 52 82 49 83 51 84 50 85
REMARK H PARENT 18 6 10 22 23 34 67 53 45 64
REMARK Flexibility Score: inf
ROOT
ATOM      1  C   UNL A   1      37.261  21.408  24.482  1.00  0.00     0.023 C 
ENDROOT
BRANCH   1   2
ATOM      2  C   UNL A   1      36.853  22.393  25.580  1.00  0.00     0.116 C 
BRANCH   2   3
ATOM      3  N   UNL A   1      35.908  21.791  26.500  1.00  0.00    -0.352 N 
ATOM      4  C   UNL A   1      34.646  22.182  26.872  1.00  0.00     0.251 C 
ATOM      5  O   UNL A   1      33.999  21.446  27.615  1.00  0.00    -0.269 OA
ATOM      6  H   UNL A   1      36.225  20.964  26.930  1.00  0.00     0.163 HD
BRANCH   4   7
ATOM      7  C   UNL A   1      34.023  23.434  26.367  1.00  0.00     0.039 A 
ATOM      8  C   UNL A   1      32.965  25.850  25.359  1.00  0.00    -0.025 A 
ATOM      9  C   UNL A   1      34.251  25.424  24.993  1.00  0.00     0.006 A 
ATOM     10  C   UNL A   1      32.205  25.030  26.204  1.00  0.00     0.006 A 
ATOM     11  C   UNL A   1      34.769  24.220  25.482  1.00  0.00     0.014 A 
ATOM     12  C   UNL A   1      32.726  23.830  26.690  1.00  0.00     0.014 A 
BRANCH   8  13
ATOM     13  C   UNL A   1      32.369  27.163  24.875  1.00  0.00     0.114 C 
ATOM     14  C   UNL A   1      32.189  30.452  26.598  1.00  0.00     0.142 A 
ATOM     15  C   UNL A   1      31.600  31.706  26.466  1.00  0.00     0.050 A 
ATOM     16  C   UNL A   1      31.822  29.376  25.765  1.00  0.00     0.083 A 
ATOM     17  C   UNL A   1      30.651  31.912  25.472  1.00  0.00     0.025 A 
ATOM     18  C   UNL A   1      30.850  29.578  24.764  1.00  0.00     0.005 A 
ATOM     19  N   UNL A   1      32.386  28.124  25.959  1.00  0.00    -0.375 N 
ATOM     20  C   UNL A   1      30.274  30.860  24.631  1.00  0.00     0.047 A 
ATOM     21  C   UNL A   1      30.388  28.410  23.920  1.00  0.00     0.051 C 
ATOM     22  H   UNL A   1      32.795  27.891  26.823  1.00  0.00     0.161 HD
ATOM     23  Cl  UNL A   1      29.043  31.199  23.462  1.00  0.00    -0.084 Cl
ATOM     24  C   UNL A   1      30.928  27.021  24.349  1.00  0.00     0.031 C 
ATOM     25  C   UNL A   1      30.809  28.451  22.470  1.00  0.00    -0.023 C 
ATOM     26  C   UNL A   1      30.838  26.188  23.056  1.00  0.00     0.034 C 
ATOM     27  C   UNL A   1      31.040  27.221  21.994  1.00  0.00    -0.030 C 
BRANCH  14  28
ATOM     28  O   UNL A   1      33.090  30.289  27.624  1.00  0.00    -0.495 OA
ATOM     29  C   UNL A   1      33.938  31.431  27.759  1.00  0.00     0.278 C 
ENDBRANCH  14  28
ENDBRANCH   8  13
ENDBRANCH   4   7
ENDBRANCH   2   3
ENDBRANCH   1   2
BRANCH   1  30
ATOM     30  C   UNL A   1      37.905  20.119  24.990  1.00  0.00     0.023 C 
BRANCH  30  31
ATOM     31  C   UNL A   1      39.143  20.320  25.850  1.00  0.00     0.116 C 
BRANCH  31  32
ATOM     32  N   UNL A   1      40.074  19.204  25.789  1.00  0.00    -0.352 N 
ATOM     33  C   UNL A   1      41.430  19.235  26.009  1.00  0.00     0.251 C 
ATOM     34  H   UNL A   1      39.688  18.325  25.566  1.00  0.00     0.163 HD
ATOM     35  O   UNL A   1      42.127  18.243  25.861  1.00  0.00    -0.269 OA
BRANCH  33  36
ATOM     36  C   UNL A   1      42.030  20.526  26.387  1.00  0.00     0.039 A 
ATOM     37  C   UNL A   1      42.384  21.420  25.377  1.00  0.00     0.014 A 
ATOM     38  C   UNL A   1      42.120  20.882  27.737  1.00  0.00     0.014 A 
ATOM     39  C   UNL A   1      42.780  22.710  25.722  1.00  0.00     0.010 A 
ATOM     40  C   UNL A   1      42.468  22.183  28.076  1.00  0.00     0.010 A 
ATOM     41  C   UNL A   1      42.794  23.106  27.070  1.00  0.00    -0.014 A 
BRANCH  41  42
ATOM     42  C   UNL A   1      43.160  24.489  27.444  1.00  0.00     0.031 A 
ATOM     43  C   UNL A   1      44.595  24.918  27.384  1.00  0.00     0.074 A 
ATOM     44  C   UNL A   1      42.207  25.341  27.861  1.00  0.00     0.049 A 
ATOM     45  N   UNL A   1      45.114  26.083  27.670  1.00  0.00    -0.248 NA
ATOM     46  C   UNL A   1      45.575  23.903  26.963  1.00  0.00     0.031 C 
ATOM     47  C   UNL A   1      40.782  25.027  27.985  1.00  0.00     0.029 A 
ATOM     48  N   UNL A   1      42.295  26.652  28.253  1.00  0.00    -0.354 N 
ATOM     49  C   UNL A   1      46.479  25.943  27.463  1.00  0.00     0.074 A 
ATOM     50  C   UNL A   1      46.715  24.570  27.072  1.00  0.00     0.031 C 
ATOM     51  C   UNL A   1      40.126  26.126  28.390  1.00  0.00     0.029 A 
ATOM     52  C   UNL A   1      41.084  27.213  28.575  1.00  0.00     0.049 A 
ATOM     53  H   UNL A   1      43.147  27.146  28.297  1.00  0.00     0.167 HD
ATOM     54  C   UNL A   1      47.445  26.881  27.564  1.00  0.00     0.031 A 
ATOM     55  C   UNL A   1      40.779  28.465  28.964  1.00  0.00     0.031 A 
ATOM     56  C   UNL A   1      47.211  28.246  27.939  1.00  0.00     0.049 A 
ATOM     57  C   UNL A   1      41.873  29.486  29.089  1.00  0.00     0.074 A 
ATOM     58  C   UNL A   1      48.124  29.281  28.030  1.00  0.00     0.029 A 
ATOM     59  N   UNL A   1      45.973  28.766  28.278  1.00  0.00    -0.354 N 
ATOM     60  N   UNL A   1      43.154  29.348  28.851  1.00  0.00    -0.248 NA
ATOM     61  C   UNL A   1      41.481  30.833  29.530  1.00  0.00     0.031 C 
ATOM     62  C   UNL A   1      47.442  30.424  28.454  1.00  0.00     0.029 A 
ATOM     63  C   UNL A   1      46.099  30.106  28.591  1.00  0.00     0.049 A 
ATOM     64  H   UNL A   1      45.130  28.259  28.293  1.00  0.00     0.167 HD
ATOM     65  C   UNL A   1      43.719  30.592  29.094  1.00  0.00     0.074 A 
ATOM     66  C   UNL A   1      42.644  31.474  29.495  1.00  0.00     0.031 C 
ATOM     67  C   UNL A   1      45.017  30.967  28.988  1.00  0.00     0.031 A 
BRANCH  54  68
ATOM     68  C   UNL A   1      48.849  26.461  27.248  1.00  0.00    -0.014 A 
ATOM     69  C   UNL A   1      49.701  25.997  28.262  1.00  0.00     0.009 A 
ATOM     70  C   UNL A   1      49.307  26.482  25.923  1.00  0.00     0.009 A 
ATOM     71  C   UNL A   1      50.996  25.578  27.956  1.00  0.00     0.001 A 
ATOM     72  C   UNL A   1      50.598  26.045  25.618  1.00  0.00     0.001 A 
ATOM     73  C   UNL A   1      51.441  25.599  26.635  1.00  0.00     0.000 A 
ENDBRANCH  54  68
BRANCH  55  74
ATOM     74  C   UNL A   1      39.363  28.826  29.216  1.00  0.00    -0.014 A 
ATOM     75  C   UNL A   1      38.560  29.296  28.167  1.00  0.00     0.009 A 
ATOM     76  C   UNL A   1      38.796  28.661  30.489  1.00  0.00     0.009 A 
ATOM     77  C   UNL A   1      37.214  29.599  28.388  1.00  0.00     0.001 A 
ATOM     78  C   UNL A   1      37.447  28.950  30.704  1.00  0.00     0.001 A 
ATOM     79  C   UNL A   1      36.658  29.421  29.655  1.00  0.00     0.000 A 
ENDBRANCH  55  74
BRANCH  67  80
ATOM     80  C   UNL A   1      45.360  32.394  29.292  1.00  0.00    -0.014 A 
ATOM     81  C   UNL A   1      45.789  32.769  30.572  1.00  0.00     0.009 A 
ATOM     82  C   UNL A   1      45.380  33.339  28.255  1.00  0.00     0.009 A 
ATOM     83  C   UNL A   1      46.234  34.070  30.810  1.00  0.00     0.001 A 
ATOM     84  C   UNL A   1      45.839  34.636  28.492  1.00  0.00     0.001 A 
ATOM     85  C   UNL A   1      46.266  34.999  29.769  1.00  0.00     0.000 A 
ENDBRANCH  67  80
ENDBRANCH  41  42
ENDBRANCH  33  36
ENDBRANCH  31  32
ENDBRANCH  30  31
ENDBRANCH   1  30
TORSDOF 13
ENDMDL
MODEL 2
REMARK VINA RESULT:     -12.6      2.759      4.335
REMARK SMILES COc1ccc(Cl)c2c1N[C@@H](c1ccc(C(=O)NCCCCNC(=O)c3ccc(-c4c5nc(c(-c6ccccc6)c6ccc([nH]6)c(-c6ccccc6)c6nc(c(-c7ccccc7)c7ccc4[nH]7)C=C6)C=C5)cc3)cc1)[C@@H]1CC=C[C@H]21
REMARK SMILES IDX 20 1 19 2 18 3 16 4 17 5 15 7 12 8 13 9 75 10 14 11 74 12
REMARK SMILES IDX 11 13 3 14 4 15 9 16 5 17 8 18 10 19 6 20 80 21 7 23 76 24
REMARK SMILES IDX 79 25 77 26 78 27 2 28 1 29 21 30 22 31 23 32 24 33 25 35
REMARK SMILES IDX 26 36 27 37 73 38 28 39 72 40 29 41 30 42 31 43 66 44 32 45
REMARK SMILES IDX 71 46 65 47 67 48 33 49 70 50 64 51 63 52 34 54 56 55 41 56
REMARK SMILES IDX 55 57 42 58 45 59 54 60 68 61 43 62 44 63 53 65 69 66 46 67
REMARK SMILES IDX 35 68 36 69 40 70 37 71 39 72 38 73 57 74 58 75 62 76 59 77
REMARK SMILES IDX 61 78 60 79 47 80 48 81 52 82 49 83 51 84 50 85
REMARK H PARENT 18 6 10 22 23 34 67 53 45 64
REMARK Flexibility Score: inf
ROOT
ATOM      1  C   UNL A   1      35.336  21.463  25.174  1.00  0.00     0.023 C 
ENDROOT
BRANCH   1   2
ATOM      2  C   UNL A   1      33.836  21.169  25.258  1.00  0.00     0.116 C 
BRANCH   2   3
ATOM      3  N   UNL A   1      33.264  20.983  23.939  1.00  0.00    -0.352 N 
ATOM      4  C   UNL A   1      32.543  21.840  23.146  1.00  0.00     0.251 C 
ATOM      5  O   UNL A   1      32.237  21.473  22.012  1.00  0.00    -0.269 OA
ATOM      6  H   UNL A   1      33.419  20.093  23.547  1.00  0.00     0.163 HD
BRANCH   4   7
ATOM      7  C   UNL A   1      32.167  23.207  23.593  1.00  0.00     0.039 A 
ATOM      8  C   UNL A   1      31.580  25.846  24.406  1.00  0.00    -0.025 A 
ATOM      9  C   UNL A   1      32.724  25.571  23.642  1.00  0.00     0.006 A 
ATOM     10  C   UNL A   1      30.718  24.788  24.722  1.00  0.00     0.006 A 
ATOM     11  C   UNL A   1      33.006  24.265  23.228  1.00  0.00     0.014 A 
ATOM     12  C   UNL A   1      31.003  23.487  24.308  1.00  0.00     0.014 A 
BRANCH   8  13
ATOM     13  C   UNL A   1      31.245  27.244  24.902  1.00  0.00     0.114 C 
ATOM     14  C   UNL A   1      29.316  29.945  23.227  1.00  0.00     0.142 A 
ATOM     15  C   UNL A   1      29.005  31.294  23.370  1.00  0.00     0.050 A 
ATOM     16  C   UNL A   1      30.288  29.325  24.038  1.00  0.00     0.083 A 
ATOM     17  C   UNL A   1      29.643  32.040  24.355  1.00  0.00     0.025 A 
ATOM     18  C   UNL A   1      30.945  30.081  25.030  1.00  0.00     0.005 A 
ATOM     19  N   UNL A   1      30.615  27.992  23.834  1.00  0.00    -0.375 N 
ATOM     20  C   UNL A   1      30.607  31.444  25.174  1.00  0.00     0.047 A 
ATOM     21  C   UNL A   1      32.048  29.446  25.849  1.00  0.00     0.051 C 
ATOM     22  H   UNL A   1      30.421  27.560  22.971  1.00  0.00     0.161 HD
ATOM     23  Cl  UNL A   1      31.388  32.468  26.332  1.00  0.00    -0.084 Cl
ATOM     24  C   UNL A   1      32.475  28.023  25.406  1.00  0.00     0.031 C 
ATOM     25  C   UNL A   1      31.722  29.213  27.305  1.00  0.00    -0.023 C 
ATOM     26  C   UNL A   1      33.087  27.420  26.684  1.00  0.00     0.034 C 
ATOM     27  C   UNL A   1      32.311  28.102  27.765  1.00  0.00    -0.030 C 
BRANCH  14  28
ATOM     28  O   UNL A   1      28.688  29.264  22.212  1.00  0.00    -0.495 OA
ATOM     29  C   UNL A   1      28.092  30.160  21.272  1.00  0.00     0.278 C 
ENDBRANCH  14  28
ENDBRANCH   8  13
ENDBRANCH   4   7
ENDBRANCH   2   3
ENDBRANCH   1   2
BRANCH   1  30
ATOM     30  C   UNL A   1      35.725  22.898  25.523  1.00  0.00     0.023 C 
BRANCH  30  31
ATOM     31  C   UNL A   1      37.122  23.306  25.079  1.00  0.00     0.116 C 
BRANCH  31  32
ATOM     32  N   UNL A   1      38.152  22.364  25.489  1.00  0.00    -0.352 N 
ATOM     33  C   UNL A   1      39.260  22.623  26.260  1.00  0.00     0.251 C 
ATOM     34  H   UNL A   1      38.043  21.435  25.181  1.00  0.00     0.163 HD
ATOM     35  O   UNL A   1      40.100  21.767  26.485  1.00  0.00    -0.269 OA
BRANCH  33  36
ATOM     36  C   UNL A   1      39.427  23.994  26.774  1.00  0.00     0.039 A 
ATOM     37  C   UNL A   1      39.053  24.265  28.090  1.00  0.00     0.014 A 
ATOM     38  C   UNL A   1      40.062  24.959  25.985  1.00  0.00     0.014 A 
ATOM     39  C   UNL A   1      39.373  25.502  28.644  1.00  0.00     0.010 A 
ATOM     40  C   UNL A   1      40.422  26.173  26.555  1.00  0.00     0.010 A 
ATOM     41  C   UNL A   1      40.085  26.449  27.889  1.00  0.00    -0.014 A 
BRANCH  41  42
ATOM     42  C   UNL A   1      40.476  27.745  28.485  1.00  0.00     0.031 A 
ATOM     43  C   UNL A   1      41.895  27.967  28.910  1.00  0.00     0.074 A 
ATOM     44  C   UNL A   1      39.548  28.702  28.667  1.00  0.00     0.049 A 
ATOM     45  N   UNL A   1      42.432  29.031  29.449  1.00  0.00    -0.248 NA
ATOM     46  C   UNL A   1      42.830  26.847  28.717  1.00  0.00     0.031 C 
ATOM     47  C   UNL A   1      38.131  28.588  28.316  1.00  0.00     0.029 A 
ATOM     48  N   UNL A   1      39.663  29.966  29.187  1.00  0.00    -0.354 N 
ATOM     49  C   UNL A   1      43.765  28.708  29.659  1.00  0.00     0.074 A 
ATOM     50  C   UNL A   1      43.948  27.338  29.234  1.00  0.00     0.031 C 
ATOM     51  C   UNL A   1      37.516  29.748  28.601  1.00  0.00     0.029 A 
ATOM     52  C   UNL A   1      38.488  30.675  29.172  1.00  0.00     0.049 A 
ATOM     53  H   UNL A   1      40.509  30.330  29.537  1.00  0.00     0.167 HD
ATOM     54  C   UNL A   1      44.754  29.493  30.140  1.00  0.00     0.031 A 
ATOM     55  C   UNL A   1      38.227  31.937  29.564  1.00  0.00     0.031 A 
ATOM     56  C   UNL A   1      44.577  30.856  30.551  1.00  0.00     0.049 A 
ATOM     57  C   UNL A   1      39.338  32.783  30.114  1.00  0.00     0.074 A 
ATOM     58  C   UNL A   1      45.531  31.745  31.014  1.00  0.00     0.029 A 
ATOM     59  N   UNL A   1      43.367  31.530  30.539  1.00  0.00    -0.354 N 
ATOM     60  N   UNL A   1      40.603  32.477  30.270  1.00  0.00    -0.248 NA
ATOM     61  C   UNL A   1      38.990  34.148  30.536  1.00  0.00     0.031 C 
ATOM     62  C   UNL A   1      44.891  32.950  31.313  1.00  0.00     0.029 A 
ATOM     63  C   UNL A   1      43.546  32.820  31.000  1.00  0.00     0.049 A 
ATOM     64  H   UNL A   1      42.508  31.147  30.247  1.00  0.00     0.167 HD
ATOM     65  C   UNL A   1      41.205  33.614  30.790  1.00  0.00     0.074 A 
ATOM     66  C   UNL A   1      40.171  34.618  30.921  1.00  0.00     0.031 C 
ATOM     67  C   UNL A   1      42.504  33.805  31.123  1.00  0.00     0.031 A 
BRANCH  54  68
ATOM     68  C   UNL A   1      46.125  28.894  30.234  1.00  0.00    -0.014 A 
ATOM     69  C   UNL A   1      46.583  28.342  31.440  1.00  0.00     0.009 A 
ATOM     70  C   UNL A   1      46.945  28.836  29.098  1.00  0.00     0.009 A 
ATOM     71  C   UNL A   1      47.847  27.758  31.512  1.00  0.00     0.001 A 
ATOM     72  C   UNL A   1      48.203  28.235  29.168  1.00  0.00     0.001 A 
ATOM     73  C   UNL A   1      48.654  27.701  30.375  1.00  0.00     0.000 A 
ENDBRANCH  54  68
BRANCH  55  74
ATOM     74  C   UNL A   1      36.858  32.482  29.401  1.00  0.00    -0.014 A 
ATOM     75  C   UNL A   1      35.900  32.290  30.406  1.00  0.00     0.009 A 
ATOM     76  C   UNL A   1      36.515  33.234  28.266  1.00  0.00     0.009 A 
ATOM     77  C   UNL A   1      34.620  32.836  30.278  1.00  0.00     0.001 A 
ATOM     78  C   UNL A   1      35.241  33.792  28.148  1.00  0.00     0.001 A 
ATOM     79  C   UNL A   1      34.294  33.591  29.151  1.00  0.00     0.000 A 
ENDBRANCH  55  74
BRANCH  67  80
ATOM     80  C   UNL A   1      42.901  35.151  31.650  1.00  0.00    -0.014 A 
ATOM     81  C   UNL A   1      42.880  35.415  33.027  1.00  0.00     0.009 A 
ATOM     82  C   UNL A   1      43.423  36.114  30.773  1.00  0.00     0.009 A 
ATOM     83  C   UNL A   1      43.378  36.623  33.516  1.00  0.00     0.001 A 
ATOM     84  C   UNL A   1      43.934  37.315  31.267  1.00  0.00     0.001 A 
ATOM     85  C   UNL A   1      43.911  37.567  32.638  1.00  0.00     0.000 A 
ENDBRANCH  67  80
ENDBRANCH  41  42
ENDBRANCH  33  36
ENDBRANCH  31  32
ENDBRANCH  30  31
ENDBRANCH   1  30
TORSDOF 13
ENDMDL
MODEL 3
REMARK VINA RESULT:     -12.4      2.407      8.265
REMARK SMILES COc1ccc(Cl)c2c1N[C@@H](c1ccc(C(=O)NCCCCNC(=O)c3ccc(-c4c5nc(c(-c6ccccc6)c6ccc([nH]6)c(-c6ccccc6)c6nc(c(-c7ccccc7)c7ccc4[nH]7)C=C6)C=C5)cc3)cc1)[C@@H]1CC=C[C@H]21
REMARK SMILES IDX 20 1 19 2 18 3 16 4 17 5 15 7 12 8 13 9 75 10 14 11 74 12
REMARK SMILES IDX 11 13 3 14 4 15 9 16 5 17 8 18 10 19 6 20 80 21 7 23 76 24
REMARK SMILES IDX 79 25 77 26 78 27 2 28 1 29 21 30 22 31 23 32 24 33 25 35
REMARK SMILES IDX 26 36 27 37 73 38 28 39 72 40 29 41 30 42 31 43 66 44 32 45
REMARK SMILES IDX 71 46 65 47 67 48 33 49 70 50 64 51 63 52 34 54 56 55 41 56
REMARK SMILES IDX 55 57 42 58 45 59 54 60 68 61 43 62 44 63 53 65 69 66 46 67
REMARK SMILES IDX 35 68 36 69 40 70 37 71 39 72 38 73 57 74 58 75 62 76 59 77
REMARK SMILES IDX 61 78 60 79 47 80 48 81 52 82 49 83 51 84 50 85
REMARK H PARENT 18 6 10 22 23 34 67 53 45 64
REMARK Flexibility Score: inf
ROOT
ATOM      1  C   UNL A   1      33.673  30.532  26.775  1.00  0.00     0.023 C 
ENDROOT
BRANCH   1   2
ATOM      2  C   UNL A   1      32.151  30.460  26.910  1.00  0.00     0.116 C 
BRANCH   2   3
ATOM      3  N   UNL A   1      31.508  30.468  25.611  1.00  0.00    -0.352 N 
ATOM      4  C   UNL A   1      31.336  29.465  24.690  1.00  0.00     0.251 C 
ATOM      5  O   UNL A   1      30.671  29.701  23.683  1.00  0.00    -0.269 OA
ATOM      6  H   UNL A   1      31.132  31.339  25.345  1.00  0.00     0.163 HD
BRANCH   4   7
ATOM      7  C   UNL A   1      31.882  28.098  24.896  1.00  0.00     0.039 A 
ATOM      8  C   UNL A   1      32.978  25.510  25.164  1.00  0.00    -0.025 A 
ATOM      9  C   UNL A   1      33.398  26.361  24.130  1.00  0.00     0.006 A 
ATOM     10  C   UNL A   1      32.033  25.988  26.080  1.00  0.00     0.006 A 
ATOM     11  C   UNL A   1      32.864  27.648  24.007  1.00  0.00     0.014 A 
ATOM     12  C   UNL A   1      31.502  27.271  25.954  1.00  0.00     0.014 A 
BRANCH   8  13
ATOM     13  C   UNL A   1      33.509  24.093  25.323  1.00  0.00     0.114 C 
ATOM     14  C   UNL A   1      37.022  22.877  25.349  1.00  0.00     0.142 A 
ATOM     15  C   UNL A   1      37.751  21.692  25.322  1.00  0.00     0.050 A 
ATOM     16  C   UNL A   1      35.630  22.888  25.125  1.00  0.00     0.083 A 
ATOM     17  C   UNL A   1      37.090  20.488  25.101  1.00  0.00     0.025 A 
ATOM     18  C   UNL A   1      34.958  21.671  24.888  1.00  0.00     0.005 A 
ATOM     19  N   UNL A   1      34.941  24.092  25.103  1.00  0.00    -0.375 N 
ATOM     20  C   UNL A   1      35.709  20.476  24.881  1.00  0.00     0.047 A 
ATOM     21  C   UNL A   1      33.480  21.682  24.564  1.00  0.00     0.051 C 
ATOM     22  H   UNL A   1      35.420  24.936  24.939  1.00  0.00     0.161 HD
ATOM     23  Cl  UNL A   1      34.985  18.937  24.557  1.00  0.00    -0.084 Cl
ATOM     24  C   UNL A   1      32.850  23.084  24.363  1.00  0.00     0.031 C 
ATOM     25  C   UNL A   1      32.579  21.107  25.630  1.00  0.00    -0.023 C 
ATOM     26  C   UNL A   1      31.358  22.852  24.666  1.00  0.00     0.034 C 
ATOM     27  C   UNL A   1      31.402  21.746  25.672  1.00  0.00    -0.030 C 
BRANCH  14  28
ATOM     28  O   UNL A   1      37.729  24.041  25.530  1.00  0.00    -0.495 OA
ATOM     29  C   UNL A   1      38.580  23.963  26.675  1.00  0.00     0.278 C 
ENDBRANCH  14  28
ENDBRANCH   8  13
ENDBRANCH   4   7
ENDBRANCH   2   3
ENDBRANCH   1   2
BRANCH   1  30
ATOM     30  C   UNL A   1      34.421  29.324  27.337  1.00  0.00     0.023 C 
BRANCH  30  31
ATOM     31  C   UNL A   1      35.701  29.659  28.088  1.00  0.00     0.116 C 
BRANCH  31  32
ATOM     32  N   UNL A   1      35.463  30.205  29.415  1.00  0.00    -0.352 N 
ATOM     33  C   UNL A   1      36.398  30.483  30.383  1.00  0.00     0.251 C 
ATOM     34  H   UNL A   1      34.525  30.399  29.646  1.00  0.00     0.163 HD
ATOM     35  O   UNL A   1      36.075  30.875  31.493  1.00  0.00    -0.269 OA
BRANCH  33  36
ATOM     36  C   UNL A   1      37.813  30.245  30.051  1.00  0.00     0.039 A 
ATOM     37  C   UNL A   1      38.646  29.697  31.025  1.00  0.00     0.014 A 
ATOM     38  C   UNL A   1      38.265  30.457  28.744  1.00  0.00     0.014 A 
ATOM     39  C   UNL A   1      39.933  29.298  30.672  1.00  0.00     0.010 A 
ATOM     40  C   UNL A   1      39.531  30.015  28.382  1.00  0.00     0.010 A 
ATOM     41  C   UNL A   1      40.370  29.428  29.343  1.00  0.00    -0.014 A 
BRANCH  41  42
ATOM     42  C   UNL A   1      41.714  28.960  28.945  1.00  0.00     0.031 A 
ATOM     43  C   UNL A   1      41.913  27.531  28.539  1.00  0.00     0.074 A 
ATOM     44  C   UNL A   1      42.755  29.813  28.978  1.00  0.00     0.049 A 
ATOM     45  N   UNL A   1      43.011  26.932  28.158  1.00  0.00    -0.248 NA
ATOM     46  C   UNL A   1      40.728  26.658  28.580  1.00  0.00     0.031 C 
ATOM     47  C   UNL A   1      42.687  31.219  29.381  1.00  0.00     0.029 A 
ATOM     48  N   UNL A   1      44.074  29.620  28.658  1.00  0.00    -0.354 N 
ATOM     49  C   UNL A   1      42.649  25.615  27.913  1.00  0.00     0.074 A 
ATOM     50  C   UNL A   1      41.244  25.488  28.232  1.00  0.00     0.031 C 
ATOM     51  C   UNL A   1      43.904  31.770  29.252  1.00  0.00     0.029 A 
ATOM     52  C   UNL A   1      44.840  30.754  28.779  1.00  0.00     0.049 A 
ATOM     53  H   UNL A   1      44.438  28.752  28.368  1.00  0.00     0.167 HD
ATOM     54  C   UNL A   1      43.415  24.607  27.441  1.00  0.00     0.031 A 
ATOM     55  C   UNL A   1      46.147  30.953  28.526  1.00  0.00     0.031 A 
ATOM     56  C   UNL A   1      44.806  24.734  27.113  1.00  0.00     0.049 A 
ATOM     57  C   UNL A   1      46.983  29.813  28.020  1.00  0.00     0.074 A 
ATOM     58  C   UNL A   1      45.656  23.777  26.588  1.00  0.00     0.029 A 
ATOM     59  N   UNL A   1      45.548  25.893  27.270  1.00  0.00    -0.354 N 
ATOM     60  N   UNL A   1      46.618  28.582  27.756  1.00  0.00    -0.248 NA
ATOM     61  C   UNL A   1      48.406  30.088  27.773  1.00  0.00     0.031 C 
ATOM     62  C   UNL A   1      46.924  24.349  26.456  1.00  0.00     0.029 A 
ATOM     63  C   UNL A   1      46.851  25.672  26.865  1.00  0.00     0.049 A 
ATOM     64  H   UNL A   1      45.200  26.746  27.618  1.00  0.00     0.167 HD
ATOM     65  C   UNL A   1      47.758  27.941  27.294  1.00  0.00     0.074 A 
ATOM     66  C   UNL A   1      48.828  28.916  27.311  1.00  0.00     0.031 C 
ATOM     67  C   UNL A   1      47.901  26.656  26.889  1.00  0.00     0.031 A 
BRANCH  54  68
ATOM     68  C   UNL A   1      42.755  23.277  27.237  1.00  0.00    -0.014 A 
ATOM     69  C   UNL A   1      42.667  22.354  28.290  1.00  0.00     0.009 A 
ATOM     70  C   UNL A   1      42.173  22.964  26.001  1.00  0.00     0.009 A 
ATOM     71  C   UNL A   1      42.024  21.131  28.103  1.00  0.00     0.001 A 
ATOM     72  C   UNL A   1      41.514  21.746  25.821  1.00  0.00     0.001 A 
ATOM     73  C   UNL A   1      41.444  20.830  26.871  1.00  0.00     0.000 A 
ENDBRANCH  54  68
BRANCH  55  74
ATOM     74  C   UNL A   1      46.726  32.306  28.705  1.00  0.00    -0.014 A 
ATOM     75  C   UNL A   1      46.698  33.228  27.649  1.00  0.00     0.009 A 
ATOM     76  C   UNL A   1      47.268  32.698  29.939  1.00  0.00     0.009 A 
ATOM     77  C   UNL A   1      47.205  34.519  27.824  1.00  0.00     0.001 A 
ATOM     78  C   UNL A   1      47.759  33.992  30.115  1.00  0.00     0.001 A 
ATOM     79  C   UNL A   1      47.731  34.901  29.058  1.00  0.00     0.000 A 
ENDBRANCH  55  74
BRANCH  67  80
ATOM     80  C   UNL A   1      49.252  26.218  26.411  1.00  0.00    -0.014 A 
ATOM     81  C   UNL A   1      49.695  26.543  25.122  1.00  0.00     0.009 A 
ATOM     82  C   UNL A   1      50.135  25.591  27.305  1.00  0.00     0.009 A 
ATOM     83  C   UNL A   1      51.003  26.248  24.734  1.00  0.00     0.001 A 
ATOM     84  C   UNL A   1      51.446  25.311  26.919  1.00  0.00     0.001 A 
ATOM     85  C   UNL A   1      51.879  25.640  25.635  1.00  0.00     0.000 A 
ENDBRANCH  67  80
ENDBRANCH  41  42
ENDBRANCH  33  36
ENDBRANCH  31  32
ENDBRANCH  30  31
ENDBRANCH   1  30
TORSDOF 13
ENDMDL
