MODEL 1
REMARK VINA RESULT:     -10.5      0.000      0.000
REMARK SMILES CCC[C@@H]1SC[C@H](C(=O)NCCCCNC(=O)c2ccc(-c3c4nc(c(-c5ccccc5)c5ccc([nH]5)c(-c5ccccc5)c5nc(c(-c6ccccc6)c6ccc3[nH]6)C=C5)C=C4)cc2)N1C(=O)C[NH+]1CCC([NH3+])CC1
REMARK SMILES IDX 11 1 10 2 8 3 9 4 7 6 4 7 5 8 66 9 6 10 3 11 2 12 1 13 67 14
REMARK SMILES IDX 68 15 69 16 70 17 71 18 76 19 72 21 75 22 73 23 74 24 12 28
REMARK SMILES IDX 13 29 14 30 15 31 16 32 17 34 18 35 19 36 65 37 20 38 64 39
REMARK SMILES IDX 21 40 22 41 23 42 58 43 24 44 63 45 57 46 59 47 25 48 62 49
REMARK SMILES IDX 56 50 55 51 26 53 48 54 33 55 47 56 34 57 37 58 46 59 60 60
REMARK SMILES IDX 35 61 36 62 45 64 61 65 38 66 27 67 28 68 32 69 29 70 31 71
REMARK SMILES IDX 30 72 49 73 50 74 54 75 51 76 53 77 52 78 39 79 40 80 44 81
REMARK SMILES IDX 41 82 43 83 42 84
REMARK H PARENT 10 5 70 20 74 25 74 26 74 27 15 33 59 52 37 63
REMARK Flexibility Score: inf
ROOT
ATOM      1  C   UNL A   1      37.392  21.733  24.882  1.00  0.00     0.116 C 
ENDROOT
BRANCH   1   2
ATOM      2  N   UNL A   1      36.749  22.470  23.806  1.00  0.00    -0.354 N 
ATOM      3  C   UNL A   1      35.455  22.916  23.690  1.00  0.00     0.243 C 
ATOM      4  O   UNL A   1      35.119  23.463  22.638  1.00  0.00    -0.273 OA
ATOM      5  H   UNL A   1      37.332  22.683  23.041  1.00  0.00     0.163 HD
BRANCH   3   6
ATOM      6  C   UNL A   1      34.504  22.798  24.900  1.00  0.00     0.185 C 
ATOM      7  C   UNL A   1      32.185  23.284  25.512  1.00  0.00     0.144 C 
ATOM      8  S   UNL A   1      33.099  24.766  26.056  1.00  0.00    -0.134 SA
ATOM      9  N   UNL A   1      33.076  22.589  24.584  1.00  0.00    -0.313 N 
ATOM     10  C   UNL A   1      34.716  24.044  25.758  1.00  0.00     0.107 C 
BRANCH   7  11
ATOM     11  C   UNL A   1      30.775  23.713  25.078  1.00  0.00     0.036 C 
BRANCH  11  12
ATOM     12  C   UNL A   1      30.397  25.088  25.665  1.00  0.00    -0.000 C 
ATOM     13  C   UNL A   1      29.763  26.031  24.648  1.00  0.00     0.004 C 
ENDBRANCH  11  12
ENDBRANCH   7  11
BRANCH   9  14
ATOM     14  C   UNL A   1      32.830  21.411  23.887  1.00  0.00     0.279 C 
ATOM     15  O   UNL A   1      32.153  21.435  22.848  1.00  0.00    -0.268 OA
BRANCH  14  16
ATOM     16  C   UNL A   1      33.373  20.058  24.321  1.00  0.00     0.363 C 
BRANCH  16  17
ATOM     17  N   UNL A   1      32.474  18.895  24.141  1.00  0.00    -0.327 N 
ATOM     18  C   UNL A   1      32.919  18.057  23.012  1.00  0.00     0.268 C 
ATOM     19  C   UNL A   1      32.156  18.055  25.298  1.00  0.00     0.268 C 
ATOM     20  H   UNL A   1      31.583  19.353  23.952  1.00  0.00     0.348 HD
ATOM     21  C   UNL A   1      34.091  17.132  23.371  1.00  0.00     0.126 C 
ATOM     22  C   UNL A   1      33.257  17.102  25.744  1.00  0.00     0.126 C 
ATOM     23  C   UNL A   1      33.745  16.252  24.576  1.00  0.00     0.192 C 
BRANCH  23  24
ATOM     24  N   UNL A   1      34.894  15.454  25.007  1.00  0.00    -0.355 N 
ATOM     25  H   UNL A   1      35.372  15.076  24.189  1.00  0.00     0.344 HD
ATOM     26  H   UNL A   1      34.572  14.686  25.597  1.00  0.00     0.344 HD
ATOM     27  H   UNL A   1      35.537  16.042  25.536  1.00  0.00     0.344 HD
ENDBRANCH  23  24
ENDBRANCH  16  17
ENDBRANCH  14  16
ENDBRANCH   9  14
ENDBRANCH   3   6
ENDBRANCH   1   2
BRANCH   1  28
ATOM     28  C   UNL A   1      36.982  20.259  24.921  1.00  0.00     0.023 C 
BRANCH  28  29
ATOM     29  C   UNL A   1      38.145  19.266  25.001  1.00  0.00     0.023 C 
BRANCH  29  30
ATOM     30  C   UNL A   1      39.281  19.666  25.936  1.00  0.00     0.116 C 
BRANCH  30  31
ATOM     31  N   UNL A   1      40.480  18.858  25.767  1.00  0.00    -0.352 N 
ATOM     32  C   UNL A   1      41.795  19.241  25.893  1.00  0.00     0.251 C 
ATOM     33  H   UNL A   1      40.330  17.913  25.533  1.00  0.00     0.163 HD
ATOM     34  O   UNL A   1      42.702  18.460  25.619  1.00  0.00    -0.269 OA
BRANCH  32  35
ATOM     35  C   UNL A   1      42.114  20.620  26.324  1.00  0.00     0.039 A 
ATOM     36  C   UNL A   1      42.228  20.893  27.690  1.00  0.00     0.014 A 
ATOM     37  C   UNL A   1      42.327  21.630  25.384  1.00  0.00     0.014 A 
ATOM     38  C   UNL A   1      42.636  22.162  28.112  1.00  0.00     0.010 A 
ATOM     39  C   UNL A   1      42.789  22.874  25.802  1.00  0.00     0.010 A 
ATOM     40  C   UNL A   1      42.957  23.151  27.169  1.00  0.00    -0.014 A 
BRANCH  40  41
ATOM     41  C   UNL A   1      43.470  24.485  27.570  1.00  0.00     0.031 A 
ATOM     42  C   UNL A   1      42.505  25.557  27.992  1.00  0.00     0.074 A 
ATOM     43  C   UNL A   1      44.784  24.765  27.464  1.00  0.00     0.049 A 
ATOM     44  N   UNL A   1      42.722  26.831  28.199  1.00  0.00    -0.248 NA
ATOM     45  C   UNL A   1      41.103  25.145  28.181  1.00  0.00     0.031 C 
ATOM     46  C   UNL A   1      45.827  23.820  27.058  1.00  0.00     0.029 A 
ATOM     47  N   UNL A   1      45.463  25.941  27.668  1.00  0.00    -0.354 N 
ATOM     48  C   UNL A   1      41.485  27.376  28.517  1.00  0.00     0.074 A 
ATOM     49  C   UNL A   1      40.517  26.303  28.445  1.00  0.00     0.031 C 
ATOM     50  C   UNL A   1      47.012  24.453  27.045  1.00  0.00     0.029 A 
ATOM     51  C   UNL A   1      46.807  25.855  27.394  1.00  0.00     0.049 A 
ATOM     52  H   UNL A   1      45.029  26.767  27.981  1.00  0.00     0.167 HD
ATOM     53  C   UNL A   1      41.183  28.652  28.853  1.00  0.00     0.031 A 
ATOM     54  C   UNL A   1      47.763  26.805  27.397  1.00  0.00     0.031 A 
ATOM     55  C   UNL A   1      42.146  29.717  28.941  1.00  0.00     0.049 A 
ATOM     56  C   UNL A   1      47.396  28.221  27.750  1.00  0.00     0.074 A 
ATOM     57  C   UNL A   1      41.937  31.039  29.292  1.00  0.00     0.029 A 
ATOM     58  N   UNL A   1      43.500  29.577  28.689  1.00  0.00    -0.354 N 
ATOM     59  N   UNL A   1      46.226  28.716  28.069  1.00  0.00    -0.248 NA
ATOM     60  C   UNL A   1      48.486  29.208  27.751  1.00  0.00     0.031 C 
ATOM     61  C   UNL A   1      43.163  31.708  29.223  1.00  0.00     0.029 A 
ATOM     62  C   UNL A   1      44.140  30.789  28.876  1.00  0.00     0.049 A 
ATOM     63  H   UNL A   1      43.942  28.739  28.418  1.00  0.00     0.167 HD
ATOM     64  C   UNL A   1      46.445  30.058  28.346  1.00  0.00     0.074 A 
ATOM     65  C   UNL A   1      47.860  30.302  28.162  1.00  0.00     0.031 C 
ATOM     66  C   UNL A   1      45.554  31.006  28.721  1.00  0.00     0.031 A 
BRANCH  53  67
ATOM     67  C   UNL A   1      39.748  28.970  29.153  1.00  0.00    -0.014 A 
ATOM     68  C   UNL A   1      38.895  29.469  28.156  1.00  0.00     0.009 A 
ATOM     69  C   UNL A   1      39.225  28.716  30.431  1.00  0.00     0.009 A 
ATOM     70  C   UNL A   1      37.554  29.734  28.440  1.00  0.00     0.001 A 
ATOM     71  C   UNL A   1      37.878  28.956  30.706  1.00  0.00     0.001 A 
ATOM     72  C   UNL A   1      37.046  29.471  29.713  1.00  0.00     0.000 A 
ENDBRANCH  53  67
BRANCH  54  73
ATOM     73  C   UNL A   1      49.166  26.461  27.048  1.00  0.00    -0.014 A 
ATOM     74  C   UNL A   1      49.595  26.492  25.713  1.00  0.00     0.009 A 
ATOM     75  C   UNL A   1      50.073  26.064  28.043  1.00  0.00     0.009 A 
ATOM     76  C   UNL A   1      50.893  26.098  25.376  1.00  0.00     0.001 A 
ATOM     77  C   UNL A   1      51.379  25.698  27.707  1.00  0.00     0.001 A 
ATOM     78  C   UNL A   1      51.783  25.703  26.373  1.00  0.00     0.000 A 
ENDBRANCH  54  73
BRANCH  66  79
ATOM     79  C   UNL A   1      46.083  32.375  29.031  1.00  0.00    -0.014 A 
ATOM     80  C   UNL A   1      46.569  32.701  30.306  1.00  0.00     0.009 A 
ATOM     81  C   UNL A   1      46.156  33.332  28.006  1.00  0.00     0.009 A 
ATOM     82  C   UNL A   1      47.098  33.969  30.553  1.00  0.00     0.001 A 
ATOM     83  C   UNL A   1      46.707  34.590  28.250  1.00  0.00     0.001 A 
ATOM     84  C   UNL A   1      47.172  34.910  29.524  1.00  0.00     0.000 A 
ENDBRANCH  66  79
ENDBRANCH  40  41
ENDBRANCH  32  35
ENDBRANCH  30  31
ENDBRANCH  29  30
ENDBRANCH  28  29
ENDBRANCH   1  28
TORSDOF 17
ENDMDL
MODEL 2
REMARK VINA RESULT:     -10.4      0.633      5.951
REMARK SMILES CCC[C@@H]1SC[C@H](C(=O)NCCCCNC(=O)c2ccc(-c3c4nc(c(-c5ccccc5)c5ccc([nH]5)c(-c5ccccc5)c5nc(c(-c6ccccc6)c6ccc3[nH]6)C=C5)C=C4)cc2)N1C(=O)C[NH+]1CCC([NH3+])CC1
REMARK SMILES IDX 11 1 10 2 8 3 9 4 7 6 4 7 5 8 66 9 6 10 3 11 2 12 1 13 67 14
REMARK SMILES IDX 68 15 69 16 70 17 71 18 76 19 72 21 75 22 73 23 74 24 12 28
REMARK SMILES IDX 13 29 14 30 15 31 16 32 17 34 18 35 19 36 65 37 20 38 64 39
REMARK SMILES IDX 21 40 22 41 23 42 58 43 24 44 63 45 57 46 59 47 25 48 62 49
REMARK SMILES IDX 56 50 55 51 26 53 48 54 33 55 47 56 34 57 37 58 46 59 60 60
REMARK SMILES IDX 35 61 36 62 45 64 61 65 38 66 27 67 28 68 32 69 29 70 31 71
REMARK SMILES IDX 30 72 49 73 50 74 54 75 51 76 53 77 52 78 39 79 40 80 44 81
REMARK SMILES IDX 41 82 43 83 42 84
REMARK H PARENT 10 5 70 20 74 25 74 26 74 27 15 33 59 52 37 63
REMARK Flexibility Score: inf
ROOT
ATOM      1  C   UNL A   1      37.489  21.879  24.612  1.00  0.00     0.116 C 
ENDROOT
BRANCH   1   2
ATOM      2  N   UNL A   1      36.727  22.578  23.588  1.00  0.00    -0.354 N 
ATOM      3  C   UNL A   1      35.409  22.962  23.575  1.00  0.00     0.243 C 
ATOM      4  O   UNL A   1      34.964  23.485  22.552  1.00  0.00    -0.273 OA
ATOM      5  H   UNL A   1      37.237  22.813  22.778  1.00  0.00     0.163 HD
BRANCH   3   6
ATOM      6  C   UNL A   1      34.563  22.807  24.857  1.00  0.00     0.185 C 
ATOM      7  C   UNL A   1      32.274  23.167  25.645  1.00  0.00     0.144 C 
ATOM      8  S   UNL A   1      33.139  24.708  26.099  1.00  0.00    -0.134 SA
ATOM      9  N   UNL A   1      33.130  22.510  24.657  1.00  0.00    -0.313 N 
ATOM     10  C   UNL A   1      34.768  24.077  25.683  1.00  0.00     0.107 C 
BRANCH   7  11
ATOM     11  C   UNL A   1      30.812  23.506  25.319  1.00  0.00     0.036 C 
BRANCH  11  12
ATOM     12  C   UNL A   1      30.031  23.910  26.586  1.00  0.00    -0.000 C 
ATOM     13  C   UNL A   1      29.423  22.725  27.331  1.00  0.00     0.004 C 
ENDBRANCH  11  12
ENDBRANCH   7  11
BRANCH   9  14
ATOM     14  C   UNL A   1      32.901  21.310  23.995  1.00  0.00     0.279 C 
ATOM     15  O   UNL A   1      32.204  21.290  22.969  1.00  0.00    -0.268 OA
BRANCH  14  16
ATOM     16  C   UNL A   1      33.486  19.982  24.451  1.00  0.00     0.363 C 
BRANCH  16  17
ATOM     17  N   UNL A   1      32.643  18.782  24.250  1.00  0.00    -0.327 N 
ATOM     18  C   UNL A   1      33.143  17.970  23.125  1.00  0.00     0.268 C 
ATOM     19  C   UNL A   1      32.341  17.923  25.397  1.00  0.00     0.268 C 
ATOM     20  H   UNL A   1      31.735  19.201  24.048  1.00  0.00     0.348 HD
ATOM     21  C   UNL A   1      34.348  17.095  23.500  1.00  0.00     0.126 C 
ATOM     22  C   UNL A   1      33.475  17.016  25.858  1.00  0.00     0.126 C 
ATOM     23  C   UNL A   1      34.020  16.195  24.694  1.00  0.00     0.192 C 
BRANCH  23  24
ATOM     24  N   UNL A   1      35.195  15.445  25.142  1.00  0.00    -0.355 N 
ATOM     25  H   UNL A   1      35.905  15.457  24.410  1.00  0.00     0.344 HD
ATOM     26  H   UNL A   1      34.928  14.480  25.340  1.00  0.00     0.344 HD
ATOM     27  H   UNL A   1      35.570  15.873  25.988  1.00  0.00     0.344 HD
ENDBRANCH  23  24
ENDBRANCH  16  17
ENDBRANCH  14  16
ENDBRANCH   9  14
ENDBRANCH   3   6
ENDBRANCH   1   2
BRANCH   1  28
ATOM     28  C   UNL A   1      37.023  20.436  24.818  1.00  0.00     0.023 C 
BRANCH  28  29
ATOM     29  C   UNL A   1      38.145  19.423  25.061  1.00  0.00     0.023 C 
BRANCH  29  30
ATOM     30  C   UNL A   1      39.395  19.982  25.732  1.00  0.00     0.116 C 
BRANCH  30  31
ATOM     31  N   UNL A   1      40.407  18.972  26.001  1.00  0.00    -0.352 N 
ATOM     32  C   UNL A   1      41.719  19.153  26.377  1.00  0.00     0.251 C 
ATOM     33  H   UNL A   1      40.116  18.036  25.903  1.00  0.00     0.163 HD
ATOM     34  O   UNL A   1      42.479  18.193  26.470  1.00  0.00    -0.269 OA
BRANCH  32  35
ATOM     35  C   UNL A   1      42.221  20.521  26.630  1.00  0.00     0.039 A 
ATOM     36  C   UNL A   1      42.655  21.294  25.549  1.00  0.00     0.014 A 
ATOM     37  C   UNL A   1      42.238  21.046  27.924  1.00  0.00     0.014 A 
ATOM     38  C   UNL A   1      43.030  22.625  25.755  1.00  0.00     0.010 A 
ATOM     39  C   UNL A   1      42.555  22.387  28.118  1.00  0.00     0.010 A 
ATOM     40  C   UNL A   1      42.945  23.193  27.036  1.00  0.00    -0.014 A 
BRANCH  40  41
ATOM     41  C   UNL A   1      43.257  24.622  27.286  1.00  0.00     0.031 A 
ATOM     42  C   UNL A   1      44.680  25.099  27.209  1.00  0.00     0.074 A 
ATOM     43  C   UNL A   1      42.284  25.469  27.675  1.00  0.00     0.049 A 
ATOM     44  N   UNL A   1      45.189  26.249  27.569  1.00  0.00    -0.248 NA
ATOM     45  C   UNL A   1      45.668  24.142  26.679  1.00  0.00     0.031 C 
ATOM     46  C   UNL A   1      40.863  25.136  27.801  1.00  0.00     0.029 A 
ATOM     47  N   UNL A   1      42.350  26.786  28.061  1.00  0.00    -0.354 N 
ATOM     48  C   UNL A   1      46.554  26.147  27.334  1.00  0.00     0.074 A 
ATOM     49  C   UNL A   1      46.800  24.813  26.831  1.00  0.00     0.031 C 
ATOM     50  C   UNL A   1      40.194  26.219  28.231  1.00  0.00     0.029 A 
ATOM     51  C   UNL A   1      41.141  27.305  28.458  1.00  0.00     0.049 A 
ATOM     52  H   UNL A   1      43.185  27.308  28.055  1.00  0.00     0.167 HD
ATOM     53  C   UNL A   1      47.515  27.084  27.508  1.00  0.00     0.031 A 
ATOM     54  C   UNL A   1      40.834  28.512  28.971  1.00  0.00     0.031 A 
ATOM     55  C   UNL A   1      47.271  28.416  27.992  1.00  0.00     0.049 A 
ATOM     56  C   UNL A   1      41.925  29.527  29.177  1.00  0.00     0.074 A 
ATOM     57  C   UNL A   1      48.181  29.442  28.185  1.00  0.00     0.029 A 
ATOM     58  N   UNL A   1      46.028  28.909  28.348  1.00  0.00    -0.354 N 
ATOM     59  N   UNL A   1      43.208  29.422  28.931  1.00  0.00    -0.248 NA
ATOM     60  C   UNL A   1      41.524  30.831  29.727  1.00  0.00     0.031 C 
ATOM     61  C   UNL A   1      47.490  30.549  28.685  1.00  0.00     0.029 A 
ATOM     62  C   UNL A   1      46.145  30.225  28.759  1.00  0.00     0.049 A 
ATOM     63  H   UNL A   1      45.186  28.400  28.313  1.00  0.00     0.167 HD
ATOM     64  C   UNL A   1      43.758  30.655  29.256  1.00  0.00     0.074 A 
ATOM     65  C   UNL A   1      42.671  31.494  29.715  1.00  0.00     0.031 C 
ATOM     66  C   UNL A   1      45.049  31.056  29.180  1.00  0.00     0.031 A 
BRANCH  53  67
ATOM     67  C   UNL A   1      48.926  26.701  27.170  1.00  0.00    -0.014 A 
ATOM     68  C   UNL A   1      49.441  26.907  25.881  1.00  0.00     0.009 A 
ATOM     69  C   UNL A   1      49.770  26.180  28.164  1.00  0.00     0.009 A 
ATOM     70  C   UNL A   1      50.764  26.574  25.586  1.00  0.00     0.001 A 
ATOM     71  C   UNL A   1      51.100  25.872  27.874  1.00  0.00     0.001 A 
ATOM     72  C   UNL A   1      51.593  26.063  26.585  1.00  0.00     0.000 A 
ENDBRANCH  53  67
BRANCH  54  73
ATOM     73  C   UNL A   1      39.431  28.838  29.338  1.00  0.00    -0.014 A 
ATOM     74  C   UNL A   1      38.945  28.546  30.622  1.00  0.00     0.009 A 
ATOM     75  C   UNL A   1      38.559  29.409  28.397  1.00  0.00     0.009 A 
ATOM     76  C   UNL A   1      37.606  28.785  30.944  1.00  0.00     0.001 A 
ATOM     77  C   UNL A   1      37.230  29.673  28.730  1.00  0.00     0.001 A 
ATOM     78  C   UNL A   1      36.751  29.349  29.999  1.00  0.00     0.000 A 
ENDBRANCH  54  73
BRANCH  66  79
ATOM     79  C   UNL A   1      45.355  32.483  29.529  1.00  0.00    -0.014 A 
ATOM     80  C   UNL A   1      45.273  33.504  28.572  1.00  0.00     0.009 A 
ATOM     81  C   UNL A   1      45.666  32.814  30.857  1.00  0.00     0.009 A 
ATOM     82  C   UNL A   1      45.519  34.830  28.935  1.00  0.00     0.001 A 
ATOM     83  C   UNL A   1      45.887  34.143  31.223  1.00  0.00     0.001 A 
ATOM     84  C   UNL A   1      45.819  35.148  30.260  1.00  0.00     0.000 A 
ENDBRANCH  66  79
ENDBRANCH  40  41
ENDBRANCH  32  35
ENDBRANCH  30  31
ENDBRANCH  29  30
ENDBRANCH  28  29
ENDBRANCH   1  28
TORSDOF 17
ENDMDL
MODEL 3
REMARK VINA RESULT:     -10.4      4.332      8.928
REMARK SMILES CCC[C@@H]1SC[C@H](C(=O)NCCCCNC(=O)c2ccc(-c3c4nc(c(-c5ccccc5)c5ccc([nH]5)c(-c5ccccc5)c5nc(c(-c6ccccc6)c6ccc3[nH]6)C=C5)C=C4)cc2)N1C(=O)C[NH+]1CCC([NH3+])CC1
REMARK SMILES IDX 11 1 10 2 8 3 9 4 7 6 4 7 5 8 66 9 6 10 3 11 2 12 1 13 67 14
REMARK SMILES IDX 68 15 69 16 70 17 71 18 76 19 72 21 75 22 73 23 74 24 12 28
REMARK SMILES IDX 13 29 14 30 15 31 16 32 17 34 18 35 19 36 65 37 20 38 64 39
REMARK SMILES IDX 21 40 22 41 23 42 58 43 24 44 63 45 57 46 59 47 25 48 62 49
REMARK SMILES IDX 56 50 55 51 26 53 48 54 33 55 47 56 34 57 37 58 46 59 60 60
REMARK SMILES IDX 35 61 36 62 45 64 61 65 38 66 27 67 28 68 32 69 29 70 31 71
REMARK SMILES IDX 30 72 49 73 50 74 54 75 51 76 53 77 52 78 39 79 40 80 44 81
REMARK SMILES IDX 41 82 43 83 42 84
REMARK H PARENT 10 5 70 20 74 25 74 26 74 27 15 33 59 52 37 63
REMARK Flexibility Score: inf
ROOT
ATOM      1  C   UNL A   1      31.551  27.668  26.334  1.00  0.00     0.116 C 
ENDROOT
BRANCH   1   2
ATOM      2  N   UNL A   1      31.503  26.350  26.949  1.00  0.00    -0.354 N 
ATOM      3  C   UNL A   1      31.224  25.126  26.395  1.00  0.00     0.243 C 
ATOM      4  O   UNL A   1      31.171  24.146  27.141  1.00  0.00    -0.273 OA
ATOM      5  H   UNL A   1      31.702  26.334  27.914  1.00  0.00     0.163 HD
BRANCH   3   6
ATOM      6  C   UNL A   1      31.074  25.005  24.863  1.00  0.00     0.185 C 
ATOM      7  C   UNL A   1      31.941  26.020  22.812  1.00  0.00     0.144 C 
ATOM      8  S   UNL A   1      30.405  26.948  23.142  1.00  0.00    -0.134 SA
ATOM      9  N   UNL A   1      32.271  25.343  24.066  1.00  0.00    -0.313 N 
ATOM     10  C   UNL A   1      29.870  25.857  24.464  1.00  0.00     0.107 C 
BRANCH   7  11
ATOM     11  C   UNL A   1      32.947  26.966  22.139  1.00  0.00     0.036 C 
BRANCH  11  12
ATOM     12  C   UNL A   1      32.916  28.370  22.777  1.00  0.00    -0.000 C 
ATOM     13  C   UNL A   1      33.965  28.567  23.866  1.00  0.00     0.004 C 
ENDBRANCH  11  12
ENDBRANCH   7  11
BRANCH   9  14
ATOM     14  C   UNL A   1      33.361  24.523  24.331  1.00  0.00     0.279 C 
ATOM     15  O   UNL A   1      34.411  25.011  24.778  1.00  0.00    -0.268 OA
BRANCH  14  16
ATOM     16  C   UNL A   1      33.342  23.017  24.119  1.00  0.00     0.363 C 
BRANCH  16  17
ATOM     17  N   UNL A   1      33.252  22.178  25.335  1.00  0.00    -0.327 N 
ATOM     18  C   UNL A   1      32.107  21.253  25.253  1.00  0.00     0.268 C 
ATOM     19  C   UNL A   1      34.445  21.464  25.798  1.00  0.00     0.268 C 
ATOM     20  H   UNL A   1      33.126  22.883  26.061  1.00  0.00     0.348 HD
ATOM     21  C   UNL A   1      32.388  20.017  24.386  1.00  0.00     0.126 C 
ATOM     22  C   UNL A   1      34.820  20.221  25.000  1.00  0.00     0.126 C 
ATOM     23  C   UNL A   1      33.631  19.273  24.883  1.00  0.00     0.192 C 
BRANCH  23  24
ATOM     24  N   UNL A   1      33.985  18.164  23.995  1.00  0.00    -0.355 N 
ATOM     25  H   UNL A   1      35.000  18.100  23.918  1.00  0.00     0.344 HD
ATOM     26  H   UNL A   1      33.584  18.326  23.071  1.00  0.00     0.344 HD
ATOM     27  H   UNL A   1      33.617  17.292  24.376  1.00  0.00     0.344 HD
ENDBRANCH  23  24
ENDBRANCH  16  17
ENDBRANCH  14  16
ENDBRANCH   9  14
ENDBRANCH   3   6
ENDBRANCH   1   2
BRANCH   1  28
ATOM     28  C   UNL A   1      31.947  28.770  27.318  1.00  0.00     0.023 C 
BRANCH  28  29
ATOM     29  C   UNL A   1      31.723  30.198  26.814  1.00  0.00     0.023 C 
BRANCH  29  30
ATOM     30  C   UNL A   1      32.876  31.166  27.057  1.00  0.00     0.116 C 
BRANCH  30  31
ATOM     31  N   UNL A   1      32.441  32.520  27.362  1.00  0.00    -0.352 N 
ATOM     32  C   UNL A   1      33.087  33.480  28.106  1.00  0.00     0.251 C 
ATOM     33  H   UNL A   1      31.570  32.785  26.986  1.00  0.00     0.163 HD
ATOM     34  O   UNL A   1      32.538  34.550  28.357  1.00  0.00    -0.269 OA
BRANCH  32  35
ATOM     35  C   UNL A   1      34.437  33.201  28.640  1.00  0.00     0.039 A 
ATOM     36  C   UNL A   1      34.559  32.490  29.837  1.00  0.00     0.014 A 
ATOM     37  C   UNL A   1      35.577  33.615  27.947  1.00  0.00     0.014 A 
ATOM     38  C   UNL A   1      35.826  32.123  30.300  1.00  0.00     0.010 A 
ATOM     39  C   UNL A   1      36.833  33.198  28.377  1.00  0.00     0.010 A 
ATOM     40  C   UNL A   1      36.971  32.440  29.552  1.00  0.00    -0.014 A 
BRANCH  40  41
ATOM     41  C   UNL A   1      38.327  32.001  29.964  1.00  0.00     0.031 A 
ATOM     42  C   UNL A   1      38.876  30.698  29.454  1.00  0.00     0.074 A 
ATOM     43  C   UNL A   1      39.025  32.716  30.869  1.00  0.00     0.049 A 
ATOM     44  N   UNL A   1      39.946  30.046  29.830  1.00  0.00    -0.248 NA
ATOM     45  C   UNL A   1      38.103  30.028  28.394  1.00  0.00     0.031 C 
ATOM     46  C   UNL A   1      38.605  33.992  31.453  1.00  0.00     0.029 A 
ATOM     47  N   UNL A   1      40.230  32.456  31.474  1.00  0.00    -0.354 N 
ATOM     48  C   UNL A   1      39.962  28.880  29.075  1.00  0.00     0.074 A 
ATOM     49  C   UNL A   1      38.779  28.898  28.242  1.00  0.00     0.031 C 
ATOM     50  C   UNL A   1      39.538  34.403  32.329  1.00  0.00     0.029 A 
ATOM     51  C   UNL A   1      40.594  33.400  32.404  1.00  0.00     0.049 A 
ATOM     52  H   UNL A   1      40.780  31.668  31.262  1.00  0.00     0.167 HD
ATOM     53  C   UNL A   1      40.884  27.890  29.066  1.00  0.00     0.031 A 
ATOM     54  C   UNL A   1      41.648  33.439  33.243  1.00  0.00     0.031 A 
ATOM     55  C   UNL A   1      42.069  27.878  29.881  1.00  0.00     0.049 A 
ATOM     56  C   UNL A   1      42.646  32.313  33.229  1.00  0.00     0.074 A 
ATOM     57  C   UNL A   1      43.072  26.925  29.927  1.00  0.00     0.029 A 
ATOM     58  N   UNL A   1      42.415  28.869  30.782  1.00  0.00    -0.354 N 
ATOM     59  N   UNL A   1      42.657  31.228  32.495  1.00  0.00    -0.248 NA
ATOM     60  C   UNL A   1      43.782  32.422  34.157  1.00  0.00     0.031 C 
ATOM     61  C   UNL A   1      44.013  27.327  30.879  1.00  0.00     0.029 A 
ATOM     62  C   UNL A   1      43.617  28.552  31.390  1.00  0.00     0.049 A 
ATOM     63  H   UNL A   1      41.885  29.680  30.963  1.00  0.00     0.167 HD
ATOM     64  C   UNL A   1      43.817  30.548  32.842  1.00  0.00     0.074 A 
ATOM     65  C   UNL A   1      44.486  31.342  33.850  1.00  0.00     0.031 C 
ATOM     66  C   UNL A   1      44.286  29.370  32.366  1.00  0.00     0.031 A 
BRANCH  53  67
ATOM     67  C   UNL A   1      40.650  26.732  28.140  1.00  0.00    -0.014 A 
ATOM     68  C   UNL A   1      41.218  26.708  26.857  1.00  0.00     0.009 A 
ATOM     69  C   UNL A   1      39.899  25.628  28.573  1.00  0.00     0.009 A 
ATOM     70  C   UNL A   1      41.017  25.612  26.015  1.00  0.00     0.001 A 
ATOM     71  C   UNL A   1      39.720  24.523  27.740  1.00  0.00     0.001 A 
ATOM     72  C   UNL A   1      40.273  24.519  26.461  1.00  0.00     0.000 A 
ENDBRANCH  53  67
BRANCH  54  73
ATOM     73  C   UNL A   1      41.821  34.580  34.179  1.00  0.00    -0.014 A 
ATOM     74  C   UNL A   1      41.273  34.531  35.470  1.00  0.00     0.009 A 
ATOM     75  C   UNL A   1      42.503  35.739  33.776  1.00  0.00     0.009 A 
ATOM     76  C   UNL A   1      41.372  35.632  36.324  1.00  0.00     0.001 A 
ATOM     77  C   UNL A   1      42.625  36.828  34.642  1.00  0.00     0.001 A 
ATOM     78  C   UNL A   1      42.049  36.778  35.910  1.00  0.00     0.000 A 
ENDBRANCH  54  73
BRANCH  66  79
ATOM     79  C   UNL A   1      45.618  28.899  32.870  1.00  0.00    -0.014 A 
ATOM     80  C   UNL A   1      45.724  28.052  33.982  1.00  0.00     0.009 A 
ATOM     81  C   UNL A   1      46.783  29.260  32.172  1.00  0.00     0.009 A 
ATOM     82  C   UNL A   1      46.974  27.593  34.399  1.00  0.00     0.001 A 
ATOM     83  C   UNL A   1      48.029  28.779  32.578  1.00  0.00     0.001 A 
ATOM     84  C   UNL A   1      48.124  27.951  33.694  1.00  0.00     0.000 A 
ENDBRANCH  66  79
ENDBRANCH  40  41
ENDBRANCH  32  35
ENDBRANCH  30  31
ENDBRANCH  29  30
ENDBRANCH  28  29
ENDBRANCH   1  28
TORSDOF 17
ENDMDL
