MODEL 1
REMARK VINA RESULT:     -13.8      0.000      0.000
REMARK SMILES Cc1c(C(=O)NCCCCNC(=O)c2ccc(-c3c4nc(c(-c5ccccc5)c5ccc([nH]5)c(-c5ccccc5)c5nc(c(-c6ccccc6)c6ccc3[nH]6)C=C5)C=C4)cc2)oc2c1/C(=N/NC(=O)C(c1ccccc1)c1ccccc1)CCC2
REMARK SMILES IDX 8 1 7 2 6 3 4 4 5 5 3 7 1 8 2 9 64 10 62 11 63 12 65 13
REMARK SMILES IDX 85 14 66 15 83 16 84 17 67 18 68 19 69 21 70 22 71 23 72 24
REMARK SMILES IDX 76 25 73 26 75 27 74 28 77 29 78 30 82 31 79 32 81 33 80 34
REMARK SMILES IDX 9 35 10 36 11 37 12 38 13 40 14 41 15 42 61 43 16 44 60 45
REMARK SMILES IDX 17 46 18 47 19 48 54 49 20 50 59 51 53 52 55 53 21 54 58 55
REMARK SMILES IDX 52 56 51 57 22 59 44 60 29 61 43 62 30 63 33 64 42 65 56 66
REMARK SMILES IDX 31 67 32 68 41 70 57 71 34 72 23 73 24 74 28 75 25 76 27 77
REMARK SMILES IDX 26 78 45 79 46 80 50 81 47 82 49 83 48 84 35 85 36 86 40 87
REMARK SMILES IDX 37 88 39 89 38 90
REMARK H PARENT 6 6 67 20 11 39 55 58 33 69
REMARK Flexibility Score: inf
ROOT
ATOM      1  C   UNL A   1      37.069  18.990  25.025  1.00  0.00     0.023 C 
ENDROOT
BRANCH   1   2
ATOM      2  C   UNL A   1      35.779  19.767  24.702  1.00  0.00     0.116 C 
BRANCH   2   3
ATOM      3  N   UNL A   1      34.538  19.035  25.016  1.00  0.00    -0.349 N 
ATOM      4  C   UNL A   1      33.205  19.458  25.089  1.00  0.00     0.287 C 
ATOM      5  O   UNL A   1      32.339  18.593  25.217  1.00  0.00    -0.266 OA
ATOM      6  H   UNL A   1      34.670  18.079  25.209  1.00  0.00     0.163 HD
BRANCH   4   7
ATOM      7  C   UNL A   1      32.913  20.872  24.957  1.00  0.00     0.195 A 
ATOM      8  C   UNL A   1      31.810  21.356  22.658  1.00  0.00     0.049 C 
ATOM      9  C   UNL A   1      32.390  21.734  23.971  1.00  0.00     0.010 A 
ATOM     10  C   UNL A   1      32.693  23.067  24.434  1.00  0.00     0.043 A 
ATOM     11  O   UNL A   1      33.287  21.603  26.025  1.00  0.00    -0.455 OA
ATOM     12  C   UNL A   1      33.347  22.856  25.634  1.00  0.00     0.114 A 
ATOM     13  C   UNL A   1      32.637  24.452  23.948  1.00  0.00     0.072 C 
ATOM     14  C   UNL A   1      34.179  23.735  26.468  1.00  0.00     0.076 C 
ATOM     15  N   UNL A   1      31.829  24.838  23.007  1.00  0.00    -0.177 NA
ATOM     16  C   UNL A   1      33.669  25.273  24.643  1.00  0.00     0.059 C 
ATOM     17  C   UNL A   1      33.742  25.131  26.153  1.00  0.00     0.014 C 
BRANCH  15  18
ATOM     18  N   UNL A   1      31.625  26.095  22.426  1.00  0.00    -0.246 N 
ATOM     19  C   UNL A   1      31.058  27.346  22.619  1.00  0.00     0.252 C 
ATOM     20  H   UNL A   1      32.048  26.088  21.537  1.00  0.00     0.193 HD
ATOM     21  O   UNL A   1      31.119  28.101  21.628  1.00  0.00    -0.272 OA
BRANCH  19  22
ATOM     22  C   UNL A   1      30.370  27.930  23.910  1.00  0.00     0.140 C 
BRANCH  22  23
ATOM     23  C   UNL A   1      31.471  28.050  25.037  1.00  0.00    -0.031 A 
ATOM     24  C   UNL A   1      31.276  27.727  26.389  1.00  0.00     0.005 A 
ATOM     25  C   UNL A   1      32.743  28.593  24.714  1.00  0.00     0.005 A 
ATOM     26  C   UNL A   1      32.212  28.118  27.372  1.00  0.00     0.000 A 
ATOM     27  C   UNL A   1      33.663  29.000  25.684  1.00  0.00     0.000 A 
ATOM     28  C   UNL A   1      33.382  28.793  27.022  1.00  0.00     0.000 A 
ENDBRANCH  22  23
BRANCH  22  29
ATOM     29  C   UNL A   1      29.432  29.123  23.437  1.00  0.00    -0.031 A 
ATOM     30  C   UNL A   1      29.832  30.447  23.755  1.00  0.00     0.005 A 
ATOM     31  C   UNL A   1      28.131  28.981  22.921  1.00  0.00     0.005 A 
ATOM     32  C   UNL A   1      28.916  31.498  23.843  1.00  0.00     0.000 A 
ATOM     33  C   UNL A   1      27.212  30.051  22.982  1.00  0.00     0.000 A 
ATOM     34  C   UNL A   1      27.591  31.288  23.500  1.00  0.00     0.000 A 
ENDBRANCH  22  29
ENDBRANCH  19  22
ENDBRANCH  15  18
ENDBRANCH   4   7
ENDBRANCH   2   3
ENDBRANCH   1   2
BRANCH   1  35
ATOM     35  C   UNL A   1      38.372  19.738  24.701  1.00  0.00     0.023 C 
BRANCH  35  36
ATOM     36  C   UNL A   1      39.296  19.969  25.893  1.00  0.00     0.116 C 
BRANCH  36  37
ATOM     37  N   UNL A   1      40.443  19.060  25.943  1.00  0.00    -0.352 N 
ATOM     38  C   UNL A   1      41.791  19.402  25.979  1.00  0.00     0.251 C 
ATOM     39  H   UNL A   1      40.238  18.098  25.950  1.00  0.00     0.163 HD
ATOM     40  O   UNL A   1      42.656  18.637  25.601  1.00  0.00    -0.269 OA
BRANCH  38  41
ATOM     41  C   UNL A   1      42.149  20.724  26.529  1.00  0.00     0.039 A 
ATOM     42  C   UNL A   1      42.406  21.832  25.713  1.00  0.00     0.014 A 
ATOM     43  C   UNL A   1      42.184  20.831  27.914  1.00  0.00     0.014 A 
ATOM     44  C   UNL A   1      42.619  23.072  26.316  1.00  0.00     0.010 A 
ATOM     45  C   UNL A   1      42.214  22.070  28.492  1.00  0.00     0.010 A 
ATOM     46  C   UNL A   1      42.506  23.181  27.710  1.00  0.00    -0.014 A 
BRANCH  46  47
ATOM     47  C   UNL A   1      42.570  24.468  28.395  1.00  0.00     0.031 A 
ATOM     48  C   UNL A   1      41.464  25.403  28.054  1.00  0.00     0.074 A 
ATOM     49  C   UNL A   1      43.382  24.661  29.460  1.00  0.00     0.049 A 
ATOM     50  N   UNL A   1      41.548  26.548  27.464  1.00  0.00    -0.248 NA
ATOM     51  C   UNL A   1      40.079  24.948  28.275  1.00  0.00     0.031 C 
ATOM     52  C   UNL A   1      44.270  23.682  30.106  1.00  0.00     0.029 A 
ATOM     53  N   UNL A   1      43.477  25.731  30.293  1.00  0.00    -0.354 N 
ATOM     54  C   UNL A   1      40.252  27.061  27.442  1.00  0.00     0.074 A 
ATOM     55  C   UNL A   1      39.381  25.957  27.750  1.00  0.00     0.031 C 
ATOM     56  C   UNL A   1      44.595  24.110  31.345  1.00  0.00     0.029 A 
ATOM     57  C   UNL A   1      44.090  25.459  31.513  1.00  0.00     0.049 A 
ATOM     58  H   UNL A   1      43.139  26.624  30.053  1.00  0.00     0.167 HD
ATOM     59  C   UNL A   1      40.026  28.405  27.472  1.00  0.00     0.031 A 
ATOM     60  C   UNL A   1      44.147  26.271  32.599  1.00  0.00     0.031 A 
ATOM     61  C   UNL A   1      41.227  29.143  27.159  1.00  0.00     0.049 A 
ATOM     62  C   UNL A   1      43.841  27.643  32.135  1.00  0.00     0.074 A 
ATOM     63  C   UNL A   1      42.101  29.182  26.091  1.00  0.00     0.029 A 
ATOM     64  N   UNL A   1      41.904  29.703  28.217  1.00  0.00    -0.354 N 
ATOM     65  N   UNL A   1      44.620  28.319  31.341  1.00  0.00    -0.248 NA
ATOM     66  C   UNL A   1      42.455  28.078  32.174  1.00  0.00     0.031 C 
ATOM     67  C   UNL A   1      43.395  29.303  26.681  1.00  0.00     0.029 A 
ATOM     68  C   UNL A   1      43.233  29.420  28.063  1.00  0.00     0.049 A 
ATOM     69  H   UNL A   1      41.503  30.219  28.954  1.00  0.00     0.167 HD
ATOM     70  C   UNL A   1      43.755  28.940  30.452  1.00  0.00     0.074 A 
ATOM     71  C   UNL A   1      42.435  28.841  31.078  1.00  0.00     0.031 C 
ATOM     72  C   UNL A   1      44.141  29.207  29.169  1.00  0.00     0.031 A 
BRANCH  59  73
ATOM     73  C   UNL A   1      38.890  29.043  28.249  1.00  0.00    -0.014 A 
ATOM     74  C   UNL A   1      38.779  28.753  29.623  1.00  0.00     0.009 A 
ATOM     75  C   UNL A   1      37.773  29.655  27.651  1.00  0.00     0.009 A 
ATOM     76  C   UNL A   1      37.577  28.940  30.318  1.00  0.00     0.001 A 
ATOM     77  C   UNL A   1      36.585  29.885  28.351  1.00  0.00     0.001 A 
ATOM     78  C   UNL A   1      36.475  29.491  29.676  1.00  0.00     0.000 A 
ENDBRANCH  59  73
BRANCH  60  79
ATOM     79  C   UNL A   1      44.181  25.924  34.037  1.00  0.00    -0.014 A 
ATOM     80  C   UNL A   1      43.191  25.105  34.604  1.00  0.00     0.009 A 
ATOM     81  C   UNL A   1      45.343  26.161  34.796  1.00  0.00     0.009 A 
ATOM     82  C   UNL A   1      43.376  24.510  35.861  1.00  0.00     0.001 A 
ATOM     83  C   UNL A   1      45.527  25.569  36.051  1.00  0.00     0.001 A 
ATOM     84  C   UNL A   1      44.550  24.731  36.576  1.00  0.00     0.000 A 
ENDBRANCH  60  79
BRANCH  72  85
ATOM     85  C   UNL A   1      45.597  29.031  28.814  1.00  0.00    -0.014 A 
ATOM     86  C   UNL A   1      46.172  27.791  28.480  1.00  0.00     0.009 A 
ATOM     87  C   UNL A   1      46.379  30.186  28.662  1.00  0.00     0.009 A 
ATOM     88  C   UNL A   1      47.497  27.711  28.034  1.00  0.00     0.001 A 
ATOM     89  C   UNL A   1      47.694  30.108  28.197  1.00  0.00     0.001 A 
ATOM     90  C   UNL A   1      48.254  28.871  27.888  1.00  0.00     0.000 A 
ENDBRANCH  72  85
ENDBRANCH  46  47
ENDBRANCH  38  41
ENDBRANCH  36  37
ENDBRANCH  35  36
ENDBRANCH   1  35
TORSDOF 15
ENDMDL
MODEL 2
REMARK VINA RESULT:     -13.1      1.238      2.741
REMARK SMILES Cc1c(C(=O)NCCCCNC(=O)c2ccc(-c3c4nc(c(-c5ccccc5)c5ccc([nH]5)c(-c5ccccc5)c5nc(c(-c6ccccc6)c6ccc3[nH]6)C=C5)C=C4)cc2)oc2c1/C(=N/NC(=O)C(c1ccccc1)c1ccccc1)CCC2
REMARK SMILES IDX 8 1 7 2 6 3 4 4 5 5 3 7 1 8 2 9 64 10 62 11 63 12 65 13
REMARK SMILES IDX 85 14 66 15 83 16 84 17 67 18 68 19 69 21 70 22 71 23 72 24
REMARK SMILES IDX 76 25 73 26 75 27 74 28 77 29 78 30 82 31 79 32 81 33 80 34
REMARK SMILES IDX 9 35 10 36 11 37 12 38 13 40 14 41 15 42 61 43 16 44 60 45
REMARK SMILES IDX 17 46 18 47 19 48 54 49 20 50 59 51 53 52 55 53 21 54 58 55
REMARK SMILES IDX 52 56 51 57 22 59 44 60 29 61 43 62 30 63 33 64 42 65 56 66
REMARK SMILES IDX 31 67 32 68 41 70 57 71 34 72 23 73 24 74 28 75 25 76 27 77
REMARK SMILES IDX 26 78 45 79 46 80 50 81 47 82 49 83 48 84 35 85 36 86 40 87
REMARK SMILES IDX 37 88 39 89 38 90
REMARK H PARENT 6 6 67 20 11 39 55 58 33 69
REMARK Flexibility Score: inf
ROOT
ATOM      1  C   UNL A   1      36.844  19.451  25.015  1.00  0.00     0.023 C 
ENDROOT
BRANCH   1   2
ATOM      2  C   UNL A   1      35.957  20.711  25.044  1.00  0.00     0.116 C 
BRANCH   2   3
ATOM      3  N   UNL A   1      36.630  21.911  25.575  1.00  0.00    -0.349 N 
ATOM      4  C   UNL A   1      36.138  23.180  25.903  1.00  0.00     0.287 C 
ATOM      5  O   UNL A   1      36.900  23.953  26.483  1.00  0.00    -0.266 OA
ATOM      6  H   UNL A   1      37.597  21.801  25.724  1.00  0.00     0.163 HD
BRANCH   4   7
ATOM      7  C   UNL A   1      34.757  23.495  25.594  1.00  0.00     0.195 A 
ATOM      8  C   UNL A   1      34.638  25.343  23.776  1.00  0.00     0.049 C 
ATOM      9  C   UNL A   1      34.061  24.405  24.773  1.00  0.00     0.010 A 
ATOM     10  C   UNL A   1      32.692  24.353  25.224  1.00  0.00     0.043 A 
ATOM     11  O   UNL A   1      33.867  22.786  26.315  1.00  0.00    -0.455 OA
ATOM     12  C   UNL A   1      32.719  23.422  26.247  1.00  0.00     0.114 A 
ATOM     13  C   UNL A   1      31.425  25.066  25.016  1.00  0.00     0.072 C 
ATOM     14  C   UNL A   1      31.763  23.112  27.320  1.00  0.00     0.076 C 
ATOM     15  N   UNL A   1      31.164  25.742  23.938  1.00  0.00    -0.177 NA
ATOM     16  C   UNL A   1      30.567  24.938  26.228  1.00  0.00     0.059 C 
ATOM     17  C   UNL A   1      30.424  23.543  26.811  1.00  0.00     0.014 C 
BRANCH  15  18
ATOM     18  N   UNL A   1      30.029  26.467  23.557  1.00  0.00    -0.246 N 
ATOM     19  C   UNL A   1      29.571  27.715  23.158  1.00  0.00     0.252 C 
ATOM     20  H   UNL A   1      29.258  25.855  23.581  1.00  0.00     0.193 HD
ATOM     21  O   UNL A   1      28.333  27.795  23.031  1.00  0.00    -0.272 OA
BRANCH  19  22
ATOM     22  C   UNL A   1      30.400  29.015  22.838  1.00  0.00     0.140 C 
BRANCH  22  23
ATOM     23  C   UNL A   1      29.380  30.176  22.511  1.00  0.00    -0.031 A 
ATOM     24  C   UNL A   1      28.899  30.487  21.230  1.00  0.00     0.005 A 
ATOM     25  C   UNL A   1      28.950  31.040  23.553  1.00  0.00     0.005 A 
ATOM     26  C   UNL A   1      28.214  31.697  20.984  1.00  0.00     0.000 A 
ATOM     27  C   UNL A   1      28.291  32.249  23.313  1.00  0.00     0.000 A 
ATOM     28  C   UNL A   1      27.950  32.596  22.018  1.00  0.00     0.000 A 
ENDBRANCH  22  23
BRANCH  22  29
ATOM     29  C   UNL A   1      31.553  29.110  23.927  1.00  0.00    -0.031 A 
ATOM     30  C   UNL A   1      32.896  28.982  23.484  1.00  0.00     0.005 A 
ATOM     31  C   UNL A   1      31.361  29.093  25.321  1.00  0.00     0.005 A 
ATOM     32  C   UNL A   1      33.922  28.564  24.337  1.00  0.00     0.000 A 
ATOM     33  C   UNL A   1      32.405  28.699  26.186  1.00  0.00     0.000 A 
ATOM     34  C   UNL A   1      33.665  28.376  25.685  1.00  0.00     0.000 A 
ENDBRANCH  22  29
ENDBRANCH  19  22
ENDBRANCH  15  18
ENDBRANCH   4   7
ENDBRANCH   2   3
ENDBRANCH   1   2
BRANCH   1  35
ATOM     35  C   UNL A   1      38.303  19.698  24.604  1.00  0.00     0.023 C 
BRANCH  35  36
ATOM     36  C   UNL A   1      39.258  19.993  25.757  1.00  0.00     0.116 C 
BRANCH  36  37
ATOM     37  N   UNL A   1      40.369  19.045  25.868  1.00  0.00    -0.352 N 
ATOM     38  C   UNL A   1      41.725  19.341  25.967  1.00  0.00     0.251 C 
ATOM     39  H   UNL A   1      40.130  18.090  25.873  1.00  0.00     0.163 HD
ATOM     40  O   UNL A   1      42.579  18.543  25.636  1.00  0.00    -0.269 OA
BRANCH  38  41
ATOM     41  C   UNL A   1      42.102  20.654  26.524  1.00  0.00     0.039 A 
ATOM     42  C   UNL A   1      42.445  21.742  25.713  1.00  0.00     0.014 A 
ATOM     43  C   UNL A   1      42.065  20.775  27.908  1.00  0.00     0.014 A 
ATOM     44  C   UNL A   1      42.671  22.981  26.316  1.00  0.00     0.010 A 
ATOM     45  C   UNL A   1      42.110  22.018  28.475  1.00  0.00     0.010 A 
ATOM     46  C   UNL A   1      42.487  23.110  27.700  1.00  0.00    -0.014 A 
BRANCH  46  47
ATOM     47  C   UNL A   1      42.562  24.400  28.376  1.00  0.00     0.031 A 
ATOM     48  C   UNL A   1      41.467  25.344  28.025  1.00  0.00     0.074 A 
ATOM     49  C   UNL A   1      43.373  24.593  29.441  1.00  0.00     0.049 A 
ATOM     50  N   UNL A   1      41.563  26.484  27.427  1.00  0.00    -0.248 NA
ATOM     51  C   UNL A   1      40.076  24.905  28.246  1.00  0.00     0.031 C 
ATOM     52  C   UNL A   1      44.249  23.610  30.097  1.00  0.00     0.029 A 
ATOM     53  N   UNL A   1      43.477  25.668  30.267  1.00  0.00    -0.354 N 
ATOM     54  C   UNL A   1      40.273  27.009  27.398  1.00  0.00     0.074 A 
ATOM     55  C   UNL A   1      39.390  25.917  27.712  1.00  0.00     0.031 C 
ATOM     56  C   UNL A   1      44.575  24.044  31.335  1.00  0.00     0.029 A 
ATOM     57  C   UNL A   1      44.084  25.399  31.491  1.00  0.00     0.049 A 
ATOM     58  H   UNL A   1      43.148  26.562  30.020  1.00  0.00     0.167 HD
ATOM     59  C   UNL A   1      40.061  28.356  27.418  1.00  0.00     0.031 A 
ATOM     60  C   UNL A   1      44.146  26.218  32.571  1.00  0.00     0.031 A 
ATOM     61  C   UNL A   1      41.270  29.079  27.102  1.00  0.00     0.049 A 
ATOM     62  C   UNL A   1      43.856  27.590  32.096  1.00  0.00     0.074 A 
ATOM     63  C   UNL A   1      42.147  29.102  26.036  1.00  0.00     0.029 A 
ATOM     64  N   UNL A   1      41.950  29.641  28.158  1.00  0.00    -0.354 N 
ATOM     65  N   UNL A   1      44.644  28.252  31.299  1.00  0.00    -0.248 NA
ATOM     66  C   UNL A   1      42.474  28.039  32.128  1.00  0.00     0.031 C 
ATOM     67  C   UNL A   1      43.441  29.214  26.629  1.00  0.00     0.029 A 
ATOM     68  C   UNL A   1      43.277  29.343  28.010  1.00  0.00     0.049 A 
ATOM     69  H   UNL A   1      41.552  30.166  28.890  1.00  0.00     0.167 HD
ATOM     70  C   UNL A   1      43.787  28.875  30.404  1.00  0.00     0.074 A 
ATOM     71  C   UNL A   1      42.465  28.794  31.026  1.00  0.00     0.031 C 
ATOM     72  C   UNL A   1      44.179  29.129  29.119  1.00  0.00     0.031 A 
BRANCH  59  73
ATOM     73  C   UNL A   1      38.929  29.012  28.187  1.00  0.00    -0.014 A 
ATOM     74  C   UNL A   1      38.859  28.797  29.577  1.00  0.00     0.009 A 
ATOM     75  C   UNL A   1      37.783  29.563  27.584  1.00  0.00     0.009 A 
ATOM     76  C   UNL A   1      37.671  28.996  30.291  1.00  0.00     0.001 A 
ATOM     77  C   UNL A   1      36.608  29.806  28.301  1.00  0.00     0.001 A 
ATOM     78  C   UNL A   1      36.540  29.485  29.648  1.00  0.00     0.000 A 
ENDBRANCH  59  73
BRANCH  60  79
ATOM     79  C   UNL A   1      44.173  25.881  34.012  1.00  0.00    -0.014 A 
ATOM     80  C   UNL A   1      43.485  24.760  34.502  1.00  0.00     0.009 A 
ATOM     81  C   UNL A   1      45.108  26.496  34.866  1.00  0.00     0.009 A 
ATOM     82  C   UNL A   1      43.754  24.246  35.779  1.00  0.00     0.001 A 
ATOM     83  C   UNL A   1      45.376  25.984  36.141  1.00  0.00     0.001 A 
ATOM     84  C   UNL A   1      44.711  24.850  36.591  1.00  0.00     0.000 A 
ENDBRANCH  60  79
BRANCH  72  85
ATOM     85  C   UNL A   1      45.635  28.936  28.770  1.00  0.00    -0.014 A 
ATOM     86  C   UNL A   1      46.619  29.921  28.967  1.00  0.00     0.009 A 
ATOM     87  C   UNL A   1      46.049  27.656  28.372  1.00  0.00     0.009 A 
ATOM     88  C   UNL A   1      47.972  29.638  28.745  1.00  0.00     0.001 A 
ATOM     89  C   UNL A   1      47.400  27.368  28.171  1.00  0.00     0.001 A 
ATOM     90  C   UNL A   1      48.361  28.360  28.352  1.00  0.00     0.000 A 
ENDBRANCH  72  85
ENDBRANCH  46  47
ENDBRANCH  38  41
ENDBRANCH  36  37
ENDBRANCH  35  36
ENDBRANCH   1  35
TORSDOF 15
ENDMDL
MODEL 3
REMARK VINA RESULT:     -12.0      2.691      6.157
REMARK SMILES Cc1c(C(=O)NCCCCNC(=O)c2ccc(-c3c4nc(c(-c5ccccc5)c5ccc([nH]5)c(-c5ccccc5)c5nc(c(-c6ccccc6)c6ccc3[nH]6)C=C5)C=C4)cc2)oc2c1/C(=N/NC(=O)C(c1ccccc1)c1ccccc1)CCC2
REMARK SMILES IDX 8 1 7 2 6 3 4 4 5 5 3 7 1 8 2 9 64 10 62 11 63 12 65 13
REMARK SMILES IDX 85 14 66 15 83 16 84 17 67 18 68 19 69 21 70 22 71 23 72 24
REMARK SMILES IDX 76 25 73 26 75 27 74 28 77 29 78 30 82 31 79 32 81 33 80 34
REMARK SMILES IDX 9 35 10 36 11 37 12 38 13 40 14 41 15 42 61 43 16 44 60 45
REMARK SMILES IDX 17 46 18 47 19 48 54 49 20 50 59 51 53 52 55 53 21 54 58 55
REMARK SMILES IDX 52 56 51 57 22 59 44 60 29 61 43 62 30 63 33 64 42 65 56 66
REMARK SMILES IDX 31 67 32 68 41 70 57 71 34 72 23 73 24 74 28 75 25 76 27 77
REMARK SMILES IDX 26 78 45 79 46 80 50 81 47 82 49 83 48 84 35 85 36 86 40 87
REMARK SMILES IDX 37 88 39 89 38 90
REMARK H PARENT 6 6 67 20 11 39 55 58 33 69
REMARK Flexibility Score: inf
ROOT
ATOM      1  C   UNL A   1      38.085  21.711  25.077  1.00  0.00     0.023 C 
ENDROOT
BRANCH   1   2
ATOM      2  C   UNL A   1      36.633  21.247  24.851  1.00  0.00     0.116 C 
BRANCH   2   3
ATOM      3  N   UNL A   1      35.827  21.163  26.083  1.00  0.00    -0.349 N 
ATOM      4  C   UNL A   1      34.585  21.717  26.418  1.00  0.00     0.287 C 
ATOM      5  O   UNL A   1      34.064  21.352  27.470  1.00  0.00    -0.266 OA
ATOM      6  H   UNL A   1      36.234  20.622  26.798  1.00  0.00     0.163 HD
BRANCH   4   7
ATOM      7  C   UNL A   1      33.961  22.642  25.491  1.00  0.00     0.195 A 
ATOM      8  C   UNL A   1      35.236  24.903  25.478  1.00  0.00     0.049 C 
ATOM      9  C   UNL A   1      34.138  23.982  25.089  1.00  0.00     0.010 A 
ATOM     10  C   UNL A   1      32.940  24.319  24.359  1.00  0.00     0.043 A 
ATOM     11  O   UNL A   1      32.876  22.138  24.873  1.00  0.00    -0.455 OA
ATOM     12  C   UNL A   1      32.194  23.156  24.398  1.00  0.00     0.114 A 
ATOM     13  C   UNL A   1      32.291  25.499  23.774  1.00  0.00     0.072 C 
ATOM     14  C   UNL A   1      30.774  22.888  24.125  1.00  0.00     0.076 C 
ATOM     15  N   UNL A   1      32.947  26.561  23.413  1.00  0.00    -0.177 NA
ATOM     16  C   UNL A   1      30.815  25.297  23.734  1.00  0.00     0.059 C 
ATOM     17  C   UNL A   1      30.328  23.966  23.188  1.00  0.00     0.014 C 
BRANCH  15  18
ATOM     18  N   UNL A   1      32.515  27.760  22.836  1.00  0.00    -0.246 N 
ATOM     19  C   UNL A   1      31.597  28.796  22.945  1.00  0.00     0.252 C 
ATOM     20  H   UNL A   1      33.079  27.937  22.049  1.00  0.00     0.193 HD
ATOM     21  O   UNL A   1      31.630  29.616  22.006  1.00  0.00    -0.272 OA
BRANCH  19  22
ATOM     22  C   UNL A   1      30.549  29.071  24.088  1.00  0.00     0.140 C 
BRANCH  22  23
ATOM     23  C   UNL A   1      31.346  29.339  25.426  1.00  0.00    -0.031 A 
ATOM     24  C   UNL A   1      31.923  30.566  25.786  1.00  0.00     0.005 A 
ATOM     25  C   UNL A   1      31.582  28.263  26.324  1.00  0.00     0.005 A 
ATOM     26  C   UNL A   1      32.843  30.651  26.853  1.00  0.00     0.000 A 
ATOM     27  C   UNL A   1      32.507  28.338  27.368  1.00  0.00     0.000 A 
ATOM     28  C   UNL A   1      33.167  29.528  27.615  1.00  0.00     0.000 A 
ENDBRANCH  22  23
BRANCH  22  29
ATOM     29  C   UNL A   1      29.449  30.046  23.484  1.00  0.00    -0.031 A 
ATOM     30  C   UNL A   1      28.690  29.584  22.377  1.00  0.00     0.005 A 
ATOM     31  C   UNL A   1      29.305  31.409  23.804  1.00  0.00     0.005 A 
ATOM     32  C   UNL A   1      28.079  30.463  21.478  1.00  0.00     0.000 A 
ATOM     33  C   UNL A   1      28.662  32.293  22.910  1.00  0.00     0.000 A 
ATOM     34  C   UNL A   1      28.105  31.826  21.721  1.00  0.00     0.000 A 
ENDBRANCH  22  29
ENDBRANCH  19  22
ENDBRANCH  15  18
ENDBRANCH   4   7
ENDBRANCH   2   3
ENDBRANCH   1   2
BRANCH   1  35
ATOM     35  C   UNL A   1      38.226  23.072  25.775  1.00  0.00     0.023 C 
BRANCH  35  36
ATOM     36  C   UNL A   1      39.190  23.094  26.958  1.00  0.00     0.116 C 
BRANCH  36  37
ATOM     37  N   UNL A   1      40.525  22.579  26.647  1.00  0.00    -0.352 N 
ATOM     38  C   UNL A   1      41.649  23.313  26.280  1.00  0.00     0.251 C 
ATOM     39  H   UNL A   1      40.642  21.604  26.704  1.00  0.00     0.163 HD
ATOM     40  O   UNL A   1      42.559  22.816  25.648  1.00  0.00    -0.269 OA
BRANCH  38  41
ATOM     41  C   UNL A   1      41.720  24.722  26.713  1.00  0.00     0.039 A 
ATOM     42  C   UNL A   1      41.194  25.770  25.948  1.00  0.00     0.014 A 
ATOM     43  C   UNL A   1      42.308  24.963  27.949  1.00  0.00     0.014 A 
ATOM     44  C   UNL A   1      41.196  27.058  26.486  1.00  0.00     0.010 A 
ATOM     45  C   UNL A   1      42.147  26.183  28.543  1.00  0.00     0.010 A 
ATOM     46  C   UNL A   1      41.664  27.250  27.794  1.00  0.00    -0.014 A 
BRANCH  46  47
ATOM     47  C   UNL A   1      41.561  28.537  28.474  1.00  0.00     0.031 A 
ATOM     48  C   UNL A   1      42.658  29.490  28.157  1.00  0.00     0.074 A 
ATOM     49  C   UNL A   1      40.418  28.922  29.084  1.00  0.00     0.049 A 
ATOM     50  N   UNL A   1      43.547  29.973  28.960  1.00  0.00    -0.248 NA
ATOM     51  C   UNL A   1      42.879  29.848  26.743  1.00  0.00     0.031 C 
ATOM     52  C   UNL A   1      39.142  28.192  29.155  1.00  0.00     0.029 A 
ATOM     53  N   UNL A   1      40.097  30.119  29.645  1.00  0.00    -0.354 N 
ATOM     54  C   UNL A   1      44.298  30.869  28.203  1.00  0.00     0.074 A 
ATOM     55  C   UNL A   1      43.986  30.588  26.826  1.00  0.00     0.031 C 
ATOM     56  C   UNL A   1      38.146  29.046  29.478  1.00  0.00     0.029 A 
ATOM     57  C   UNL A   1      38.730  30.331  29.808  1.00  0.00     0.049 A 
ATOM     58  H   UNL A   1      40.775  30.780  29.911  1.00  0.00     0.167 HD
ATOM     59  C   UNL A   1      44.879  31.961  28.777  1.00  0.00     0.031 A 
ATOM     60  C   UNL A   1      38.118  31.492  30.154  1.00  0.00     0.031 A 
ATOM     61  C   UNL A   1      44.919  31.836  30.215  1.00  0.00     0.049 A 
ATOM     62  C   UNL A   1      39.150  32.369  30.751  1.00  0.00     0.074 A 
ATOM     63  C   UNL A   1      45.453  30.924  31.103  1.00  0.00     0.029 A 
ATOM     64  N   UNL A   1      43.977  32.542  30.925  1.00  0.00    -0.354 N 
ATOM     65  N   UNL A   1      39.740  32.111  31.883  1.00  0.00    -0.248 NA
ATOM     66  C   UNL A   1      39.860  33.279  29.868  1.00  0.00     0.031 C 
ATOM     67  C   UNL A   1      44.473  30.800  32.133  1.00  0.00     0.029 A 
ATOM     68  C   UNL A   1      43.443  31.704  31.865  1.00  0.00     0.049 A 
ATOM     69  H   UNL A   1      43.730  33.485  30.783  1.00  0.00     0.167 HD
ATOM     70  C   UNL A   1      41.070  32.437  31.664  1.00  0.00     0.074 A 
ATOM     71  C   UNL A   1      41.064  33.249  30.446  1.00  0.00     0.031 C 
ATOM     72  C   UNL A   1      42.071  31.776  32.318  1.00  0.00     0.031 A 
BRANCH  59  73
ATOM     73  C   UNL A   1      44.952  33.318  28.102  1.00  0.00    -0.014 A 
ATOM     74  C   UNL A   1      44.153  33.538  26.963  1.00  0.00     0.009 A 
ATOM     75  C   UNL A   1      45.968  34.262  28.341  1.00  0.00     0.009 A 
ATOM     76  C   UNL A   1      44.442  34.561  26.051  1.00  0.00     0.001 A 
ATOM     77  C   UNL A   1      46.232  35.312  27.456  1.00  0.00     0.001 A 
ATOM     78  C   UNL A   1      45.493  35.438  26.291  1.00  0.00     0.000 A 
ENDBRANCH  59  73
BRANCH  60  79
ATOM     79  C   UNL A   1      36.784  32.006  29.773  1.00  0.00    -0.014 A 
ATOM     80  C   UNL A   1      35.714  31.973  30.682  1.00  0.00     0.009 A 
ATOM     81  C   UNL A   1      36.631  32.792  28.615  1.00  0.00     0.009 A 
ATOM     82  C   UNL A   1      34.554  32.731  30.463  1.00  0.00     0.001 A 
ATOM     83  C   UNL A   1      35.474  33.548  28.395  1.00  0.00     0.001 A 
ATOM     84  C   UNL A   1      34.442  33.530  29.327  1.00  0.00     0.000 A 
ENDBRANCH  60  79
BRANCH  72  85
ATOM     85  C   UNL A   1      41.692  30.855  33.451  1.00  0.00    -0.014 A 
ATOM     86  C   UNL A   1      41.264  29.528  33.264  1.00  0.00     0.009 A 
ATOM     87  C   UNL A   1      41.924  31.298  34.762  1.00  0.00     0.009 A 
ATOM     88  C   UNL A   1      41.051  28.681  34.360  1.00  0.00     0.001 A 
ATOM     89  C   UNL A   1      41.732  30.447  35.853  1.00  0.00     0.001 A 
ATOM     90  C   UNL A   1      41.291  29.142  35.652  1.00  0.00     0.000 A 
ENDBRANCH  72  85
ENDBRANCH  46  47
ENDBRANCH  38  41
ENDBRANCH  36  37
ENDBRANCH  35  36
ENDBRANCH   1  35
TORSDOF 15
ENDMDL
