MODEL 1
REMARK VINA RESULT:     -13.2      0.000      0.000
REMARK SMILES Cc1ccc(-c2csc(NC(=O)[C@H]3[C@@H](C(=O)NCCCCNC(=O)c4ccc(-c5c6nc(c(-c7ccccc7)c7ccc([nH]7)c(-c7ccccc7)c7nc(c(-c8ccccc8)c8ccc5[nH]8)C=C7)C=C6)cc4)[C@H]4C=C[C@@H]3C4)c2C(=O)NC2CC2)cc1
REMARK SMILES IDX 18 1 17 2 15 3 16 4 14 6 13 7 76 8 73 9 75 10 77 11 74 12
REMARK SMILES IDX 11 13 10 14 12 16 9 17 6 18 7 19 78 20 8 21 5 22 1 23 2 24
REMARK SMILES IDX 3 25 86 26 4 27 85 28 79 29 80 30 81 31 82 33 83 34 84 35
REMARK SMILES IDX 19 36 20 37 21 38 22 39 23 40 24 42 25 43 26 44 72 45 27 46
REMARK SMILES IDX 71 47 28 48 29 49 30 50 65 51 31 52 70 53 64 54 66 55 32 56
REMARK SMILES IDX 69 57 63 58 62 59 33 61 55 62 40 63 54 64 41 65 44 66 53 67
REMARK SMILES IDX 67 68 42 69 43 70 52 72 68 73 45 74 34 75 35 76 39 77 36 78
REMARK SMILES IDX 38 79 37 80 56 81 57 82 61 83 58 84 60 85 59 86 46 87 47 88
REMARK SMILES IDX 51 89 48 90 50 91 49 92
REMARK H PARENT 17 5 10 15 81 32 22 41 66 60 44 71
REMARK Flexibility Score: inf
ROOT
ATOM      1  C   UNL A   1      31.843  30.259  26.417  1.00  0.00     0.116 C 
ENDROOT
BRANCH   1   2
ATOM      2  N   UNL A   1      32.162  30.077  25.013  1.00  0.00    -0.356 N 
ATOM      3  C   UNL A   1      31.904  29.043  24.157  1.00  0.00     0.224 C 
ATOM      4  O   UNL A   1      32.369  29.134  23.020  1.00  0.00    -0.275 OA
ATOM      5  H   UNL A   1      32.649  30.828  24.605  1.00  0.00     0.163 HD
BRANCH   3   6
ATOM      6  C   UNL A   1      30.967  27.919  24.593  1.00  0.00     0.098 C 
ATOM      7  C   UNL A   1      31.567  26.537  25.077  1.00  0.00     0.099 C 
ATOM      8  C   UNL A   1      30.955  25.554  24.039  1.00  0.00     0.025 C 
ATOM      9  C   UNL A   1      30.074  27.497  23.383  1.00  0.00     0.025 C 
ATOM     10  C   UNL A   1      31.491  25.832  22.662  1.00  0.00    -0.027 C 
ATOM     11  C   UNL A   1      29.547  26.151  23.871  1.00  0.00     0.017 C 
ATOM     12  C   UNL A   1      30.938  26.980  22.251  1.00  0.00    -0.027 C 
BRANCH   7  13
ATOM     13  C   UNL A   1      33.074  26.539  25.332  1.00  0.00     0.229 C 
ATOM     14  N   UNL A   1      33.839  25.413  25.212  1.00  0.00    -0.317 N 
ATOM     15  H   UNL A   1      34.780  25.576  24.971  1.00  0.00     0.170 HD
ATOM     16  O   UNL A   1      33.641  27.565  25.725  1.00  0.00    -0.274 OA
BRANCH  14  17
ATOM     17  C   UNL A   1      33.504  24.082  25.376  1.00  0.00     0.108 A 
ATOM     18  C   UNL A   1      33.251  21.789  25.080  1.00  0.00     0.007 A 
ATOM     19  C   UNL A   1      32.461  22.042  26.189  1.00  0.00     0.076 A 
ATOM     20  C   UNL A   1      33.946  22.989  24.625  1.00  0.00     0.082 A 
ATOM     21  S   UNL A   1      32.618  23.632  26.755  1.00  0.00    -0.125 S 
BRANCH  18  22
ATOM     22  C   UNL A   1      33.273  20.413  24.591  1.00  0.00    -0.017 A 
ATOM     23  C   UNL A   1      33.917  16.548  22.821  1.00  0.00     0.044 C 
ATOM     24  C   UNL A   1      33.596  17.829  23.531  1.00  0.00    -0.051 A 
ATOM     25  C   UNL A   1      34.451  18.284  24.537  1.00  0.00     0.004 A 
ATOM     26  C   UNL A   1      32.528  18.643  23.122  1.00  0.00     0.004 A 
ATOM     27  C   UNL A   1      34.272  19.552  25.080  1.00  0.00     0.009 A 
ATOM     28  C   UNL A   1      32.364  19.934  23.648  1.00  0.00     0.009 A 
ENDBRANCH  18  22
BRANCH  20  29
ATOM     29  C   UNL A   1      34.776  23.237  23.442  1.00  0.00     0.255 C 
ATOM     30  O   UNL A   1      34.232  23.578  22.385  1.00  0.00    -0.269 OA
ATOM     31  N   UNL A   1      36.149  23.244  23.390  1.00  0.00    -0.349 N 
ATOM     32  H   UNL A   1      36.460  23.462  22.481  1.00  0.00     0.164 HD
BRANCH  31  33
ATOM     33  C   UNL A   1      37.253  23.029  24.258  1.00  0.00     0.082 C 
ATOM     34  C   UNL A   1      37.309  23.012  25.743  1.00  0.00     0.027 C 
ATOM     35  C   UNL A   1      37.317  21.714  24.983  1.00  0.00     0.027 C 
ENDBRANCH  31  33
ENDBRANCH  20  29
ENDBRANCH  14  17
ENDBRANCH   7  13
ENDBRANCH   3   6
ENDBRANCH   1   2
BRANCH   1  36
ATOM     36  C   UNL A   1      31.592  31.732  26.766  1.00  0.00     0.023 C 
BRANCH  36  37
ATOM     37  C   UNL A   1      32.806  32.491  27.315  1.00  0.00     0.023 C 
BRANCH  37  38
ATOM     38  C   UNL A   1      33.842  31.624  28.022  1.00  0.00     0.116 C 
BRANCH  38  39
ATOM     39  N   UNL A   1      34.393  32.191  29.242  1.00  0.00    -0.352 N 
ATOM     40  C   UNL A   1      35.436  31.732  30.043  1.00  0.00     0.251 C 
ATOM     41  H   UNL A   1      33.966  33.025  29.545  1.00  0.00     0.163 HD
ATOM     42  O   UNL A   1      35.704  32.315  31.080  1.00  0.00    -0.269 OA
BRANCH  40  43
ATOM     43  C   UNL A   1      36.311  30.631  29.564  1.00  0.00     0.039 A 
ATOM     44  C   UNL A   1      36.523  29.548  30.430  1.00  0.00     0.014 A 
ATOM     45  C   UNL A   1      37.072  30.746  28.406  1.00  0.00     0.014 A 
ATOM     46  C   UNL A   1      37.670  28.770  30.286  1.00  0.00     0.010 A 
ATOM     47  C   UNL A   1      38.261  30.048  28.317  1.00  0.00     0.010 A 
ATOM     48  C   UNL A   1      38.597  29.123  29.306  1.00  0.00    -0.014 A 
BRANCH  48  49
ATOM     49  C   UNL A   1      39.988  28.693  29.336  1.00  0.00     0.031 A 
ATOM     50  C   UNL A   1      40.389  27.395  28.751  1.00  0.00     0.074 A 
ATOM     51  C   UNL A   1      40.934  29.525  29.837  1.00  0.00     0.049 A 
ATOM     52  N   UNL A   1      41.392  26.696  29.167  1.00  0.00    -0.248 NA
ATOM     53  C   UNL A   1      39.667  26.765  27.646  1.00  0.00     0.031 C 
ATOM     54  C   UNL A   1      42.384  29.352  29.743  1.00  0.00     0.029 A 
ATOM     55  N   UNL A   1      40.798  30.617  30.701  1.00  0.00    -0.354 N 
ATOM     56  C   UNL A   1      41.640  25.739  28.211  1.00  0.00     0.074 A 
ATOM     57  C   UNL A   1      40.487  25.755  27.339  1.00  0.00     0.031 C 
ATOM     58  C   UNL A   1      42.964  30.051  30.732  1.00  0.00     0.029 A 
ATOM     59  C   UNL A   1      41.894  30.555  31.576  1.00  0.00     0.049 A 
ATOM     60  H   UNL A   1      40.081  31.290  30.697  1.00  0.00     0.167 HD
ATOM     61  C   UNL A   1      42.863  25.145  28.135  1.00  0.00     0.031 A 
ATOM     62  C   UNL A   1      41.801  30.345  32.923  1.00  0.00     0.031 A 
ATOM     63  C   UNL A   1      43.784  25.639  29.151  1.00  0.00     0.049 A 
ATOM     64  C   UNL A   1      42.597  29.144  33.405  1.00  0.00     0.074 A 
ATOM     65  C   UNL A   1      44.811  26.568  29.115  1.00  0.00     0.029 A 
ATOM     66  N   UNL A   1      43.515  25.401  30.492  1.00  0.00    -0.354 N 
ATOM     67  N   UNL A   1      43.032  28.203  32.614  1.00  0.00    -0.248 NA
ATOM     68  C   UNL A   1      42.916  28.870  34.807  1.00  0.00     0.031 C 
ATOM     69  C   UNL A   1      45.127  26.929  30.450  1.00  0.00     0.029 A 
ATOM     70  C   UNL A   1      44.307  26.201  31.293  1.00  0.00     0.049 A 
ATOM     71  H   UNL A   1      42.853  24.754  30.827  1.00  0.00     0.167 HD
ATOM     72  C   UNL A   1      43.670  27.233  33.344  1.00  0.00     0.074 A 
ATOM     73  C   UNL A   1      43.577  27.701  34.714  1.00  0.00     0.031 C 
ATOM     74  C   UNL A   1      44.202  26.126  32.744  1.00  0.00     0.031 A 
BRANCH  61  75
ATOM     75  C   UNL A   1      43.292  24.358  26.925  1.00  0.00    -0.014 A 
ATOM     76  C   UNL A   1      44.070  24.973  25.926  1.00  0.00     0.009 A 
ATOM     77  C   UNL A   1      42.921  23.023  26.697  1.00  0.00     0.009 A 
ATOM     78  C   UNL A   1      44.375  24.326  24.722  1.00  0.00     0.001 A 
ATOM     79  C   UNL A   1      43.191  22.383  25.479  1.00  0.00     0.001 A 
ATOM     80  C   UNL A   1      43.908  23.040  24.486  1.00  0.00     0.000 A 
ENDBRANCH  61  75
BRANCH  62  81
ATOM     81  C   UNL A   1      40.523  30.797  33.535  1.00  0.00    -0.014 A 
ATOM     82  C   UNL A   1      40.292  32.181  33.655  1.00  0.00     0.009 A 
ATOM     83  C   UNL A   1      39.435  29.921  33.645  1.00  0.00     0.009 A 
ATOM     84  C   UNL A   1      38.989  32.680  33.754  1.00  0.00     0.001 A 
ATOM     85  C   UNL A   1      38.133  30.427  33.753  1.00  0.00     0.001 A 
ATOM     86  C   UNL A   1      37.908  31.803  33.767  1.00  0.00     0.000 A 
ENDBRANCH  62  81
BRANCH  74  87
ATOM     87  C   UNL A   1      44.741  24.889  33.424  1.00  0.00    -0.014 A 
ATOM     88  C   UNL A   1      44.086  23.653  33.471  1.00  0.00     0.009 A 
ATOM     89  C   UNL A   1      46.057  24.920  33.948  1.00  0.00     0.009 A 
ATOM     90  C   UNL A   1      44.696  22.524  34.041  1.00  0.00     0.001 A 
ATOM     91  C   UNL A   1      46.686  23.790  34.473  1.00  0.00     0.001 A 
ATOM     92  C   UNL A   1      45.997  22.588  34.530  1.00  0.00     0.000 A 
ENDBRANCH  74  87
ENDBRANCH  48  49
ENDBRANCH  40  43
ENDBRANCH  38  39
ENDBRANCH  37  38
ENDBRANCH  36  37
ENDBRANCH   1  36
TORSDOF 16
ENDMDL
MODEL 2
REMARK VINA RESULT:     -13.1      1.765      2.801
REMARK SMILES Cc1ccc(-c2csc(NC(=O)[C@H]3[C@@H](C(=O)NCCCCNC(=O)c4ccc(-c5c6nc(c(-c7ccccc7)c7ccc([nH]7)c(-c7ccccc7)c7nc(c(-c8ccccc8)c8ccc5[nH]8)C=C7)C=C6)cc4)[C@H]4C=C[C@@H]3C4)c2C(=O)NC2CC2)cc1
REMARK SMILES IDX 18 1 17 2 15 3 16 4 14 6 13 7 76 8 73 9 75 10 77 11 74 12
REMARK SMILES IDX 11 13 10 14 12 16 9 17 6 18 7 19 78 20 8 21 5 22 1 23 2 24
REMARK SMILES IDX 3 25 86 26 4 27 85 28 79 29 80 30 81 31 82 33 83 34 84 35
REMARK SMILES IDX 19 36 20 37 21 38 22 39 23 40 24 42 25 43 26 44 72 45 27 46
REMARK SMILES IDX 71 47 28 48 29 49 30 50 65 51 31 52 70 53 64 54 66 55 32 56
REMARK SMILES IDX 69 57 63 58 62 59 33 61 55 62 40 63 54 64 41 65 44 66 53 67
REMARK SMILES IDX 67 68 42 69 43 70 52 72 68 73 45 74 34 75 35 76 39 77 36 78
REMARK SMILES IDX 38 79 37 80 56 81 57 82 61 83 58 84 60 85 59 86 46 87 47 88
REMARK SMILES IDX 51 89 48 90 50 91 49 92
REMARK H PARENT 17 5 10 15 81 32 22 41 66 60 44 71
REMARK Flexibility Score: inf
ROOT
ATOM      1  C   UNL A   1      31.791  29.999  26.311  1.00  0.00     0.116 C 
ENDROOT
BRANCH   1   2
ATOM      2  N   UNL A   1      32.097  29.884  24.897  1.00  0.00    -0.356 N 
ATOM      3  C   UNL A   1      31.860  28.880  24.002  1.00  0.00     0.224 C 
ATOM      4  O   UNL A   1      32.308  29.032  22.864  1.00  0.00    -0.275 OA
ATOM      5  H   UNL A   1      32.557  30.667  24.516  1.00  0.00     0.163 HD
BRANCH   3   6
ATOM      6  C   UNL A   1      30.962  27.710  24.400  1.00  0.00     0.098 C 
ATOM      7  C   UNL A   1      31.609  26.366  24.927  1.00  0.00     0.099 C 
ATOM      8  C   UNL A   1      31.103  25.344  23.870  1.00  0.00     0.025 C 
ATOM      9  C   UNL A   1      30.156  27.234  23.151  1.00  0.00     0.025 C 
ATOM     10  C   UNL A   1      31.694  25.641  22.519  1.00  0.00    -0.027 C 
ATOM     11  C   UNL A   1      29.677  25.865  23.625  1.00  0.00     0.017 C 
ATOM     12  C   UNL A   1      31.103  26.756  22.069  1.00  0.00    -0.027 C 
BRANCH   7  13
ATOM     13  C   UNL A   1      33.099  26.450  25.259  1.00  0.00     0.229 C 
ATOM     14  N   UNL A   1      33.924  25.362  25.204  1.00  0.00    -0.317 N 
ATOM     15  H   UNL A   1      34.867  25.568  25.007  1.00  0.00     0.170 HD
ATOM     16  O   UNL A   1      33.593  27.512  25.656  1.00  0.00    -0.274 OA
BRANCH  14  17
ATOM     17  C   UNL A   1      33.647  24.019  25.381  1.00  0.00     0.108 A 
ATOM     18  C   UNL A   1      33.514  21.712  25.119  1.00  0.00     0.007 A 
ATOM     19  C   UNL A   1      32.676  21.946  26.197  1.00  0.00     0.076 A 
ATOM     20  C   UNL A   1      34.166  22.936  24.665  1.00  0.00     0.082 A 
ATOM     21  S   UNL A   1      32.738  23.550  26.738  1.00  0.00    -0.125 S 
BRANCH  18  22
ATOM     22  C   UNL A   1      33.618  20.331  24.657  1.00  0.00    -0.017 A 
ATOM     23  C   UNL A   1      33.505  16.113  23.825  1.00  0.00     0.044 C 
ATOM     24  C   UNL A   1      33.600  17.603  23.977  1.00  0.00    -0.051 A 
ATOM     25  C   UNL A   1      32.462  18.384  23.763  1.00  0.00     0.004 A 
ATOM     26  C   UNL A   1      34.771  18.215  24.452  1.00  0.00     0.004 A 
ATOM     27  C   UNL A   1      32.483  19.740  24.074  1.00  0.00     0.009 A 
ATOM     28  C   UNL A   1      34.784  19.576  24.793  1.00  0.00     0.009 A 
ENDBRANCH  18  22
BRANCH  20  29
ATOM     29  C   UNL A   1      35.022  23.204  23.505  1.00  0.00     0.255 C 
ATOM     30  O   UNL A   1      34.498  23.440  22.410  1.00  0.00    -0.269 OA
ATOM     31  N   UNL A   1      36.390  23.339  23.510  1.00  0.00    -0.349 N 
ATOM     32  H   UNL A   1      36.720  23.541  22.604  1.00  0.00     0.164 HD
BRANCH  31  33
ATOM     33  C   UNL A   1      37.468  23.272  24.432  1.00  0.00     0.082 C 
ATOM     34  C   UNL A   1      37.460  23.354  25.916  1.00  0.00     0.027 C 
ATOM     35  C   UNL A   1      37.606  22.016  25.245  1.00  0.00     0.027 C 
ENDBRANCH  31  33
ENDBRANCH  20  29
ENDBRANCH  14  17
ENDBRANCH   7  13
ENDBRANCH   3   6
ENDBRANCH   1   2
BRANCH   1  36
ATOM     36  C   UNL A   1      32.490  31.201  26.959  1.00  0.00     0.023 C 
BRANCH  36  37
ATOM     37  C   UNL A   1      33.868  30.909  27.564  1.00  0.00     0.023 C 
BRANCH  37  38
ATOM     38  C   UNL A   1      34.674  32.141  27.958  1.00  0.00     0.116 C 
BRANCH  38  39
ATOM     39  N   UNL A   1      33.912  33.197  28.603  1.00  0.00    -0.352 N 
ATOM     40  C   UNL A   1      34.198  33.922  29.758  1.00  0.00     0.251 C 
ATOM     41  H   UNL A   1      33.067  33.436  28.156  1.00  0.00     0.163 HD
ATOM     42  O   UNL A   1      33.386  34.725  30.185  1.00  0.00    -0.269 OA
BRANCH  40  43
ATOM     43  C   UNL A   1      35.544  33.825  30.380  1.00  0.00     0.039 A 
ATOM     44  C   UNL A   1      36.620  34.403  29.689  1.00  0.00     0.014 A 
ATOM     45  C   UNL A   1      35.790  33.014  31.482  1.00  0.00     0.014 A 
ATOM     46  C   UNL A   1      37.912  33.937  29.920  1.00  0.00     0.010 A 
ATOM     47  C   UNL A   1      37.051  32.473  31.645  1.00  0.00     0.010 A 
ATOM     48  C   UNL A   1      38.090  32.874  30.805  1.00  0.00    -0.014 A 
BRANCH  48  49
ATOM     49  C   UNL A   1      39.275  32.027  30.802  1.00  0.00     0.031 A 
ATOM     50  C   UNL A   1      39.268  30.723  30.104  1.00  0.00     0.074 A 
ATOM     51  C   UNL A   1      40.417  32.474  31.379  1.00  0.00     0.049 A 
ATOM     52  N   UNL A   1      39.988  29.712  30.460  1.00  0.00    -0.248 NA
ATOM     53  C   UNL A   1      38.421  30.448  28.945  1.00  0.00     0.031 C 
ATOM     54  C   UNL A   1      41.742  31.863  31.276  1.00  0.00     0.029 A 
ATOM     55  N   UNL A   1      40.603  33.477  32.337  1.00  0.00    -0.354 N 
ATOM     56  C   UNL A   1      39.955  28.810  29.423  1.00  0.00     0.074 A 
ATOM     57  C   UNL A   1      38.893  29.260  28.551  1.00  0.00     0.031 C 
ATOM     58  C   UNL A   1      42.480  32.258  32.325  1.00  0.00     0.029 A 
ATOM     59  C   UNL A   1      41.596  33.001  33.207  1.00  0.00     0.049 A 
ATOM     60  H   UNL A   1      40.132  34.340  32.390  1.00  0.00     0.167 HD
ATOM     61  C   UNL A   1      40.932  27.869  29.299  1.00  0.00     0.031 A 
ATOM     62  C   UNL A   1      41.398  32.718  34.530  1.00  0.00     0.031 A 
ATOM     63  C   UNL A   1      41.928  27.961  30.358  1.00  0.00     0.049 A 
ATOM     64  C   UNL A   1      41.763  31.291  34.905  1.00  0.00     0.074 A 
ATOM     65  C   UNL A   1      43.195  28.520  30.410  1.00  0.00     0.029 A 
ATOM     66  N   UNL A   1      41.556  27.708  31.672  1.00  0.00    -0.354 N 
ATOM     67  N   UNL A   1      41.907  30.331  34.034  1.00  0.00    -0.248 NA
ATOM     68  C   UNL A   1      41.936  30.815  36.278  1.00  0.00     0.031 C 
ATOM     69  C   UNL A   1      43.565  28.649  31.773  1.00  0.00     0.029 A 
ATOM     70  C   UNL A   1      42.533  28.149  32.544  1.00  0.00     0.049 A 
ATOM     71  H   UNL A   1      40.715  27.276  31.944  1.00  0.00     0.167 HD
ATOM     72  C   UNL A   1      42.185  29.153  34.677  1.00  0.00     0.074 A 
ATOM     73  C   UNL A   1      42.200  29.509  36.083  1.00  0.00     0.031 C 
ATOM     74  C   UNL A   1      42.364  27.989  33.983  1.00  0.00     0.031 A 
BRANCH  61  75
ATOM     75  C   UNL A   1      41.132  27.092  28.024  1.00  0.00    -0.014 A 
ATOM     76  C   UNL A   1      42.009  27.575  27.036  1.00  0.00     0.009 A 
ATOM     77  C   UNL A   1      40.448  25.902  27.727  1.00  0.00     0.009 A 
ATOM     78  C   UNL A   1      42.122  26.963  25.782  1.00  0.00     0.001 A 
ATOM     79  C   UNL A   1      40.528  25.305  26.461  1.00  0.00     0.001 A 
ATOM     80  C   UNL A   1      41.357  25.843  25.484  1.00  0.00     0.000 A 
ENDBRANCH  61  75
BRANCH  62  81
ATOM     81  C   UNL A   1      40.308  33.496  35.175  1.00  0.00    -0.014 A 
ATOM     82  C   UNL A   1      39.063  32.869  35.372  1.00  0.00     0.009 A 
ATOM     83  C   UNL A   1      40.595  34.663  35.898  1.00  0.00     0.009 A 
ATOM     84  C   UNL A   1      38.183  33.323  36.359  1.00  0.00     0.001 A 
ATOM     85  C   UNL A   1      39.705  35.119  36.879  1.00  0.00     0.001 A 
ATOM     86  C   UNL A   1      38.521  34.428  37.136  1.00  0.00     0.000 A 
ENDBRANCH  62  81
BRANCH  74  87
ATOM     87  C   UNL A   1      42.467  26.592  34.550  1.00  0.00    -0.014 A 
ATOM     88  C   UNL A   1      41.494  25.981  35.350  1.00  0.00     0.009 A 
ATOM     89  C   UNL A   1      43.556  25.777  34.156  1.00  0.00     0.009 A 
ATOM     90  C   UNL A   1      41.621  24.644  35.761  1.00  0.00     0.001 A 
ATOM     91  C   UNL A   1      43.664  24.434  34.522  1.00  0.00     0.001 A 
ATOM     92  C   UNL A   1      42.697  23.869  35.338  1.00  0.00     0.000 A 
ENDBRANCH  74  87
ENDBRANCH  48  49
ENDBRANCH  40  43
ENDBRANCH  38  39
ENDBRANCH  37  38
ENDBRANCH  36  37
ENDBRANCH   1  36
TORSDOF 16
ENDMDL
MODEL 3
REMARK VINA RESULT:     -12.4      2.338      5.745
REMARK SMILES Cc1ccc(-c2csc(NC(=O)[C@H]3[C@@H](C(=O)NCCCCNC(=O)c4ccc(-c5c6nc(c(-c7ccccc7)c7ccc([nH]7)c(-c7ccccc7)c7nc(c(-c8ccccc8)c8ccc5[nH]8)C=C7)C=C6)cc4)[C@H]4C=C[C@@H]3C4)c2C(=O)NC2CC2)cc1
REMARK SMILES IDX 18 1 17 2 15 3 16 4 14 6 13 7 76 8 73 9 75 10 77 11 74 12
REMARK SMILES IDX 11 13 10 14 12 16 9 17 6 18 7 19 78 20 8 21 5 22 1 23 2 24
REMARK SMILES IDX 3 25 86 26 4 27 85 28 79 29 80 30 81 31 82 33 83 34 84 35
REMARK SMILES IDX 19 36 20 37 21 38 22 39 23 40 24 42 25 43 26 44 72 45 27 46
REMARK SMILES IDX 71 47 28 48 29 49 30 50 65 51 31 52 70 53 64 54 66 55 32 56
REMARK SMILES IDX 69 57 63 58 62 59 33 61 55 62 40 63 54 64 41 65 44 66 53 67
REMARK SMILES IDX 67 68 42 69 43 70 52 72 68 73 45 74 34 75 35 76 39 77 36 78
REMARK SMILES IDX 38 79 37 80 56 81 57 82 61 83 58 84 60 85 59 86 46 87 47 88
REMARK SMILES IDX 51 89 48 90 50 91 49 92
REMARK H PARENT 17 5 10 15 81 32 22 41 66 60 44 71
REMARK Flexibility Score: inf
ROOT
ATOM      1  C   UNL A   1      33.194  27.521  25.751  1.00  0.00     0.116 C 
ENDROOT
BRANCH   1   2
ATOM      2  N   UNL A   1      32.866  26.267  26.405  1.00  0.00    -0.356 N 
ATOM      3  C   UNL A   1      33.153  24.974  26.071  1.00  0.00     0.224 C 
ATOM      4  O   UNL A   1      32.671  24.095  26.786  1.00  0.00    -0.275 OA
ATOM      5  H   UNL A   1      32.345  26.365  27.235  1.00  0.00     0.163 HD
BRANCH   3   6
ATOM      6  C   UNL A   1      34.137  24.688  24.939  1.00  0.00     0.098 C 
ATOM      7  C   UNL A   1      33.723  23.716  23.761  1.00  0.00     0.099 C 
ATOM      8  C   UNL A   1      34.795  22.598  23.892  1.00  0.00     0.025 C 
ATOM      9  C   UNL A   1      35.406  23.991  25.525  1.00  0.00     0.025 C 
ATOM     10  C   UNL A   1      34.629  21.850  25.187  1.00  0.00    -0.027 C 
ATOM     11  C   UNL A   1      36.036  23.430  24.255  1.00  0.00     0.017 C 
ATOM     12  C   UNL A   1      35.027  22.672  26.166  1.00  0.00    -0.027 C 
BRANCH   7  13
ATOM     13  C   UNL A   1      32.238  23.351  23.715  1.00  0.00     0.229 C 
ATOM     14  N   UNL A   1      31.317  24.112  23.052  1.00  0.00    -0.317 N 
ATOM     15  H   UNL A   1      30.535  23.616  22.717  1.00  0.00     0.170 HD
ATOM     16  O   UNL A   1      31.814  22.374  24.343  1.00  0.00    -0.274 OA
BRANCH  14  17
ATOM     17  C   UNL A   1      31.307  25.467  22.777  1.00  0.00     0.108 A 
ATOM     18  C   UNL A   1      30.790  27.734  22.731  1.00  0.00     0.007 A 
ATOM     19  C   UNL A   1      31.740  27.617  21.729  1.00  0.00     0.076 A 
ATOM     20  C   UNL A   1      30.575  26.467  23.422  1.00  0.00     0.082 A 
ATOM     21  S   UNL A   1      32.447  26.079  21.674  1.00  0.00    -0.125 S 
BRANCH  18  22
ATOM     22  C   UNL A   1      30.209  29.058  22.933  1.00  0.00    -0.017 A 
ATOM     23  C   UNL A   1      28.991  33.179  23.095  1.00  0.00     0.044 C 
ATOM     24  C   UNL A   1      29.283  31.708  23.099  1.00  0.00    -0.051 A 
ATOM     25  C   UNL A   1      29.084  30.970  21.930  1.00  0.00     0.004 A 
ATOM     26  C   UNL A   1      29.871  31.084  24.211  1.00  0.00     0.004 A 
ATOM     27  C   UNL A   1      29.518  29.650  21.861  1.00  0.00     0.009 A 
ATOM     28  C   UNL A   1      30.335  29.761  24.132  1.00  0.00     0.009 A 
ENDBRANCH  18  22
BRANCH  20  29
ATOM     29  C   UNL A   1      29.600  26.076  24.446  1.00  0.00     0.255 C 
ATOM     30  O   UNL A   1      30.001  25.545  25.488  1.00  0.00    -0.269 OA
ATOM     31  N   UNL A   1      28.252  26.339  24.436  1.00  0.00    -0.349 N 
ATOM     32  H   UNL A   1      27.826  25.991  25.254  1.00  0.00     0.164 HD
BRANCH  31  33
ATOM     33  C   UNL A   1      27.289  26.963  23.599  1.00  0.00     0.082 C 
ATOM     34  C   UNL A   1      25.929  27.469  23.922  1.00  0.00     0.027 C 
ATOM     35  C   UNL A   1      27.070  28.439  23.779  1.00  0.00     0.027 C 
ENDBRANCH  31  33
ENDBRANCH  20  29
ENDBRANCH  14  17
ENDBRANCH   7  13
ENDBRANCH   3   6
ENDBRANCH   1   2
BRANCH   1  36
ATOM     36  C   UNL A   1      34.116  28.397  26.609  1.00  0.00     0.023 C 
BRANCH  36  37
ATOM     37  C   UNL A   1      33.919  29.909  26.447  1.00  0.00     0.023 C 
BRANCH  37  38
ATOM     38  C   UNL A   1      34.475  30.758  27.584  1.00  0.00     0.116 C 
BRANCH  38  39
ATOM     39  N   UNL A   1      33.727  31.972  27.871  1.00  0.00    -0.352 N 
ATOM     40  C   UNL A   1      33.997  32.986  28.787  1.00  0.00     0.251 C 
ATOM     41  H   UNL A   1      32.909  32.094  27.338  1.00  0.00     0.163 HD
ATOM     42  O   UNL A   1      33.200  33.896  28.934  1.00  0.00    -0.269 OA
BRANCH  40  43
ATOM     43  C   UNL A   1      35.316  33.037  29.470  1.00  0.00     0.039 A 
ATOM     44  C   UNL A   1      36.372  33.665  28.794  1.00  0.00     0.014 A 
ATOM     45  C   UNL A   1      35.575  32.310  30.628  1.00  0.00     0.014 A 
ATOM     46  C   UNL A   1      37.686  33.322  29.107  1.00  0.00     0.010 A 
ATOM     47  C   UNL A   1      36.866  31.887  30.876  1.00  0.00     0.010 A 
ATOM     48  C   UNL A   1      37.908  32.328  30.059  1.00  0.00    -0.014 A 
BRANCH  48  49
ATOM     49  C   UNL A   1      39.157  31.585  30.156  1.00  0.00     0.031 A 
ATOM     50  C   UNL A   1      39.302  30.266  29.502  1.00  0.00     0.074 A 
ATOM     51  C   UNL A   1      40.219  32.143  30.788  1.00  0.00     0.049 A 
ATOM     52  N   UNL A   1      40.080  29.330  29.933  1.00  0.00    -0.248 NA
ATOM     53  C   UNL A   1      38.557  29.889  28.302  1.00  0.00     0.031 C 
ATOM     54  C   UNL A   1      41.594  31.643  30.785  1.00  0.00     0.029 A 
ATOM     55  N   UNL A   1      40.259  33.183  31.722  1.00  0.00    -0.354 N 
ATOM     56  C   UNL A   1      40.188  28.400  28.926  1.00  0.00     0.074 A 
ATOM     57  C   UNL A   1      39.151  28.736  27.976  1.00  0.00     0.031 C 
ATOM     58  C   UNL A   1      42.228  32.128  31.865  1.00  0.00     0.029 A 
ATOM     59  C   UNL A   1      41.230  32.816  32.666  1.00  0.00     0.049 A 
ATOM     60  H   UNL A   1      39.716  34.004  31.719  1.00  0.00     0.167 HD
ATOM     61  C   UNL A   1      41.246  27.544  28.892  1.00  0.00     0.031 A 
ATOM     62  C   UNL A   1      40.973  32.553  33.983  1.00  0.00     0.031 A 
ATOM     63  C   UNL A   1      42.161  27.748  30.007  1.00  0.00     0.049 A 
ATOM     64  C   UNL A   1      41.430  31.174  34.425  1.00  0.00     0.074 A 
ATOM     65  C   UNL A   1      43.371  28.414  30.118  1.00  0.00     0.029 A 
ATOM     66  N   UNL A   1      41.728  27.500  31.303  1.00  0.00    -0.354 N 
ATOM     67  N   UNL A   1      41.709  30.206  33.597  1.00  0.00    -0.248 NA
ATOM     68  C   UNL A   1      41.554  30.751  35.821  1.00  0.00     0.031 C 
ATOM     69  C   UNL A   1      43.642  28.611  31.497  1.00  0.00     0.029 A 
ATOM     70  C   UNL A   1      42.607  28.045  32.219  1.00  0.00     0.049 A 
ATOM     71  H   UNL A   1      40.910  27.006  31.537  1.00  0.00     0.167 HD
ATOM     72  C   UNL A   1      42.042  29.073  34.293  1.00  0.00     0.074 A 
ATOM     73  C   UNL A   1      41.938  29.467  35.685  1.00  0.00     0.031 C 
ATOM     74  C   UNL A   1      42.361  27.910  33.648  1.00  0.00     0.031 A 
BRANCH  61  75
ATOM     75  C   UNL A   1      41.590  26.752  27.658  1.00  0.00    -0.014 A 
ATOM     76  C   UNL A   1      41.599  25.346  27.704  1.00  0.00     0.009 A 
ATOM     77  C   UNL A   1      41.957  27.341  26.436  1.00  0.00     0.009 A 
ATOM     78  C   UNL A   1      42.045  24.572  26.626  1.00  0.00     0.001 A 
ATOM     79  C   UNL A   1      42.440  26.574  25.367  1.00  0.00     0.001 A 
ATOM     80  C   UNL A   1      42.495  25.189  25.466  1.00  0.00     0.000 A 
ENDBRANCH  61  75
BRANCH  62  81
ATOM     81  C   UNL A   1      39.783  33.253  34.534  1.00  0.00    -0.014 A 
ATOM     82  C   UNL A   1      38.557  32.562  34.571  1.00  0.00     0.009 A 
ATOM     83  C   UNL A   1      39.933  34.400  35.327  1.00  0.00     0.009 A 
ATOM     84  C   UNL A   1      37.555  32.934  35.473  1.00  0.00     0.001 A 
ATOM     85  C   UNL A   1      38.922  34.773  36.222  1.00  0.00     0.001 A 
ATOM     86  C   UNL A   1      37.753  34.019  36.323  1.00  0.00     0.000 A 
ENDBRANCH  62  81
BRANCH  74  87
ATOM     87  C   UNL A   1      42.543  26.543  34.266  1.00  0.00    -0.014 A 
ATOM     88  C   UNL A   1      41.625  25.924  35.122  1.00  0.00     0.009 A 
ATOM     89  C   UNL A   1      43.653  25.759  33.866  1.00  0.00     0.009 A 
ATOM     90  C   UNL A   1      41.823  24.612  35.580  1.00  0.00     0.001 A 
ATOM     91  C   UNL A   1      43.831  24.438  34.281  1.00  0.00     0.001 A 
ATOM     92  C   UNL A   1      42.917  23.866  35.151  1.00  0.00     0.000 A 
ENDBRANCH  74  87
ENDBRANCH  48  49
ENDBRANCH  40  43
ENDBRANCH  38  39
ENDBRANCH  37  38
ENDBRANCH  36  37
ENDBRANCH   1  36
TORSDOF 16
ENDMDL
