MODEL 1
REMARK VINA RESULT:     -12.7      0.000      0.000
REMARK SMILES O=C(NCCCCNC(=O)c1cc2n(n1)[C@@H](C(F)(F)F)C[C@H](c1ccc3c(c1)OCO3)N2)c1ccc(-c2c3nc(c(-c4ccccc4)c4ccc([nH]4)c(-c4ccccc4)c4nc(c(-c5ccccc5)c5ccc2[nH]5)C=C4)C=C3)cc1
REMARK SMILES IDX 5 1 4 2 3 3 1 4 2 5 33 7 34 8 80 9 35 10 79 11 36 12 37 13
REMARK SMILES IDX 38 14 73 15 39 16 78 17 72 18 74 19 40 20 77 21 71 22 70 23
REMARK SMILES IDX 41 25 63 26 48 27 62 28 49 29 52 30 61 31 75 32 50 33 51 34
REMARK SMILES IDX 60 36 76 37 53 38 42 39 43 40 47 41 44 42 46 43 45 44 64 45
REMARK SMILES IDX 65 46 69 47 66 48 68 49 67 50 54 51 55 52 59 53 56 54 58 55
REMARK SMILES IDX 57 56 6 57 7 58 8 59 9 60 10 62 11 63 12 64 15 65 13 66
REMARK SMILES IDX 14 67 32 68 16 69 22 70 21 72 17 73 18 74 19 75 20 76 23 77
REMARK SMILES IDX 24 78 28 79 25 80 27 81 26 82 29 83 31 84 30 85
REMARK H PARENT 3 6 74 24 52 35 8 61 32 71
REMARK Flexibility Score: inf
ROOT
ATOM      1  C   UNL A   1      35.258  23.460  25.292  1.00  0.00     0.023 C 
ENDROOT
BRANCH   1   2
ATOM      2  C   UNL A   1      36.531  23.808  26.049  1.00  0.00     0.116 C 
BRANCH   2   3
ATOM      3  N   UNL A   1      37.522  22.740  26.035  1.00  0.00    -0.352 N 
ATOM      4  O   UNL A   1      39.579  21.812  26.163  1.00  0.00    -0.269 OA
ATOM      5  C   UNL A   1      38.861  22.790  26.349  1.00  0.00     0.251 C 
ATOM      6  H   UNL A   1      37.185  21.856  25.762  1.00  0.00     0.163 HD
BRANCH   5   7
ATOM      7  C   UNL A   1      39.440  24.043  26.877  1.00  0.00     0.039 A 
ATOM      8  C   UNL A   1      39.350  24.345  28.235  1.00  0.00     0.014 A 
ATOM      9  C   UNL A   1      40.043  24.945  25.996  1.00  0.00     0.014 A 
ATOM     10  C   UNL A   1      39.676  25.620  28.677  1.00  0.00     0.010 A 
ATOM     11  C   UNL A   1      40.480  26.187  26.467  1.00  0.00     0.010 A 
ATOM     12  C   UNL A   1      40.257  26.554  27.803  1.00  0.00    -0.014 A 
BRANCH  12  13
ATOM     13  C   UNL A   1      40.661  27.882  28.334  1.00  0.00     0.031 A 
ATOM     14  C   UNL A   1      39.651  28.966  28.594  1.00  0.00     0.074 A 
ATOM     15  C   UNL A   1      41.960  28.087  28.628  1.00  0.00     0.049 A 
ATOM     16  N   UNL A   1      39.838  30.157  29.109  1.00  0.00    -0.248 NA
ATOM     17  C   UNL A   1      38.256  28.688  28.223  1.00  0.00     0.031 C 
ATOM     18  C   UNL A   1      43.035  27.112  28.423  1.00  0.00     0.029 A 
ATOM     19  N   UNL A   1      42.594  29.164  29.190  1.00  0.00    -0.354 N 
ATOM     20  C   UNL A   1      38.594  30.777  29.101  1.00  0.00     0.074 A 
ATOM     21  C   UNL A   1      37.665  29.842  28.504  1.00  0.00     0.031 C 
ATOM     22  C   UNL A   1      44.178  27.607  28.918  1.00  0.00     0.029 A 
ATOM     23  C   UNL A   1      43.936  28.960  29.402  1.00  0.00     0.049 A 
ATOM     24  H   UNL A   1      42.132  30.002  29.421  1.00  0.00     0.167 HD
ATOM     25  C   UNL A   1      38.258  32.011  29.551  1.00  0.00     0.031 A 
ATOM     26  C   UNL A   1      44.875  29.773  29.916  1.00  0.00     0.031 A 
ATOM     27  C   UNL A   1      39.187  32.940  30.142  1.00  0.00     0.049 A 
ATOM     28  C   UNL A   1      44.481  31.149  30.363  1.00  0.00     0.074 A 
ATOM     29  C   UNL A   1      38.935  34.199  30.663  1.00  0.00     0.029 A 
ATOM     30  N   UNL A   1      40.549  32.718  30.281  1.00  0.00    -0.354 N 
ATOM     31  N   UNL A   1      43.293  31.703  30.386  1.00  0.00    -0.248 NA
ATOM     32  C   UNL A   1      45.561  32.011  30.857  1.00  0.00     0.031 C 
ATOM     33  C   UNL A   1      40.153  34.762  31.057  1.00  0.00     0.029 A 
ATOM     34  C   UNL A   1      41.154  33.829  30.848  1.00  0.00     0.049 A 
ATOM     35  H   UNL A   1      41.017  31.893  30.017  1.00  0.00     0.167 HD
ATOM     36  C   UNL A   1      43.479  32.969  30.921  1.00  0.00     0.074 A 
ATOM     37  C   UNL A   1      44.890  33.092  31.228  1.00  0.00     0.031 C 
ATOM     38  C   UNL A   1      42.561  33.943  31.140  1.00  0.00     0.031 A 
BRANCH  25  39
ATOM     39  C   UNL A   1      36.826  32.448  29.382  1.00  0.00    -0.014 A 
ATOM     40  C   UNL A   1      35.873  32.262  30.396  1.00  0.00     0.009 A 
ATOM     41  C   UNL A   1      36.433  33.093  28.198  1.00  0.00     0.009 A 
ATOM     42  C   UNL A   1      34.550  32.675  30.211  1.00  0.00     0.001 A 
ATOM     43  C   UNL A   1      35.119  33.534  28.028  1.00  0.00     0.001 A 
ATOM     44  C   UNL A   1      34.176  33.314  29.030  1.00  0.00     0.000 A 
ENDBRANCH  25  39
BRANCH  26  45
ATOM     45  C   UNL A   1      46.280  29.303  30.029  1.00  0.00    -0.014 A 
ATOM     46  C   UNL A   1      46.759  28.769  31.233  1.00  0.00     0.009 A 
ATOM     47  C   UNL A   1      47.149  29.384  28.928  1.00  0.00     0.009 A 
ATOM     48  C   UNL A   1      48.086  28.348  31.341  1.00  0.00     0.001 A 
ATOM     49  C   UNL A   1      48.465  28.930  29.029  1.00  0.00     0.001 A 
ATOM     50  C   UNL A   1      48.935  28.422  30.238  1.00  0.00     0.000 A 
ENDBRANCH  26  45
BRANCH  38  51
ATOM     51  C   UNL A   1      43.056  35.211  31.780  1.00  0.00    -0.014 A 
ATOM     52  C   UNL A   1      43.630  36.242  31.020  1.00  0.00     0.009 A 
ATOM     53  C   UNL A   1      42.931  35.379  33.168  1.00  0.00     0.009 A 
ATOM     54  C   UNL A   1      44.110  37.396  31.644  1.00  0.00     0.001 A 
ATOM     55  C   UNL A   1      43.380  36.547  33.785  1.00  0.00     0.001 A 
ATOM     56  C   UNL A   1      43.980  37.548  33.024  1.00  0.00     0.000 A 
ENDBRANCH  38  51
ENDBRANCH  12  13
ENDBRANCH   5   7
ENDBRANCH   2   3
ENDBRANCH   1   2
BRANCH   1  57
ATOM     57  C   UNL A   1      34.055  23.136  26.169  1.00  0.00     0.023 C 
BRANCH  57  58
ATOM     58  C   UNL A   1      32.823  22.646  25.418  1.00  0.00     0.116 C 
BRANCH  58  59
ATOM     59  N   UNL A   1      31.680  22.427  26.289  1.00  0.00    -0.351 N 
ATOM     60  C   UNL A   1      30.779  23.344  26.790  1.00  0.00     0.271 C 
ATOM     61  H   UNL A   1      31.528  21.494  26.561  1.00  0.00     0.163 HD
ATOM     62  O   UNL A   1      29.975  22.963  27.642  1.00  0.00    -0.267 OA
BRANCH  60  63
ATOM     63  C   UNL A   1      30.822  24.719  26.278  1.00  0.00     0.152 A 
ATOM     64  C   UNL A   1      30.074  25.254  25.188  1.00  0.00     0.082 A 
ATOM     65  N   UNL A   1      31.629  25.662  26.811  1.00  0.00    -0.165 NA
ATOM     66  C   UNL A   1      30.579  26.506  24.986  1.00  0.00     0.126 A 
ATOM     67  N   UNL A   1      31.466  26.716  26.001  1.00  0.00    -0.237 N 
ATOM     68  N   UNL A   1      30.349  27.437  24.042  1.00  0.00    -0.363 N 
ATOM     69  C   UNL A   1      32.170  27.967  26.202  1.00  0.00     0.217 C 
ATOM     70  C   UNL A   1      30.986  28.751  24.076  1.00  0.00     0.113 C 
ATOM     71  H   UNL A   1      29.732  27.226  23.305  1.00  0.00     0.162 HD
ATOM     72  C   UNL A   1      31.375  29.105  25.529  1.00  0.00     0.066 C 
BRANCH  69  73
ATOM     73  C   UNL A   1      33.583  27.857  25.673  1.00  0.00     0.410 C 
ATOM     74  F   UNL A   1      34.453  27.757  26.714  1.00  0.00    -0.169 F 
ATOM     75  F   UNL A   1      33.779  26.765  24.906  1.00  0.00    -0.169 F 
ATOM     76  F   UNL A   1      33.970  28.936  24.958  1.00  0.00    -0.169 F 
ENDBRANCH  69  73
BRANCH  70  77
ATOM     77  C   UNL A   1      30.099  29.820  23.446  1.00  0.00    -0.022 A 
ATOM     78  C   UNL A   1      29.770  30.970  24.208  1.00  0.00     0.010 A 
ATOM     79  C   UNL A   1      29.621  29.732  22.124  1.00  0.00     0.056 A 
ATOM     80  C   UNL A   1      28.999  32.008  23.672  1.00  0.00     0.051 A 
ATOM     81  C   UNL A   1      28.888  30.782  21.613  1.00  0.00     0.166 A 
ATOM     82  C   UNL A   1      28.583  31.888  22.366  1.00  0.00     0.165 A 
ATOM     83  O   UNL A   1      28.399  30.863  20.346  1.00  0.00    -0.454 OA
ATOM     84  O   UNL A   1      27.855  32.803  21.673  1.00  0.00    -0.454 OA
ATOM     85  C   UNL A   1      27.759  32.155  20.387  1.00  0.00     0.468 C 
ENDBRANCH  70  77
ENDBRANCH  60  63
ENDBRANCH  58  59
ENDBRANCH  57  58
ENDBRANCH   1  57
TORSDOF 13
ENDMDL
MODEL 2
REMARK VINA RESULT:     -12.6      0.397      5.749
REMARK SMILES O=C(NCCCCNC(=O)c1cc2n(n1)[C@@H](C(F)(F)F)C[C@H](c1ccc3c(c1)OCO3)N2)c1ccc(-c2c3nc(c(-c4ccccc4)c4ccc([nH]4)c(-c4ccccc4)c4nc(c(-c5ccccc5)c5ccc2[nH]5)C=C4)C=C3)cc1
REMARK SMILES IDX 5 1 4 2 3 3 1 4 2 5 33 7 34 8 80 9 35 10 79 11 36 12 37 13
REMARK SMILES IDX 38 14 73 15 39 16 78 17 72 18 74 19 40 20 77 21 71 22 70 23
REMARK SMILES IDX 41 25 63 26 48 27 62 28 49 29 52 30 61 31 75 32 50 33 51 34
REMARK SMILES IDX 60 36 76 37 53 38 42 39 43 40 47 41 44 42 46 43 45 44 64 45
REMARK SMILES IDX 65 46 69 47 66 48 68 49 67 50 54 51 55 52 59 53 56 54 58 55
REMARK SMILES IDX 57 56 6 57 7 58 8 59 9 60 10 62 11 63 12 64 15 65 13 66
REMARK SMILES IDX 14 67 32 68 16 69 22 70 21 72 17 73 18 74 19 75 20 76 23 77
REMARK SMILES IDX 24 78 28 79 25 80 27 81 26 82 29 83 31 84 30 85
REMARK H PARENT 3 6 74 24 52 35 8 61 32 71
REMARK Flexibility Score: inf
ROOT
ATOM      1  C   UNL A   1      34.841  23.760  26.188  1.00  0.00     0.023 C 
ENDROOT
BRANCH   1   2
ATOM      2  C   UNL A   1      36.238  24.078  25.675  1.00  0.00     0.116 C 
BRANCH   2   3
ATOM      3  N   UNL A   1      37.131  22.926  25.678  1.00  0.00    -0.352 N 
ATOM      4  O   UNL A   1      39.083  21.811  25.910  1.00  0.00    -0.269 OA
ATOM      5  C   UNL A   1      38.439  22.839  26.095  1.00  0.00     0.251 C 
ATOM      6  H   UNL A   1      36.742  22.092  25.330  1.00  0.00     0.163 HD
BRANCH   5   7
ATOM      7  C   UNL A   1      39.079  24.008  26.736  1.00  0.00     0.039 A 
ATOM      8  C   UNL A   1      38.896  24.255  28.096  1.00  0.00     0.014 A 
ATOM      9  C   UNL A   1      39.837  24.888  25.958  1.00  0.00     0.014 A 
ATOM     10  C   UNL A   1      39.295  25.472  28.631  1.00  0.00     0.010 A 
ATOM     11  C   UNL A   1      40.340  26.060  26.530  1.00  0.00     0.010 A 
ATOM     12  C   UNL A   1      40.033  26.386  27.860  1.00  0.00    -0.014 A 
BRANCH  12  13
ATOM     13  C   UNL A   1      40.506  27.644  28.492  1.00  0.00     0.031 A 
ATOM     14  C   UNL A   1      41.955  27.857  28.834  1.00  0.00     0.074 A 
ATOM     15  C   UNL A   1      39.611  28.627  28.715  1.00  0.00     0.049 A 
ATOM     16  N   UNL A   1      42.535  28.921  29.335  1.00  0.00    -0.248 NA
ATOM     17  C   UNL A   1      42.874  26.734  28.594  1.00  0.00     0.031 C 
ATOM     18  C   UNL A   1      38.177  28.544  28.425  1.00  0.00     0.029 A 
ATOM     19  N   UNL A   1      39.775  29.897  29.204  1.00  0.00    -0.354 N 
ATOM     20  C   UNL A   1      43.875  28.589  29.492  1.00  0.00     0.074 A 
ATOM     21  C   UNL A   1      44.019  27.215  29.060  1.00  0.00     0.031 C 
ATOM     22  C   UNL A   1      37.607  29.731  28.672  1.00  0.00     0.029 A 
ATOM     23  C   UNL A   1      38.616  30.634  29.212  1.00  0.00     0.049 A 
ATOM     24  H   UNL A   1      40.640  30.247  29.518  1.00  0.00     0.167 HD
ATOM     25  C   UNL A   1      44.892  29.357  29.954  1.00  0.00     0.031 A 
ATOM     26  C   UNL A   1      38.381  31.894  29.620  1.00  0.00     0.031 A 
ATOM     27  C   UNL A   1      44.743  30.724  30.386  1.00  0.00     0.049 A 
ATOM     28  C   UNL A   1      39.517  32.704  30.168  1.00  0.00     0.074 A 
ATOM     29  C   UNL A   1      45.721  31.598  30.834  1.00  0.00     0.029 A 
ATOM     30  N   UNL A   1      43.541  31.413  30.437  1.00  0.00    -0.354 N 
ATOM     31  N   UNL A   1      40.786  32.388  30.271  1.00  0.00    -0.248 NA
ATOM     32  C   UNL A   1      39.187  34.049  30.655  1.00  0.00     0.031 C 
ATOM     33  C   UNL A   1      45.100  32.792  31.215  1.00  0.00     0.029 A 
ATOM     34  C   UNL A   1      43.747  32.688  30.939  1.00  0.00     0.049 A 
ATOM     35  H   UNL A   1      42.670  31.050  30.156  1.00  0.00     0.167 HD
ATOM     36  C   UNL A   1      41.409  33.503  30.810  1.00  0.00     0.074 A 
ATOM     37  C   UNL A   1      40.383  34.510  30.992  1.00  0.00     0.031 C 
ATOM     38  C   UNL A   1      42.716  33.679  31.124  1.00  0.00     0.031 A 
BRANCH  25  39
ATOM     39  C   UNL A   1      46.255  28.724  30.055  1.00  0.00    -0.014 A 
ATOM     40  C   UNL A   1      46.681  28.072  31.223  1.00  0.00     0.009 A 
ATOM     41  C   UNL A   1      47.114  28.747  28.945  1.00  0.00     0.009 A 
ATOM     42  C   UNL A   1      47.953  27.495  31.290  1.00  0.00     0.001 A 
ATOM     43  C   UNL A   1      48.372  28.143  29.003  1.00  0.00     0.001 A 
ATOM     44  C   UNL A   1      48.794  27.527  30.179  1.00  0.00     0.000 A 
ENDBRANCH  25  39
BRANCH  26  45
ATOM     45  C   UNL A   1      37.010  32.459  29.529  1.00  0.00    -0.014 A 
ATOM     46  C   UNL A   1      36.594  33.136  28.374  1.00  0.00     0.009 A 
ATOM     47  C   UNL A   1      36.109  32.319  30.597  1.00  0.00     0.009 A 
ATOM     48  C   UNL A   1      35.311  33.683  28.300  1.00  0.00     0.001 A 
ATOM     49  C   UNL A   1      34.816  32.837  30.507  1.00  0.00     0.001 A 
ATOM     50  C   UNL A   1      34.422  33.528  29.362  1.00  0.00     0.000 A 
ENDBRANCH  26  45
BRANCH  38  51
ATOM     51  C   UNL A   1      43.111  35.027  31.660  1.00  0.00    -0.014 A 
ATOM     52  C   UNL A   1      43.037  35.325  33.030  1.00  0.00     0.009 A 
ATOM     53  C   UNL A   1      43.578  36.013  30.776  1.00  0.00     0.009 A 
ATOM     54  C   UNL A   1      43.381  36.596  33.496  1.00  0.00     0.001 A 
ATOM     55  C   UNL A   1      43.954  37.271  31.248  1.00  0.00     0.001 A 
ATOM     56  C   UNL A   1      43.842  37.565  32.605  1.00  0.00     0.000 A 
ENDBRANCH  38  51
ENDBRANCH  12  13
ENDBRANCH   5   7
ENDBRANCH   2   3
ENDBRANCH   1   2
BRANCH   1  57
ATOM     57  C   UNL A   1      34.227  22.481  25.633  1.00  0.00     0.023 C 
BRANCH  57  58
ATOM     58  C   UNL A   1      32.823  22.637  25.059  1.00  0.00     0.116 C 
BRANCH  58  59
ATOM     59  N   UNL A   1      31.781  22.427  26.050  1.00  0.00    -0.351 N 
ATOM     60  C   UNL A   1      30.956  23.352  26.655  1.00  0.00     0.271 C 
ATOM     61  H   UNL A   1      31.645  21.493  26.330  1.00  0.00     0.163 HD
ATOM     62  O   UNL A   1      30.245  22.974  27.588  1.00  0.00    -0.267 OA
BRANCH  60  63
ATOM     63  C   UNL A   1      30.963  24.730  26.152  1.00  0.00     0.152 A 
ATOM     64  C   UNL A   1      30.186  25.258  25.079  1.00  0.00     0.082 A 
ATOM     65  N   UNL A   1      31.760  25.685  26.678  1.00  0.00    -0.165 NA
ATOM     66  C   UNL A   1      30.662  26.521  24.877  1.00  0.00     0.126 A 
ATOM     67  N   UNL A   1      31.563  26.742  25.877  1.00  0.00    -0.237 N 
ATOM     68  N   UNL A   1      30.398  27.453  23.944  1.00  0.00    -0.363 N 
ATOM     69  C   UNL A   1      32.245  28.004  26.075  1.00  0.00     0.217 C 
ATOM     70  C   UNL A   1      31.010  28.780  23.975  1.00  0.00     0.113 C 
ATOM     71  H   UNL A   1      29.772  27.235  23.216  1.00  0.00     0.162 HD
ATOM     72  C   UNL A   1      31.417  29.132  25.424  1.00  0.00     0.066 C 
BRANCH  69  73
ATOM     73  C   UNL A   1      33.651  27.927  25.521  1.00  0.00     0.410 C 
ATOM     74  F   UNL A   1      34.512  27.567  26.510  1.00  0.00    -0.169 F 
ATOM     75  F   UNL A   1      33.786  27.005  24.545  1.00  0.00    -0.169 F 
ATOM     76  F   UNL A   1      34.100  29.105  25.037  1.00  0.00    -0.169 F 
ENDBRANCH  69  73
BRANCH  70  77
ATOM     77  C   UNL A   1      30.091  29.835  23.369  1.00  0.00    -0.022 A 
ATOM     78  C   UNL A   1      29.681  30.928  24.175  1.00  0.00     0.010 A 
ATOM     79  C   UNL A   1      29.660  29.792  22.028  1.00  0.00     0.056 A 
ATOM     80  C   UNL A   1      28.876  31.953  23.664  1.00  0.00     0.051 A 
ATOM     81  C   UNL A   1      28.892  30.830  21.544  1.00  0.00     0.166 A 
ATOM     82  C   UNL A   1      28.508  31.879  22.340  1.00  0.00     0.165 A 
ATOM     83  O   UNL A   1      28.440  30.951  20.267  1.00  0.00    -0.454 OA
ATOM     84  O   UNL A   1      27.759  32.793  21.668  1.00  0.00    -0.454 OA
ATOM     85  C   UNL A   1      27.736  32.207  20.349  1.00  0.00     0.468 C 
ENDBRANCH  70  77
ENDBRANCH  60  63
ENDBRANCH  58  59
ENDBRANCH  57  58
ENDBRANCH   1  57
TORSDOF 13
ENDMDL
MODEL 3
REMARK VINA RESULT:     -12.3      3.250      8.514
REMARK SMILES O=C(NCCCCNC(=O)c1cc2n(n1)[C@@H](C(F)(F)F)C[C@H](c1ccc3c(c1)OCO3)N2)c1ccc(-c2c3nc(c(-c4ccccc4)c4ccc([nH]4)c(-c4ccccc4)c4nc(c(-c5ccccc5)c5ccc2[nH]5)C=C4)C=C3)cc1
REMARK SMILES IDX 5 1 4 2 3 3 1 4 2 5 33 7 34 8 80 9 35 10 79 11 36 12 37 13
REMARK SMILES IDX 38 14 73 15 39 16 78 17 72 18 74 19 40 20 77 21 71 22 70 23
REMARK SMILES IDX 41 25 63 26 48 27 62 28 49 29 52 30 61 31 75 32 50 33 51 34
REMARK SMILES IDX 60 36 76 37 53 38 42 39 43 40 47 41 44 42 46 43 45 44 64 45
REMARK SMILES IDX 65 46 69 47 66 48 68 49 67 50 54 51 55 52 59 53 56 54 58 55
REMARK SMILES IDX 57 56 6 57 7 58 8 59 9 60 10 62 11 63 12 64 15 65 13 66
REMARK SMILES IDX 14 67 32 68 16 69 22 70 21 72 17 73 18 74 19 75 20 76 23 77
REMARK SMILES IDX 24 78 28 79 25 80 27 81 26 82 29 83 31 84 30 85
REMARK H PARENT 3 6 74 24 52 35 8 61 32 71
REMARK Flexibility Score: inf
ROOT
ATOM      1  C   UNL A   1      31.463  31.977  26.865  1.00  0.00     0.023 C 
ENDROOT
BRANCH   1   2
ATOM      2  C   UNL A   1      32.695  32.785  27.245  1.00  0.00     0.116 C 
BRANCH   2   3
ATOM      3  N   UNL A   1      32.391  34.157  27.629  1.00  0.00    -0.352 N 
ATOM      4  O   UNL A   1      32.535  36.054  28.851  1.00  0.00    -0.269 OA
ATOM      5  C   UNL A   1      33.004  34.955  28.569  1.00  0.00     0.251 C 
ATOM      6  H   UNL A   1      31.640  34.572  27.148  1.00  0.00     0.163 HD
BRANCH   5   7
ATOM      7  C   UNL A   1      34.211  34.464  29.267  1.00  0.00     0.039 A 
ATOM      8  C   UNL A   1      35.473  34.634  28.698  1.00  0.00     0.014 A 
ATOM      9  C   UNL A   1      34.075  33.790  30.483  1.00  0.00     0.014 A 
ATOM     10  C   UNL A   1      36.563  33.965  29.235  1.00  0.00     0.010 A 
ATOM     11  C   UNL A   1      35.197  33.214  31.086  1.00  0.00     0.010 A 
ATOM     12  C   UNL A   1      36.444  33.255  30.442  1.00  0.00    -0.014 A 
BRANCH  12  13
ATOM     13  C   UNL A   1      37.652  32.615  31.024  1.00  0.00     0.031 A 
ATOM     14  C   UNL A   1      38.236  33.078  32.330  1.00  0.00     0.074 A 
ATOM     15  C   UNL A   1      38.196  31.566  30.377  1.00  0.00     0.049 A 
ATOM     16  N   UNL A   1      39.251  32.585  32.998  1.00  0.00    -0.248 NA
ATOM     17  C   UNL A   1      37.613  34.247  32.969  1.00  0.00     0.031 C 
ATOM     18  C   UNL A   1      37.719  31.020  29.103  1.00  0.00     0.029 A 
ATOM     19  N   UNL A   1      39.245  30.750  30.713  1.00  0.00    -0.354 N 
ATOM     20  C   UNL A   1      39.403  33.395  34.117  1.00  0.00     0.074 A 
ATOM     21  C   UNL A   1      38.394  34.428  34.025  1.00  0.00     0.031 C 
ATOM     22  C   UNL A   1      38.425  29.921  28.803  1.00  0.00     0.029 A 
ATOM     23  C   UNL A   1      39.453  29.729  29.818  1.00  0.00     0.049 A 
ATOM     24  H   UNL A   1      39.796  30.882  31.518  1.00  0.00     0.167 HD
ATOM     25  C   UNL A   1      40.300  33.287  35.128  1.00  0.00     0.031 A 
ATOM     26  C   UNL A   1      40.374  28.750  29.803  1.00  0.00     0.031 A 
ATOM     27  C   UNL A   1      41.306  32.257  35.213  1.00  0.00     0.049 A 
ATOM     28  C   UNL A   1      41.382  28.684  30.911  1.00  0.00     0.074 A 
ATOM     29  C   UNL A   1      42.235  32.041  36.217  1.00  0.00     0.029 A 
ATOM     30  N   UNL A   1      41.521  31.279  34.254  1.00  0.00    -0.354 N 
ATOM     31  N   UNL A   1      41.485  29.433  31.983  1.00  0.00    -0.248 NA
ATOM     32  C   UNL A   1      42.402  27.633  30.807  1.00  0.00     0.031 C 
ATOM     33  C   UNL A   1      43.054  30.973  35.834  1.00  0.00     0.029 A 
ATOM     34  C   UNL A   1      42.590  30.479  34.626  1.00  0.00     0.049 A 
ATOM     35  H   UNL A   1      40.993  31.169  33.430  1.00  0.00     0.167 HD
ATOM     36  C   UNL A   1      42.563  28.927  32.693  1.00  0.00     0.074 A 
ATOM     37  C   UNL A   1      43.067  27.795  31.942  1.00  0.00     0.031 C 
ATOM     38  C   UNL A   1      43.088  29.360  33.865  1.00  0.00     0.031 A 
BRANCH  25  39
ATOM     39  C   UNL A   1      40.264  34.336  36.208  1.00  0.00    -0.014 A 
ATOM     40  C   UNL A   1      39.497  34.171  37.372  1.00  0.00     0.009 A 
ATOM     41  C   UNL A   1      41.043  35.497  36.073  1.00  0.00     0.009 A 
ATOM     42  C   UNL A   1      39.480  35.163  38.357  1.00  0.00     0.001 A 
ATOM     43  C   UNL A   1      41.050  36.472  37.072  1.00  0.00     0.001 A 
ATOM     44  C   UNL A   1      40.259  36.309  38.208  1.00  0.00     0.000 A 
ENDBRANCH  25  39
BRANCH  26  45
ATOM     45  C   UNL A   1      40.387  27.760  28.695  1.00  0.00    -0.014 A 
ATOM     46  C   UNL A   1      41.093  28.023  27.513  1.00  0.00     0.009 A 
ATOM     47  C   UNL A   1      39.694  26.545  28.817  1.00  0.00     0.009 A 
ATOM     48  C   UNL A   1      41.086  27.099  26.466  1.00  0.00     0.001 A 
ATOM     49  C   UNL A   1      39.717  25.608  27.783  1.00  0.00     0.001 A 
ATOM     50  C   UNL A   1      40.404  25.891  26.604  1.00  0.00     0.000 A 
ENDBRANCH  26  45
BRANCH  38  51
ATOM     51  C   UNL A   1      44.245  28.578  34.423  1.00  0.00    -0.014 A 
ATOM     52  C   UNL A   1      45.574  28.920  34.129  1.00  0.00     0.009 A 
ATOM     53  C   UNL A   1      43.996  27.485  35.269  1.00  0.00     0.009 A 
ATOM     54  C   UNL A   1      46.628  28.155  34.635  1.00  0.00     0.001 A 
ATOM     55  C   UNL A   1      45.052  26.744  35.802  1.00  0.00     0.001 A 
ATOM     56  C   UNL A   1      46.366  27.072  35.473  1.00  0.00     0.000 A 
ENDBRANCH  38  51
ENDBRANCH  12  13
ENDBRANCH   5   7
ENDBRANCH   2   3
ENDBRANCH   1   2
BRANCH   1  57
ATOM     57  C   UNL A   1      31.702  30.483  26.688  1.00  0.00     0.023 C 
BRANCH  57  58
ATOM     58  C   UNL A   1      32.188  30.068  25.304  1.00  0.00     0.116 C 
BRANCH  58  59
ATOM     59  N   UNL A   1      31.102  29.715  24.406  1.00  0.00    -0.351 N 
ATOM     60  C   UNL A   1      30.799  28.492  23.843  1.00  0.00     0.271 C 
ATOM     61  H   UNL A   1      30.496  30.451  24.165  1.00  0.00     0.163 HD
ATOM     62  O   UNL A   1      29.919  28.450  22.982  1.00  0.00    -0.267 OA
BRANCH  60  63
ATOM     63  C   UNL A   1      31.535  27.309  24.305  1.00  0.00     0.152 A 
ATOM     64  C   UNL A   1      32.697  26.733  23.711  1.00  0.00     0.082 A 
ATOM     65  N   UNL A   1      31.154  26.603  25.392  1.00  0.00    -0.165 NA
ATOM     66  C   UNL A   1      32.905  25.565  24.388  1.00  0.00     0.126 A 
ATOM     67  N   UNL A   1      31.991  25.556  25.401  1.00  0.00    -0.237 N 
ATOM     68  N   UNL A   1      33.775  24.555  24.209  1.00  0.00    -0.363 N 
ATOM     69  C   UNL A   1      31.926  24.519  26.410  1.00  0.00     0.217 C 
ATOM     70  C   UNL A   1      33.839  23.415  25.121  1.00  0.00     0.113 C 
ATOM     71  H   UNL A   1      34.388  24.583  23.440  1.00  0.00     0.162 HD
ATOM     72  C   UNL A   1      33.302  23.827  26.511  1.00  0.00     0.066 C 
BRANCH  69  73
ATOM     73  C   UNL A   1      30.814  23.546  26.084  1.00  0.00     0.410 C 
ATOM     74  F   UNL A   1      29.682  23.908  26.747  1.00  0.00    -0.169 F 
ATOM     75  F   UNL A   1      30.496  23.525  24.773  1.00  0.00    -0.169 F 
ATOM     76  F   UNL A   1      31.086  22.278  26.462  1.00  0.00    -0.169 F 
ENDBRANCH  69  73
BRANCH  70  77
ATOM     77  C   UNL A   1      35.249  22.841  25.202  1.00  0.00    -0.022 A 
ATOM     78  C   UNL A   1      36.312  23.693  25.597  1.00  0.00     0.010 A 
ATOM     79  C   UNL A   1      35.538  21.488  24.937  1.00  0.00     0.056 A 
ATOM     80  C   UNL A   1      37.621  23.217  25.736  1.00  0.00     0.051 A 
ATOM     81  C   UNL A   1      36.831  21.039  25.110  1.00  0.00     0.166 A 
ATOM     82  C   UNL A   1      37.844  21.881  25.495  1.00  0.00     0.165 A 
ATOM     83  O   UNL A   1      37.254  19.758  24.937  1.00  0.00    -0.454 OA
ATOM     84  O   UNL A   1      39.037  21.238  25.607  1.00  0.00    -0.454 OA
ATOM     85  C   UNL A   1      38.651  19.889  25.270  1.00  0.00     0.468 C 
ENDBRANCH  70  77
ENDBRANCH  60  63
ENDBRANCH  58  59
ENDBRANCH  57  58
ENDBRANCH   1  57
TORSDOF 13
ENDMDL
