MODEL 1
REMARK VINA RESULT:     -11.9      0.000      0.000
REMARK SMILES CO[C@H]1C[C@@H](C(=O)NCCCCNC(=O)c2ccc(-c3c4nc(c(-c5ccccc5)c5ccc([nH]5)c(-c5ccccc5)c5nc(c(-c6ccccc6)c6ccc3[nH]6)C=C5)C=C4)cc2)N(C(=O)Nc2cc(C)cc(F)c2)C1
REMARK SMILES IDX 10 1 9 2 8 3 6 4 7 5 5 7 3 8 4 9 76 10 64 11 2 12 1 13 65 14
REMARK SMILES IDX 66 15 67 16 68 18 69 19 75 20 70 21 73 22 71 23 72 24 74 25
REMARK SMILES IDX 11 26 12 27 13 28 14 29 15 31 16 32 17 33 63 34 18 35 62 36
REMARK SMILES IDX 19 37 20 38 21 39 56 40 22 41 61 42 55 43 57 44 23 45 60 46
REMARK SMILES IDX 54 47 53 48 24 50 46 51 31 52 45 53 32 54 35 55 44 56 58 57
REMARK SMILES IDX 33 58 34 59 43 61 59 62 36 63 25 64 26 65 30 66 27 67 29 68
REMARK SMILES IDX 28 69 47 70 48 71 52 72 49 73 51 74 50 75 37 76 38 77 42 78
REMARK SMILES IDX 39 79 41 80 40 81
REMARK H PARENT 8 6 67 17 13 30 57 49 35 60
REMARK Flexibility Score: inf
ROOT
ATOM      1  C   UNL A   1      31.692  30.621  26.108  1.00  0.00     0.023 C 
ENDROOT
BRANCH   1   2
ATOM      2  C   UNL A   1      31.879  29.570  27.212  1.00  0.00     0.116 C 
BRANCH   2   3
ATOM      3  N   UNL A   1      32.915  28.586  26.942  1.00  0.00    -0.354 N 
ATOM      4  C   UNL A   1      32.947  27.484  26.141  1.00  0.00     0.242 C 
ATOM      5  O   UNL A   1      34.058  26.970  25.957  1.00  0.00    -0.273 OA
ATOM      6  H   UNL A   1      33.755  28.747  27.431  1.00  0.00     0.163 HD
BRANCH   4   7
ATOM      7  C   UNL A   1      31.747  27.012  25.308  1.00  0.00     0.179 C 
ATOM      8  C   UNL A   1      30.533  24.910  25.099  1.00  0.00     0.140 C 
ATOM      9  C   UNL A   1      31.267  25.781  26.093  1.00  0.00     0.069 C 
ATOM     10  C   UNL A   1      31.232  25.236  23.776  1.00  0.00     0.154 C 
ATOM     11  N   UNL A   1      31.846  26.565  23.909  1.00  0.00    -0.310 N 
BRANCH   8  12
ATOM     12  O   UNL A   1      30.693  23.526  25.409  1.00  0.00    -0.380 OA
ATOM     13  C   UNL A   1      30.280  23.180  26.726  1.00  0.00     0.195 C 
ENDBRANCH   8  12
BRANCH  11  14
ATOM     14  C   UNL A   1      31.967  27.278  22.740  1.00  0.00     0.322 C 
ATOM     15  O   UNL A   1      33.035  27.277  22.113  1.00  0.00    -0.248 OA
ATOM     16  N   UNL A   1      30.921  27.854  22.100  1.00  0.00    -0.308 N 
ATOM     17  H   UNL A   1      30.962  27.733  21.124  1.00  0.00     0.171 HD
BRANCH  16  18
ATOM     18  C   UNL A   1      29.795  28.583  22.500  1.00  0.00     0.046 A 
ATOM     19  C   UNL A   1      29.834  29.981  22.451  1.00  0.00     0.029 A 
ATOM     20  C   UNL A   1      28.685  27.984  23.058  1.00  0.00     0.065 A 
ATOM     21  C   UNL A   1      28.699  30.745  22.784  1.00  0.00    -0.046 A 
ATOM     22  C   UNL A   1      27.539  28.723  23.329  1.00  0.00     0.125 A 
ATOM     23  C   UNL A   1      28.749  32.242  22.792  1.00  0.00     0.044 C 
ATOM     24  C   UNL A   1      27.529  30.095  23.179  1.00  0.00     0.042 A 
ATOM     25  F   UNL A   1      26.424  28.101  23.734  1.00  0.00    -0.207 F 
ENDBRANCH  16  18
ENDBRANCH  11  14
ENDBRANCH   4   7
ENDBRANCH   2   3
ENDBRANCH   1   2
BRANCH   1  26
ATOM     26  C   UNL A   1      31.461  32.066  26.557  1.00  0.00     0.023 C 
BRANCH  26  27
ATOM     27  C   UNL A   1      32.604  32.719  27.317  1.00  0.00     0.116 C 
BRANCH  27  28
ATOM     28  N   UNL A   1      32.329  34.104  27.643  1.00  0.00    -0.352 N 
ATOM     29  C   UNL A   1      32.969  34.915  28.550  1.00  0.00     0.251 C 
ATOM     30  H   UNL A   1      31.586  34.520  27.149  1.00  0.00     0.163 HD
ATOM     31  O   UNL A   1      32.513  36.014  28.827  1.00  0.00    -0.269 OA
BRANCH  29  32
ATOM     32  C   UNL A   1      34.201  34.431  29.214  1.00  0.00     0.039 A 
ATOM     33  C   UNL A   1      34.097  33.853  30.482  1.00  0.00     0.014 A 
ATOM     34  C   UNL A   1      35.447  34.538  28.589  1.00  0.00     0.014 A 
ATOM     35  C   UNL A   1      35.235  33.331  31.101  1.00  0.00     0.010 A 
ATOM     36  C   UNL A   1      36.565  33.952  29.174  1.00  0.00     0.010 A 
ATOM     37  C   UNL A   1      36.472  33.346  30.437  1.00  0.00    -0.014 A 
BRANCH  37  38
ATOM     38  C   UNL A   1      37.684  32.740  31.046  1.00  0.00     0.031 A 
ATOM     39  C   UNL A   1      38.309  31.520  30.426  1.00  0.00     0.074 A 
ATOM     40  C   UNL A   1      38.181  33.243  32.192  1.00  0.00     0.049 A 
ATOM     41  N   UNL A   1      39.311  30.795  30.856  1.00  0.00    -0.248 NA
ATOM     42  C   UNL A   1      37.712  31.035  29.170  1.00  0.00     0.031 C 
ATOM     43  C   UNL A   1      37.652  34.405  32.909  1.00  0.00     0.029 A 
ATOM     44  N   UNL A   1      39.239  32.830  32.964  1.00  0.00    -0.354 N 
ATOM     45  C   UNL A   1      39.451  29.763  29.936  1.00  0.00     0.074 A 
ATOM     46  C   UNL A   1      38.402  29.926  28.954  1.00  0.00     0.031 C 
ATOM     47  C   UNL A   1      38.401  34.625  34.001  1.00  0.00     0.029 A 
ATOM     48  C   UNL A   1      39.430  33.594  34.090  1.00  0.00     0.049 A 
ATOM     49  H   UNL A   1      39.808  32.061  32.732  1.00  0.00     0.167 HD
ATOM     50  C   UNL A   1      40.379  28.778  29.904  1.00  0.00     0.031 A 
ATOM     51  C   UNL A   1      40.322  33.469  35.091  1.00  0.00     0.031 A 
ATOM     52  C   UNL A   1      41.425  28.619  30.879  1.00  0.00     0.049 A 
ATOM     53  C   UNL A   1      41.320  32.344  35.050  1.00  0.00     0.074 A 
ATOM     54  C   UNL A   1      42.444  27.683  30.905  1.00  0.00     0.029 A 
ATOM     55  N   UNL A   1      41.582  29.414  32.004  1.00  0.00    -0.354 N 
ATOM     56  N   UNL A   1      41.479  31.413  34.141  1.00  0.00    -0.248 NA
ATOM     57  C   UNL A   1      42.267  32.259  36.170  1.00  0.00     0.031 C 
ATOM     58  C   UNL A   1      43.182  27.874  32.076  1.00  0.00     0.029 A 
ATOM     59  C   UNL A   1      42.664  28.971  32.745  1.00  0.00     0.049 A 
ATOM     60  H   UNL A   1      41.009  30.178  32.240  1.00  0.00     0.167 HD
ATOM     61  C   UNL A   1      42.562  30.653  34.562  1.00  0.00     0.074 A 
ATOM     62  C   UNL A   1      43.029  31.239  35.802  1.00  0.00     0.031 C 
ATOM     63  C   UNL A   1      43.121  29.568  33.974  1.00  0.00     0.031 A 
BRANCH  50  64
ATOM     64  C   UNL A   1      40.294  27.781  28.779  1.00  0.00    -0.014 A 
ATOM     65  C   UNL A   1      40.941  28.007  27.554  1.00  0.00     0.009 A 
ATOM     66  C   UNL A   1      39.586  26.583  28.961  1.00  0.00     0.009 A 
ATOM     67  C   UNL A   1      40.848  27.072  26.521  1.00  0.00     0.001 A 
ATOM     68  C   UNL A   1      39.522  25.636  27.938  1.00  0.00     0.001 A 
ATOM     69  C   UNL A   1      40.143  25.885  26.715  1.00  0.00     0.000 A 
ENDBRANCH  50  64
BRANCH  51  70
ATOM     70  C   UNL A   1      40.318  34.437  36.220  1.00  0.00    -0.014 A 
ATOM     71  C   UNL A   1      39.547  34.190  37.367  1.00  0.00     0.009 A 
ATOM     72  C   UNL A   1      41.072  35.619  36.153  1.00  0.00     0.009 A 
ATOM     73  C   UNL A   1      39.512  35.119  38.410  1.00  0.00     0.001 A 
ATOM     74  C   UNL A   1      41.059  36.531  37.210  1.00  0.00     0.001 A 
ATOM     75  C   UNL A   1      40.270  36.286  38.333  1.00  0.00     0.000 A 
ENDBRANCH  51  70
BRANCH  63  76
ATOM     76  C   UNL A   1      44.330  28.967  34.636  1.00  0.00    -0.014 A 
ATOM     77  C   UNL A   1      44.212  27.942  35.587  1.00  0.00     0.009 A 
ATOM     78  C   UNL A   1      45.611  29.399  34.257  1.00  0.00     0.009 A 
ATOM     79  C   UNL A   1      45.353  27.382  36.167  1.00  0.00     0.001 A 
ATOM     80  C   UNL A   1      46.750  28.815  34.814  1.00  0.00     0.001 A 
ATOM     81  C   UNL A   1      46.620  27.814  35.775  1.00  0.00     0.000 A 
ENDBRANCH  63  76
ENDBRANCH  37  38
ENDBRANCH  29  32
ENDBRANCH  27  28
ENDBRANCH  26  27
ENDBRANCH   1  26
TORSDOF 14
ENDMDL
MODEL 2
REMARK VINA RESULT:     -11.8      3.645      7.723
REMARK SMILES CO[C@H]1C[C@@H](C(=O)NCCCCNC(=O)c2ccc(-c3c4nc(c(-c5ccccc5)c5ccc([nH]5)c(-c5ccccc5)c5nc(c(-c6ccccc6)c6ccc3[nH]6)C=C5)C=C4)cc2)N(C(=O)Nc2cc(C)cc(F)c2)C1
REMARK SMILES IDX 10 1 9 2 8 3 6 4 7 5 5 7 3 8 4 9 76 10 64 11 2 12 1 13 65 14
REMARK SMILES IDX 66 15 67 16 68 18 69 19 75 20 70 21 73 22 71 23 72 24 74 25
REMARK SMILES IDX 11 26 12 27 13 28 14 29 15 31 16 32 17 33 63 34 18 35 62 36
REMARK SMILES IDX 19 37 20 38 21 39 56 40 22 41 61 42 55 43 57 44 23 45 60 46
REMARK SMILES IDX 54 47 53 48 24 50 46 51 31 52 45 53 32 54 35 55 44 56 58 57
REMARK SMILES IDX 33 58 34 59 43 61 59 62 36 63 25 64 26 65 30 66 27 67 29 68
REMARK SMILES IDX 28 69 47 70 48 71 52 72 49 73 51 74 50 75 37 76 38 77 42 78
REMARK SMILES IDX 39 79 41 80 40 81
REMARK H PARENT 8 6 67 17 13 30 57 49 35 60
REMARK Flexibility Score: inf
ROOT
ATOM      1  C   UNL A   1      31.560  27.315  26.600  1.00  0.00     0.023 C 
ENDROOT
BRANCH   1   2
ATOM      2  C   UNL A   1      31.897  25.847  26.301  1.00  0.00     0.116 C 
BRANCH   2   3
ATOM      3  N   UNL A   1      30.951  24.885  26.843  1.00  0.00    -0.354 N 
ATOM      4  C   UNL A   1      30.864  23.528  26.745  1.00  0.00     0.242 C 
ATOM      5  O   UNL A   1      30.063  22.972  27.507  1.00  0.00    -0.273 OA
ATOM      6  H   UNL A   1      30.236  25.291  27.386  1.00  0.00     0.163 HD
BRANCH   4   7
ATOM      7  C   UNL A   1      31.844  22.678  25.925  1.00  0.00     0.179 C 
ATOM      8  C   UNL A   1      34.256  22.338  25.963  1.00  0.00     0.140 C 
ATOM      9  C   UNL A   1      33.064  22.596  26.856  1.00  0.00     0.069 C 
ATOM     10  C   UNL A   1      33.851  23.008  24.647  1.00  0.00     0.154 C 
ATOM     11  N   UNL A   1      32.383  23.081  24.616  1.00  0.00    -0.310 N 
BRANCH   8  12
ATOM     12  O   UNL A   1      35.434  22.954  26.484  1.00  0.00    -0.380 OA
ATOM     13  C   UNL A   1      35.998  23.938  25.625  1.00  0.00     0.195 C 
ENDBRANCH   8  12
BRANCH  11  14
ATOM     14  C   UNL A   1      31.819  23.060  23.362  1.00  0.00     0.322 C 
ATOM     15  O   UNL A   1      31.703  21.992  22.746  1.00  0.00    -0.248 OA
ATOM     16  N   UNL A   1      31.192  24.122  22.802  1.00  0.00    -0.308 N 
ATOM     17  H   UNL A   1      30.364  23.868  22.334  1.00  0.00     0.171 HD
BRANCH  16  18
ATOM     18  C   UNL A   1      31.445  25.498  22.733  1.00  0.00     0.046 A 
ATOM     19  C   UNL A   1      30.397  26.396  22.963  1.00  0.00     0.029 A 
ATOM     20  C   UNL A   1      32.660  26.007  22.327  1.00  0.00     0.065 A 
ATOM     21  C   UNL A   1      30.628  27.785  22.965  1.00  0.00    -0.046 A 
ATOM     22  C   UNL A   1      32.914  27.373  22.389  1.00  0.00     0.125 A 
ATOM     23  C   UNL A   1      29.502  28.757  23.150  1.00  0.00     0.044 C 
ATOM     24  C   UNL A   1      31.915  28.265  22.723  1.00  0.00     0.042 A 
ATOM     25  F   UNL A   1      34.145  27.835  22.129  1.00  0.00    -0.207 F 
ENDBRANCH  16  18
ENDBRANCH  11  14
ENDBRANCH   4   7
ENDBRANCH   2   3
ENDBRANCH   1   2
BRANCH   1  26
ATOM     26  C   UNL A   1      32.617  28.359  26.232  1.00  0.00     0.023 C 
BRANCH  26  27
ATOM     27  C   UNL A   1      33.645  28.674  27.306  1.00  0.00     0.116 C 
BRANCH  27  28
ATOM     28  N   UNL A   1      33.629  30.072  27.690  1.00  0.00    -0.352 N 
ATOM     29  C   UNL A   1      34.619  30.803  28.303  1.00  0.00     0.251 C 
ATOM     30  H   UNL A   1      32.802  30.563  27.484  1.00  0.00     0.163 HD
ATOM     31  O   UNL A   1      34.392  31.933  28.710  1.00  0.00    -0.269 OA
BRANCH  29  32
ATOM     32  C   UNL A   1      35.957  30.198  28.497  1.00  0.00     0.039 A 
ATOM     33  C   UNL A   1      36.881  30.264  27.451  1.00  0.00     0.014 A 
ATOM     34  C   UNL A   1      36.301  29.580  29.703  1.00  0.00     0.014 A 
ATOM     35  C   UNL A   1      38.171  29.759  27.633  1.00  0.00     0.010 A 
ATOM     36  C   UNL A   1      37.607  29.145  29.908  1.00  0.00     0.010 A 
ATOM     37  C   UNL A   1      38.554  29.226  28.875  1.00  0.00    -0.014 A 
BRANCH  37  38
ATOM     38  C   UNL A   1      39.937  28.741  29.115  1.00  0.00     0.031 A 
ATOM     39  C   UNL A   1      40.965  29.662  29.714  1.00  0.00     0.074 A 
ATOM     40  C   UNL A   1      40.288  27.499  28.731  1.00  0.00     0.049 A 
ATOM     41  N   UNL A   1      42.241  29.455  29.918  1.00  0.00    -0.248 NA
ATOM     42  C   UNL A   1      40.502  31.001  30.114  1.00  0.00     0.031 C 
ATOM     43  C   UNL A   1      39.393  26.517  28.114  1.00  0.00     0.029 A 
ATOM     44  N   UNL A   1      41.498  26.852  28.793  1.00  0.00    -0.354 N 
ATOM     45  C   UNL A   1      42.735  30.640  30.449  1.00  0.00     0.074 A 
ATOM     46  C   UNL A   1      41.633  31.576  30.491  1.00  0.00     0.031 C 
ATOM     47  C   UNL A   1      40.079  25.387  27.876  1.00  0.00     0.029 A 
ATOM     48  C   UNL A   1      41.470  25.580  28.276  1.00  0.00     0.049 A 
ATOM     49  H   UNL A   1      42.308  27.261  29.174  1.00  0.00     0.167 HD
ATOM     50  C   UNL A   1      43.988  30.919  30.879  1.00  0.00     0.031 A 
ATOM     51  C   UNL A   1      42.455  24.674  28.125  1.00  0.00     0.031 A 
ATOM     52  C   UNL A   1      45.083  29.985  30.842  1.00  0.00     0.049 A 
ATOM     53  C   UNL A   1      43.847  25.022  28.578  1.00  0.00     0.074 A 
ATOM     54  C   UNL A   1      46.376  30.156  31.301  1.00  0.00     0.029 A 
ATOM     55  N   UNL A   1      45.011  28.707  30.310  1.00  0.00    -0.354 N 
ATOM     56  N   UNL A   1      44.284  26.124  29.136  1.00  0.00    -0.248 NA
ATOM     57  C   UNL A   1      44.880  23.994  28.386  1.00  0.00     0.031 C 
ATOM     58  C   UNL A   1      47.104  29.003  30.993  1.00  0.00     0.029 A 
ATOM     59  C   UNL A   1      46.246  28.089  30.403  1.00  0.00     0.049 A 
ATOM     60  H   UNL A   1      44.203  28.300  29.923  1.00  0.00     0.167 HD
ATOM     61  C   UNL A   1      45.632  25.912  29.392  1.00  0.00     0.074 A 
ATOM     62  C   UNL A   1      45.939  24.570  28.939  1.00  0.00     0.031 C 
ATOM     63  C   UNL A   1      46.535  26.751  29.954  1.00  0.00     0.031 A 
BRANCH  50  64
ATOM     64  C   UNL A   1      44.246  32.301  31.416  1.00  0.00    -0.014 A 
ATOM     65  C   UNL A   1      44.093  32.594  32.781  1.00  0.00     0.009 A 
ATOM     66  C   UNL A   1      44.685  33.315  30.550  1.00  0.00     0.009 A 
ATOM     67  C   UNL A   1      44.334  33.883  33.259  1.00  0.00     0.001 A 
ATOM     68  C   UNL A   1      44.956  34.594  31.037  1.00  0.00     0.001 A 
ATOM     69  C   UNL A   1      44.771  34.881  32.389  1.00  0.00     0.000 A 
ENDBRANCH  50  64
BRANCH  51  70
ATOM     70  C   UNL A   1      42.164  23.348  27.520  1.00  0.00    -0.014 A 
ATOM     71  C   UNL A   1      41.579  22.328  28.286  1.00  0.00     0.009 A 
ATOM     72  C   UNL A   1      42.481  23.089  26.177  1.00  0.00     0.009 A 
ATOM     73  C   UNL A   1      41.343  21.069  27.728  1.00  0.00     0.001 A 
ATOM     74  C   UNL A   1      42.215  21.839  25.613  1.00  0.00     0.001 A 
ATOM     75  C   UNL A   1      41.657  20.827  26.391  1.00  0.00     0.000 A 
ENDBRANCH  51  70
BRANCH  63  76
ATOM     76  C   UNL A   1      47.932  26.232  30.155  1.00  0.00    -0.014 A 
ATOM     77  C   UNL A   1      48.886  26.278  29.127  1.00  0.00     0.009 A 
ATOM     78  C   UNL A   1      48.311  25.741  31.414  1.00  0.00     0.009 A 
ATOM     79  C   UNL A   1      50.185  25.814  29.349  1.00  0.00     0.001 A 
ATOM     80  C   UNL A   1      49.619  25.308  31.642  1.00  0.00     0.001 A 
ATOM     81  C   UNL A   1      50.551  25.337  30.607  1.00  0.00     0.000 A 
ENDBRANCH  63  76
ENDBRANCH  37  38
ENDBRANCH  29  32
ENDBRANCH  27  28
ENDBRANCH  26  27
ENDBRANCH   1  26
TORSDOF 14
ENDMDL
MODEL 3
REMARK VINA RESULT:     -11.8      5.716     10.190
REMARK SMILES CO[C@H]1C[C@@H](C(=O)NCCCCNC(=O)c2ccc(-c3c4nc(c(-c5ccccc5)c5ccc([nH]5)c(-c5ccccc5)c5nc(c(-c6ccccc6)c6ccc3[nH]6)C=C5)C=C4)cc2)N(C(=O)Nc2cc(C)cc(F)c2)C1
REMARK SMILES IDX 10 1 9 2 8 3 6 4 7 5 5 7 3 8 4 9 76 10 64 11 2 12 1 13 65 14
REMARK SMILES IDX 66 15 67 16 68 18 69 19 75 20 70 21 73 22 71 23 72 24 74 25
REMARK SMILES IDX 11 26 12 27 13 28 14 29 15 31 16 32 17 33 63 34 18 35 62 36
REMARK SMILES IDX 19 37 20 38 21 39 56 40 22 41 61 42 55 43 57 44 23 45 60 46
REMARK SMILES IDX 54 47 53 48 24 50 46 51 31 52 45 53 32 54 35 55 44 56 58 57
REMARK SMILES IDX 33 58 34 59 43 61 59 62 36 63 25 64 26 65 30 66 27 67 29 68
REMARK SMILES IDX 28 69 47 70 48 71 52 72 49 73 51 74 50 75 37 76 38 77 42 78
REMARK SMILES IDX 39 79 41 80 40 81
REMARK H PARENT 8 6 67 17 13 30 57 49 35 60
REMARK Flexibility Score: inf
ROOT
ATOM      1  C   UNL A   1      36.894  20.375  24.796  1.00  0.00     0.023 C 
ENDROOT
BRANCH   1   2
ATOM      2  C   UNL A   1      37.242  21.693  24.090  1.00  0.00     0.116 C 
BRANCH   2   3
ATOM      3  N   UNL A   1      36.764  22.888  24.766  1.00  0.00    -0.354 N 
ATOM      4  C   UNL A   1      35.526  23.450  24.867  1.00  0.00     0.242 C 
ATOM      5  O   UNL A   1      35.401  24.356  25.701  1.00  0.00    -0.273 OA
ATOM      6  H   UNL A   1      37.467  23.386  25.241  1.00  0.00     0.163 HD
BRANCH   4   7
ATOM      7  C   UNL A   1      34.279  22.874  24.183  1.00  0.00     0.179 C 
ATOM      8  C   UNL A   1      32.600  23.764  22.658  1.00  0.00     0.140 C 
ATOM      9  C   UNL A   1      34.068  23.847  23.012  1.00  0.00     0.069 C 
ATOM     10  C   UNL A   1      31.945  23.405  23.994  1.00  0.00     0.154 C 
ATOM     11  N   UNL A   1      32.964  22.761  24.835  1.00  0.00    -0.310 N 
BRANCH   8  12
ATOM     12  O   UNL A   1      32.111  25.022  22.195  1.00  0.00    -0.380 OA
ATOM     13  C   UNL A   1      33.135  25.950  21.854  1.00  0.00     0.195 C 
ENDBRANCH   8  12
BRANCH  11  14
ATOM     14  C   UNL A   1      32.486  21.855  25.751  1.00  0.00     0.322 C 
ATOM     15  O   UNL A   1      32.261  22.203  26.918  1.00  0.00    -0.248 OA
ATOM     16  N   UNL A   1      32.052  20.613  25.424  1.00  0.00    -0.308 N 
ATOM     17  H   UNL A   1      31.229  20.363  25.903  1.00  0.00     0.171 HD
BRANCH  16  18
ATOM     18  C   UNL A   1      32.500  19.602  24.565  1.00  0.00     0.046 A 
ATOM     19  C   UNL A   1      33.375  18.627  25.058  1.00  0.00     0.029 A 
ATOM     20  C   UNL A   1      32.211  19.594  23.217  1.00  0.00     0.065 A 
ATOM     21  C   UNL A   1      33.795  17.560  24.242  1.00  0.00    -0.046 A 
ATOM     22  C   UNL A   1      32.567  18.511  22.421  1.00  0.00     0.125 A 
ATOM     23  C   UNL A   1      34.778  16.545  24.740  1.00  0.00     0.044 C 
ATOM     24  C   UNL A   1      33.340  17.485  22.925  1.00  0.00     0.042 A 
ATOM     25  F   UNL A   1      32.153  18.454  21.148  1.00  0.00    -0.207 F 
ENDBRANCH  16  18
ENDBRANCH  11  14
ENDBRANCH   4   7
ENDBRANCH   2   3
ENDBRANCH   1   2
BRANCH   1  26
ATOM     26  C   UNL A   1      38.035  19.379  25.013  1.00  0.00     0.023 C 
BRANCH  26  27
ATOM     27  C   UNL A   1      39.252  19.910  25.752  1.00  0.00     0.116 C 
BRANCH  27  28
ATOM     28  N   UNL A   1      40.307  18.921  25.858  1.00  0.00    -0.352 N 
ATOM     29  C   UNL A   1      41.649  19.121  26.077  1.00  0.00     0.251 C 
ATOM     30  H   UNL A   1      40.026  17.983  25.761  1.00  0.00     0.163 HD
ATOM     31  O   UNL A   1      42.438  18.192  25.977  1.00  0.00    -0.269 OA
BRANCH  29  32
ATOM     32  C   UNL A   1      42.140  20.480  26.402  1.00  0.00     0.039 A 
ATOM     33  C   UNL A   1      42.563  21.308  25.360  1.00  0.00     0.014 A 
ATOM     34  C   UNL A   1      42.171  20.938  27.723  1.00  0.00     0.014 A 
ATOM     35  C   UNL A   1      42.968  22.616  25.635  1.00  0.00     0.010 A 
ATOM     36  C   UNL A   1      42.504  22.263  27.986  1.00  0.00     0.010 A 
ATOM     37  C   UNL A   1      42.909  23.115  26.946  1.00  0.00    -0.014 A 
BRANCH  37  38
ATOM     38  C   UNL A   1      43.272  24.521  27.257  1.00  0.00     0.031 A 
ATOM     39  C   UNL A   1      44.714  24.950  27.231  1.00  0.00     0.074 A 
ATOM     40  C   UNL A   1      42.316  25.394  27.628  1.00  0.00     0.049 A 
ATOM     41  N   UNL A   1      45.239  26.104  27.557  1.00  0.00    -0.248 NA
ATOM     42  C   UNL A   1      45.698  23.940  26.808  1.00  0.00     0.031 C 
ATOM     43  C   UNL A   1      40.885  25.097  27.719  1.00  0.00     0.029 A 
ATOM     44  N   UNL A   1      42.407  26.710  28.011  1.00  0.00    -0.354 N 
ATOM     45  C   UNL A   1      46.611  25.953  27.397  1.00  0.00     0.074 A 
ATOM     46  C   UNL A   1      46.841  24.583  26.993  1.00  0.00     0.031 C 
ATOM     47  C   UNL A   1      40.231  26.203  28.109  1.00  0.00     0.029 A 
ATOM     48  C   UNL A   1      41.198  27.272  28.343  1.00  0.00     0.049 A 
ATOM     49  H   UNL A   1      43.257  27.204  28.043  1.00  0.00     0.167 HD
ATOM     50  C   UNL A   1      47.589  26.875  27.556  1.00  0.00     0.031 A 
ATOM     51  C   UNL A   1      40.901  28.503  28.800  1.00  0.00     0.031 A 
ATOM     52  C   UNL A   1      47.359  28.239  27.953  1.00  0.00     0.049 A 
ATOM     53  C   UNL A   1      42.011  29.498  29.003  1.00  0.00     0.074 A 
ATOM     54  C   UNL A   1      48.279  29.263  28.091  1.00  0.00     0.029 A 
ATOM     55  N   UNL A   1      46.119  28.767  28.279  1.00  0.00    -0.354 N 
ATOM     56  N   UNL A   1      43.296  29.359  28.787  1.00  0.00    -0.248 NA
ATOM     57  C   UNL A   1      41.626  30.824  29.504  1.00  0.00     0.031 C 
ATOM     58  C   UNL A   1      47.605  30.394  28.560  1.00  0.00     0.029 A 
ATOM     59  C   UNL A   1      46.255  30.094  28.647  1.00  0.00     0.049 A 
ATOM     60  H   UNL A   1      45.269  28.271  28.254  1.00  0.00     0.167 HD
ATOM     61  C   UNL A   1      43.868  30.586  29.094  1.00  0.00     0.074 A 
ATOM     62  C   UNL A   1      42.788  31.463  29.500  1.00  0.00     0.031 C 
ATOM     63  C   UNL A   1      45.171  30.955  29.043  1.00  0.00     0.031 A 
BRANCH  50  64
ATOM     64  C   UNL A   1      49.007  26.432  27.312  1.00  0.00    -0.014 A 
ATOM     65  C   UNL A   1      49.821  25.982  28.363  1.00  0.00     0.009 A 
ATOM     66  C   UNL A   1      49.522  26.430  26.006  1.00  0.00     0.009 A 
ATOM     67  C   UNL A   1      51.135  25.578  28.117  1.00  0.00     0.001 A 
ATOM     68  C   UNL A   1      50.825  25.995  25.759  1.00  0.00     0.001 A 
ATOM     69  C   UNL A   1      51.634  25.579  26.816  1.00  0.00     0.000 A 
ENDBRANCH  50  64
BRANCH  51  70
ATOM     70  C   UNL A   1      39.491  28.869  29.097  1.00  0.00    -0.014 A 
ATOM     71  C   UNL A   1      38.953  28.654  30.376  1.00  0.00     0.009 A 
ATOM     72  C   UNL A   1      38.671  29.424  28.102  1.00  0.00     0.009 A 
ATOM     73  C   UNL A   1      37.616  28.960  30.643  1.00  0.00     0.001 A 
ATOM     74  C   UNL A   1      37.344  29.759  28.381  1.00  0.00     0.001 A 
ATOM     75  C   UNL A   1      36.814  29.517  29.648  1.00  0.00     0.000 A 
ENDBRANCH  51  70
BRANCH  63  76
ATOM     76  C   UNL A   1      45.501  32.381  29.391  1.00  0.00    -0.014 A 
ATOM     77  C   UNL A   1      45.849  32.755  30.698  1.00  0.00     0.009 A 
ATOM     78  C   UNL A   1      45.516  33.352  28.378  1.00  0.00     0.009 A 
ATOM     79  C   UNL A   1      46.178  34.081  30.988  1.00  0.00     0.001 A 
ATOM     80  C   UNL A   1      45.876  34.670  28.665  1.00  0.00     0.001 A 
ATOM     81  C   UNL A   1      46.198  35.035  29.971  1.00  0.00     0.000 A 
ENDBRANCH  63  76
ENDBRANCH  37  38
ENDBRANCH  29  32
ENDBRANCH  27  28
ENDBRANCH  26  27
ENDBRANCH   1  26
TORSDOF 14
ENDMDL
