MODEL 1
REMARK VINA RESULT:     -11.0      0.000      0.000
REMARK SMILES COc1ccc([C@@H](CC(=O)NCCCCNC(=O)c2ccc(-c3c4nc(c(-c5ccccc5)c5ccc([nH]5)c(-c5ccccc5)c5nc(c(-c6ccccc6)c6ccc3[nH]6)C=C5)C=C4)cc2)C2CCCCC2)cc1Cl
REMARK SMILES IDX 13 1 12 2 11 3 9 4 10 5 8 7 7 8 6 9 3 10 4 11 74 12 5 13
REMARK SMILES IDX 73 14 75 15 2 16 1 17 67 18 68 19 72 20 69 21 71 22 70 23
REMARK SMILES IDX 14 24 15 25 16 26 17 27 18 29 19 30 20 31 66 32 21 33 65 34
REMARK SMILES IDX 22 35 23 36 24 37 59 38 25 39 64 40 58 41 60 42 26 43 63 44
REMARK SMILES IDX 57 45 56 46 27 48 49 49 34 50 48 51 35 52 38 53 47 54 61 55
REMARK SMILES IDX 36 56 37 57 46 59 62 60 39 61 28 62 29 63 33 64 30 65 32 66
REMARK SMILES IDX 31 67 50 68 51 69 55 70 52 71 54 72 53 73 40 74 41 75 45 76
REMARK SMILES IDX 42 77 44 78 43 79
REMARK H PARENT 11 6 16 28 60 47 38 58
REMARK Flexibility Score: inf
ROOT
ATOM      1  C   UNL A   1      34.886  22.628  24.579  1.00  0.00     0.023 C 
ENDROOT
BRANCH   1   2
ATOM      2  C   UNL A   1      33.891  23.775  24.523  1.00  0.00     0.116 C 
BRANCH   2   3
ATOM      3  N   UNL A   1      34.212  24.681  23.441  1.00  0.00    -0.356 N 
ATOM      4  C   UNL A   1      33.404  25.531  22.748  1.00  0.00     0.220 C 
ATOM      5  O   UNL A   1      33.928  26.237  21.884  1.00  0.00    -0.275 OA
ATOM      6  H   UNL A   1      35.157  24.686  23.165  1.00  0.00     0.163 HD
BRANCH   4   7
ATOM      7  C   UNL A   1      31.922  25.669  23.061  1.00  0.00     0.108 C 
BRANCH   7   8
ATOM      8  C   UNL A   1      31.395  26.731  24.082  1.00  0.00     0.032 C 
BRANCH   8   9
ATOM      9  C   UNL A   1      30.538  27.824  23.422  1.00  0.00    -0.042 A 
ATOM     10  C   UNL A   1      28.790  29.624  22.062  1.00  0.00     0.137 A 
ATOM     11  C   UNL A   1      30.171  29.714  21.902  1.00  0.00     0.048 A 
ATOM     12  C   UNL A   1      28.289  28.688  22.973  1.00  0.00     0.083 A 
ATOM     13  C   UNL A   1      31.030  28.838  22.587  1.00  0.00     0.008 A 
ATOM     14  C   UNL A   1      29.149  27.818  23.653  1.00  0.00     0.028 A 
ATOM     15  Cl  UNL A   1      26.590  28.529  23.258  1.00  0.00    -0.080 Cl
BRANCH  10  16
ATOM     16  O   UNL A   1      27.880  30.284  21.288  1.00  0.00    -0.495 OA
ATOM     17  C   UNL A   1      28.179  31.593  20.825  1.00  0.00     0.278 C 
ENDBRANCH  10  16
ENDBRANCH   8   9
BRANCH   8  18
ATOM     18  C   UNL A   1      32.395  27.109  25.239  1.00  0.00    -0.003 C 
ATOM     19  C   UNL A   1      33.529  28.089  24.871  1.00  0.00     0.004 C 
ATOM     20  C   UNL A   1      31.622  27.535  26.517  1.00  0.00     0.004 C 
ATOM     21  C   UNL A   1      34.359  28.546  26.068  1.00  0.00     0.000 C 
ATOM     22  C   UNL A   1      32.505  28.049  27.649  1.00  0.00     0.000 C 
ATOM     23  C   UNL A   1      33.475  29.115  27.163  1.00  0.00     0.000 C 
ENDBRANCH   8  18
ENDBRANCH   7   8
ENDBRANCH   4   7
ENDBRANCH   2   3
ENDBRANCH   1   2
BRANCH   1  24
ATOM     24  C   UNL A   1      36.008  22.731  25.594  1.00  0.00     0.023 C 
BRANCH  24  25
ATOM     25  C   UNL A   1      37.335  23.186  25.008  1.00  0.00     0.116 C 
BRANCH  25  26
ATOM     26  N   UNL A   1      38.495  22.433  25.470  1.00  0.00    -0.352 N 
ATOM     27  C   UNL A   1      39.529  22.830  26.296  1.00  0.00     0.251 C 
ATOM     28  H   UNL A   1      38.551  21.506  25.144  1.00  0.00     0.163 HD
ATOM     29  O   UNL A   1      40.461  22.073  26.538  1.00  0.00    -0.269 OA
BRANCH  27  30
ATOM     30  C   UNL A   1      39.541  24.208  26.828  1.00  0.00     0.039 A 
ATOM     31  C   UNL A   1      38.997  24.447  28.091  1.00  0.00     0.014 A 
ATOM     32  C   UNL A   1      40.170  25.237  26.129  1.00  0.00     0.014 A 
ATOM     33  C   UNL A   1      39.196  25.685  28.704  1.00  0.00     0.010 A 
ATOM     34  C   UNL A   1      40.478  26.418  26.788  1.00  0.00     0.010 A 
ATOM     35  C   UNL A   1      40.000  26.655  28.085  1.00  0.00    -0.014 A 
BRANCH  35  36
ATOM     36  C   UNL A   1      40.360  27.927  28.760  1.00  0.00     0.031 A 
ATOM     37  C   UNL A   1      41.712  28.072  29.401  1.00  0.00     0.074 A 
ATOM     38  C   UNL A   1      39.438  28.902  28.895  1.00  0.00     0.049 A 
ATOM     39  N   UNL A   1      42.164  29.027  30.174  1.00  0.00    -0.248 NA
ATOM     40  C   UNL A   1      42.666  26.969  29.190  1.00  0.00     0.031 C 
ATOM     41  C   UNL A   1      38.067  28.862  28.380  1.00  0.00     0.029 A 
ATOM     42  N   UNL A   1      39.518  30.121  29.520  1.00  0.00    -0.354 N 
ATOM     43  C   UNL A   1      43.424  28.612  30.582  1.00  0.00     0.074 A 
ATOM     44  C   UNL A   1      43.647  27.301  30.015  1.00  0.00     0.031 C 
ATOM     45  C   UNL A   1      37.451  30.019  28.674  1.00  0.00     0.029 A 
ATOM     46  C   UNL A   1      38.364  30.862  29.435  1.00  0.00     0.049 A 
ATOM     47  H   UNL A   1      40.327  30.436  29.986  1.00  0.00     0.167 HD
ATOM     48  C   UNL A   1      44.331  29.272  31.340  1.00  0.00     0.031 A 
ATOM     49  C   UNL A   1      38.076  32.085  29.918  1.00  0.00     0.031 A 
ATOM     50  C   UNL A   1      44.136  30.602  31.847  1.00  0.00     0.049 A 
ATOM     51  C   UNL A   1      39.124  32.830  30.696  1.00  0.00     0.074 A 
ATOM     52  C   UNL A   1      45.023  31.395  32.552  1.00  0.00     0.029 A 
ATOM     53  N   UNL A   1      42.976  31.342  31.682  1.00  0.00    -0.354 N 
ATOM     54  N   UNL A   1      40.332  32.446  31.028  1.00  0.00    -0.248 NA
ATOM     55  C   UNL A   1      38.769  34.180  31.156  1.00  0.00     0.031 C 
ATOM     56  C   UNL A   1      44.390  32.610  32.835  1.00  0.00     0.029 A 
ATOM     57  C   UNL A   1      43.123  32.584  32.274  1.00  0.00     0.049 A 
ATOM     58  H   UNL A   1      42.168  31.031  31.213  1.00  0.00     0.167 HD
ATOM     59  C   UNL A   1      40.892  33.515  31.714  1.00  0.00     0.074 A 
ATOM     60  C   UNL A   1      39.896  34.567  31.738  1.00  0.00     0.031 C 
ATOM     61  C   UNL A   1      42.121  33.616  32.276  1.00  0.00     0.031 A 
BRANCH  48  62
ATOM     62  C   UNL A   1      45.616  28.560  31.651  1.00  0.00    -0.014 A 
ATOM     63  C   UNL A   1      46.734  28.674  30.809  1.00  0.00     0.009 A 
ATOM     64  C   UNL A   1      45.711  27.764  32.803  1.00  0.00     0.009 A 
ATOM     65  C   UNL A   1      47.905  27.966  31.088  1.00  0.00     0.001 A 
ATOM     66  C   UNL A   1      46.894  27.082  33.096  1.00  0.00     0.001 A 
ATOM     67  C   UNL A   1      47.985  27.174  32.233  1.00  0.00     0.000 A 
ENDBRANCH  48  62
BRANCH  49  68
ATOM     68  C   UNL A   1      36.750  32.699  29.651  1.00  0.00    -0.014 A 
ATOM     69  C   UNL A   1      36.502  33.332  28.423  1.00  0.00     0.009 A 
ATOM     70  C   UNL A   1      35.730  32.659  30.612  1.00  0.00     0.009 A 
ATOM     71  C   UNL A   1      35.267  33.935  28.173  1.00  0.00     0.001 A 
ATOM     72  C   UNL A   1      34.488  33.242  30.350  1.00  0.00     0.001 A 
ATOM     73  C   UNL A   1      34.261  33.887  29.134  1.00  0.00     0.000 A 
ENDBRANCH  49  68
BRANCH  61  74
ATOM     74  C   UNL A   1      42.467  34.921  32.931  1.00  0.00    -0.014 A 
ATOM     75  C   UNL A   1      43.229  35.890  32.261  1.00  0.00     0.009 A 
ATOM     76  C   UNL A   1      41.982  35.200  34.217  1.00  0.00     0.009 A 
ATOM     77  C   UNL A   1      43.519  37.106  32.879  1.00  0.00     0.001 A 
ATOM     78  C   UNL A   1      42.255  36.426  34.823  1.00  0.00     0.001 A 
ATOM     79  C   UNL A   1      43.029  37.375  34.157  1.00  0.00     0.000 A 
ENDBRANCH  61  74
ENDBRANCH  35  36
ENDBRANCH  27  30
ENDBRANCH  25  26
ENDBRANCH  24  25
ENDBRANCH   1  24
TORSDOF 15
ENDMDL
MODEL 2
REMARK VINA RESULT:     -11.0      2.389      7.092
REMARK SMILES COc1ccc([C@@H](CC(=O)NCCCCNC(=O)c2ccc(-c3c4nc(c(-c5ccccc5)c5ccc([nH]5)c(-c5ccccc5)c5nc(c(-c6ccccc6)c6ccc3[nH]6)C=C5)C=C4)cc2)C2CCCCC2)cc1Cl
REMARK SMILES IDX 13 1 12 2 11 3 9 4 10 5 8 7 7 8 6 9 3 10 4 11 74 12 5 13
REMARK SMILES IDX 73 14 75 15 2 16 1 17 67 18 68 19 72 20 69 21 71 22 70 23
REMARK SMILES IDX 14 24 15 25 16 26 17 27 18 29 19 30 20 31 66 32 21 33 65 34
REMARK SMILES IDX 22 35 23 36 24 37 59 38 25 39 64 40 58 41 60 42 26 43 63 44
REMARK SMILES IDX 57 45 56 46 27 48 49 49 34 50 48 51 35 52 38 53 47 54 61 55
REMARK SMILES IDX 36 56 37 57 46 59 62 60 39 61 28 62 29 63 33 64 30 65 32 66
REMARK SMILES IDX 31 67 50 68 51 69 55 70 52 71 54 72 53 73 40 74 41 75 45 76
REMARK SMILES IDX 42 77 44 78 43 79
REMARK H PARENT 11 6 16 28 60 47 38 58
REMARK Flexibility Score: inf
ROOT
ATOM      1  C   UNL A   1      32.414  28.493  25.831  1.00  0.00     0.023 C 
ENDROOT
BRANCH   1   2
ATOM      2  C   UNL A   1      31.404  27.987  26.847  1.00  0.00     0.116 C 
BRANCH   2   3
ATOM      3  N   UNL A   1      31.485  26.549  26.981  1.00  0.00    -0.356 N 
ATOM      4  C   UNL A   1      30.739  25.576  26.388  1.00  0.00     0.220 C 
ATOM      5  O   UNL A   1      31.029  24.403  26.638  1.00  0.00    -0.275 OA
ATOM      6  H   UNL A   1      32.185  26.223  27.592  1.00  0.00     0.163 HD
BRANCH   4   7
ATOM      7  C   UNL A   1      29.632  25.900  25.397  1.00  0.00     0.108 C 
BRANCH   7   8
ATOM      8  C   UNL A   1      29.948  26.313  23.921  1.00  0.00     0.032 C 
BRANCH   8   9
ATOM      9  C   UNL A   1      31.215  25.639  23.368  1.00  0.00    -0.042 A 
ATOM     10  C   UNL A   1      33.559  24.208  22.590  1.00  0.00     0.137 A 
ATOM     11  C   UNL A   1      33.584  25.594  22.730  1.00  0.00     0.048 A 
ATOM     12  C   UNL A   1      32.336  23.548  22.755  1.00  0.00     0.083 A 
ATOM     13  C   UNL A   1      32.423  26.297  23.095  1.00  0.00     0.008 A 
ATOM     14  C   UNL A   1      31.183  24.254  23.118  1.00  0.00     0.028 A 
ATOM     15  Cl  UNL A   1      32.207  21.833  22.569  1.00  0.00    -0.080 Cl
BRANCH  10  16
ATOM     16  O   UNL A   1      34.670  23.429  22.447  1.00  0.00    -0.495 OA
ATOM     17  C   UNL A   1      35.530  23.229  23.559  1.00  0.00     0.278 C 
ENDBRANCH  10  16
ENDBRANCH   8   9
BRANCH   8  18
ATOM     18  C   UNL A   1      29.633  27.813  23.558  1.00  0.00    -0.003 C 
ATOM     19  C   UNL A   1      30.441  28.419  22.391  1.00  0.00     0.004 C 
ATOM     20  C   UNL A   1      28.103  28.033  23.409  1.00  0.00     0.004 C 
ATOM     21  C   UNL A   1      29.975  29.812  21.979  1.00  0.00     0.000 C 
ATOM     22  C   UNL A   1      27.709  29.425  22.926  1.00  0.00     0.000 C 
ATOM     23  C   UNL A   1      28.486  29.828  21.682  1.00  0.00     0.000 C 
ENDBRANCH   8  18
ENDBRANCH   7   8
ENDBRANCH   4   7
ENDBRANCH   2   3
ENDBRANCH   1   2
BRANCH   1  24
ATOM     24  C   UNL A   1      32.537  29.994  25.662  1.00  0.00     0.023 C 
BRANCH  24  25
ATOM     25  C   UNL A   1      32.916  30.734  26.935  1.00  0.00     0.116 C 
BRANCH  25  26
ATOM     26  N   UNL A   1      32.361  32.077  27.049  1.00  0.00    -0.352 N 
ATOM     27  C   UNL A   1      32.871  33.188  27.694  1.00  0.00     0.251 C 
ATOM     28  H   UNL A   1      31.495  32.213  26.600  1.00  0.00     0.163 HD
ATOM     29  O   UNL A   1      32.236  34.234  27.733  1.00  0.00    -0.269 OA
BRANCH  27  30
ATOM     30  C   UNL A   1      34.161  33.081  28.406  1.00  0.00     0.039 A 
ATOM     31  C   UNL A   1      34.185  32.488  29.670  1.00  0.00     0.014 A 
ATOM     32  C   UNL A   1      35.349  33.474  27.793  1.00  0.00     0.014 A 
ATOM     33  C   UNL A   1      35.410  32.175  30.261  1.00  0.00     0.010 A 
ATOM     34  C   UNL A   1      36.560  33.047  28.319  1.00  0.00     0.010 A 
ATOM     35  C   UNL A   1      36.605  32.389  29.556  1.00  0.00    -0.014 A 
BRANCH  35  36
ATOM     36  C   UNL A   1      37.919  31.941  30.080  1.00  0.00     0.031 A 
ATOM     37  C   UNL A   1      38.559  30.698  29.522  1.00  0.00     0.074 A 
ATOM     38  C   UNL A   1      38.480  32.578  31.128  1.00  0.00     0.049 A 
ATOM     39  N   UNL A   1      39.613  30.048  29.945  1.00  0.00    -0.248 NA
ATOM     40  C   UNL A   1      37.892  30.074  28.366  1.00  0.00     0.031 C 
ATOM     41  C   UNL A   1      37.932  33.754  31.809  1.00  0.00     0.029 A 
ATOM     42  N   UNL A   1      39.641  32.315  31.812  1.00  0.00    -0.354 N 
ATOM     43  C   UNL A   1      39.698  28.916  29.146  1.00  0.00     0.074 A 
ATOM     44  C   UNL A   1      38.565  28.940  28.248  1.00  0.00     0.031 C 
ATOM     45  C   UNL A   1      38.775  34.134  32.783  1.00  0.00     0.029 A 
ATOM     46  C   UNL A   1      39.898  33.206  32.826  1.00  0.00     0.049 A 
ATOM     47  H   UNL A   1      40.234  31.559  31.596  1.00  0.00     0.167 HD
ATOM     48  C   UNL A   1      40.648  27.953  29.139  1.00  0.00     0.031 A 
ATOM     49  C   UNL A   1      40.924  33.265  33.695  1.00  0.00     0.031 A 
ATOM     50  C   UNL A   1      41.810  27.964  29.985  1.00  0.00     0.049 A 
ATOM     51  C   UNL A   1      42.006  32.225  33.621  1.00  0.00     0.074 A 
ATOM     52  C   UNL A   1      42.876  27.084  29.999  1.00  0.00     0.029 A 
ATOM     53  N   UNL A   1      42.063  28.921  30.955  1.00  0.00    -0.354 N 
ATOM     54  N   UNL A   1      42.101  31.190  32.823  1.00  0.00    -0.248 NA
ATOM     55  C   UNL A   1      43.126  32.369  34.562  1.00  0.00     0.031 C 
ATOM     56  C   UNL A   1      43.766  27.496  30.996  1.00  0.00     0.029 A 
ATOM     57  C   UNL A   1      43.270  28.652  31.576  1.00  0.00     0.049 A 
ATOM     58  H   UNL A   1      41.473  29.679  31.169  1.00  0.00     0.167 HD
ATOM     59  C   UNL A   1      43.301  30.572  33.147  1.00  0.00     0.074 A 
ATOM     60  C   UNL A   1      43.905  31.357  34.204  1.00  0.00     0.031 C 
ATOM     61  C   UNL A   1      43.853  29.453  32.618  1.00  0.00     0.031 A 
BRANCH  48  62
ATOM     62  C   UNL A   1      40.467  26.815  28.175  1.00  0.00    -0.014 A 
ATOM     63  C   UNL A   1      41.045  26.846  26.895  1.00  0.00     0.009 A 
ATOM     64  C   UNL A   1      39.708  25.696  28.550  1.00  0.00     0.009 A 
ATOM     65  C   UNL A   1      40.826  25.802  25.995  1.00  0.00     0.001 A 
ATOM     66  C   UNL A   1      39.517  24.639  27.658  1.00  0.00     0.001 A 
ATOM     67  C   UNL A   1      40.066  24.698  26.378  1.00  0.00     0.000 A 
ENDBRANCH  48  62
BRANCH  49  68
ATOM     68  C   UNL A   1      40.999  34.368  34.687  1.00  0.00    -0.014 A 
ATOM     69  C   UNL A   1      40.371  34.236  35.936  1.00  0.00     0.009 A 
ATOM     70  C   UNL A   1      41.691  35.553  34.397  1.00  0.00     0.009 A 
ATOM     71  C   UNL A   1      40.414  35.279  36.864  1.00  0.00     0.001 A 
ATOM     72  C   UNL A   1      41.753  36.584  35.337  1.00  0.00     0.001 A 
ATOM     73  C   UNL A   1      41.107  36.450  36.566  1.00  0.00     0.000 A 
ENDBRANCH  49  68
BRANCH  61  74
ATOM     74  C   UNL A   1      45.193  29.036  33.150  1.00  0.00    -0.014 A 
ATOM     75  C   UNL A   1      46.381  29.524  32.588  1.00  0.00     0.009 A 
ATOM     76  C   UNL A   1      45.261  28.180  34.260  1.00  0.00     0.009 A 
ATOM     77  C   UNL A   1      47.616  29.142  33.113  1.00  0.00     0.001 A 
ATOM     78  C   UNL A   1      46.496  27.818  34.796  1.00  0.00     0.001 A 
ATOM     79  C   UNL A   1      47.672  28.294  34.219  1.00  0.00     0.000 A 
ENDBRANCH  61  74
ENDBRANCH  35  36
ENDBRANCH  27  30
ENDBRANCH  25  26
ENDBRANCH  24  25
ENDBRANCH   1  24
TORSDOF 15
ENDMDL
MODEL 3
REMARK VINA RESULT:     -11.0      3.578      8.310
REMARK SMILES COc1ccc([C@@H](CC(=O)NCCCCNC(=O)c2ccc(-c3c4nc(c(-c5ccccc5)c5ccc([nH]5)c(-c5ccccc5)c5nc(c(-c6ccccc6)c6ccc3[nH]6)C=C5)C=C4)cc2)C2CCCCC2)cc1Cl
REMARK SMILES IDX 13 1 12 2 11 3 9 4 10 5 8 7 7 8 6 9 3 10 4 11 74 12 5 13
REMARK SMILES IDX 73 14 75 15 2 16 1 17 67 18 68 19 72 20 69 21 71 22 70 23
REMARK SMILES IDX 14 24 15 25 16 26 17 27 18 29 19 30 20 31 66 32 21 33 65 34
REMARK SMILES IDX 22 35 23 36 24 37 59 38 25 39 64 40 58 41 60 42 26 43 63 44
REMARK SMILES IDX 57 45 56 46 27 48 49 49 34 50 48 51 35 52 38 53 47 54 61 55
REMARK SMILES IDX 36 56 37 57 46 59 62 60 39 61 28 62 29 63 33 64 30 65 32 66
REMARK SMILES IDX 31 67 50 68 51 69 55 70 52 71 54 72 53 73 40 74 41 75 45 76
REMARK SMILES IDX 42 77 44 78 43 79
REMARK H PARENT 11 6 16 28 60 47 38 58
REMARK Flexibility Score: inf
ROOT
ATOM      1  C   UNL A   1      31.667  27.432  26.674  1.00  0.00     0.023 C 
ENDROOT
BRANCH   1   2
ATOM      2  C   UNL A   1      30.948  26.362  25.871  1.00  0.00     0.116 C 
BRANCH   2   3
ATOM      3  N   UNL A   1      30.984  25.090  26.560  1.00  0.00    -0.356 N 
ATOM      4  C   UNL A   1      32.031  24.246  26.776  1.00  0.00     0.220 C 
ATOM      5  O   UNL A   1      31.813  23.225  27.432  1.00  0.00    -0.275 OA
ATOM      6  H   UNL A   1      30.122  24.788  26.929  1.00  0.00     0.163 HD
BRANCH   4   7
ATOM      7  C   UNL A   1      33.438  24.568  26.297  1.00  0.00     0.108 C 
BRANCH   7   8
ATOM      8  C   UNL A   1      33.992  24.010  24.944  1.00  0.00     0.032 C 
BRANCH   8   9
ATOM      9  C   UNL A   1      35.382  23.370  25.084  1.00  0.00    -0.042 A 
ATOM     10  C   UNL A   1      37.836  21.985  25.543  1.00  0.00     0.137 A 
ATOM     11  C   UNL A   1      37.744  23.359  25.750  1.00  0.00     0.048 A 
ATOM     12  C   UNL A   1      36.722  21.318  25.022  1.00  0.00     0.083 A 
ATOM     13  C   UNL A   1      36.539  24.041  25.505  1.00  0.00     0.008 A 
ATOM     14  C   UNL A   1      35.525  22.002  24.780  1.00  0.00     0.028 A 
ATOM     15  Cl  UNL A   1      36.757  19.618  24.704  1.00  0.00    -0.080 Cl
BRANCH  10  16
ATOM     16  O   UNL A   1      38.886  21.214  25.948  1.00  0.00    -0.495 OA
ATOM     17  C   UNL A   1      39.980  21.823  26.619  1.00  0.00     0.278 C 
ENDBRANCH  10  16
ENDBRANCH   8   9
BRANCH   8  18
ATOM     18  C   UNL A   1      33.647  24.869  23.669  1.00  0.00    -0.003 C 
ATOM     19  C   UNL A   1      32.274  24.604  23.017  1.00  0.00     0.004 C 
ATOM     20  C   UNL A   1      33.907  26.376  23.934  1.00  0.00     0.004 C 
ATOM     21  C   UNL A   1      31.928  25.579  21.894  1.00  0.00     0.000 C 
ATOM     22  C   UNL A   1      33.473  27.302  22.802  1.00  0.00     0.000 C 
ATOM     23  C   UNL A   1      32.046  27.018  22.362  1.00  0.00     0.000 C 
ENDBRANCH   8  18
ENDBRANCH   7   8
ENDBRANCH   4   7
ENDBRANCH   2   3
ENDBRANCH   1   2
BRANCH   1  24
ATOM     24  C   UNL A   1      31.402  28.877  26.299  1.00  0.00     0.023 C 
BRANCH  24  25
ATOM     25  C   UNL A   1      32.657  29.723  26.163  1.00  0.00     0.116 C 
BRANCH  25  26
ATOM     26  N   UNL A   1      32.528  31.091  26.654  1.00  0.00    -0.352 N 
ATOM     27  C   UNL A   1      33.423  31.853  27.379  1.00  0.00     0.251 C 
ATOM     28  H   UNL A   1      31.677  31.535  26.436  1.00  0.00     0.163 HD
ATOM     29  O   UNL A   1      33.122  32.978  27.757  1.00  0.00    -0.269 OA
BRANCH  27  30
ATOM     30  C   UNL A   1      34.725  31.269  27.763  1.00  0.00     0.039 A 
ATOM     31  C   UNL A   1      35.802  32.125  28.003  1.00  0.00     0.014 A 
ATOM     32  C   UNL A   1      34.856  29.899  27.979  1.00  0.00     0.014 A 
ATOM     33  C   UNL A   1      36.968  31.620  28.579  1.00  0.00     0.010 A 
ATOM     34  C   UNL A   1      35.961  29.421  28.669  1.00  0.00     0.010 A 
ATOM     35  C   UNL A   1      37.028  30.276  28.982  1.00  0.00    -0.014 A 
BRANCH  35  36
ATOM     36  C   UNL A   1      38.188  29.729  29.728  1.00  0.00     0.031 A 
ATOM     37  C   UNL A   1      38.382  30.095  31.175  1.00  0.00     0.074 A 
ATOM     38  C   UNL A   1      39.123  29.002  29.083  1.00  0.00     0.049 A 
ATOM     39  N   UNL A   1      39.404  29.861  31.958  1.00  0.00    -0.248 NA
ATOM     40  C   UNL A   1      37.305  30.875  31.809  1.00  0.00     0.031 C 
ATOM     41  C   UNL A   1      39.093  28.633  27.665  1.00  0.00     0.029 A 
ATOM     42  N   UNL A   1      40.293  28.449  29.541  1.00  0.00    -0.354 N 
ATOM     43  C   UNL A   1      39.116  30.511  33.150  1.00  0.00     0.074 A 
ATOM     44  C   UNL A   1      37.851  31.189  32.973  1.00  0.00     0.031 C 
ATOM     45  C   UNL A   1      40.170  27.881  27.382  1.00  0.00     0.029 A 
ATOM     46  C   UNL A   1      40.988  27.753  28.581  1.00  0.00     0.049 A 
ATOM     47  H   UNL A   1      40.605  28.542  30.471  1.00  0.00     0.167 HD
ATOM     48  C   UNL A   1      39.826  30.523  34.302  1.00  0.00     0.031 A 
ATOM     49  C   UNL A   1      42.155  27.088  28.661  1.00  0.00     0.031 A 
ATOM     50  C   UNL A   1      41.049  29.795  34.500  1.00  0.00     0.049 A 
ATOM     51  C   UNL A   1      42.890  27.055  29.971  1.00  0.00     0.074 A 
ATOM     52  C   UNL A   1      41.802  29.669  35.653  1.00  0.00     0.029 A 
ATOM     53  N   UNL A   1      41.683  29.049  33.519  1.00  0.00    -0.354 N 
ATOM     54  N   UNL A   1      42.577  27.630  31.106  1.00  0.00    -0.248 NA
ATOM     55  C   UNL A   1      44.134  26.272  30.011  1.00  0.00     0.031 C 
ATOM     56  C   UNL A   1      42.909  28.864  35.363  1.00  0.00     0.029 A 
ATOM     57  C   UNL A   1      42.823  28.462  34.040  1.00  0.00     0.049 A 
ATOM     58  H   UNL A   1      41.371  28.952  32.591  1.00  0.00     0.167 HD
ATOM     59  C   UNL A   1      43.571  27.260  32.003  1.00  0.00     0.074 A 
ATOM     60  C   UNL A   1      44.487  26.400  31.282  1.00  0.00     0.031 C 
ATOM     61  C   UNL A   1      43.712  27.603  33.306  1.00  0.00     0.031 A 
BRANCH  48  62
ATOM     62  C   UNL A   1      39.283  31.346  35.436  1.00  0.00    -0.014 A 
ATOM     63  C   UNL A   1      38.308  30.832  36.306  1.00  0.00     0.009 A 
ATOM     64  C   UNL A   1      39.753  32.652  35.638  1.00  0.00     0.009 A 
ATOM     65  C   UNL A   1      37.779  31.627  37.325  1.00  0.00     0.001 A 
ATOM     66  C   UNL A   1      39.245  33.434  36.677  1.00  0.00     0.001 A 
ATOM     67  C   UNL A   1      38.250  32.926  37.512  1.00  0.00     0.000 A 
ENDBRANCH  48  62
BRANCH  49  68
ATOM     68  C   UNL A   1      42.685  26.367  27.475  1.00  0.00    -0.014 A 
ATOM     69  C   UNL A   1      43.560  27.016  26.590  1.00  0.00     0.009 A 
ATOM     70  C   UNL A   1      42.323  25.037  27.219  1.00  0.00     0.009 A 
ATOM     71  C   UNL A   1      44.042  26.355  25.458  1.00  0.00     0.001 A 
ATOM     72  C   UNL A   1      42.826  24.370  26.099  1.00  0.00     0.001 A 
ATOM     73  C   UNL A   1      43.678  25.032  25.215  1.00  0.00     0.000 A 
ENDBRANCH  49  68
BRANCH  61  74
ATOM     74  C   UNL A   1      44.881  27.017  34.043  1.00  0.00    -0.014 A 
ATOM     75  C   UNL A   1      46.086  27.723  34.170  1.00  0.00     0.009 A 
ATOM     76  C   UNL A   1      44.753  25.762  34.657  1.00  0.00     0.009 A 
ATOM     77  C   UNL A   1      47.152  27.170  34.880  1.00  0.00     0.001 A 
ATOM     78  C   UNL A   1      45.813  25.222  35.385  1.00  0.00     0.001 A 
ATOM     79  C   UNL A   1      47.014  25.923  35.490  1.00  0.00     0.000 A 
ENDBRANCH  61  74
ENDBRANCH  35  36
ENDBRANCH  27  30
ENDBRANCH  25  26
ENDBRANCH  24  25
ENDBRANCH   1  24
TORSDOF 15
ENDMDL
