MODEL 1
REMARK VINA RESULT:     -10.3      0.000      0.000
REMARK SMILES C[C@@H](C(=O)NCCCCNC(=O)c1ccc(-c2c3nc(c(-c4ccccc4)c4ccc([nH]4)c(-c4ccccc4)c4nc(c(-c5ccccc5)c5ccc2[nH]5)C=C4)C=C3)cc1)c1cccn(C(F)F)c1=O
REMARK SMILES IDX 7 1 6 2 5 3 3 4 4 5 2 7 1 8 61 9 62 10 69 11 63 12 65 13
REMARK SMILES IDX 70 14 64 15 66 16 67 17 68 18 8 19 9 20 10 21 11 22 12 24
REMARK SMILES IDX 13 25 14 26 60 27 15 28 59 29 16 30 17 31 18 32 53 33 19 34
REMARK SMILES IDX 58 35 52 36 54 37 20 38 57 39 51 40 50 41 21 43 43 44 28 45
REMARK SMILES IDX 42 46 29 47 32 48 41 49 55 50 30 51 31 52 40 54 56 55 33 56
REMARK SMILES IDX 22 57 23 58 27 59 24 60 26 61 25 62 44 63 45 64 49 65 46 66
REMARK SMILES IDX 48 67 47 68 34 69 35 70 39 71 36 72 38 73 37 74
REMARK H PARENT 5 6 10 23 54 42 32 53
REMARK Flexibility Score: inf
ROOT
ATOM      1  C   UNL A   1      34.711  23.934  25.542  1.00  0.00     0.023 C 
ENDROOT
BRANCH   1   2
ATOM      2  C   UNL A   1      34.250  23.299  24.227  1.00  0.00     0.116 C 
BRANCH   2   3
ATOM      3  N   UNL A   1      34.234  24.271  23.151  1.00  0.00    -0.356 N 
ATOM      4  C   UNL A   1      33.236  25.109  22.742  1.00  0.00     0.227 C 
ATOM      5  O   UNL A   1      33.433  25.750  21.707  1.00  0.00    -0.274 OA
ATOM      6  H   UNL A   1      35.071  24.335  22.638  1.00  0.00     0.163 HD
BRANCH   4   7
ATOM      7  C   UNL A   1      31.931  25.214  23.553  1.00  0.00     0.111 C 
ATOM      8  C   UNL A   1      30.901  24.184  23.077  1.00  0.00     0.023 C 
BRANCH   7   9
ATOM      9  C   UNL A   1      31.422  26.644  23.485  1.00  0.00     0.030 A 
ATOM     10  C   UNL A   1      30.667  27.169  22.501  1.00  0.00     0.012 A 
ATOM     11  C   UNL A   1      31.818  27.539  24.633  1.00  0.00     0.258 A 
ATOM     12  C   UNL A   1      30.235  28.541  22.526  1.00  0.00     0.019 A 
ATOM     13  N   UNL A   1      31.400  28.858  24.555  1.00  0.00    -0.258 N 
ATOM     14  O   UNL A   1      32.458  27.082  25.578  1.00  0.00    -0.269 OA
ATOM     15  C   UNL A   1      30.612  29.338  23.528  1.00  0.00     0.095 A 
BRANCH  13  16
ATOM     16  C   UNL A   1      31.785  29.748  25.621  1.00  0.00     0.451 C 
ATOM     17  F   UNL A   1      33.075  30.147  25.444  1.00  0.00    -0.185 F 
ATOM     18  F   UNL A   1      31.031  30.878  25.558  1.00  0.00    -0.185 F 
ENDBRANCH  13  16
ENDBRANCH   7   9
ENDBRANCH   4   7
ENDBRANCH   2   3
ENDBRANCH   1   2
BRANCH   1  19
ATOM     19  C   UNL A   1      36.029  23.387  26.093  1.00  0.00     0.023 C 
BRANCH  19  20
ATOM     20  C   UNL A   1      37.212  23.459  25.136  1.00  0.00     0.116 C 
BRANCH  20  21
ATOM     21  N   UNL A   1      38.311  22.584  25.516  1.00  0.00    -0.352 N 
ATOM     22  C   UNL A   1      39.434  22.882  26.249  1.00  0.00     0.251 C 
ATOM     23  H   UNL A   1      38.240  21.653  25.206  1.00  0.00     0.163 HD
ATOM     24  O   UNL A   1      40.326  22.051  26.385  1.00  0.00    -0.269 OA
BRANCH  22  25
ATOM     25  C   UNL A   1      39.580  24.226  26.844  1.00  0.00     0.039 A 
ATOM     26  C   UNL A   1      39.069  24.457  28.125  1.00  0.00     0.014 A 
ATOM     27  C   UNL A   1      40.247  25.243  26.156  1.00  0.00     0.014 A 
ATOM     28  C   UNL A   1      39.296  25.685  28.748  1.00  0.00     0.010 A 
ATOM     29  C   UNL A   1      40.530  26.440  26.804  1.00  0.00     0.010 A 
ATOM     30  C   UNL A   1      40.064  26.671  28.108  1.00  0.00    -0.014 A 
BRANCH  30  31
ATOM     31  C   UNL A   1      40.410  27.946  28.782  1.00  0.00     0.031 A 
ATOM     32  C   UNL A   1      41.724  28.088  29.495  1.00  0.00     0.074 A 
ATOM     33  C   UNL A   1      39.500  28.938  28.840  1.00  0.00     0.049 A 
ATOM     34  N   UNL A   1      42.159  29.074  30.238  1.00  0.00    -0.248 NA
ATOM     35  C   UNL A   1      42.661  26.959  29.384  1.00  0.00     0.031 C 
ATOM     36  C   UNL A   1      38.169  28.908  28.229  1.00  0.00     0.029 A 
ATOM     37  N   UNL A   1      39.552  30.160  29.463  1.00  0.00    -0.354 N 
ATOM     38  C   UNL A   1      43.403  28.672  30.705  1.00  0.00     0.074 A 
ATOM     39  C   UNL A   1      43.637  27.339  30.194  1.00  0.00     0.031 C 
ATOM     40  C   UNL A   1      37.535  30.059  28.502  1.00  0.00     0.029 A 
ATOM     41  C   UNL A   1      38.396  30.891  29.336  1.00  0.00     0.049 A 
ATOM     42  H   UNL A   1      40.342  30.482  29.954  1.00  0.00     0.167 HD
ATOM     43  C   UNL A   1      44.279  29.356  31.479  1.00  0.00     0.031 A 
ATOM     44  C   UNL A   1      38.058  32.089  29.849  1.00  0.00     0.031 A 
ATOM     45  C   UNL A   1      44.054  30.688  31.972  1.00  0.00     0.049 A 
ATOM     46  C   UNL A   1      39.047  32.832  30.702  1.00  0.00     0.074 A 
ATOM     47  C   UNL A   1      44.912  31.495  32.698  1.00  0.00     0.029 A 
ATOM     48  N   UNL A   1      42.882  31.408  31.792  1.00  0.00    -0.354 N 
ATOM     49  N   UNL A   1      40.253  32.473  31.070  1.00  0.00    -0.248 NA
ATOM     50  C   UNL A   1      38.632  34.150  31.202  1.00  0.00     0.031 C 
ATOM     51  C   UNL A   1      44.242  32.685  33.000  1.00  0.00     0.029 A 
ATOM     52  C   UNL A   1      42.985  32.639  32.418  1.00  0.00     0.049 A 
ATOM     53  H   UNL A   1      42.094  31.091  31.295  1.00  0.00     0.167 HD
ATOM     54  C   UNL A   1      40.749  33.527  31.824  1.00  0.00     0.074 A 
ATOM     55  C   UNL A   1      39.719  34.546  31.851  1.00  0.00     0.031 C 
ATOM     56  C   UNL A   1      41.951  33.641  32.437  1.00  0.00     0.031 A 
BRANCH  43  57
ATOM     57  C   UNL A   1      45.558  28.662  31.851  1.00  0.00    -0.014 A 
ATOM     58  C   UNL A   1      46.684  28.709  31.013  1.00  0.00     0.009 A 
ATOM     59  C   UNL A   1      45.646  27.969  33.068  1.00  0.00     0.009 A 
ATOM     60  C   UNL A   1      47.857  28.039  31.366  1.00  0.00     0.001 A 
ATOM     61  C   UNL A   1      46.830  27.325  33.433  1.00  0.00     0.001 A 
ATOM     62  C   UNL A   1      47.929  27.349  32.576  1.00  0.00     0.000 A 
ENDBRANCH  43  57
BRANCH  44  63
ATOM     63  C   UNL A   1      36.718  32.662  29.563  1.00  0.00    -0.014 A 
ATOM     64  C   UNL A   1      36.476  33.342  28.361  1.00  0.00     0.009 A 
ATOM     65  C   UNL A   1      35.668  32.518  30.486  1.00  0.00     0.009 A 
ATOM     66  C   UNL A   1      35.216  33.885  28.096  1.00  0.00     0.001 A 
ATOM     67  C   UNL A   1      34.404  33.039  30.207  1.00  0.00     0.001 A 
ATOM     68  C   UNL A   1      34.181  33.728  29.015  1.00  0.00     0.000 A 
ENDBRANCH  44  63
BRANCH  56  69
ATOM     69  C   UNL A   1      42.236  34.923  33.166  1.00  0.00    -0.014 A 
ATOM     70  C   UNL A   1      41.722  35.159  34.450  1.00  0.00     0.009 A 
ATOM     71  C   UNL A   1      43.078  35.882  32.581  1.00  0.00     0.009 A 
ATOM     72  C   UNL A   1      42.029  36.341  35.125  1.00  0.00     0.001 A 
ATOM     73  C   UNL A   1      43.404  37.051  33.270  1.00  0.00     0.001 A 
ATOM     74  C   UNL A   1      42.875  37.282  34.538  1.00  0.00     0.000 A 
ENDBRANCH  56  69
ENDBRANCH  30  31
ENDBRANCH  22  25
ENDBRANCH  20  21
ENDBRANCH  19  20
ENDBRANCH   1  19
TORSDOF 13
ENDMDL
MODEL 2
REMARK VINA RESULT:     -10.3      2.472      3.761
REMARK SMILES C[C@@H](C(=O)NCCCCNC(=O)c1ccc(-c2c3nc(c(-c4ccccc4)c4ccc([nH]4)c(-c4ccccc4)c4nc(c(-c5ccccc5)c5ccc2[nH]5)C=C4)C=C3)cc1)c1cccn(C(F)F)c1=O
REMARK SMILES IDX 7 1 6 2 5 3 3 4 4 5 2 7 1 8 61 9 62 10 69 11 63 12 65 13
REMARK SMILES IDX 70 14 64 15 66 16 67 17 68 18 8 19 9 20 10 21 11 22 12 24
REMARK SMILES IDX 13 25 14 26 60 27 15 28 59 29 16 30 17 31 18 32 53 33 19 34
REMARK SMILES IDX 58 35 52 36 54 37 20 38 57 39 51 40 50 41 21 43 43 44 28 45
REMARK SMILES IDX 42 46 29 47 32 48 41 49 55 50 30 51 31 52 40 54 56 55 33 56
REMARK SMILES IDX 22 57 23 58 27 59 24 60 26 61 25 62 44 63 45 64 49 65 46 66
REMARK SMILES IDX 48 67 47 68 34 69 35 70 39 71 36 72 38 73 37 74
REMARK H PARENT 5 6 10 23 54 42 32 53
REMARK Flexibility Score: inf
ROOT
ATOM      1  C   UNL A   1      36.198  20.796  25.259  1.00  0.00     0.023 C 
ENDROOT
BRANCH   1   2
ATOM      2  C   UNL A   1      36.037  22.318  25.330  1.00  0.00     0.116 C 
BRANCH   2   3
ATOM      3  N   UNL A   1      35.679  22.868  24.039  1.00  0.00    -0.356 N 
ATOM      4  C   UNL A   1      34.465  22.921  23.414  1.00  0.00     0.227 C 
ATOM      5  O   UNL A   1      34.452  23.326  22.249  1.00  0.00    -0.274 OA
ATOM      6  H   UNL A   1      36.425  23.265  23.534  1.00  0.00     0.163 HD
BRANCH   4   7
ATOM      7  C   UNL A   1      33.191  22.472  24.156  1.00  0.00     0.111 C 
ATOM      8  C   UNL A   1      32.562  21.249  23.483  1.00  0.00     0.023 C 
BRANCH   7   9
ATOM      9  C   UNL A   1      32.240  23.653  24.261  1.00  0.00     0.030 A 
ATOM     10  C   UNL A   1      31.157  23.866  23.490  1.00  0.00     0.012 A 
ATOM     11  C   UNL A   1      32.565  24.668  25.329  1.00  0.00     0.258 A 
ATOM     12  C   UNL A   1      30.316  25.020  23.666  1.00  0.00     0.019 A 
ATOM     13  N   UNL A   1      31.732  25.773  25.399  1.00  0.00    -0.258 N 
ATOM     14  O   UNL A   1      33.513  24.479  26.090  1.00  0.00    -0.269 OA
ATOM     15  C   UNL A   1      30.624  25.931  24.592  1.00  0.00     0.095 A 
BRANCH  13  16
ATOM     16  C   UNL A   1      32.031  26.776  26.389  1.00  0.00     0.451 C 
ATOM     17  F   UNL A   1      32.604  27.856  25.791  1.00  0.00    -0.185 F 
ATOM     18  F   UNL A   1      30.870  27.224  26.940  1.00  0.00    -0.185 F 
ENDBRANCH  13  16
ENDBRANCH   7   9
ENDBRANCH   4   7
ENDBRANCH   2   3
ENDBRANCH   1   2
BRANCH   1  19
ATOM     19  C   UNL A   1      37.566  20.316  24.770  1.00  0.00     0.023 C 
BRANCH  19  20
ATOM     20  C   UNL A   1      38.735  20.643  25.690  1.00  0.00     0.116 C 
BRANCH  20  21
ATOM     21  N   UNL A   1      39.758  19.607  25.706  1.00  0.00    -0.352 N 
ATOM     22  C   UNL A   1      41.084  19.712  26.050  1.00  0.00     0.251 C 
ATOM     23  H   UNL A   1      39.458  18.710  25.434  1.00  0.00     0.163 HD
ATOM     24  O   UNL A   1      41.842  18.760  25.899  1.00  0.00    -0.269 OA
BRANCH  22  25
ATOM     25  C   UNL A   1      41.601  20.995  26.570  1.00  0.00     0.039 A 
ATOM     26  C   UNL A   1      42.111  21.932  25.668  1.00  0.00     0.014 A 
ATOM     27  C   UNL A   1      41.551  21.283  27.936  1.00  0.00     0.014 A 
ATOM     28  C   UNL A   1      42.500  23.192  26.127  1.00  0.00     0.010 A 
ATOM     29  C   UNL A   1      41.874  22.560  28.382  1.00  0.00     0.010 A 
ATOM     30  C   UNL A   1      42.345  23.529  27.481  1.00  0.00    -0.014 A 
BRANCH  30  31
ATOM     31  C   UNL A   1      42.652  24.891  27.983  1.00  0.00     0.031 A 
ATOM     32  C   UNL A   1      44.043  25.228  28.441  1.00  0.00     0.074 A 
ATOM     33  C   UNL A   1      41.659  25.790  28.125  1.00  0.00     0.049 A 
ATOM     34  N   UNL A   1      44.481  26.318  29.017  1.00  0.00    -0.248 NA
ATOM     35  C   UNL A   1      45.070  24.191  28.253  1.00  0.00     0.031 C 
ATOM     36  C   UNL A   1      40.257  25.571  27.762  1.00  0.00     0.029 A 
ATOM     37  N   UNL A   1      41.676  27.065  28.633  1.00  0.00    -0.354 N 
ATOM     38  C   UNL A   1      45.823  26.087  29.287  1.00  0.00     0.074 A 
ATOM     39  C   UNL A   1      46.118  24.741  28.846  1.00  0.00     0.031 C 
ATOM     40  C   UNL A   1      39.551  26.674  28.052  1.00  0.00     0.029 A 
ATOM     41  C   UNL A   1      40.440  27.663  28.656  1.00  0.00     0.049 A 
ATOM     42  H   UNL A   1      42.495  27.507  28.951  1.00  0.00     0.167 HD
ATOM     43  C   UNL A   1      46.733  26.924  29.840  1.00  0.00     0.031 A 
ATOM     44  C   UNL A   1      40.059  28.866  29.127  1.00  0.00     0.031 A 
ATOM     45  C   UNL A   1      46.444  28.268  30.260  1.00  0.00     0.049 A 
ATOM     46  C   UNL A   1      41.086  29.780  29.732  1.00  0.00     0.074 A 
ATOM     47  C   UNL A   1      47.315  29.221  30.760  1.00  0.00     0.029 A 
ATOM     48  N   UNL A   1      45.185  28.849  30.235  1.00  0.00    -0.354 N 
ATOM     49  N   UNL A   1      42.369  29.577  29.908  1.00  0.00    -0.248 NA
ATOM     50  C   UNL A   1      40.614  31.093  30.194  1.00  0.00     0.031 C 
ATOM     51  C   UNL A   1      46.575  30.363  31.082  1.00  0.00     0.029 A 
ATOM     52  C   UNL A   1      45.252  30.139  30.737  1.00  0.00     0.049 A 
ATOM     53  H   UNL A   1      44.367  28.410  29.911  1.00  0.00     0.167 HD
ATOM     54  C   UNL A   1      42.862  30.742  30.480  1.00  0.00     0.074 A 
ATOM     55  C   UNL A   1      41.742  31.653  30.609  1.00  0.00     0.031 C 
ATOM     56  C   UNL A   1      44.129  31.032  30.860  1.00  0.00     0.031 A 
BRANCH  43  57
ATOM     57  C   UNL A   1      48.127  26.398  30.032  1.00  0.00    -0.014 A 
ATOM     58  C   UNL A   1      49.099  26.521  29.026  1.00  0.00     0.009 A 
ATOM     59  C   UNL A   1      48.479  25.788  31.246  1.00  0.00     0.009 A 
ATOM     60  C   UNL A   1      50.383  26.005  29.217  1.00  0.00     0.001 A 
ATOM     61  C   UNL A   1      49.772  25.300  31.445  1.00  0.00     0.001 A 
ATOM     62  C   UNL A   1      50.718  25.397  30.426  1.00  0.00     0.000 A 
ENDBRANCH  43  57
BRANCH  44  63
ATOM     63  C   UNL A   1      38.634  29.274  29.038  1.00  0.00    -0.014 A 
ATOM     64  C   UNL A   1      37.782  29.127  30.143  1.00  0.00     0.009 A 
ATOM     65  C   UNL A   1      38.121  29.825  27.852  1.00  0.00     0.009 A 
ATOM     66  C   UNL A   1      36.440  29.506  30.055  1.00  0.00     0.001 A 
ATOM     67  C   UNL A   1      36.786  30.226  27.777  1.00  0.00     0.001 A 
ATOM     68  C   UNL A   1      35.945  30.060  28.877  1.00  0.00     0.000 A 
ENDBRANCH  44  63
BRANCH  56  69
ATOM     69  C   UNL A   1      44.385  32.399  31.426  1.00  0.00    -0.014 A 
ATOM     70  C   UNL A   1      44.321  32.637  32.808  1.00  0.00     0.009 A 
ATOM     71  C   UNL A   1      44.751  33.448  30.569  1.00  0.00     0.009 A 
ATOM     72  C   UNL A   1      44.599  33.907  33.317  1.00  0.00     0.001 A 
ATOM     73  C   UNL A   1      45.053  34.709  31.084  1.00  0.00     0.001 A 
ATOM     74  C   UNL A   1      44.971  34.939  32.456  1.00  0.00     0.000 A 
ENDBRANCH  56  69
ENDBRANCH  30  31
ENDBRANCH  22  25
ENDBRANCH  20  21
ENDBRANCH  19  20
ENDBRANCH   1  19
TORSDOF 13
ENDMDL
MODEL 3
REMARK VINA RESULT:     -10.3      2.910      7.976
REMARK SMILES C[C@@H](C(=O)NCCCCNC(=O)c1ccc(-c2c3nc(c(-c4ccccc4)c4ccc([nH]4)c(-c4ccccc4)c4nc(c(-c5ccccc5)c5ccc2[nH]5)C=C4)C=C3)cc1)c1cccn(C(F)F)c1=O
REMARK SMILES IDX 7 1 6 2 5 3 3 4 4 5 2 7 1 8 61 9 62 10 69 11 63 12 65 13
REMARK SMILES IDX 70 14 64 15 66 16 67 17 68 18 8 19 9 20 10 21 11 22 12 24
REMARK SMILES IDX 13 25 14 26 60 27 15 28 59 29 16 30 17 31 18 32 53 33 19 34
REMARK SMILES IDX 58 35 52 36 54 37 20 38 57 39 51 40 50 41 21 43 43 44 28 45
REMARK SMILES IDX 42 46 29 47 32 48 41 49 55 50 30 51 31 52 40 54 56 55 33 56
REMARK SMILES IDX 22 57 23 58 27 59 24 60 26 61 25 62 44 63 45 64 49 65 46 66
REMARK SMILES IDX 48 67 47 68 34 69 35 70 39 71 36 72 38 73 37 74
REMARK H PARENT 5 6 10 23 54 42 32 53
REMARK Flexibility Score: inf
ROOT
ATOM      1  C   UNL A   1      31.804  27.503  26.765  1.00  0.00     0.023 C 
ENDROOT
BRANCH   1   2
ATOM      2  C   UNL A   1      31.125  26.265  26.173  1.00  0.00     0.116 C 
BRANCH   2   3
ATOM      3  N   UNL A   1      31.403  25.084  26.967  1.00  0.00    -0.356 N 
ATOM      4  C   UNL A   1      31.916  23.875  26.590  1.00  0.00     0.227 C 
ATOM      5  O   UNL A   1      31.929  22.983  27.442  1.00  0.00    -0.274 OA
ATOM      6  H   UNL A   1      31.187  25.167  27.924  1.00  0.00     0.163 HD
BRANCH   4   7
ATOM      7  C   UNL A   1      32.433  23.667  25.154  1.00  0.00     0.111 C 
ATOM      8  C   UNL A   1      31.332  23.111  24.246  1.00  0.00     0.023 C 
BRANCH   7   9
ATOM      9  C   UNL A   1      33.672  22.787  25.199  1.00  0.00     0.030 A 
ATOM     10  C   UNL A   1      33.688  21.442  25.151  1.00  0.00     0.012 A 
ATOM     11  C   UNL A   1      34.990  23.512  25.316  1.00  0.00     0.258 A 
ATOM     12  C   UNL A   1      34.917  20.695  25.202  1.00  0.00     0.019 A 
ATOM     13  N   UNL A   1      36.121  22.717  25.409  1.00  0.00    -0.258 N 
ATOM     14  O   UNL A   1      35.020  24.741  25.306  1.00  0.00    -0.269 OA
ATOM     15  C   UNL A   1      36.079  21.339  25.336  1.00  0.00     0.095 A 
BRANCH  13  16
ATOM     16  C   UNL A   1      37.394  23.375  25.550  1.00  0.00     0.451 C 
ATOM     17  F   UNL A   1      37.440  24.038  26.739  1.00  0.00    -0.185 F 
ATOM     18  F   UNL A   1      38.381  22.440  25.604  1.00  0.00    -0.185 F 
ENDBRANCH  13  16
ENDBRANCH   7   9
ENDBRANCH   4   7
ENDBRANCH   2   3
ENDBRANCH   1   2
BRANCH   1  19
ATOM     19  C   UNL A   1      33.134  27.884  26.110  1.00  0.00     0.023 C 
BRANCH  19  20
ATOM     20  C   UNL A   1      34.166  28.497  27.047  1.00  0.00     0.116 C 
BRANCH  20  21
ATOM     21  N   UNL A   1      33.826  29.849  27.467  1.00  0.00    -0.352 N 
ATOM     22  C   UNL A   1      34.589  30.748  28.172  1.00  0.00     0.251 C 
ATOM     23  H   UNL A   1      32.928  30.161  27.211  1.00  0.00     0.163 HD
ATOM     24  O   UNL A   1      34.107  31.813  28.546  1.00  0.00    -0.269 OA
BRANCH  22  25
ATOM     25  C   UNL A   1      35.986  30.409  28.512  1.00  0.00     0.039 A 
ATOM     26  C   UNL A   1      36.263  29.864  29.768  1.00  0.00     0.014 A 
ATOM     27  C   UNL A   1      37.012  30.597  27.581  1.00  0.00     0.014 A 
ATOM     28  C   UNL A   1      37.557  29.433  30.065  1.00  0.00     0.010 A 
ATOM     29  C   UNL A   1      38.284  30.106  27.852  1.00  0.00     0.010 A 
ATOM     30  C   UNL A   1      38.568  29.514  29.093  1.00  0.00    -0.014 A 
BRANCH  30  31
ATOM     31  C   UNL A   1      39.927  28.972  29.339  1.00  0.00     0.031 A 
ATOM     32  C   UNL A   1      40.997  29.858  29.912  1.00  0.00     0.074 A 
ATOM     33  C   UNL A   1      40.226  27.717  28.952  1.00  0.00     0.049 A 
ATOM     34  N   UNL A   1      42.269  29.607  30.091  1.00  0.00    -0.248 NA
ATOM     35  C   UNL A   1      40.590  31.215  30.309  1.00  0.00     0.031 C 
ATOM     36  C   UNL A   1      39.290  26.771  28.340  1.00  0.00     0.029 A 
ATOM     37  N   UNL A   1      41.413  27.029  28.997  1.00  0.00    -0.354 N 
ATOM     38  C   UNL A   1      42.817  30.781  30.590  1.00  0.00     0.074 A 
ATOM     39  C   UNL A   1      41.749  31.754  30.651  1.00  0.00     0.031 C 
ATOM     40  C   UNL A   1      39.936  25.625  28.074  1.00  0.00     0.029 A 
ATOM     41  C   UNL A   1      41.337  25.767  28.460  1.00  0.00     0.049 A 
ATOM     42  H   UNL A   1      42.239  27.404  29.378  1.00  0.00     0.167 HD
ATOM     43  C   UNL A   1      44.092  31.023  30.976  1.00  0.00     0.031 A 
ATOM     44  C   UNL A   1      42.291  24.834  28.280  1.00  0.00     0.031 A 
ATOM     45  C   UNL A   1      45.150  30.050  30.933  1.00  0.00     0.049 A 
ATOM     46  C   UNL A   1      43.698  25.123  28.719  1.00  0.00     0.074 A 
ATOM     47  C   UNL A   1      46.455  30.175  31.374  1.00  0.00     0.029 A 
ATOM     48  N   UNL A   1      45.023  28.771  30.412  1.00  0.00    -0.354 N 
ATOM     49  N   UNL A   1      44.184  26.212  29.265  1.00  0.00    -0.248 NA
ATOM     50  C   UNL A   1      44.685  24.051  28.528  1.00  0.00     0.031 C 
ATOM     51  C   UNL A   1      47.133  28.988  31.077  1.00  0.00     0.029 A 
ATOM     52  C   UNL A   1      46.235  28.106  30.496  1.00  0.00     0.049 A 
ATOM     53  H   UNL A   1      44.196  28.392  30.038  1.00  0.00     0.167 HD
ATOM     54  C   UNL A   1      45.527  25.949  29.502  1.00  0.00     0.074 A 
ATOM     55  C   UNL A   1      45.776  24.594  29.054  1.00  0.00     0.031 C 
ATOM     56  C   UNL A   1      46.467  26.758  30.046  1.00  0.00     0.031 A 
BRANCH  43  57
ATOM     57  C   UNL A   1      44.413  32.406  31.467  1.00  0.00    -0.014 A 
ATOM     58  C   UNL A   1      44.326  32.735  32.830  1.00  0.00     0.009 A 
ATOM     59  C   UNL A   1      44.827  33.390  30.557  1.00  0.00     0.009 A 
ATOM     60  C   UNL A   1      44.607  34.033  33.263  1.00  0.00     0.001 A 
ATOM     61  C   UNL A   1      45.136  34.679  30.996  1.00  0.00     0.001 A 
ATOM     62  C   UNL A   1      45.014  35.002  32.347  1.00  0.00     0.000 A 
ENDBRANCH  43  57
BRANCH  44  63
ATOM     63  C   UNL A   1      41.941  23.534  27.654  1.00  0.00    -0.014 A 
ATOM     64  C   UNL A   1      42.082  23.348  26.271  1.00  0.00     0.009 A 
ATOM     65  C   UNL A   1      41.476  22.466  28.439  1.00  0.00     0.009 A 
ATOM     66  C   UNL A   1      41.747  22.126  25.683  1.00  0.00     0.001 A 
ATOM     67  C   UNL A   1      41.166  21.238  27.852  1.00  0.00     0.001 A 
ATOM     68  C   UNL A   1      41.295  21.071  26.473  1.00  0.00     0.000 A 
ENDBRANCH  44  63
BRANCH  56  69
ATOM     69  C   UNL A   1      47.848  26.194  30.216  1.00  0.00    -0.014 A 
ATOM     70  C   UNL A   1      48.769  26.196  29.157  1.00  0.00     0.009 A 
ATOM     71  C   UNL A   1      48.250  25.708  31.470  1.00  0.00     0.009 A 
ATOM     72  C   UNL A   1      50.061  25.701  29.348  1.00  0.00     0.001 A 
ATOM     73  C   UNL A   1      49.549  25.238  31.663  1.00  0.00     0.001 A 
ATOM     74  C   UNL A   1      50.452  25.229  30.601  1.00  0.00     0.000 A 
ENDBRANCH  56  69
ENDBRANCH  30  31
ENDBRANCH  22  25
ENDBRANCH  20  21
ENDBRANCH  19  20
ENDBRANCH   1  19
TORSDOF 13
ENDMDL
