MODEL 1
REMARK VINA RESULT:     -11.7      0.000      0.000
REMARK SMILES O=C(NCCCCNC(=O)c1cc(Cl)ccc1N1C(=O)CC2(CCCC2)C1=O)c1ccc(-c2c3nc(c(-c4ccccc4)c4ccc([nH]4)c(-c4ccccc4)c4nc(c(-c5ccccc5)c5ccc2[nH]5)C=C4)C=C3)cc1
REMARK SMILES IDX 5 1 4 2 3 3 1 4 2 5 29 7 30 8 76 9 31 10 75 11 32 12 33 13
REMARK SMILES IDX 34 14 69 15 35 16 74 17 68 18 70 19 36 20 73 21 67 22 66 23
REMARK SMILES IDX 37 25 59 26 44 27 58 28 45 29 48 30 57 31 71 32 46 33 47 34
REMARK SMILES IDX 56 36 72 37 49 38 38 39 39 40 43 41 40 42 42 43 41 44 60 45
REMARK SMILES IDX 61 46 65 47 62 48 64 49 63 50 50 51 51 52 55 53 52 54 54 55
REMARK SMILES IDX 53 56 6 57 7 58 8 59 9 60 10 62 11 63 12 64 17 65 13 66
REMARK SMILES IDX 16 67 14 68 15 69 18 70 19 71 27 72 20 73 21 74 22 75 28 76
REMARK SMILES IDX 23 77 26 78 24 79 25 80
REMARK H PARENT 3 6 70 24 48 35 8 61
REMARK Flexibility Score: inf
ROOT
ATOM      1  C   UNL A   1      38.884  20.968  25.371  1.00  0.00     0.023 C 
ENDROOT
BRANCH   1   2
ATOM      2  C   UNL A   1      39.391  19.899  26.327  1.00  0.00     0.116 C 
BRANCH   2   3
ATOM      3  N   UNL A   1      40.602  19.240  25.860  1.00  0.00    -0.352 N 
ATOM      4  O   UNL A   1      42.778  19.088  25.270  1.00  0.00    -0.269 OA
ATOM      5  C   UNL A   1      41.885  19.729  25.812  1.00  0.00     0.251 C 
ATOM      6  H   UNL A   1      40.486  18.318  25.535  1.00  0.00     0.163 HD
BRANCH   5   7
ATOM      7  C   UNL A   1      42.177  21.055  26.399  1.00  0.00     0.039 A 
ATOM      8  C   UNL A   1      42.141  21.236  27.783  1.00  0.00     0.014 A 
ATOM      9  C   UNL A   1      42.478  22.126  25.553  1.00  0.00     0.014 A 
ATOM     10  C   UNL A   1      42.264  22.513  28.312  1.00  0.00     0.010 A 
ATOM     11  C   UNL A   1      42.694  23.396  26.097  1.00  0.00     0.010 A 
ATOM     12  C   UNL A   1      42.567  23.602  27.478  1.00  0.00    -0.014 A 
BRANCH  12  13
ATOM     13  C   UNL A   1      42.854  24.920  28.096  1.00  0.00     0.031 A 
ATOM     14  C   UNL A   1      44.239  25.303  28.532  1.00  0.00     0.074 A 
ATOM     15  C   UNL A   1      41.831  25.786  28.239  1.00  0.00     0.049 A 
ATOM     16  N   UNL A   1      44.646  26.426  29.069  1.00  0.00    -0.248 NA
ATOM     17  C   UNL A   1      45.304  24.305  28.352  1.00  0.00     0.031 C 
ATOM     18  C   UNL A   1      40.439  25.517  27.860  1.00  0.00     0.029 A 
ATOM     19  N   UNL A   1      41.801  27.068  28.721  1.00  0.00    -0.354 N 
ATOM     20  C   UNL A   1      46.004  26.265  29.310  1.00  0.00     0.074 A 
ATOM     21  C   UNL A   1      46.353  24.929  28.874  1.00  0.00     0.031 C 
ATOM     22  C   UNL A   1      39.703  26.616  28.080  1.00  0.00     0.029 A 
ATOM     23  C   UNL A   1      40.550  27.638  28.679  1.00  0.00     0.049 A 
ATOM     24  H   UNL A   1      42.596  27.537  29.063  1.00  0.00     0.167 HD
ATOM     25  C   UNL A   1      46.876  27.153  29.845  1.00  0.00     0.031 A 
ATOM     26  C   UNL A   1      40.122  28.841  29.099  1.00  0.00     0.031 A 
ATOM     27  C   UNL A   1      46.523  28.483  30.271  1.00  0.00     0.049 A 
ATOM     28  C   UNL A   1      41.110  29.785  29.718  1.00  0.00     0.074 A 
ATOM     29  C   UNL A   1      47.349  29.471  30.779  1.00  0.00     0.029 A 
ATOM     30  N   UNL A   1      45.241  29.008  30.247  1.00  0.00    -0.354 N 
ATOM     31  N   UNL A   1      42.400  29.634  29.887  1.00  0.00    -0.248 NA
ATOM     32  C   UNL A   1      40.579  31.065  30.206  1.00  0.00     0.031 C 
ATOM     33  C   UNL A   1      46.558  30.573  31.118  1.00  0.00     0.029 A 
ATOM     34  C   UNL A   1      45.248  30.293  30.766  1.00  0.00     0.049 A 
ATOM     35  H   UNL A   1      44.444  28.538  29.910  1.00  0.00     0.167 HD
ATOM     36  C   UNL A   1      42.839  30.804  30.492  1.00  0.00     0.074 A 
ATOM     37  C   UNL A   1      41.682  31.664  30.629  1.00  0.00     0.031 C 
ATOM     38  C   UNL A   1      44.086  31.132  30.902  1.00  0.00     0.031 A 
BRANCH  25  39
ATOM     39  C   UNL A   1      48.304  26.719  30.030  1.00  0.00    -0.014 A 
ATOM     40  C   UNL A   1      48.713  26.018  31.174  1.00  0.00     0.009 A 
ATOM     41  C   UNL A   1      49.233  26.935  28.998  1.00  0.00     0.009 A 
ATOM     42  C   UNL A   1      50.026  25.554  31.286  1.00  0.00     0.001 A 
ATOM     43  C   UNL A   1      50.538  26.450  29.103  1.00  0.00     0.001 A 
ATOM     44  C   UNL A   1      50.935  25.763  30.249  1.00  0.00     0.000 A 
ENDBRANCH  25  39
BRANCH  26  45
ATOM     45  C   UNL A   1      38.686  29.201  28.987  1.00  0.00    -0.014 A 
ATOM     46  C   UNL A   1      38.164  29.712  27.790  1.00  0.00     0.009 A 
ATOM     47  C   UNL A   1      37.829  29.041  30.088  1.00  0.00     0.009 A 
ATOM     48  C   UNL A   1      36.820  30.083  27.708  1.00  0.00     0.001 A 
ATOM     49  C   UNL A   1      36.479  29.381  29.993  1.00  0.00     0.001 A 
ATOM     50  C   UNL A   1      35.979  29.914  28.807  1.00  0.00     0.000 A 
ENDBRANCH  26  45
BRANCH  38  51
ATOM     51  C   UNL A   1      44.260  32.488  31.522  1.00  0.00    -0.014 A 
ATOM     52  C   UNL A   1      44.541  33.615  30.733  1.00  0.00     0.009 A 
ATOM     53  C   UNL A   1      44.124  32.643  32.910  1.00  0.00     0.009 A 
ATOM     54  C   UNL A   1      44.720  34.864  31.329  1.00  0.00     0.001 A 
ATOM     55  C   UNL A   1      44.274  33.899  33.499  1.00  0.00     0.001 A 
ATOM     56  C   UNL A   1      44.583  35.006  32.709  1.00  0.00     0.000 A 
ENDBRANCH  38  51
ENDBRANCH  12  13
ENDBRANCH   5   7
ENDBRANCH   2   3
ENDBRANCH   1   2
BRANCH   1  57
ATOM     57  C   UNL A   1      38.668  22.343  25.995  1.00  0.00     0.023 C 
BRANCH  57  58
ATOM     58  C   UNL A   1      37.298  22.961  25.742  1.00  0.00     0.116 C 
BRANCH  58  59
ATOM     59  N   UNL A   1      36.945  23.011  24.332  1.00  0.00    -0.352 N 
ATOM     60  C   UNL A   1      35.745  23.356  23.759  1.00  0.00     0.253 C 
ATOM     61  H   UNL A   1      37.661  22.763  23.704  1.00  0.00     0.163 HD
ATOM     62  O   UNL A   1      35.558  23.214  22.554  1.00  0.00    -0.269 OA
BRANCH  60  63
ATOM     63  C   UNL A   1      34.671  23.921  24.605  1.00  0.00     0.065 A 
ATOM     64  C   UNL A   1      34.731  25.299  24.882  1.00  0.00     0.036 A 
ATOM     65  C   UNL A   1      33.553  23.160  24.999  1.00  0.00     0.065 A 
ATOM     66  C   UNL A   1      33.741  25.897  25.651  1.00  0.00     0.041 A 
ATOM     67  C   UNL A   1      32.544  23.803  25.738  1.00  0.00     0.029 A 
ATOM     68  Cl  UNL A   1      33.872  27.560  26.063  1.00  0.00    -0.084 Cl
ATOM     69  C   UNL A   1      32.652  25.153  26.089  1.00  0.00     0.023 A 
BRANCH  65  70
ATOM     70  N   UNL A   1      33.402  21.788  24.672  1.00  0.00    -0.249 N 
ATOM     71  C   UNL A   1      32.600  21.338  23.651  1.00  0.00     0.234 C 
ATOM     72  C   UNL A   1      33.991  20.759  25.371  1.00  0.00     0.240 C 
ATOM     73  O   UNL A   1      31.850  21.986  22.936  1.00  0.00    -0.274 OA
ATOM     74  C   UNL A   1      32.833  19.866  23.469  1.00  0.00     0.118 C 
ATOM     75  C   UNL A   1      33.574  19.450  24.736  1.00  0.00     0.059 C 
ATOM     76  O   UNL A   1      34.621  20.839  26.419  1.00  0.00    -0.273 OA
ATOM     77  C   UNL A   1      32.694  18.623  25.679  1.00  0.00     0.017 C 
ATOM     78  C   UNL A   1      34.751  18.510  24.482  1.00  0.00     0.017 C 
ATOM     79  C   UNL A   1      32.814  17.189  25.166  1.00  0.00     0.001 C 
ATOM     80  C   UNL A   1      34.118  17.126  24.373  1.00  0.00     0.001 C 
ENDBRANCH  65  70
ENDBRANCH  60  63
ENDBRANCH  58  59
ENDBRANCH  57  58
ENDBRANCH   1  57
TORSDOF 12
ENDMDL
MODEL 2
REMARK VINA RESULT:     -11.7      4.254      9.002
REMARK SMILES O=C(NCCCCNC(=O)c1cc(Cl)ccc1N1C(=O)CC2(CCCC2)C1=O)c1ccc(-c2c3nc(c(-c4ccccc4)c4ccc([nH]4)c(-c4ccccc4)c4nc(c(-c5ccccc5)c5ccc2[nH]5)C=C4)C=C3)cc1
REMARK SMILES IDX 5 1 4 2 3 3 1 4 2 5 29 7 30 8 76 9 31 10 75 11 32 12 33 13
REMARK SMILES IDX 34 14 69 15 35 16 74 17 68 18 70 19 36 20 73 21 67 22 66 23
REMARK SMILES IDX 37 25 59 26 44 27 58 28 45 29 48 30 57 31 71 32 46 33 47 34
REMARK SMILES IDX 56 36 72 37 49 38 38 39 39 40 43 41 40 42 42 43 41 44 60 45
REMARK SMILES IDX 61 46 65 47 62 48 64 49 63 50 50 51 51 52 55 53 52 54 54 55
REMARK SMILES IDX 53 56 6 57 7 58 8 59 9 60 10 62 11 63 12 64 17 65 13 66
REMARK SMILES IDX 16 67 14 68 15 69 18 70 19 71 27 72 20 73 21 74 22 75 28 76
REMARK SMILES IDX 23 77 26 78 24 79 25 80
REMARK H PARENT 3 6 70 24 48 35 8 61
REMARK Flexibility Score: inf
ROOT
ATOM      1  C   UNL A   1      31.321  32.060  26.904  1.00  0.00     0.023 C 
ENDROOT
BRANCH   1   2
ATOM      2  C   UNL A   1      32.618  32.829  27.107  1.00  0.00     0.116 C 
BRANCH   2   3
ATOM      3  N   UNL A   1      32.416  34.156  27.669  1.00  0.00    -0.352 N 
ATOM      4  O   UNL A   1      32.754  35.870  29.103  1.00  0.00    -0.269 OA
ATOM      5  C   UNL A   1      33.133  34.795  28.651  1.00  0.00     0.251 C 
ATOM      6  H   UNL A   1      31.661  34.666  27.294  1.00  0.00     0.163 HD
BRANCH   5   7
ATOM      7  C   UNL A   1      34.360  34.161  29.180  1.00  0.00     0.039 A 
ATOM      8  C   UNL A   1      35.591  34.384  28.561  1.00  0.00     0.014 A 
ATOM      9  C   UNL A   1      34.271  33.327  30.297  1.00  0.00     0.014 A 
ATOM     10  C   UNL A   1      36.706  33.664  28.970  1.00  0.00     0.010 A 
ATOM     11  C   UNL A   1      35.415  32.674  30.766  1.00  0.00     0.010 A 
ATOM     12  C   UNL A   1      36.636  32.822  30.091  1.00  0.00    -0.014 A 
BRANCH  12  13
ATOM     13  C   UNL A   1      37.883  32.199  30.598  1.00  0.00     0.031 A 
ATOM     14  C   UNL A   1      38.654  32.791  31.743  1.00  0.00     0.074 A 
ATOM     15  C   UNL A   1      38.303  31.060  30.012  1.00  0.00     0.049 A 
ATOM     16  N   UNL A   1      39.750  32.348  32.307  1.00  0.00    -0.248 NA
ATOM     17  C   UNL A   1      38.141  34.039  32.329  1.00  0.00     0.031 C 
ATOM     18  C   UNL A   1      37.639  30.398  28.883  1.00  0.00     0.029 A 
ATOM     19  N   UNL A   1      39.370  30.246  30.290  1.00  0.00    -0.354 N 
ATOM     20  C   UNL A   1      40.069  33.268  33.298  1.00  0.00     0.074 A 
ATOM     21  C   UNL A   1      39.060  34.305  33.250  1.00  0.00     0.031 C 
ATOM     22  C   UNL A   1      38.286  29.259  28.597  1.00  0.00     0.029 A 
ATOM     23  C   UNL A   1      39.446  29.146  29.470  1.00  0.00     0.049 A 
ATOM     24  H   UNL A   1      40.019  30.431  31.007  1.00  0.00     0.167 HD
ATOM     25  C   UNL A   1      41.109  33.246  34.165  1.00  0.00     0.031 A 
ATOM     26  C   UNL A   1      40.362  28.163  29.407  1.00  0.00     0.031 A 
ATOM     27  C   UNL A   1      42.107  32.207  34.211  1.00  0.00     0.049 A 
ATOM     28  C   UNL A   1      41.519  28.190  30.361  1.00  0.00     0.074 A 
ATOM     29  C   UNL A   1      43.170  32.074  35.088  1.00  0.00     0.029 A 
ATOM     30  N   UNL A   1      42.170  31.131  33.341  1.00  0.00    -0.354 N 
ATOM     31  N   UNL A   1      41.773  29.040  31.325  1.00  0.00    -0.248 NA
ATOM     32  C   UNL A   1      42.516  27.122  30.214  1.00  0.00     0.031 C 
ATOM     33  C   UNL A   1      43.911  30.950  34.711  1.00  0.00     0.029 A 
ATOM     34  C   UNL A   1      43.276  30.349  33.637  1.00  0.00     0.049 A 
ATOM     35  H   UNL A   1      41.525  30.948  32.620  1.00  0.00     0.167 HD
ATOM     36  C   UNL A   1      42.954  28.604  31.908  1.00  0.00     0.074 A 
ATOM     37  C   UNL A   1      43.347  27.397  31.209  1.00  0.00     0.031 C 
ATOM     38  C   UNL A   1      43.655  29.157  32.926  1.00  0.00     0.031 A 
BRANCH  25  39
ATOM     39  C   UNL A   1      41.251  34.389  35.131  1.00  0.00    -0.014 A 
ATOM     40  C   UNL A   1      41.977  35.542  34.798  1.00  0.00     0.009 A 
ATOM     41  C   UNL A   1      40.565  34.349  36.357  1.00  0.00     0.009 A 
ATOM     42  C   UNL A   1      42.026  36.625  35.680  1.00  0.00     0.001 A 
ATOM     43  C   UNL A   1      40.597  35.442  37.226  1.00  0.00     0.001 A 
ATOM     44  C   UNL A   1      41.330  36.578  36.888  1.00  0.00     0.000 A 
ENDBRANCH  25  39
BRANCH  26  45
ATOM     45  C   UNL A   1      40.242  27.100  28.378  1.00  0.00    -0.014 A 
ATOM     46  C   UNL A   1      40.831  27.253  27.114  1.00  0.00     0.009 A 
ATOM     47  C   UNL A   1      39.526  25.924  28.656  1.00  0.00     0.009 A 
ATOM     48  C   UNL A   1      40.678  26.263  26.140  1.00  0.00     0.001 A 
ATOM     49  C   UNL A   1      39.404  24.923  27.693  1.00  0.00     0.001 A 
ATOM     50  C   UNL A   1      39.969  25.099  26.431  1.00  0.00     0.000 A 
ENDBRANCH  26  45
BRANCH  38  51
ATOM     51  C   UNL A   1      44.906  28.445  33.351  1.00  0.00    -0.014 A 
ATOM     52  C   UNL A   1      44.868  27.420  34.309  1.00  0.00     0.009 A 
ATOM     53  C   UNL A   1      46.137  28.795  32.775  1.00  0.00     0.009 A 
ATOM     54  C   UNL A   1      46.045  26.784  34.708  1.00  0.00     0.001 A 
ATOM     55  C   UNL A   1      47.307  28.137  33.154  1.00  0.00     0.001 A 
ATOM     56  C   UNL A   1      47.262  27.140  34.127  1.00  0.00     0.000 A 
ENDBRANCH  38  51
ENDBRANCH  12  13
ENDBRANCH   5   7
ENDBRANCH   2   3
ENDBRANCH   1   2
BRANCH   1  57
ATOM     57  C   UNL A   1      31.339  31.055  25.756  1.00  0.00     0.023 C 
BRANCH  57  58
ATOM     58  C   UNL A   1      32.340  29.917  25.909  1.00  0.00     0.116 C 
BRANCH  58  59
ATOM     59  N   UNL A   1      33.059  29.618  24.679  1.00  0.00    -0.352 N 
ATOM     60  C   UNL A   1      32.631  28.902  23.588  1.00  0.00     0.253 C 
ATOM     61  H   UNL A   1      33.974  29.977  24.622  1.00  0.00     0.163 HD
ATOM     62  O   UNL A   1      33.407  28.615  22.680  1.00  0.00    -0.269 OA
BRANCH  60  63
ATOM     63  C   UNL A   1      31.214  28.486  23.501  1.00  0.00     0.065 A 
ATOM     64  C   UNL A   1      30.344  29.322  22.779  1.00  0.00     0.036 A 
ATOM     65  C   UNL A   1      30.772  27.239  23.983  1.00  0.00     0.065 A 
ATOM     66  C   UNL A   1      29.006  28.977  22.639  1.00  0.00     0.041 A 
ATOM     67  C   UNL A   1      29.423  26.896  23.788  1.00  0.00     0.029 A 
ATOM     68  Cl  UNL A   1      27.929  30.050  21.837  1.00  0.00    -0.084 Cl
ATOM     69  C   UNL A   1      28.538  27.771  23.149  1.00  0.00     0.023 A 
BRANCH  65  70
ATOM     70  N   UNL A   1      31.629  26.320  24.643  1.00  0.00    -0.249 N 
ATOM     71  C   UNL A   1      31.726  26.225  26.010  1.00  0.00     0.234 C 
ATOM     72  C   UNL A   1      32.493  25.468  23.994  1.00  0.00     0.240 C 
ATOM     73  O   UNL A   1      31.194  26.926  26.857  1.00  0.00    -0.274 OA
ATOM     74  C   UNL A   1      32.568  25.030  26.351  1.00  0.00     0.118 C 
ATOM     75  C   UNL A   1      33.248  24.669  25.034  1.00  0.00     0.059 C 
ATOM     76  O   UNL A   1      32.746  25.440  22.795  1.00  0.00    -0.273 OA
ATOM     77  C   UNL A   1      34.740  25.016  25.036  1.00  0.00     0.017 C 
ATOM     78  C   UNL A   1      33.264  23.171  24.738  1.00  0.00     0.017 C 
ATOM     79  C   UNL A   1      35.419  23.814  25.688  1.00  0.00     0.001 C 
ATOM     80  C   UNL A   1      34.459  22.638  25.524  1.00  0.00     0.001 C 
ENDBRANCH  65  70
ENDBRANCH  60  63
ENDBRANCH  58  59
ENDBRANCH  57  58
ENDBRANCH   1  57
TORSDOF 12
ENDMDL
MODEL 3
REMARK VINA RESULT:     -11.7      1.529      3.338
REMARK SMILES O=C(NCCCCNC(=O)c1cc(Cl)ccc1N1C(=O)CC2(CCCC2)C1=O)c1ccc(-c2c3nc(c(-c4ccccc4)c4ccc([nH]4)c(-c4ccccc4)c4nc(c(-c5ccccc5)c5ccc2[nH]5)C=C4)C=C3)cc1
REMARK SMILES IDX 5 1 4 2 3 3 1 4 2 5 29 7 30 8 76 9 31 10 75 11 32 12 33 13
REMARK SMILES IDX 34 14 69 15 35 16 74 17 68 18 70 19 36 20 73 21 67 22 66 23
REMARK SMILES IDX 37 25 59 26 44 27 58 28 45 29 48 30 57 31 71 32 46 33 47 34
REMARK SMILES IDX 56 36 72 37 49 38 38 39 39 40 43 41 40 42 42 43 41 44 60 45
REMARK SMILES IDX 61 46 65 47 62 48 64 49 63 50 50 51 51 52 55 53 52 54 54 55
REMARK SMILES IDX 53 56 6 57 7 58 8 59 9 60 10 62 11 63 12 64 17 65 13 66
REMARK SMILES IDX 16 67 14 68 15 69 18 70 19 71 27 72 20 73 21 74 22 75 28 76
REMARK SMILES IDX 23 77 26 78 24 79 25 80
REMARK H PARENT 3 6 70 24 48 35 8 61
REMARK Flexibility Score: inf
ROOT
ATOM      1  C   UNL A   1      38.138  19.799  24.753  1.00  0.00     0.023 C 
ENDROOT
BRANCH   1   2
ATOM      2  C   UNL A   1      39.147  20.086  25.855  1.00  0.00     0.116 C 
BRANCH   2   3
ATOM      3  N   UNL A   1      40.318  19.224  25.801  1.00  0.00    -0.352 N 
ATOM      4  O   UNL A   1      42.520  18.719  25.848  1.00  0.00    -0.269 OA
ATOM      5  C   UNL A   1      41.630  19.534  26.063  1.00  0.00     0.251 C 
ATOM      6  H   UNL A   1      40.146  18.290  25.539  1.00  0.00     0.163 HD
BRANCH   5   7
ATOM      7  C   UNL A   1      41.966  20.875  26.588  1.00  0.00     0.039 A 
ATOM      8  C   UNL A   1      41.898  21.133  27.958  1.00  0.00     0.014 A 
ATOM      9  C   UNL A   1      42.339  21.884  25.696  1.00  0.00     0.014 A 
ATOM     10  C   UNL A   1      42.064  22.431  28.422  1.00  0.00     0.010 A 
ATOM     11  C   UNL A   1      42.598  23.171  26.177  1.00  0.00     0.010 A 
ATOM     12  C   UNL A   1      42.441  23.458  27.542  1.00  0.00    -0.014 A 
BRANCH  12  13
ATOM     13  C   UNL A   1      42.770  24.793  28.097  1.00  0.00     0.031 A 
ATOM     14  C   UNL A   1      44.176  25.170  28.468  1.00  0.00     0.074 A 
ATOM     15  C   UNL A   1      41.767  25.682  28.242  1.00  0.00     0.049 A 
ATOM     16  N   UNL A   1      44.619  26.306  28.946  1.00  0.00    -0.248 NA
ATOM     17  C   UNL A   1      45.219  24.148  28.288  1.00  0.00     0.031 C 
ATOM     18  C   UNL A   1      40.358  25.421  27.924  1.00  0.00     0.029 A 
ATOM     19  N   UNL A   1      41.773  26.982  28.674  1.00  0.00    -0.354 N 
ATOM     20  C   UNL A   1      45.983  26.131  29.143  1.00  0.00     0.074 A 
ATOM     21  C   UNL A   1      46.295  24.774  28.748  1.00  0.00     0.031 C 
ATOM     22  C   UNL A   1      39.647  26.540  28.127  1.00  0.00     0.029 A 
ATOM     23  C   UNL A   1      40.531  27.570  28.655  1.00  0.00     0.049 A 
ATOM     24  H   UNL A   1      42.587  27.450  28.969  1.00  0.00     0.167 HD
ATOM     25  C   UNL A   1      46.887  27.025  29.611  1.00  0.00     0.031 A 
ATOM     26  C   UNL A   1      40.137  28.795  29.043  1.00  0.00     0.031 A 
ATOM     27  C   UNL A   1      46.570  28.376  29.998  1.00  0.00     0.049 A 
ATOM     28  C   UNL A   1      41.160  29.746  29.589  1.00  0.00     0.074 A 
ATOM     29  C   UNL A   1      47.429  29.369  30.438  1.00  0.00     0.029 A 
ATOM     30  N   UNL A   1      45.296  28.922  29.999  1.00  0.00    -0.354 N 
ATOM     31  N   UNL A   1      42.453  29.580  29.718  1.00  0.00    -0.248 NA
ATOM     32  C   UNL A   1      40.667  31.052  30.045  1.00  0.00     0.031 C 
ATOM     33  C   UNL A   1      46.668  30.496  30.761  1.00  0.00     0.029 A 
ATOM     34  C   UNL A   1      45.341  30.225  30.467  1.00  0.00     0.049 A 
ATOM     35  H   UNL A   1      44.480  28.452  29.710  1.00  0.00     0.167 HD
ATOM     36  C   UNL A   1      42.932  30.764  30.260  1.00  0.00     0.074 A 
ATOM     37  C   UNL A   1      41.794  31.649  30.405  1.00  0.00     0.031 C 
ATOM     38  C   UNL A   1      44.198  31.087  30.612  1.00  0.00     0.031 A 
BRANCH  25  39
ATOM     39  C   UNL A   1      48.314  26.575  29.762  1.00  0.00    -0.014 A 
ATOM     40  C   UNL A   1      48.746  25.882  30.903  1.00  0.00     0.009 A 
ATOM     41  C   UNL A   1      49.216  26.766  28.703  1.00  0.00     0.009 A 
ATOM     42  C   UNL A   1      50.056  25.403  30.985  1.00  0.00     0.001 A 
ATOM     43  C   UNL A   1      50.517  26.266  28.777  1.00  0.00     0.001 A 
ATOM     44  C   UNL A   1      50.937  25.587  29.920  1.00  0.00     0.000 A 
ENDBRANCH  25  39
BRANCH  26  45
ATOM     45  C   UNL A   1      38.703  29.174  28.968  1.00  0.00    -0.014 A 
ATOM     46  C   UNL A   1      37.865  29.042  30.086  1.00  0.00     0.009 A 
ATOM     47  C   UNL A   1      38.162  29.663  27.768  1.00  0.00     0.009 A 
ATOM     48  C   UNL A   1      36.509  29.364  29.993  1.00  0.00     0.001 A 
ATOM     49  C   UNL A   1      36.815  30.016  27.688  1.00  0.00     0.001 A 
ATOM     50  C   UNL A   1      35.987  29.854  28.796  1.00  0.00     0.000 A 
ENDBRANCH  26  45
BRANCH  38  51
ATOM     51  C   UNL A   1      44.415  32.464  31.172  1.00  0.00    -0.014 A 
ATOM     52  C   UNL A   1      44.686  33.554  30.331  1.00  0.00     0.009 A 
ATOM     53  C   UNL A   1      44.330  32.675  32.556  1.00  0.00     0.009 A 
ATOM     54  C   UNL A   1      44.906  34.822  30.870  1.00  0.00     0.001 A 
ATOM     55  C   UNL A   1      44.521  33.949  33.090  1.00  0.00     0.001 A 
ATOM     56  C   UNL A   1      44.819  35.019  32.248  1.00  0.00     0.000 A 
ENDBRANCH  38  51
ENDBRANCH  12  13
ENDBRANCH   5   7
ENDBRANCH   2   3
ENDBRANCH   1   2
BRANCH   1  57
ATOM     57  C   UNL A   1      36.719  20.281  25.034  1.00  0.00     0.023 C 
BRANCH  57  58
ATOM     58  C   UNL A   1      36.597  21.757  25.393  1.00  0.00     0.116 C 
BRANCH  58  59
ATOM     59  N   UNL A   1      35.698  22.001  26.512  1.00  0.00    -0.352 N 
ATOM     60  C   UNL A   1      34.329  21.914  26.547  1.00  0.00     0.253 C 
ATOM     61  H   UNL A   1      36.131  22.265  27.356  1.00  0.00     0.163 HD
ATOM     62  O   UNL A   1      33.698  22.289  27.532  1.00  0.00    -0.269 OA
BRANCH  60  63
ATOM     63  C   UNL A   1      33.606  21.346  25.387  1.00  0.00     0.065 A 
ATOM     64  C   UNL A   1      33.319  19.970  25.422  1.00  0.00     0.036 A 
ATOM     65  C   UNL A   1      33.090  22.159  24.359  1.00  0.00     0.065 A 
ATOM     66  C   UNL A   1      32.623  19.378  24.376  1.00  0.00     0.041 A 
ATOM     67  C   UNL A   1      32.350  21.540  23.336  1.00  0.00     0.029 A 
ATOM     68  Cl  UNL A   1      32.360  17.680  24.381  1.00  0.00    -0.084 Cl
ATOM     69  C   UNL A   1      32.145  20.156  23.328  1.00  0.00     0.023 A 
BRANCH  65  70
ATOM     70  N   UNL A   1      33.276  23.565  24.321  1.00  0.00    -0.249 N 
ATOM     71  C   UNL A   1      34.278  24.175  23.605  1.00  0.00     0.234 C 
ATOM     72  C   UNL A   1      32.518  24.464  25.035  1.00  0.00     0.240 C 
ATOM     73  O   UNL A   1      35.188  23.652  22.979  1.00  0.00    -0.274 OA
ATOM     74  C   UNL A   1      34.056  25.660  23.636  1.00  0.00     0.118 C 
ATOM     75  C   UNL A   1      33.034  25.857  24.752  1.00  0.00     0.059 C 
ATOM     76  O   UNL A   1      31.667  24.210  25.881  1.00  0.00    -0.273 OA
ATOM     77  C   UNL A   1      33.655  26.492  26.001  1.00  0.00     0.017 C 
ATOM     78  C   UNL A   1      31.924  26.846  24.405  1.00  0.00     0.017 C 
ATOM     79  C   UNL A   1      33.618  27.995  25.734  1.00  0.00     0.001 C 
ATOM     80  C   UNL A   1      32.529  28.217  24.687  1.00  0.00     0.001 C 
ENDBRANCH  65  70
ENDBRANCH  60  63
ENDBRANCH  58  59
ENDBRANCH  57  58
ENDBRANCH   1  57
TORSDOF 12
ENDMDL
