MODEL 1
REMARK VINA RESULT:     -10.8      0.000      0.000
REMARK SMILES CC[C@](C)(NS(=O)(=O)c1ccc(OC)c(F)c1)C(=O)NCCCCNC(=O)c1ccc(-c2c3nc(c(-c4ccccc4)c4ccc([nH]4)c(-c4ccccc4)c4nc(c(-c5ccccc5)c5ccc2[nH]5)C=C4)C=C3)cc1
REMARK SMILES IDX 21 1 20 2 18 3 19 4 3 6 4 7 2 8 1 9 5 10 6 12 7 13 8 14 9 15
REMARK SMILES IDX 10 16 17 17 11 18 15 19 12 20 16 21 13 22 14 23 22 24 23 25
REMARK SMILES IDX 24 26 25 27 26 28 27 30 28 31 29 32 75 33 30 34 74 35 31 36
REMARK SMILES IDX 32 37 33 38 68 39 34 40 73 41 67 42 69 43 35 44 72 45 66 46
REMARK SMILES IDX 65 47 36 49 58 50 43 51 57 52 44 53 47 54 56 55 70 56 45 57
REMARK SMILES IDX 46 58 55 60 71 61 48 62 37 63 38 64 42 65 39 66 41 67 40 68
REMARK SMILES IDX 59 69 60 70 64 71 61 72 63 73 62 74 49 75 50 76 54 77 51 78
REMARK SMILES IDX 53 79 52 80
REMARK H PARENT 20 5 5 11 25 29 69 48 47 59
REMARK Flexibility Score: inf
ROOT
ATOM      1  C   UNL A   1      37.129  21.890  24.602  1.00  0.00     0.116 C 
ENDROOT
BRANCH   1   2
ATOM      2  N   UNL A   1      36.338  22.717  23.694  1.00  0.00    -0.354 N 
ATOM      3  C   UNL A   1      35.142  23.382  23.691  1.00  0.00     0.241 C 
ATOM      4  O   UNL A   1      35.000  24.128  22.708  1.00  0.00    -0.273 OA
ATOM      5  H   UNL A   1      36.801  22.829  22.832  1.00  0.00     0.163 HD
BRANCH   3   6
ATOM      6  C   UNL A   1      33.987  23.248  24.716  1.00  0.00     0.108 C 
ATOM      7  C   UNL A   1      32.666  23.695  23.999  1.00  0.00     0.040 C 
BRANCH   6   8
ATOM      8  C   UNL A   1      34.250  24.167  25.948  1.00  0.00     0.030 C 
ATOM      9  C   UNL A   1      33.831  25.638  25.859  1.00  0.00     0.006 C 
ENDBRANCH   6   8
BRANCH   6  10
ATOM     10  N   UNL A   1      33.600  21.877  25.138  1.00  0.00    -0.196 NA
ATOM     11  H   UNL A   1      33.313  22.001  26.109  1.00  0.00     0.142 HD
BRANCH  10  12
ATOM     12  S   UNL A   1      32.500  20.790  24.546  1.00  0.00     0.241 S 
ATOM     13  O   UNL A   1      31.304  20.905  25.356  1.00  0.00    -0.207 OA
ATOM     14  O   UNL A   1      32.430  21.094  23.138  1.00  0.00    -0.207 OA
BRANCH  12  15
ATOM     15  C   UNL A   1      33.086  19.108  24.676  1.00  0.00     0.085 A 
ATOM     16  C   UNL A   1      32.664  18.323  25.741  1.00  0.00     0.026 A 
ATOM     17  C   UNL A   1      33.704  18.457  23.610  1.00  0.00     0.065 A 
ATOM     18  C   UNL A   1      32.897  16.958  25.829  1.00  0.00     0.051 A 
ATOM     19  C   UNL A   1      33.903  17.062  23.668  1.00  0.00     0.166 A 
ATOM     20  C   UNL A   1      33.509  16.304  24.777  1.00  0.00     0.154 A 
ATOM     21  F   UNL A   1      34.450  16.468  22.597  1.00  0.00    -0.203 F 
BRANCH  20  22
ATOM     22  O   UNL A   1      33.602  14.961  24.991  1.00  0.00    -0.494 OA
ATOM     23  C   UNL A   1      32.542  14.334  25.687  1.00  0.00     0.278 C 
ENDBRANCH  20  22
ENDBRANCH  12  15
ENDBRANCH  10  12
ENDBRANCH   6  10
ENDBRANCH   3   6
ENDBRANCH   1   2
BRANCH   1  24
ATOM     24  C   UNL A   1      37.079  20.345  24.589  1.00  0.00     0.023 C 
BRANCH  24  25
ATOM     25  C   UNL A   1      38.166  19.422  25.156  1.00  0.00     0.023 C 
BRANCH  25  26
ATOM     26  C   UNL A   1      39.318  20.085  25.895  1.00  0.00     0.116 C 
BRANCH  26  27
ATOM     27  N   UNL A   1      40.463  19.190  25.941  1.00  0.00    -0.352 N 
ATOM     28  C   UNL A   1      41.798  19.495  26.017  1.00  0.00     0.251 C 
ATOM     29  H   UNL A   1      40.250  18.230  25.914  1.00  0.00     0.163 HD
ATOM     30  O   UNL A   1      42.631  18.645  25.713  1.00  0.00    -0.269 OA
BRANCH  28  31
ATOM     31  C   UNL A   1      42.250  20.826  26.484  1.00  0.00     0.039 A 
ATOM     32  C   UNL A   1      42.292  21.079  27.860  1.00  0.00     0.014 A 
ATOM     33  C   UNL A   1      42.527  21.855  25.578  1.00  0.00     0.014 A 
ATOM     34  C   UNL A   1      42.607  22.358  28.326  1.00  0.00     0.010 A 
ATOM     35  C   UNL A   1      42.897  23.116  26.044  1.00  0.00     0.010 A 
ATOM     36  C   UNL A   1      42.909  23.387  27.421  1.00  0.00    -0.014 A 
BRANCH  36  37
ATOM     37  C   UNL A   1      43.181  24.764  27.904  1.00  0.00     0.031 A 
ATOM     38  C   UNL A   1      44.600  25.223  28.110  1.00  0.00     0.074 A 
ATOM     39  C   UNL A   1      42.155  25.593  28.171  1.00  0.00     0.049 A 
ATOM     40  N   UNL A   1      45.042  26.387  28.512  1.00  0.00    -0.248 NA
ATOM     41  C   UNL A   1      45.662  24.239  27.845  1.00  0.00     0.031 C 
ATOM     42  C   UNL A   1      40.737  25.255  28.036  1.00  0.00     0.029 A 
ATOM     43  N   UNL A   1      42.148  26.893  28.607  1.00  0.00    -0.354 N 
ATOM     44  C   UNL A   1      46.425  26.271  28.563  1.00  0.00     0.074 A 
ATOM     45  C   UNL A   1      46.749  24.910  28.199  1.00  0.00     0.031 C 
ATOM     46  C   UNL A   1      39.998  26.332  28.348  1.00  0.00     0.029 A 
ATOM     47  C   UNL A   1      40.887  27.422  28.739  1.00  0.00     0.049 A 
ATOM     48  H   UNL A   1      42.968  27.401  28.807  1.00  0.00     0.167 HD
ATOM     49  C   UNL A   1      47.346  27.217  28.866  1.00  0.00     0.031 A 
ATOM     50  C   UNL A   1      40.492  28.649  29.128  1.00  0.00     0.031 A 
ATOM     51  C   UNL A   1      47.023  28.572  29.219  1.00  0.00     0.049 A 
ATOM     52  C   UNL A   1      41.535  29.675  29.479  1.00  0.00     0.074 A 
ATOM     53  C   UNL A   1      47.881  29.623  29.490  1.00  0.00     0.029 A 
ATOM     54  N   UNL A   1      45.733  29.063  29.354  1.00  0.00    -0.354 N 
ATOM     55  N   UNL A   1      42.841  29.569  29.451  1.00  0.00    -0.248 NA
ATOM     56  C   UNL A   1      41.046  30.994  29.902  1.00  0.00     0.031 C 
ATOM     57  C   UNL A   1      47.111  30.734  29.845  1.00  0.00     0.029 A 
ATOM     58  C   UNL A   1      45.773  30.394  29.734  1.00  0.00     0.049 A 
ATOM     59  H   UNL A   1      44.911  28.543  29.202  1.00  0.00     0.167 HD
ATOM     60  C   UNL A   1      43.330  30.815  29.824  1.00  0.00     0.074 A 
ATOM     61  C   UNL A   1      42.179  31.663  30.055  1.00  0.00     0.031 C 
ATOM     62  C   UNL A   1      44.616  31.221  29.961  1.00  0.00     0.031 A 
BRANCH  49  63
ATOM     63  C   UNL A   1      48.796  26.810  28.841  1.00  0.00    -0.014 A 
ATOM     64  C   UNL A   1      49.557  26.890  27.664  1.00  0.00     0.009 A 
ATOM     65  C   UNL A   1      49.418  26.372  30.021  1.00  0.00     0.009 A 
ATOM     66  C   UNL A   1      50.900  26.503  27.660  1.00  0.00     0.001 A 
ATOM     67  C   UNL A   1      50.768  26.015  30.021  1.00  0.00     0.001 A 
ATOM     68  C   UNL A   1      51.504  26.071  28.839  1.00  0.00     0.000 A 
ENDBRANCH  49  63
BRANCH  50  69
ATOM     69  C   UNL A   1      39.045  28.984  29.188  1.00  0.00    -0.014 A 
ATOM     70  C   UNL A   1      38.369  29.432  28.042  1.00  0.00     0.009 A 
ATOM     71  C   UNL A   1      38.334  28.867  30.392  1.00  0.00     0.009 A 
ATOM     72  C   UNL A   1      37.018  29.782  28.109  1.00  0.00     0.001 A 
ATOM     73  C   UNL A   1      36.975  29.189  30.449  1.00  0.00     0.001 A 
ATOM     74  C   UNL A   1      36.321  29.656  29.310  1.00  0.00     0.000 A 
ENDBRANCH  50  69
BRANCH  62  75
ATOM     75  C   UNL A   1      44.845  32.655  30.347  1.00  0.00    -0.014 A 
ATOM     76  C   UNL A   1      44.979  33.037  31.691  1.00  0.00     0.009 A 
ATOM     77  C   UNL A   1      44.973  33.631  29.346  1.00  0.00     0.009 A 
ATOM     78  C   UNL A   1      45.200  34.375  32.025  1.00  0.00     0.001 A 
ATOM     79  C   UNL A   1      45.225  34.961  29.682  1.00  0.00     0.001 A 
ATOM     80  C   UNL A   1      45.328  35.334  31.021  1.00  0.00     0.000 A 
ENDBRANCH  62  75
ENDBRANCH  36  37
ENDBRANCH  28  31
ENDBRANCH  26  27
ENDBRANCH  25  26
ENDBRANCH  24  25
ENDBRANCH   1  24
TORSDOF 16
ENDMDL
MODEL 2
REMARK VINA RESULT:     -10.8      2.415      7.257
REMARK SMILES CC[C@](C)(NS(=O)(=O)c1ccc(OC)c(F)c1)C(=O)NCCCCNC(=O)c1ccc(-c2c3nc(c(-c4ccccc4)c4ccc([nH]4)c(-c4ccccc4)c4nc(c(-c5ccccc5)c5ccc2[nH]5)C=C4)C=C3)cc1
REMARK SMILES IDX 21 1 20 2 18 3 19 4 3 6 4 7 2 8 1 9 5 10 6 12 7 13 8 14 9 15
REMARK SMILES IDX 10 16 17 17 11 18 15 19 12 20 16 21 13 22 14 23 22 24 23 25
REMARK SMILES IDX 24 26 25 27 26 28 27 30 28 31 29 32 75 33 30 34 74 35 31 36
REMARK SMILES IDX 32 37 33 38 68 39 34 40 73 41 67 42 69 43 35 44 72 45 66 46
REMARK SMILES IDX 65 47 36 49 58 50 43 51 57 52 44 53 47 54 56 55 70 56 45 57
REMARK SMILES IDX 46 58 55 60 71 61 48 62 37 63 38 64 42 65 39 66 41 67 40 68
REMARK SMILES IDX 59 69 60 70 64 71 61 72 63 73 62 74 49 75 50 76 54 77 51 78
REMARK SMILES IDX 53 79 52 80
REMARK H PARENT 20 5 5 11 25 29 69 48 47 59
REMARK Flexibility Score: inf
ROOT
ATOM      1  C   UNL A   1      36.557  21.798  25.647  1.00  0.00     0.116 C 
ENDROOT
BRANCH   1   2
ATOM      2  N   UNL A   1      35.505  22.071  26.622  1.00  0.00    -0.354 N 
ATOM      3  C   UNL A   1      34.138  22.065  26.685  1.00  0.00     0.241 C 
ATOM      4  O   UNL A   1      33.702  22.192  27.841  1.00  0.00    -0.273 OA
ATOM      5  H   UNL A   1      35.893  22.336  27.488  1.00  0.00     0.163 HD
BRANCH   3   6
ATOM      6  C   UNL A   1      33.140  21.982  25.502  1.00  0.00     0.108 C 
ATOM      7  C   UNL A   1      31.767  22.549  26.001  1.00  0.00     0.040 C 
BRANCH   6   8
ATOM      8  C   UNL A   1      32.961  20.500  25.050  1.00  0.00     0.030 C 
ATOM      9  C   UNL A   1      32.433  20.231  23.638  1.00  0.00     0.006 C 
ENDBRANCH   6   8
BRANCH   6  10
ATOM     10  N   UNL A   1      33.381  22.874  24.338  1.00  0.00    -0.196 NA
ATOM     11  H   UNL A   1      32.440  23.121  24.031  1.00  0.00     0.142 HD
BRANCH  10  12
ATOM     12  S   UNL A   1      34.225  24.289  24.166  1.00  0.00     0.241 S 
ATOM     13  O   UNL A   1      34.563  24.752  25.496  1.00  0.00    -0.207 OA
ATOM     14  O   UNL A   1      35.284  23.954  23.245  1.00  0.00    -0.207 OA
BRANCH  12  15
ATOM     15  C   UNL A   1      33.248  25.559  23.378  1.00  0.00     0.085 A 
ATOM     16  C   UNL A   1      32.147  25.192  22.615  1.00  0.00     0.026 A 
ATOM     17  C   UNL A   1      33.359  26.902  23.731  1.00  0.00     0.065 A 
ATOM     18  C   UNL A   1      31.214  26.096  22.128  1.00  0.00     0.051 A 
ATOM     19  C   UNL A   1      32.389  27.822  23.282  1.00  0.00     0.166 A 
ATOM     20  C   UNL A   1      31.315  27.429  22.474  1.00  0.00     0.154 A 
ATOM     21  F   UNL A   1      32.503  29.094  23.693  1.00  0.00    -0.203 F 
BRANCH  20  22
ATOM     22  O   UNL A   1      30.287  28.170  21.973  1.00  0.00    -0.494 OA
ATOM     23  C   UNL A   1      29.269  28.569  22.871  1.00  0.00     0.278 C 
ENDBRANCH  20  22
ENDBRANCH  12  15
ENDBRANCH  10  12
ENDBRANCH   6  10
ENDBRANCH   3   6
ENDBRANCH   1   2
BRANCH   1  24
ATOM     24  C   UNL A   1      36.754  20.412  24.989  1.00  0.00     0.023 C 
BRANCH  24  25
ATOM     25  C   UNL A   1      38.077  19.635  24.949  1.00  0.00     0.023 C 
BRANCH  25  26
ATOM     26  C   UNL A   1      39.251  20.230  25.709  1.00  0.00     0.116 C 
BRANCH  26  27
ATOM     27  N   UNL A   1      40.255  19.209  25.957  1.00  0.00    -0.352 N 
ATOM     28  C   UNL A   1      41.610  19.348  26.123  1.00  0.00     0.251 C 
ATOM     29  H   UNL A   1      39.915  18.287  26.013  1.00  0.00     0.163 HD
ATOM     30  O   UNL A   1      42.339  18.368  25.991  1.00  0.00    -0.269 OA
BRANCH  28  31
ATOM     31  C   UNL A   1      42.203  20.655  26.484  1.00  0.00     0.039 A 
ATOM     32  C   UNL A   1      42.166  21.066  27.822  1.00  0.00     0.014 A 
ATOM     33  C   UNL A   1      42.695  21.523  25.504  1.00  0.00     0.014 A 
ATOM     34  C   UNL A   1      42.616  22.340  28.175  1.00  0.00     0.010 A 
ATOM     35  C   UNL A   1      43.197  22.773  25.864  1.00  0.00     0.010 A 
ATOM     36  C   UNL A   1      43.132  23.204  27.197  1.00  0.00    -0.014 A 
BRANCH  36  37
ATOM     37  C   UNL A   1      43.553  24.584  27.552  1.00  0.00     0.031 A 
ATOM     38  C   UNL A   1      42.517  25.621  27.894  1.00  0.00     0.074 A 
ATOM     39  C   UNL A   1      44.860  24.904  27.551  1.00  0.00     0.049 A 
ATOM     40  N   UNL A   1      42.684  26.873  28.241  1.00  0.00    -0.248 NA
ATOM     41  C   UNL A   1      41.108  25.204  27.821  1.00  0.00     0.031 C 
ATOM     42  C   UNL A   1      45.954  23.993  27.212  1.00  0.00     0.029 A 
ATOM     43  N   UNL A   1      45.489  26.086  27.851  1.00  0.00    -0.354 N 
ATOM     44  C   UNL A   1      41.407  27.392  28.411  1.00  0.00     0.074 A 
ATOM     45  C   UNL A   1      40.474  26.338  28.083  1.00  0.00     0.031 C 
ATOM     46  C   UNL A   1      47.123  24.640  27.357  1.00  0.00     0.029 A 
ATOM     47  C   UNL A   1      46.858  26.016  27.763  1.00  0.00     0.049 A 
ATOM     48  H   UNL A   1      45.007  26.906  28.105  1.00  0.00     0.167 HD
ATOM     49  C   UNL A   1      41.042  28.630  28.824  1.00  0.00     0.031 A 
ATOM     50  C   UNL A   1      47.795  26.957  27.988  1.00  0.00     0.031 A 
ATOM     51  C   UNL A   1      41.972  29.674  29.158  1.00  0.00     0.049 A 
ATOM     52  C   UNL A   1      47.362  28.330  28.425  1.00  0.00     0.074 A 
ATOM     53  C   UNL A   1      41.708  30.945  29.638  1.00  0.00     0.029 A 
ATOM     54  N   UNL A   1      43.350  29.567  29.043  1.00  0.00    -0.354 N 
ATOM     55  N   UNL A   1      46.153  28.782  28.651  1.00  0.00    -0.248 NA
ATOM     56  C   UNL A   1      48.428  29.316  28.650  1.00  0.00     0.031 C 
ATOM     57  C   UNL A   1      42.923  31.626  29.759  1.00  0.00     0.029 A 
ATOM     58  C   UNL A   1      43.947  30.759  29.414  1.00  0.00     0.049 A 
ATOM     59  H   UNL A   1      43.831  28.763  28.742  1.00  0.00     0.167 HD
ATOM     60  C   UNL A   1      46.313  30.096  29.073  1.00  0.00     0.074 A 
ATOM     61  C   UNL A   1      47.738  30.359  29.088  1.00  0.00     0.031 C 
ATOM     62  C   UNL A   1      45.367  31.002  29.420  1.00  0.00     0.031 A 
BRANCH  49  63
ATOM     63  C   UNL A   1      39.569  28.925  28.921  1.00  0.00    -0.014 A 
ATOM     64  C   UNL A   1      38.850  29.425  27.824  1.00  0.00     0.009 A 
ATOM     65  C   UNL A   1      38.883  28.665  30.119  1.00  0.00     0.009 A 
ATOM     66  C   UNL A   1      37.483  29.697  27.937  1.00  0.00     0.001 A 
ATOM     67  C   UNL A   1      37.512  28.909  30.219  1.00  0.00     0.001 A 
ATOM     68  C   UNL A   1      36.816  29.434  29.132  1.00  0.00     0.000 A 
ENDBRANCH  49  63
BRANCH  50  69
ATOM     69  C   UNL A   1      49.236  26.630  27.824  1.00  0.00    -0.014 A 
ATOM     70  C   UNL A   1      49.992  26.172  28.915  1.00  0.00     0.009 A 
ATOM     71  C   UNL A   1      49.867  26.782  26.579  1.00  0.00     0.009 A 
ATOM     72  C   UNL A   1      51.354  25.902  28.768  1.00  0.00     0.001 A 
ATOM     73  C   UNL A   1      51.223  26.480  26.428  1.00  0.00     0.001 A 
ATOM     74  C   UNL A   1      51.968  26.050  27.525  1.00  0.00     0.000 A 
ENDBRANCH  50  69
BRANCH  62  75
ATOM     75  C   UNL A   1      45.844  32.352  29.876  1.00  0.00    -0.014 A 
ATOM     76  C   UNL A   1      45.995  33.417  28.975  1.00  0.00     0.009 A 
ATOM     77  C   UNL A   1      46.105  32.572  31.238  1.00  0.00     0.009 A 
ATOM     78  C   UNL A   1      46.432  34.665  29.423  1.00  0.00     0.001 A 
ATOM     79  C   UNL A   1      46.512  33.828  31.688  1.00  0.00     0.001 A 
ATOM     80  C   UNL A   1      46.685  34.871  30.779  1.00  0.00     0.000 A 
ENDBRANCH  62  75
ENDBRANCH  36  37
ENDBRANCH  28  31
ENDBRANCH  26  27
ENDBRANCH  25  26
ENDBRANCH  24  25
ENDBRANCH   1  24
TORSDOF 16
ENDMDL
MODEL 3
REMARK VINA RESULT:     -10.7      4.842      9.784
REMARK SMILES CC[C@](C)(NS(=O)(=O)c1ccc(OC)c(F)c1)C(=O)NCCCCNC(=O)c1ccc(-c2c3nc(c(-c4ccccc4)c4ccc([nH]4)c(-c4ccccc4)c4nc(c(-c5ccccc5)c5ccc2[nH]5)C=C4)C=C3)cc1
REMARK SMILES IDX 21 1 20 2 18 3 19 4 3 6 4 7 2 8 1 9 5 10 6 12 7 13 8 14 9 15
REMARK SMILES IDX 10 16 17 17 11 18 15 19 12 20 16 21 13 22 14 23 22 24 23 25
REMARK SMILES IDX 24 26 25 27 26 28 27 30 28 31 29 32 75 33 30 34 74 35 31 36
REMARK SMILES IDX 32 37 33 38 68 39 34 40 73 41 67 42 69 43 35 44 72 45 66 46
REMARK SMILES IDX 65 47 36 49 58 50 43 51 57 52 44 53 47 54 56 55 70 56 45 57
REMARK SMILES IDX 46 58 55 60 71 61 48 62 37 63 38 64 42 65 39 66 41 67 40 68
REMARK SMILES IDX 59 69 60 70 64 71 61 72 63 73 62 74 49 75 50 76 54 77 51 78
REMARK SMILES IDX 53 79 52 80
REMARK H PARENT 20 5 5 11 25 29 69 48 47 59
REMARK Flexibility Score: inf
ROOT
ATOM      1  C   UNL A   1      31.533  28.359  26.336  1.00  0.00     0.116 C 
ENDROOT
BRANCH   1   2
ATOM      2  N   UNL A   1      32.409  27.191  26.276  1.00  0.00    -0.354 N 
ATOM      3  C   UNL A   1      32.422  25.947  25.705  1.00  0.00     0.241 C 
ATOM      4  O   UNL A   1      33.522  25.379  25.799  1.00  0.00    -0.273 OA
ATOM      5  H   UNL A   1      33.229  27.344  26.799  1.00  0.00     0.163 HD
BRANCH   3   6
ATOM      6  C   UNL A   1      31.236  25.201  25.044  1.00  0.00     0.108 C 
ATOM      7  C   UNL A   1      29.921  25.692  25.742  1.00  0.00     0.040 C 
BRANCH   6   8
ATOM      8  C   UNL A   1      31.389  23.661  25.242  1.00  0.00     0.030 C 
ATOM      9  C   UNL A   1      30.598  22.992  26.370  1.00  0.00     0.006 C 
ENDBRANCH   6   8
BRANCH   6  10
ATOM     10  N   UNL A   1      30.918  25.533  23.631  1.00  0.00    -0.196 NA
ATOM     11  H   UNL A   1      29.899  25.569  23.620  1.00  0.00     0.142 HD
BRANCH  10  12
ATOM     12  S   UNL A   1      31.360  26.792  22.649  1.00  0.00     0.241 S 
ATOM     13  O   UNL A   1      32.643  27.272  23.118  1.00  0.00    -0.207 OA
ATOM     14  O   UNL A   1      31.252  26.251  21.317  1.00  0.00    -0.207 OA
BRANCH  12  15
ATOM     15  C   UNL A   1      30.203  28.150  22.743  1.00  0.00     0.085 A 
ATOM     16  C   UNL A   1      30.541  29.368  22.169  1.00  0.00     0.026 A 
ATOM     17  C   UNL A   1      28.869  27.961  23.099  1.00  0.00     0.065 A 
ATOM     18  C   UNL A   1      29.647  30.417  22.012  1.00  0.00     0.051 A 
ATOM     19  C   UNL A   1      27.941  29.003  22.899  1.00  0.00     0.166 A 
ATOM     20  C   UNL A   1      28.323  30.239  22.362  1.00  0.00     0.154 A 
ATOM     21  F   UNL A   1      26.658  28.759  23.202  1.00  0.00    -0.203 F 
BRANCH  20  22
ATOM     22  O   UNL A   1      27.565  31.337  22.082  1.00  0.00    -0.494 OA
ATOM     23  C   UNL A   1      28.012  32.198  21.053  1.00  0.00     0.278 C 
ENDBRANCH  20  22
ENDBRANCH  12  15
ENDBRANCH  10  12
ENDBRANCH   6  10
ENDBRANCH   3   6
ENDBRANCH   1   2
BRANCH   1  24
ATOM     24  C   UNL A   1      31.846  29.683  25.602  1.00  0.00     0.023 C 
BRANCH  24  25
ATOM     25  C   UNL A   1      31.599  31.087  26.169  1.00  0.00     0.023 C 
BRANCH  25  26
ATOM     26  C   UNL A   1      32.577  31.589  27.219  1.00  0.00     0.116 C 
BRANCH  26  27
ATOM     27  N   UNL A   1      32.412  33.020  27.412  1.00  0.00    -0.352 N 
ATOM     28  C   UNL A   1      33.093  33.866  28.251  1.00  0.00     0.251 C 
ATOM     29  H   UNL A   1      31.713  33.443  26.863  1.00  0.00     0.163 HD
ATOM     30  O   UNL A   1      32.609  34.961  28.529  1.00  0.00    -0.269 OA
BRANCH  28  31
ATOM     31  C   UNL A   1      34.412  33.489  28.806  1.00  0.00     0.039 A 
ATOM     32  C   UNL A   1      35.560  33.729  28.039  1.00  0.00     0.014 A 
ATOM     33  C   UNL A   1      34.519  32.806  30.021  1.00  0.00     0.014 A 
ATOM     34  C   UNL A   1      36.805  33.284  28.487  1.00  0.00     0.010 A 
ATOM     35  C   UNL A   1      35.769  32.411  30.495  1.00  0.00     0.010 A 
ATOM     36  C   UNL A   1      36.919  32.619  29.718  1.00  0.00    -0.014 A 
BRANCH  36  37
ATOM     37  C   UNL A   1      38.228  32.085  30.171  1.00  0.00     0.031 A 
ATOM     38  C   UNL A   1      38.729  30.769  29.640  1.00  0.00     0.074 A 
ATOM     39  C   UNL A   1      38.955  32.775  31.070  1.00  0.00     0.049 A 
ATOM     40  N   UNL A   1      39.848  30.142  29.903  1.00  0.00    -0.248 NA
ATOM     41  C   UNL A   1      37.850  30.052  28.702  1.00  0.00     0.031 C 
ATOM     42  C   UNL A   1      38.564  34.047  31.676  1.00  0.00     0.029 A 
ATOM     43  N   UNL A   1      40.180  32.502  31.624  1.00  0.00    -0.354 N 
ATOM     44  C   UNL A   1      39.799  28.958  29.179  1.00  0.00     0.074 A 
ATOM     45  C   UNL A   1      38.522  28.928  28.504  1.00  0.00     0.031 C 
ATOM     46  C   UNL A   1      39.546  34.464  32.493  1.00  0.00     0.029 A 
ATOM     47  C   UNL A   1      40.616  33.472  32.494  1.00  0.00     0.049 A 
ATOM     48  H   UNL A   1      40.697  31.690  31.420  1.00  0.00     0.167 HD
ATOM     49  C   UNL A   1      40.742  27.991  29.069  1.00  0.00     0.031 A 
ATOM     50  C   UNL A   1      41.754  33.553  33.209  1.00  0.00     0.031 A 
ATOM     51  C   UNL A   1      42.016  28.028  29.735  1.00  0.00     0.049 A 
ATOM     52  C   UNL A   1      42.776  32.456  33.085  1.00  0.00     0.074 A 
ATOM     53  C   UNL A   1      43.062  27.128  29.648  1.00  0.00     0.029 A 
ATOM     54  N   UNL A   1      42.413  29.022  30.617  1.00  0.00    -0.354 N 
ATOM     55  N   UNL A   1      42.744  31.378  32.338  1.00  0.00    -0.248 NA
ATOM     56  C   UNL A   1      43.995  32.595  33.893  1.00  0.00     0.031 C 
ATOM     57  C   UNL A   1      44.070  27.546  30.521  1.00  0.00     0.029 A 
ATOM     58  C   UNL A   1      43.678  28.740  31.104  1.00  0.00     0.049 A 
ATOM     59  H   UNL A   1      41.876  29.810  30.860  1.00  0.00     0.167 HD
ATOM     60  C   UNL A   1      43.951  30.727  32.564  1.00  0.00     0.074 A 
ATOM     61  C   UNL A   1      44.696  31.540  33.503  1.00  0.00     0.031 C 
ATOM     62  C   UNL A   1      44.401  29.561  32.040  1.00  0.00     0.031 A 
BRANCH  49  63
ATOM     63  C   UNL A   1      40.421  26.802  28.203  1.00  0.00    -0.014 A 
ATOM     64  C   UNL A   1      39.630  25.744  28.680  1.00  0.00     0.009 A 
ATOM     65  C   UNL A   1      40.887  26.755  26.880  1.00  0.00     0.009 A 
ATOM     66  C   UNL A   1      39.347  24.646  27.863  1.00  0.00     0.001 A 
ATOM     67  C   UNL A   1      40.577  25.672  26.056  1.00  0.00     0.001 A 
ATOM     68  C   UNL A   1      39.817  24.614  26.551  1.00  0.00     0.000 A 
ENDBRANCH  49  63
BRANCH  50  69
ATOM     69  C   UNL A   1      41.999  34.724  34.092  1.00  0.00    -0.014 A 
ATOM     70  C   UNL A   1      42.616  35.880  33.589  1.00  0.00     0.009 A 
ATOM     71  C   UNL A   1      41.628  34.689  35.445  1.00  0.00     0.009 A 
ATOM     72  C   UNL A   1      42.880  36.964  34.428  1.00  0.00     0.001 A 
ATOM     73  C   UNL A   1      41.865  35.787  36.275  1.00  0.00     0.001 A 
ATOM     74  C   UNL A   1      42.500  36.920  35.769  1.00  0.00     0.000 A 
ENDBRANCH  50  69
BRANCH  62  75
ATOM     75  C   UNL A   1      45.778  29.114  32.445  1.00  0.00    -0.014 A 
ATOM     76  C   UNL A   1      45.976  28.258  33.539  1.00  0.00     0.009 A 
ATOM     77  C   UNL A   1      46.890  29.522  31.691  1.00  0.00     0.009 A 
ATOM     78  C   UNL A   1      47.264  27.848  33.892  1.00  0.00     0.001 A 
ATOM     79  C   UNL A   1      48.172  29.087  32.027  1.00  0.00     0.001 A 
ATOM     80  C   UNL A   1      48.359  28.259  33.132  1.00  0.00     0.000 A 
ENDBRANCH  62  75
ENDBRANCH  36  37
ENDBRANCH  28  31
ENDBRANCH  26  27
ENDBRANCH  25  26
ENDBRANCH  24  25
ENDBRANCH   1  24
TORSDOF 16
ENDMDL
