MODEL 1
REMARK VINA RESULT:     -10.8      0.000      0.000
REMARK SMILES CC(C)Cc1ccc([C@H](C)C(=O)NCCCCNC(=O)c2ccc(-c3c4nc(c(-c5ccccc5)c5ccc([nH]5)c(-c5ccccc5)c5nc(c(-c6ccccc6)c6ccc3[nH]6)C=C5)C=C4)cc2)cc1
REMARK SMILES IDX 15 1 14 2 13 3 11 4 12 5 9 7 10 8 8 9 5 10 6 11 70 12 7 13
REMARK SMILES IDX 69 14 4 15 2 16 1 17 3 18 16 19 17 20 18 21 19 22 20 24
REMARK SMILES IDX 21 25 22 26 68 27 23 28 67 29 24 30 25 31 26 32 61 33 27 34
REMARK SMILES IDX 66 35 60 36 62 37 28 38 65 39 59 40 58 41 29 43 51 44 36 45
REMARK SMILES IDX 50 46 37 47 40 48 49 49 63 50 38 51 39 52 48 54 64 55 41 56
REMARK SMILES IDX 30 57 31 58 35 59 32 60 34 61 33 62 52 63 53 64 57 65 54 66
REMARK SMILES IDX 56 67 55 68 42 69 43 70 47 71 44 72 46 73 45 74
REMARK H PARENT 13 6 18 23 62 42 40 53
REMARK Flexibility Score: inf
ROOT
ATOM      1  C   UNL A   1      33.611  27.887  25.040  1.00  0.00     0.023 C 
ENDROOT
BRANCH   1   2
ATOM      2  C   UNL A   1      33.416  26.417  25.397  1.00  0.00     0.116 C 
BRANCH   2   3
ATOM      3  N   UNL A   1      32.150  26.150  26.047  1.00  0.00    -0.356 N 
ATOM      4  C   UNL A   1      30.938  25.836  25.499  1.00  0.00     0.227 C 
ATOM      5  O   UNL A   1      30.035  25.519  26.281  1.00  0.00    -0.274 OA
ATOM      6  H   UNL A   1      32.164  26.202  27.030  1.00  0.00     0.163 HD
BRANCH   4   7
ATOM      7  C   UNL A   1      30.680  25.885  23.983  1.00  0.00     0.105 C 
ATOM      8  C   UNL A   1      30.244  24.525  23.430  1.00  0.00     0.023 C 
BRANCH   7   9
ATOM      9  C   UNL A   1      29.861  27.103  23.569  1.00  0.00    -0.036 A 
ATOM     10  C   UNL A   1      28.466  29.483  22.916  1.00  0.00    -0.048 A 
ATOM     11  C   UNL A   1      27.773  28.336  23.312  1.00  0.00     0.004 A 
ATOM     12  C   UNL A   1      29.857  29.418  22.798  1.00  0.00     0.004 A 
ATOM     13  C   UNL A   1      28.460  27.153  23.600  1.00  0.00     0.005 A 
ATOM     14  C   UNL A   1      30.546  28.253  23.143  1.00  0.00     0.005 A 
BRANCH  10  15
ATOM     15  C   UNL A   1      27.728  30.771  22.637  1.00  0.00     0.038 C 
BRANCH  15  16
ATOM     16  C   UNL A   1      28.578  31.830  21.902  1.00  0.00    -0.013 C 
ATOM     17  C   UNL A   1      27.942  32.285  20.585  1.00  0.00     0.008 C 
ATOM     18  C   UNL A   1      28.784  33.046  22.809  1.00  0.00     0.008 C 
ENDBRANCH  15  16
ENDBRANCH  10  15
ENDBRANCH   7   9
ENDBRANCH   4   7
ENDBRANCH   2   3
ENDBRANCH   1   2
BRANCH   1  19
ATOM     19  C   UNL A   1      32.923  28.879  25.971  1.00  0.00     0.023 C 
BRANCH  19  20
ATOM     20  C   UNL A   1      33.511  28.972  27.373  1.00  0.00     0.116 C 
BRANCH  20  21
ATOM     21  N   UNL A   1      33.609  30.335  27.875  1.00  0.00    -0.352 N 
ATOM     22  C   UNL A   1      34.668  30.971  28.486  1.00  0.00     0.251 C 
ATOM     23  H   UNL A   1      32.799  30.884  27.763  1.00  0.00     0.163 HD
ATOM     24  O   UNL A   1      34.538  32.097  28.939  1.00  0.00    -0.269 OA
BRANCH  22  25
ATOM     25  C   UNL A   1      35.957  30.259  28.624  1.00  0.00     0.039 A 
ATOM     26  C   UNL A   1      36.858  30.282  27.557  1.00  0.00     0.014 A 
ATOM     27  C   UNL A   1      36.291  29.614  29.816  1.00  0.00     0.014 A 
ATOM     28  C   UNL A   1      38.133  29.735  27.720  1.00  0.00     0.010 A 
ATOM     29  C   UNL A   1      37.588  29.152  30.007  1.00  0.00     0.010 A 
ATOM     30  C   UNL A   1      38.523  29.209  28.962  1.00  0.00    -0.014 A 
BRANCH  30  31
ATOM     31  C   UNL A   1      39.907  28.729  29.198  1.00  0.00     0.031 A 
ATOM     32  C   UNL A   1      40.934  29.649  29.796  1.00  0.00     0.074 A 
ATOM     33  C   UNL A   1      40.265  27.496  28.791  1.00  0.00     0.049 A 
ATOM     34  N   UNL A   1      42.208  29.436  30.011  1.00  0.00    -0.248 NA
ATOM     35  C   UNL A   1      40.477  30.997  30.169  1.00  0.00     0.031 C 
ATOM     36  C   UNL A   1      39.381  26.525  28.141  1.00  0.00     0.029 A 
ATOM     37  N   UNL A   1      41.476  26.852  28.854  1.00  0.00    -0.354 N 
ATOM     38  C   UNL A   1      42.707  30.630  30.517  1.00  0.00     0.074 A 
ATOM     39  C   UNL A   1      41.613  31.576  30.526  1.00  0.00     0.031 C 
ATOM     40  C   UNL A   1      40.073  25.403  27.887  1.00  0.00     0.029 A 
ATOM     41  C   UNL A   1      41.454  25.587  28.321  1.00  0.00     0.049 A 
ATOM     42  H   UNL A   1      42.283  27.259  29.244  1.00  0.00     0.167 HD
ATOM     43  C   UNL A   1      43.958  30.910  30.954  1.00  0.00     0.031 A 
ATOM     44  C   UNL A   1      42.436  24.676  28.190  1.00  0.00     0.031 A 
ATOM     45  C   UNL A   1      45.043  29.966  30.957  1.00  0.00     0.049 A 
ATOM     46  C   UNL A   1      43.814  24.999  28.693  1.00  0.00     0.074 A 
ATOM     47  C   UNL A   1      46.325  30.127  31.451  1.00  0.00     0.029 A 
ATOM     48  N   UNL A   1      44.973  28.683  30.434  1.00  0.00    -0.354 N 
ATOM     49  N   UNL A   1      44.250  26.103  29.250  1.00  0.00    -0.248 NA
ATOM     50  C   UNL A   1      44.830  23.946  28.563  1.00  0.00     0.031 C 
ATOM     51  C   UNL A   1      47.047  28.959  31.179  1.00  0.00     0.029 A 
ATOM     52  C   UNL A   1      46.197  28.051  30.567  1.00  0.00     0.049 A 
ATOM     53  H   UNL A   1      44.170  28.282  30.028  1.00  0.00     0.167 HD
ATOM     54  C   UNL A   1      45.585  25.871  29.555  1.00  0.00     0.074 A 
ATOM     55  C   UNL A   1      45.881  24.516  29.135  1.00  0.00     0.031 C 
ATOM     56  C   UNL A   1      46.482  26.706  30.133  1.00  0.00     0.031 A 
BRANCH  43  57
ATOM     57  C   UNL A   1      44.212  32.306  31.450  1.00  0.00    -0.014 A 
ATOM     58  C   UNL A   1      44.687  33.312  30.593  1.00  0.00     0.009 A 
ATOM     59  C   UNL A   1      43.976  32.622  32.797  1.00  0.00     0.009 A 
ATOM     60  C   UNL A   1      44.973  34.587  31.085  1.00  0.00     0.001 A 
ATOM     61  C   UNL A   1      44.231  33.906  33.280  1.00  0.00     0.001 A 
ATOM     62  C   UNL A   1      44.743  34.883  32.428  1.00  0.00     0.000 A 
ENDBRANCH  43  57
BRANCH  44  63
ATOM     63  C   UNL A   1      42.136  23.358  27.574  1.00  0.00    -0.014 A 
ATOM     64  C   UNL A   1      41.585  22.321  28.344  1.00  0.00     0.009 A 
ATOM     65  C   UNL A   1      42.366  23.139  26.207  1.00  0.00     0.009 A 
ATOM     66  C   UNL A   1      41.284  21.090  27.759  1.00  0.00     0.001 A 
ATOM     67  C   UNL A   1      42.041  21.914  25.620  1.00  0.00     0.001 A 
ATOM     68  C   UNL A   1      41.505  20.889  26.399  1.00  0.00     0.000 A 
ENDBRANCH  44  63
BRANCH  56  69
ATOM     69  C   UNL A   1      47.866  26.171  30.367  1.00  0.00    -0.014 A 
ATOM     70  C   UNL A   1      48.297  25.798  31.649  1.00  0.00     0.009 A 
ATOM     71  C   UNL A   1      48.736  25.996  29.278  1.00  0.00     0.009 A 
ATOM     72  C   UNL A   1      49.583  25.288  31.841  1.00  0.00     0.001 A 
ATOM     73  C   UNL A   1      50.010  25.460  29.468  1.00  0.00     0.001 A 
ATOM     74  C   UNL A   1      50.436  25.115  30.750  1.00  0.00     0.000 A 
ENDBRANCH  56  69
ENDBRANCH  30  31
ENDBRANCH  22  25
ENDBRANCH  20  21
ENDBRANCH  19  20
ENDBRANCH   1  19
TORSDOF 14
ENDMDL
MODEL 2
REMARK VINA RESULT:     -10.7      1.892      3.991
REMARK SMILES CC(C)Cc1ccc([C@H](C)C(=O)NCCCCNC(=O)c2ccc(-c3c4nc(c(-c5ccccc5)c5ccc([nH]5)c(-c5ccccc5)c5nc(c(-c6ccccc6)c6ccc3[nH]6)C=C5)C=C4)cc2)cc1
REMARK SMILES IDX 15 1 14 2 13 3 11 4 12 5 9 7 10 8 8 9 5 10 6 11 70 12 7 13
REMARK SMILES IDX 69 14 4 15 2 16 1 17 3 18 16 19 17 20 18 21 19 22 20 24
REMARK SMILES IDX 21 25 22 26 68 27 23 28 67 29 24 30 25 31 26 32 61 33 27 34
REMARK SMILES IDX 66 35 60 36 62 37 28 38 65 39 59 40 58 41 29 43 51 44 36 45
REMARK SMILES IDX 50 46 37 47 40 48 49 49 63 50 38 51 39 52 48 54 64 55 41 56
REMARK SMILES IDX 30 57 31 58 35 59 32 60 34 61 33 62 52 63 53 64 57 65 54 66
REMARK SMILES IDX 56 67 55 68 42 69 43 70 47 71 44 72 46 73 45 74
REMARK H PARENT 13 6 18 23 62 42 40 53
REMARK Flexibility Score: inf
ROOT
ATOM      1  C   UNL A   1      31.691  29.609  25.400  1.00  0.00     0.023 C 
ENDROOT
BRANCH   1   2
ATOM      2  C   UNL A   1      31.526  29.052  23.990  1.00  0.00     0.116 C 
BRANCH   2   3
ATOM      3  N   UNL A   1      32.766  29.009  23.243  1.00  0.00    -0.356 N 
ATOM      4  C   UNL A   1      33.317  27.984  22.526  1.00  0.00     0.227 C 
ATOM      5  O   UNL A   1      34.326  28.244  21.863  1.00  0.00    -0.274 OA
ATOM      6  H   UNL A   1      33.291  29.842  23.255  1.00  0.00     0.163 HD
BRANCH   4   7
ATOM      7  C   UNL A   1      32.735  26.560  22.542  1.00  0.00     0.105 C 
ATOM      8  C   UNL A   1      32.413  26.056  21.132  1.00  0.00     0.023 C 
BRANCH   7   9
ATOM      9  C   UNL A   1      33.512  25.622  23.459  1.00  0.00    -0.036 A 
ATOM     10  C   UNL A   1      34.825  23.726  25.108  1.00  0.00    -0.048 A 
ATOM     11  C   UNL A   1      34.481  24.986  25.604  1.00  0.00     0.004 A 
ATOM     12  C   UNL A   1      34.555  23.438  23.767  1.00  0.00     0.004 A 
ATOM     13  C   UNL A   1      33.865  25.933  24.780  1.00  0.00     0.005 A 
ATOM     14  C   UNL A   1      33.886  24.363  22.962  1.00  0.00     0.005 A 
BRANCH  10  15
ATOM     15  C   UNL A   1      35.460  22.691  26.006  1.00  0.00     0.038 C 
BRANCH  15  16
ATOM     16  C   UNL A   1      36.965  22.475  25.743  1.00  0.00    -0.013 C 
ATOM     17  C   UNL A   1      37.232  21.689  24.456  1.00  0.00     0.008 C 
ATOM     18  C   UNL A   1      37.674  23.831  25.661  1.00  0.00     0.008 C 
ENDBRANCH  15  16
ENDBRANCH  10  15
ENDBRANCH   7   9
ENDBRANCH   4   7
ENDBRANCH   2   3
ENDBRANCH   1   2
BRANCH   1  19
ATOM     19  C   UNL A   1      32.105  28.590  26.456  1.00  0.00     0.023 C 
BRANCH  19  20
ATOM     20  C   UNL A   1      33.391  28.915  27.205  1.00  0.00     0.116 C 
BRANCH  20  21
ATOM     21  N   UNL A   1      33.474  30.299  27.650  1.00  0.00    -0.352 N 
ATOM     22  C   UNL A   1      34.519  30.966  28.251  1.00  0.00     0.251 C 
ATOM     23  H   UNL A   1      32.664  30.838  27.498  1.00  0.00     0.163 HD
ATOM     24  O   UNL A   1      34.375  32.110  28.653  1.00  0.00    -0.269 OA
BRANCH  22  25
ATOM     25  C   UNL A   1      35.807  30.268  28.444  1.00  0.00     0.039 A 
ATOM     26  C   UNL A   1      36.737  30.267  27.401  1.00  0.00     0.014 A 
ATOM     27  C   UNL A   1      36.113  29.658  29.662  1.00  0.00     0.014 A 
ATOM     28  C   UNL A   1      38.010  29.734  27.613  1.00  0.00     0.010 A 
ATOM     29  C   UNL A   1      37.408  29.210  29.900  1.00  0.00     0.010 A 
ATOM     30  C   UNL A   1      38.370  29.245  28.880  1.00  0.00    -0.014 A 
BRANCH  30  31
ATOM     31  C   UNL A   1      39.750  28.781  29.166  1.00  0.00     0.031 A 
ATOM     32  C   UNL A   1      40.740  29.710  29.812  1.00  0.00     0.074 A 
ATOM     33  C   UNL A   1      40.141  27.557  28.763  1.00  0.00     0.049 A 
ATOM     34  N   UNL A   1      42.007  29.512  30.076  1.00  0.00    -0.248 NA
ATOM     35  C   UNL A   1      40.250  31.048  30.178  1.00  0.00     0.031 C 
ATOM     36  C   UNL A   1      39.297  26.581  28.070  1.00  0.00     0.029 A 
ATOM     37  N   UNL A   1      41.357  26.929  28.868  1.00  0.00    -0.354 N 
ATOM     38  C   UNL A   1      42.470  30.707  30.612  1.00  0.00     0.074 A 
ATOM     39  C   UNL A   1      41.363  31.639  30.585  1.00  0.00     0.031 C 
ATOM     40  C   UNL A   1      40.014  25.470  27.834  1.00  0.00     0.029 A 
ATOM     41  C   UNL A   1      41.373  25.669  28.324  1.00  0.00     0.049 A 
ATOM     42  H   UNL A   1      42.143  27.344  29.293  1.00  0.00     0.167 HD
ATOM     43  C   UNL A   1      43.698  31.000  31.100  1.00  0.00     0.031 A 
ATOM     44  C   UNL A   1      42.373  24.772  28.223  1.00  0.00     0.031 A 
ATOM     45  C   UNL A   1      44.795  30.071  31.138  1.00  0.00     0.049 A 
ATOM     46  C   UNL A   1      43.725  25.109  28.783  1.00  0.00     0.074 A 
ATOM     47  C   UNL A   1      46.055  30.245  31.683  1.00  0.00     0.029 A 
ATOM     48  N   UNL A   1      44.763  28.793  30.601  1.00  0.00    -0.354 N 
ATOM     49  N   UNL A   1      44.123  26.214  29.366  1.00  0.00    -0.248 NA
ATOM     50  C   UNL A   1      44.760  24.072  28.684  1.00  0.00     0.031 C 
ATOM     51  C   UNL A   1      46.803  29.089  31.430  1.00  0.00     0.029 A 
ATOM     52  C   UNL A   1      45.991  28.176  30.777  1.00  0.00     0.049 A 
ATOM     53  H   UNL A   1      43.983  28.384  30.160  1.00  0.00     0.167 HD
ATOM     54  C   UNL A   1      45.448  25.998  29.722  1.00  0.00     0.074 A 
ATOM     55  C   UNL A   1      45.779  24.651  29.302  1.00  0.00     0.031 C 
ATOM     56  C   UNL A   1      46.310  26.839  30.343  1.00  0.00     0.031 A 
BRANCH  43  57
ATOM     57  C   UNL A   1      43.913  32.395  31.618  1.00  0.00    -0.014 A 
ATOM     58  C   UNL A   1      44.381  33.422  30.782  1.00  0.00     0.009 A 
ATOM     59  C   UNL A   1      43.646  32.688  32.964  1.00  0.00     0.009 A 
ATOM     60  C   UNL A   1      44.631  34.696  31.295  1.00  0.00     0.001 A 
ATOM     61  C   UNL A   1      43.864  33.971  33.468  1.00  0.00     0.001 A 
ATOM     62  C   UNL A   1      44.370  34.970  32.637  1.00  0.00     0.000 A 
ENDBRANCH  43  57
BRANCH  44  63
ATOM     63  C   UNL A   1      42.115  23.456  27.584  1.00  0.00    -0.014 A 
ATOM     64  C   UNL A   1      42.449  23.243  26.237  1.00  0.00     0.009 A 
ATOM     65  C   UNL A   1      41.567  22.397  28.324  1.00  0.00     0.009 A 
ATOM     66  C   UNL A   1      42.226  21.999  25.643  1.00  0.00     0.001 A 
ATOM     67  C   UNL A   1      41.369  21.148  27.733  1.00  0.00     0.001 A 
ATOM     68  C   UNL A   1      41.693  20.952  26.391  1.00  0.00     0.000 A 
ENDBRANCH  44  63
BRANCH  56  69
ATOM     69  C   UNL A   1      47.692  26.321  30.626  1.00  0.00    -0.014 A 
ATOM     70  C   UNL A   1      48.027  25.786  31.880  1.00  0.00     0.009 A 
ATOM     71  C   UNL A   1      48.659  26.326  29.607  1.00  0.00     0.009 A 
ATOM     72  C   UNL A   1      49.313  25.295  32.116  1.00  0.00     0.001 A 
ATOM     73  C   UNL A   1      49.933  25.810  29.838  1.00  0.00     0.001 A 
ATOM     74  C   UNL A   1      50.263  25.303  31.094  1.00  0.00     0.000 A 
ENDBRANCH  56  69
ENDBRANCH  30  31
ENDBRANCH  22  25
ENDBRANCH  20  21
ENDBRANCH  19  20
ENDBRANCH   1  19
TORSDOF 14
ENDMDL
MODEL 3
REMARK VINA RESULT:     -10.6      3.356      4.921
REMARK SMILES CC(C)Cc1ccc([C@H](C)C(=O)NCCCCNC(=O)c2ccc(-c3c4nc(c(-c5ccccc5)c5ccc([nH]5)c(-c5ccccc5)c5nc(c(-c6ccccc6)c6ccc3[nH]6)C=C5)C=C4)cc2)cc1
REMARK SMILES IDX 15 1 14 2 13 3 11 4 12 5 9 7 10 8 8 9 5 10 6 11 70 12 7 13
REMARK SMILES IDX 69 14 4 15 2 16 1 17 3 18 16 19 17 20 18 21 19 22 20 24
REMARK SMILES IDX 21 25 22 26 68 27 23 28 67 29 24 30 25 31 26 32 61 33 27 34
REMARK SMILES IDX 66 35 60 36 62 37 28 38 65 39 59 40 58 41 29 43 51 44 36 45
REMARK SMILES IDX 50 46 37 47 40 48 49 49 63 50 38 51 39 52 48 54 64 55 41 56
REMARK SMILES IDX 30 57 31 58 35 59 32 60 34 61 33 62 52 63 53 64 57 65 54 66
REMARK SMILES IDX 56 67 55 68 42 69 43 70 47 71 44 72 46 73 45 74
REMARK H PARENT 13 6 18 23 62 42 40 53
REMARK Flexibility Score: inf
ROOT
ATOM      1  C   UNL A   1      31.669  30.675  26.073  1.00  0.00     0.023 C 
ENDROOT
BRANCH   1   2
ATOM      2  C   UNL A   1      32.556  29.626  26.735  1.00  0.00     0.116 C 
BRANCH   2   3
ATOM      3  N   UNL A   1      31.836  28.429  27.117  1.00  0.00    -0.356 N 
ATOM      4  C   UNL A   1      31.620  27.279  26.412  1.00  0.00     0.227 C 
ATOM      5  O   UNL A   1      31.086  26.343  27.017  1.00  0.00    -0.274 OA
ATOM      6  H   UNL A   1      31.445  28.446  28.021  1.00  0.00     0.163 HD
BRANCH   4   7
ATOM      7  C   UNL A   1      31.997  27.138  24.927  1.00  0.00     0.105 C 
ATOM      8  C   UNL A   1      32.425  25.710  24.576  1.00  0.00     0.023 C 
BRANCH   7   9
ATOM      9  C   UNL A   1      30.991  27.813  24.002  1.00  0.00    -0.036 A 
ATOM     10  C   UNL A   1      29.200  29.251  22.340  1.00  0.00    -0.048 A 
ATOM     11  C   UNL A   1      28.737  28.227  23.169  1.00  0.00     0.004 A 
ATOM     12  C   UNL A   1      30.572  29.518  22.308  1.00  0.00     0.004 A 
ATOM     13  C   UNL A   1      29.626  27.494  23.962  1.00  0.00     0.005 A 
ATOM     14  C   UNL A   1      31.450  28.826  23.144  1.00  0.00     0.005 A 
BRANCH  10  15
ATOM     15  C   UNL A   1      28.236  30.065  21.509  1.00  0.00     0.038 C 
BRANCH  15  16
ATOM     16  C   UNL A   1      28.543  31.578  21.502  1.00  0.00    -0.013 C 
ATOM     17  C   UNL A   1      27.837  32.318  20.362  1.00  0.00     0.008 C 
ATOM     18  C   UNL A   1      28.123  32.195  22.840  1.00  0.00     0.008 C 
ENDBRANCH  15  16
ENDBRANCH  10  15
ENDBRANCH   7   9
ENDBRANCH   4   7
ENDBRANCH   2   3
ENDBRANCH   1   2
BRANCH   1  19
ATOM     19  C   UNL A   1      31.412  31.927  26.903  1.00  0.00     0.023 C 
BRANCH  19  20
ATOM     20  C   UNL A   1      32.647  32.757  27.229  1.00  0.00     0.116 C 
BRANCH  20  21
ATOM     21  N   UNL A   1      32.343  34.131  27.606  1.00  0.00    -0.352 N 
ATOM     22  C   UNL A   1      32.961  34.944  28.532  1.00  0.00     0.251 C 
ATOM     23  H   UNL A   1      31.585  34.540  27.129  1.00  0.00     0.163 HD
ATOM     24  O   UNL A   1      32.503  36.045  28.793  1.00  0.00    -0.269 OA
BRANCH  22  25
ATOM     25  C   UNL A   1      34.162  34.452  29.238  1.00  0.00     0.039 A 
ATOM     26  C   UNL A   1      34.008  33.831  30.481  1.00  0.00     0.014 A 
ATOM     27  C   UNL A   1      35.427  34.561  28.657  1.00  0.00     0.014 A 
ATOM     28  C   UNL A   1      35.112  33.238  31.097  1.00  0.00     0.010 A 
ATOM     29  C   UNL A   1      36.505  33.893  29.227  1.00  0.00     0.010 A 
ATOM     30  C   UNL A   1      36.359  33.224  30.451  1.00  0.00    -0.014 A 
BRANCH  30  31
ATOM     31  C   UNL A   1      37.520  32.501  31.027  1.00  0.00     0.031 A 
ATOM     32  C   UNL A   1      38.138  32.969  32.314  1.00  0.00     0.074 A 
ATOM     33  C   UNL A   1      38.076  31.480  30.347  1.00  0.00     0.049 A 
ATOM     34  N   UNL A   1      39.197  32.513  32.936  1.00  0.00    -0.248 NA
ATOM     35  C   UNL A   1      37.503  34.122  32.972  1.00  0.00     0.031 C 
ATOM     36  C   UNL A   1      37.612  30.966  29.056  1.00  0.00     0.029 A 
ATOM     37  N   UNL A   1      39.165  30.698  30.643  1.00  0.00    -0.354 N 
ATOM     38  C   UNL A   1      39.368  33.341  34.039  1.00  0.00     0.074 A 
ATOM     39  C   UNL A   1      38.339  34.355  33.971  1.00  0.00     0.031 C 
ATOM     40  C   UNL A   1      38.396  29.941  28.685  1.00  0.00     0.029 A 
ATOM     41  C   UNL A   1      39.436  29.749  29.689  1.00  0.00     0.049 A 
ATOM     42  H   UNL A   1      39.700  30.808  31.463  1.00  0.00     0.167 HD
ATOM     43  C   UNL A   1      40.286  33.255  35.030  1.00  0.00     0.031 A 
ATOM     44  C   UNL A   1      40.417  28.830  29.624  1.00  0.00     0.031 A 
ATOM     45  C   UNL A   1      41.302  32.239  35.104  1.00  0.00     0.049 A 
ATOM     46  C   UNL A   1      41.419  28.740  30.740  1.00  0.00     0.074 A 
ATOM     47  C   UNL A   1      42.230  32.018  36.107  1.00  0.00     0.029 A 
ATOM     48  N   UNL A   1      41.528  31.278  34.131  1.00  0.00    -0.354 N 
ATOM     49  N   UNL A   1      41.516  29.474  31.821  1.00  0.00    -0.248 NA
ATOM     50  C   UNL A   1      42.436  27.686  30.633  1.00  0.00     0.031 C 
ATOM     51  C   UNL A   1      43.050  30.954  35.715  1.00  0.00     0.029 A 
ATOM     52  C   UNL A   1      42.597  30.478  34.495  1.00  0.00     0.049 A 
ATOM     53  H   UNL A   1      41.003  31.178  33.303  1.00  0.00     0.167 HD
ATOM     54  C   UNL A   1      42.591  28.959  32.534  1.00  0.00     0.074 A 
ATOM     55  C   UNL A   1      43.103  27.841  31.768  1.00  0.00     0.031 C 
ATOM     56  C   UNL A   1      43.105  29.375  33.717  1.00  0.00     0.031 A 
BRANCH  43  57
ATOM     57  C   UNL A   1      40.233  34.305  36.104  1.00  0.00    -0.014 A 
ATOM     58  C   UNL A   1      39.440  34.139  37.251  1.00  0.00     0.009 A 
ATOM     59  C   UNL A   1      40.985  35.482  35.968  1.00  0.00     0.009 A 
ATOM     60  C   UNL A   1      39.357  35.150  38.210  1.00  0.00     0.001 A 
ATOM     61  C   UNL A   1      40.927  36.478  36.944  1.00  0.00     0.001 A 
ATOM     62  C   UNL A   1      40.102  36.318  38.056  1.00  0.00     0.000 A 
ENDBRANCH  43  57
BRANCH  44  63
ATOM     63  C   UNL A   1      40.479  27.904  28.465  1.00  0.00    -0.014 A 
ATOM     64  C   UNL A   1      41.219  28.244  27.321  1.00  0.00     0.009 A 
ATOM     65  C   UNL A   1      39.827  26.661  28.506  1.00  0.00     0.009 A 
ATOM     66  C   UNL A   1      41.293  27.364  26.240  1.00  0.00     0.001 A 
ATOM     67  C   UNL A   1      39.923  25.774  27.433  1.00  0.00     0.001 A 
ATOM     68  C   UNL A   1      40.652  26.128  26.298  1.00  0.00     0.000 A 
ENDBRANCH  44  63
BRANCH  56  69
ATOM     69  C   UNL A   1      44.270  28.604  34.269  1.00  0.00    -0.014 A 
ATOM     70  C   UNL A   1      44.078  27.474  35.080  1.00  0.00     0.009 A 
ATOM     71  C   UNL A   1      45.579  28.987  33.934  1.00  0.00     0.009 A 
ATOM     72  C   UNL A   1      45.175  26.762  35.569  1.00  0.00     0.001 A 
ATOM     73  C   UNL A   1      46.672  28.258  34.401  1.00  0.00     0.001 A 
ATOM     74  C   UNL A   1      46.470  27.151  35.226  1.00  0.00     0.000 A 
ENDBRANCH  56  69
ENDBRANCH  30  31
ENDBRANCH  22  25
ENDBRANCH  20  21
ENDBRANCH  19  20
ENDBRANCH   1  19
TORSDOF 14
ENDMDL
