MODEL 1
REMARK VINA RESULT:     -12.9      0.000      0.000
REMARK SMILES O=C(NCCCCNC(=O)c1ccc(-n2cc(CSc3nc4ccccc4c(=O)n3-c3ccc(Cl)cc3)nn2)cc1)c1ccc(-c2c3nc(c(-c4ccccc4)c4ccc([nH]4)c(-c4ccccc4)c4nc(c(-c5ccccc5)c5ccc2[nH]5)C=C4)C=C3)cc1
REMARK SMILES IDX 7 1 6 2 5 3 4 4 3 5 1 6 2 7 42 9 43 10 89 11 44 12 88 13
REMARK SMILES IDX 45 14 46 15 47 16 82 17 48 18 87 19 81 20 83 21 49 22 86 23
REMARK SMILES IDX 80 24 79 25 50 27 72 28 57 29 71 30 58 31 61 32 70 33 84 34
REMARK SMILES IDX 59 35 60 36 69 38 85 39 62 40 51 41 52 42 56 43 53 44 55 45
REMARK SMILES IDX 54 46 73 47 74 48 78 49 75 50 77 51 76 52 63 53 64 54 68 55
REMARK SMILES IDX 65 56 67 57 66 58 8 59 9 60 10 62 11 63 12 64 41 65 13 66
REMARK SMILES IDX 40 67 14 68 15 69 16 70 39 71 17 72 38 73 18 74 19 75 20 76
REMARK SMILES IDX 21 77 30 78 22 79 28 80 23 81 27 82 29 83 24 84 26 85 25 86
REMARK SMILES IDX 31 87 32 88 37 89 33 90 36 91 34 92 35 93
REMARK H PARENT 3 8 83 26 61 37 8 61
REMARK Flexibility Score: inf
ROOT
ATOM      1  C   UNL A   1      35.402  33.961  34.628  1.00  0.00     0.116 C 
ENDROOT
BRANCH   1   2
ATOM      2  C   UNL A   1      36.878  34.203  34.942  1.00  0.00     0.023 C 
BRANCH   2   3
ATOM      3  C   UNL A   1      37.883  33.357  34.149  1.00  0.00     0.023 C 
BRANCH   3   4
ATOM      4  C   UNL A   1      38.975  34.143  33.427  1.00  0.00     0.116 C 
BRANCH   4   5
ATOM      5  N   UNL A   1      38.679  34.447  32.041  1.00  0.00    -0.352 N 
ATOM      6  O   UNL A   1      38.237  34.320  29.883  1.00  0.00    -0.269 OA
ATOM      7  C   UNL A   1      38.686  33.737  30.873  1.00  0.00     0.251 C 
ATOM      8  H   UNL A   1      38.411  35.385  31.911  1.00  0.00     0.163 HD
BRANCH   7   9
ATOM      9  C   UNL A   1      39.232  32.362  30.698  1.00  0.00     0.039 A 
ATOM     10  C   UNL A   1      38.546  31.171  30.931  1.00  0.00     0.014 A 
ATOM     11  C   UNL A   1      40.568  32.287  30.253  1.00  0.00     0.014 A 
ATOM     12  C   UNL A   1      39.192  29.942  30.784  1.00  0.00     0.010 A 
ATOM     13  C   UNL A   1      41.213  31.064  30.093  1.00  0.00     0.010 A 
ATOM     14  C   UNL A   1      40.530  29.888  30.383  1.00  0.00    -0.014 A 
BRANCH  14  15
ATOM     15  C   UNL A   1      41.130  28.576  30.146  1.00  0.00     0.031 A 
ATOM     16  C   UNL A   1      41.960  28.032  31.264  1.00  0.00     0.074 A 
ATOM     17  C   UNL A   1      40.854  27.797  29.080  1.00  0.00     0.049 A 
ATOM     18  N   UNL A   1      43.195  27.647  31.236  1.00  0.00    -0.248 NA
ATOM     19  C   UNL A   1      41.338  27.955  32.596  1.00  0.00     0.031 C 
ATOM     20  C   UNL A   1      39.836  28.006  28.047  1.00  0.00     0.029 A 
ATOM     21  N   UNL A   1      41.370  26.574  28.765  1.00  0.00    -0.354 N 
ATOM     22  C   UNL A   1      43.479  27.154  32.510  1.00  0.00     0.074 A 
ATOM     23  C   UNL A   1      42.330  27.449  33.328  1.00  0.00     0.031 C 
ATOM     24  C   UNL A   1      39.661  26.855  27.358  1.00  0.00     0.029 A 
ATOM     25  C   UNL A   1      40.644  25.882  27.807  1.00  0.00     0.049 A 
ATOM     26  H   UNL A   1      42.187  26.214  29.180  1.00  0.00     0.167 HD
ATOM     27  C   UNL A   1      44.575  26.392  32.780  1.00  0.00     0.031 A 
ATOM     28  C   UNL A   1      40.801  24.585  27.447  1.00  0.00     0.031 A 
ATOM     29  C   UNL A   1      45.583  26.498  31.764  1.00  0.00     0.049 A 
ATOM     30  C   UNL A   1      42.143  24.144  27.884  1.00  0.00     0.074 A 
ATOM     31  C   UNL A   1      46.364  27.524  31.270  1.00  0.00     0.029 A 
ATOM     32  N   UNL A   1      45.681  25.483  30.846  1.00  0.00    -0.354 N 
ATOM     33  N   UNL A   1      43.252  24.571  27.356  1.00  0.00    -0.248 NA
ATOM     34  C   UNL A   1      42.274  23.506  29.182  1.00  0.00     0.031 C 
ATOM     35  C   UNL A   1      46.472  27.262  29.874  1.00  0.00     0.029 A 
ATOM     36  C   UNL A   1      45.789  26.072  29.614  1.00  0.00     0.049 A 
ATOM     37  H   UNL A   1      45.674  24.517  31.037  1.00  0.00     0.167 HD
ATOM     38  C   UNL A   1      44.140  24.653  28.416  1.00  0.00     0.074 A 
ATOM     39  C   UNL A   1      43.522  23.872  29.485  1.00  0.00     0.031 C 
ATOM     40  C   UNL A   1      45.152  25.569  28.418  1.00  0.00     0.031 A 
BRANCH  27  41
ATOM     41  C   UNL A   1      44.597  25.300  33.818  1.00  0.00    -0.014 A 
ATOM     42  C   UNL A   1      43.788  24.163  33.643  1.00  0.00     0.009 A 
ATOM     43  C   UNL A   1      45.182  25.473  35.088  1.00  0.00     0.009 A 
ATOM     44  C   UNL A   1      43.541  23.274  34.699  1.00  0.00     0.001 A 
ATOM     45  C   UNL A   1      44.969  24.568  36.131  1.00  0.00     0.001 A 
ATOM     46  C   UNL A   1      44.129  23.481  35.943  1.00  0.00     0.000 A 
ENDBRANCH  27  41
BRANCH  28  47
ATOM     47  C   UNL A   1      39.785  23.622  26.976  1.00  0.00    -0.014 A 
ATOM     48  C   UNL A   1      38.544  24.062  26.490  1.00  0.00     0.009 A 
ATOM     49  C   UNL A   1      40.143  22.282  26.746  1.00  0.00     0.009 A 
ATOM     50  C   UNL A   1      37.708  23.199  25.767  1.00  0.00     0.001 A 
ATOM     51  C   UNL A   1      39.309  21.420  26.028  1.00  0.00     0.001 A 
ATOM     52  C   UNL A   1      38.097  21.884  25.524  1.00  0.00     0.000 A 
ENDBRANCH  28  47
BRANCH  40  53
ATOM     53  C   UNL A   1      45.420  26.325  27.138  1.00  0.00    -0.014 A 
ATOM     54  C   UNL A   1      44.802  27.552  26.834  1.00  0.00     0.009 A 
ATOM     55  C   UNL A   1      46.429  25.862  26.281  1.00  0.00     0.009 A 
ATOM     56  C   UNL A   1      45.155  28.270  25.687  1.00  0.00     0.001 A 
ATOM     57  C   UNL A   1      46.799  26.592  25.148  1.00  0.00     0.001 A 
ATOM     58  C   UNL A   1      46.158  27.791  24.847  1.00  0.00     0.000 A 
ENDBRANCH  40  53
ENDBRANCH  14  15
ENDBRANCH   7   9
ENDBRANCH   4   5
ENDBRANCH   3   4
ENDBRANCH   2   3
ENDBRANCH   1   2
BRANCH   1  59
ATOM     59  N   UNL A   1      34.769  35.098  33.985  1.00  0.00    -0.352 N 
ATOM     60  C   UNL A   1      34.473  35.313  32.660  1.00  0.00     0.251 C 
ATOM     61  H   UNL A   1      34.512  35.829  34.592  1.00  0.00     0.163 HD
ATOM     62  O   UNL A   1      34.026  36.390  32.302  1.00  0.00    -0.269 OA
BRANCH  60  63
ATOM     63  C   UNL A   1      34.710  34.252  31.658  1.00  0.00     0.039 A 
ATOM     64  C   UNL A   1      34.564  34.579  30.305  1.00  0.00     0.016 A 
ATOM     65  C   UNL A   1      34.994  32.938  32.038  1.00  0.00     0.016 A 
ATOM     66  C   UNL A   1      34.745  33.600  29.325  1.00  0.00     0.029 A 
ATOM     67  C   UNL A   1      35.154  31.950  31.061  1.00  0.00     0.029 A 
ATOM     68  C   UNL A   1      35.019  32.278  29.700  1.00  0.00     0.066 A 
BRANCH  68  69
ATOM     69  N   UNL A   1      35.080  31.278  28.700  1.00  0.00    -0.220 N 
ATOM     70  C   UNL A   1      34.038  30.721  28.004  1.00  0.00     0.141 A 
ATOM     71  N   UNL A   1      36.243  30.745  28.254  1.00  0.00    -0.062 NA
ATOM     72  C   UNL A   1      34.621  29.928  27.040  1.00  0.00     0.093 A 
ATOM     73  N   UNL A   1      35.971  29.912  27.255  1.00  0.00    -0.134 NA
BRANCH  72  74
ATOM     74  C   UNL A   1      33.972  29.044  26.048  1.00  0.00     0.138 C 
BRANCH  74  75
ATOM     75  S   UNL A   1      32.716  27.848  26.516  1.00  0.00    -0.081 SA
BRANCH  75  76
ATOM     76  C   UNL A   1      32.769  26.408  25.531  1.00  0.00     0.176 A 
ATOM     77  N   UNL A   1      33.414  25.445  26.124  1.00  0.00    -0.223 NA
ATOM     78  N   UNL A   1      32.191  26.241  24.278  1.00  0.00    -0.255 N 
ATOM     79  C   UNL A   1      33.613  24.243  25.438  1.00  0.00     0.079 A 
ATOM     80  C   UNL A   1      32.910  25.390  23.425  1.00  0.00     0.266 A 
ATOM     81  C   UNL A   1      34.002  23.085  26.112  1.00  0.00     0.029 A 
ATOM     82  C   UNL A   1      33.517  24.209  24.056  1.00  0.00     0.066 A 
ATOM     83  O   UNL A   1      33.083  25.551  22.218  1.00  0.00    -0.268 OA
ATOM     84  C   UNL A   1      34.344  21.932  25.395  1.00  0.00     0.002 A 
ATOM     85  C   UNL A   1      33.903  23.083  23.321  1.00  0.00     0.016 A 
ATOM     86  C   UNL A   1      34.327  21.941  23.999  1.00  0.00     0.001 A 
BRANCH  78  87
ATOM     87  C   UNL A   1      30.982  26.866  23.767  1.00  0.00     0.051 A 
ATOM     88  C   UNL A   1      31.054  28.088  23.065  1.00  0.00     0.028 A 
ATOM     89  C   UNL A   1      29.696  26.322  23.883  1.00  0.00     0.028 A 
ATOM     90  C   UNL A   1      29.917  28.832  22.725  1.00  0.00     0.022 A 
ATOM     91  C   UNL A   1      28.546  27.079  23.602  1.00  0.00     0.022 A 
ATOM     92  C   UNL A   1      28.665  28.351  23.061  1.00  0.00     0.041 A 
ATOM     93  Cl  UNL A   1      27.274  29.327  22.821  1.00  0.00    -0.084 Cl
ENDBRANCH  78  87
ENDBRANCH  75  76
ENDBRANCH  74  75
ENDBRANCH  72  74
ENDBRANCH  68  69
ENDBRANCH  60  63
ENDBRANCH   1  59
TORSDOF 16
ENDMDL
MODEL 2
REMARK VINA RESULT:     -12.5      3.513      9.665
REMARK SMILES O=C(NCCCCNC(=O)c1ccc(-n2cc(CSc3nc4ccccc4c(=O)n3-c3ccc(Cl)cc3)nn2)cc1)c1ccc(-c2c3nc(c(-c4ccccc4)c4ccc([nH]4)c(-c4ccccc4)c4nc(c(-c5ccccc5)c5ccc2[nH]5)C=C4)C=C3)cc1
REMARK SMILES IDX 7 1 6 2 5 3 4 4 3 5 1 6 2 7 42 9 43 10 89 11 44 12 88 13
REMARK SMILES IDX 45 14 46 15 47 16 82 17 48 18 87 19 81 20 83 21 49 22 86 23
REMARK SMILES IDX 80 24 79 25 50 27 72 28 57 29 71 30 58 31 61 32 70 33 84 34
REMARK SMILES IDX 59 35 60 36 69 38 85 39 62 40 51 41 52 42 56 43 53 44 55 45
REMARK SMILES IDX 54 46 73 47 74 48 78 49 75 50 77 51 76 52 63 53 64 54 68 55
REMARK SMILES IDX 65 56 67 57 66 58 8 59 9 60 10 62 11 63 12 64 41 65 13 66
REMARK SMILES IDX 40 67 14 68 15 69 16 70 39 71 17 72 38 73 18 74 19 75 20 76
REMARK SMILES IDX 21 77 30 78 22 79 28 80 23 81 27 82 29 83 24 84 26 85 25 86
REMARK SMILES IDX 31 87 32 88 37 89 33 90 36 91 34 92 35 93
REMARK H PARENT 3 8 83 26 61 37 8 61
REMARK Flexibility Score: inf
ROOT
ATOM      1  C   UNL A   1      45.772  28.104  27.737  1.00  0.00     0.116 C 
ENDROOT
BRANCH   1   2
ATOM      2  C   UNL A   1      47.017  28.000  28.618  1.00  0.00     0.023 C 
BRANCH   2   3
ATOM      3  C   UNL A   1      47.459  26.581  28.996  1.00  0.00     0.023 C 
BRANCH   3   4
ATOM      4  C   UNL A   1      46.615  25.452  28.409  1.00  0.00     0.116 C 
BRANCH   4   5
ATOM      5  N   UNL A   1      45.938  24.634  29.395  1.00  0.00    -0.352 N 
ATOM      6  O   UNL A   1      44.467  23.774  30.797  1.00  0.00    -0.269 OA
ATOM      7  C   UNL A   1      44.800  24.765  30.142  1.00  0.00     0.251 C 
ATOM      8  H   UNL A   1      46.407  23.786  29.568  1.00  0.00     0.163 HD
BRANCH   7   9
ATOM      9  C   UNL A   1      43.980  26.003  30.263  1.00  0.00     0.039 A 
ATOM     10  C   UNL A   1      44.074  26.953  31.280  1.00  0.00     0.014 A 
ATOM     11  C   UNL A   1      43.031  26.209  29.242  1.00  0.00     0.014 A 
ATOM     12  C   UNL A   1      43.204  28.044  31.311  1.00  0.00     0.010 A 
ATOM     13  C   UNL A   1      42.169  27.302  29.261  1.00  0.00     0.010 A 
ATOM     14  C   UNL A   1      42.239  28.210  30.313  1.00  0.00    -0.014 A 
BRANCH  14  15
ATOM     15  C   UNL A   1      41.421  29.421  30.334  1.00  0.00     0.031 A 
ATOM     16  C   UNL A   1      42.147  30.699  30.062  1.00  0.00     0.074 A 
ATOM     17  C   UNL A   1      40.075  29.425  30.424  1.00  0.00     0.049 A 
ATOM     18  N   UNL A   1      42.209  31.762  30.798  1.00  0.00    -0.248 NA
ATOM     19  C   UNL A   1      42.948  30.775  28.830  1.00  0.00     0.031 C 
ATOM     20  C   UNL A   1      39.162  28.281  30.376  1.00  0.00     0.029 A 
ATOM     21  N   UNL A   1      39.229  30.496  30.467  1.00  0.00    -0.354 N 
ATOM     22  C   UNL A   1      42.945  32.697  30.071  1.00  0.00     0.074 A 
ATOM     23  C   UNL A   1      43.448  32.008  28.909  1.00  0.00     0.031 C 
ATOM     24  C   UNL A   1      37.901  28.728  30.170  1.00  0.00     0.029 A 
ATOM     25  C   UNL A   1      37.903  30.181  30.211  1.00  0.00     0.049 A 
ATOM     26  H   UNL A   1      39.534  31.411  30.663  1.00  0.00     0.167 HD
ATOM     27  C   UNL A   1      42.968  34.023  30.381  1.00  0.00     0.031 A 
ATOM     28  C   UNL A   1      36.888  31.051  29.994  1.00  0.00     0.031 A 
ATOM     29  C   UNL A   1      42.522  34.281  31.721  1.00  0.00     0.049 A 
ATOM     30  C   UNL A   1      37.294  32.373  30.517  1.00  0.00     0.074 A 
ATOM     31  C   UNL A   1      42.969  33.934  32.980  1.00  0.00     0.029 A 
ATOM     32  N   UNL A   1      41.241  34.740  31.895  1.00  0.00    -0.354 N 
ATOM     33  N   UNL A   1      37.436  32.637  31.782  1.00  0.00    -0.248 NA
ATOM     34  C   UNL A   1      37.922  33.316  29.607  1.00  0.00     0.031 C 
ATOM     35  C   UNL A   1      41.783  33.730  33.745  1.00  0.00     0.029 A 
ATOM     36  C   UNL A   1      40.694  34.010  32.918  1.00  0.00     0.049 A 
ATOM     37  H   UNL A   1      40.799  35.457  31.384  1.00  0.00     0.167 HD
ATOM     38  C   UNL A   1      38.512  33.508  31.843  1.00  0.00     0.074 A 
ATOM     39  C   UNL A   1      38.690  33.982  30.473  1.00  0.00     0.031 C 
ATOM     40  C   UNL A   1      39.325  33.547  32.940  1.00  0.00     0.031 A 
BRANCH  27  41
ATOM     41  C   UNL A   1      43.098  35.119  29.356  1.00  0.00    -0.014 A 
ATOM     42  C   UNL A   1      42.019  35.392  28.495  1.00  0.00     0.009 A 
ATOM     43  C   UNL A   1      44.334  35.710  29.030  1.00  0.00     0.009 A 
ATOM     44  C   UNL A   1      42.184  36.176  27.345  1.00  0.00     0.001 A 
ATOM     45  C   UNL A   1      44.492  36.524  27.905  1.00  0.00     0.001 A 
ATOM     46  C   UNL A   1      43.423  36.738  27.049  1.00  0.00     0.000 A 
ENDBRANCH  27  41
BRANCH  28  47
ATOM     47  C   UNL A   1      35.691  30.889  29.143  1.00  0.00    -0.014 A 
ATOM     48  C   UNL A   1      34.802  31.955  28.937  1.00  0.00     0.009 A 
ATOM     49  C   UNL A   1      35.572  29.764  28.309  1.00  0.00     0.009 A 
ATOM     50  C   UNL A   1      33.853  31.910  27.907  1.00  0.00     0.001 A 
ATOM     51  C   UNL A   1      34.624  29.717  27.283  1.00  0.00     0.001 A 
ATOM     52  C   UNL A   1      33.773  30.798  27.072  1.00  0.00     0.000 A 
ENDBRANCH  28  47
BRANCH  40  53
ATOM     53  C   UNL A   1      38.884  32.792  34.171  1.00  0.00    -0.014 A 
ATOM     54  C   UNL A   1      39.163  31.428  34.368  1.00  0.00     0.009 A 
ATOM     55  C   UNL A   1      38.296  33.507  35.225  1.00  0.00     0.009 A 
ATOM     56  C   UNL A   1      38.828  30.791  35.568  1.00  0.00     0.001 A 
ATOM     57  C   UNL A   1      37.984  32.878  36.432  1.00  0.00     0.001 A 
ATOM     58  C   UNL A   1      38.242  31.519  36.602  1.00  0.00     0.000 A 
ENDBRANCH  40  53
ENDBRANCH  14  15
ENDBRANCH   7   9
ENDBRANCH   4   5
ENDBRANCH   3   4
ENDBRANCH   2   3
ENDBRANCH   1   2
BRANCH   1  59
ATOM     59  N   UNL A   1      46.088  28.194  26.324  1.00  0.00    -0.352 N 
ATOM     60  C   UNL A   1      45.514  27.563  25.246  1.00  0.00     0.251 C 
ATOM     61  H   UNL A   1      46.830  28.802  26.101  1.00  0.00     0.163 HD
ATOM     62  O   UNL A   1      45.996  27.695  24.133  1.00  0.00    -0.269 OA
BRANCH  60  63
ATOM     63  C   UNL A   1      44.324  26.704  25.428  1.00  0.00     0.039 A 
ATOM     64  C   UNL A   1      43.068  27.319  25.470  1.00  0.00     0.016 A 
ATOM     65  C   UNL A   1      44.442  25.327  25.634  1.00  0.00     0.016 A 
ATOM     66  C   UNL A   1      41.919  26.550  25.674  1.00  0.00     0.029 A 
ATOM     67  C   UNL A   1      43.296  24.558  25.861  1.00  0.00     0.029 A 
ATOM     68  C   UNL A   1      42.031  25.171  25.892  1.00  0.00     0.066 A 
BRANCH  68  69
ATOM     69  N   UNL A   1      40.869  24.429  26.216  1.00  0.00    -0.220 N 
ATOM     70  C   UNL A   1      39.570  24.867  26.231  1.00  0.00     0.141 A 
ATOM     71  N   UNL A   1      40.894  23.112  26.532  1.00  0.00    -0.062 NA
ATOM     72  C   UNL A   1      38.805  23.742  26.444  1.00  0.00     0.093 A 
ATOM     73  N   UNL A   1      39.644  22.690  26.687  1.00  0.00    -0.134 NA
BRANCH  72  74
ATOM     74  C   UNL A   1      37.340  23.633  26.613  1.00  0.00     0.138 C 
BRANCH  74  75
ATOM     75  S   UNL A   1      36.259  23.143  25.265  1.00  0.00    -0.081 SA
BRANCH  75  76
ATOM     76  C   UNL A   1      34.677  23.871  25.382  1.00  0.00     0.176 A 
ATOM     77  N   UNL A   1      34.729  25.162  25.220  1.00  0.00    -0.223 NA
ATOM     78  N   UNL A   1      33.474  23.206  25.592  1.00  0.00    -0.255 N 
ATOM     79  C   UNL A   1      33.555  25.907  25.359  1.00  0.00     0.079 A 
ATOM     80  C   UNL A   1      32.537  23.940  26.335  1.00  0.00     0.266 A 
ATOM     81  C   UNL A   1      33.476  27.221  24.893  1.00  0.00     0.029 A 
ATOM     82  C   UNL A   1      32.477  25.381  26.051  1.00  0.00     0.066 A 
ATOM     83  O   UNL A   1      31.784  23.491  27.198  1.00  0.00    -0.268 OA
ATOM     84  C   UNL A   1      32.350  28.004  25.173  1.00  0.00     0.002 A 
ATOM     85  C   UNL A   1      31.366  26.163  26.384  1.00  0.00     0.016 A 
ATOM     86  C   UNL A   1      31.310  27.486  25.947  1.00  0.00     0.001 A 
BRANCH  78  87
ATOM     87  C   UNL A   1      33.115  21.862  25.168  1.00  0.00     0.051 A 
ATOM     88  C   UNL A   1      33.319  20.766  26.033  1.00  0.00     0.028 A 
ATOM     89  C   UNL A   1      32.529  21.547  23.936  1.00  0.00     0.028 A 
ATOM     90  C   UNL A   1      33.180  19.437  25.612  1.00  0.00     0.022 A 
ATOM     91  C   UNL A   1      32.439  20.222  23.479  1.00  0.00     0.022 A 
ATOM     92  C   UNL A   1      32.807  19.172  24.308  1.00  0.00     0.041 A 
ATOM     93  Cl  UNL A   1      32.810  17.561  23.720  1.00  0.00    -0.084 Cl
ENDBRANCH  78  87
ENDBRANCH  75  76
ENDBRANCH  74  75
ENDBRANCH  72  74
ENDBRANCH  68  69
ENDBRANCH  60  63
ENDBRANCH   1  59
TORSDOF 16
ENDMDL
MODEL 3
REMARK VINA RESULT:     -12.4      1.458      3.032
REMARK SMILES O=C(NCCCCNC(=O)c1ccc(-n2cc(CSc3nc4ccccc4c(=O)n3-c3ccc(Cl)cc3)nn2)cc1)c1ccc(-c2c3nc(c(-c4ccccc4)c4ccc([nH]4)c(-c4ccccc4)c4nc(c(-c5ccccc5)c5ccc2[nH]5)C=C4)C=C3)cc1
REMARK SMILES IDX 7 1 6 2 5 3 4 4 3 5 1 6 2 7 42 9 43 10 89 11 44 12 88 13
REMARK SMILES IDX 45 14 46 15 47 16 82 17 48 18 87 19 81 20 83 21 49 22 86 23
REMARK SMILES IDX 80 24 79 25 50 27 72 28 57 29 71 30 58 31 61 32 70 33 84 34
REMARK SMILES IDX 59 35 60 36 69 38 85 39 62 40 51 41 52 42 56 43 53 44 55 45
REMARK SMILES IDX 54 46 73 47 74 48 78 49 75 50 77 51 76 52 63 53 64 54 68 55
REMARK SMILES IDX 65 56 67 57 66 58 8 59 9 60 10 62 11 63 12 64 41 65 13 66
REMARK SMILES IDX 40 67 14 68 15 69 16 70 39 71 17 72 38 73 18 74 19 75 20 76
REMARK SMILES IDX 21 77 30 78 22 79 28 80 23 81 27 82 29 83 24 84 26 85 25 86
REMARK SMILES IDX 31 87 32 88 37 89 33 90 36 91 34 92 35 93
REMARK H PARENT 3 8 83 26 61 37 8 61
REMARK Flexibility Score: inf
ROOT
ATOM      1  C   UNL A   1      35.821  33.795  34.719  1.00  0.00     0.116 C 
ENDROOT
BRANCH   1   2
ATOM      2  C   UNL A   1      37.293  34.006  35.071  1.00  0.00     0.023 C 
BRANCH   2   3
ATOM      3  C   UNL A   1      38.313  33.363  34.123  1.00  0.00     0.023 C 
BRANCH   3   4
ATOM      4  C   UNL A   1      39.202  34.339  33.355  1.00  0.00     0.116 C 
BRANCH   4   5
ATOM      5  N   UNL A   1      38.792  34.573  31.985  1.00  0.00    -0.352 N 
ATOM      6  O   UNL A   1      38.181  34.337  29.878  1.00  0.00    -0.269 OA
ATOM      7  C   UNL A   1      38.715  33.806  30.856  1.00  0.00     0.251 C 
ATOM      8  H   UNL A   1      38.502  35.501  31.832  1.00  0.00     0.163 HD
BRANCH   7   9
ATOM      9  C   UNL A   1      39.263  32.430  30.703  1.00  0.00     0.039 A 
ATOM     10  C   UNL A   1      38.545  31.242  30.836  1.00  0.00     0.014 A 
ATOM     11  C   UNL A   1      40.636  32.350  30.395  1.00  0.00     0.014 A 
ATOM     12  C   UNL A   1      39.190  30.009  30.726  1.00  0.00     0.010 A 
ATOM     13  C   UNL A   1      41.282  31.123  30.272  1.00  0.00     0.010 A 
ATOM     14  C   UNL A   1      40.562  29.948  30.462  1.00  0.00    -0.014 A 
BRANCH  14  15
ATOM     15  C   UNL A   1      41.171  28.635  30.255  1.00  0.00     0.031 A 
ATOM     16  C   UNL A   1      41.970  28.104  31.401  1.00  0.00     0.074 A 
ATOM     17  C   UNL A   1      40.925  27.845  29.191  1.00  0.00     0.049 A 
ATOM     18  N   UNL A   1      43.206  27.721  31.411  1.00  0.00    -0.248 NA
ATOM     19  C   UNL A   1      41.311  28.040  32.716  1.00  0.00     0.031 C 
ATOM     20  C   UNL A   1      39.936  28.041  28.128  1.00  0.00     0.029 A 
ATOM     21  N   UNL A   1      41.452  26.619  28.902  1.00  0.00    -0.354 N 
ATOM     22  C   UNL A   1      43.455  27.242  32.697  1.00  0.00     0.074 A 
ATOM     23  C   UNL A   1      42.283  27.543  33.481  1.00  0.00     0.031 C 
ATOM     24  C   UNL A   1      39.782  26.882  27.446  1.00  0.00     0.029 A 
ATOM     25  C   UNL A   1      40.753  25.916  27.932  1.00  0.00     0.049 A 
ATOM     26  H   UNL A   1      42.258  26.265  29.343  1.00  0.00     0.167 HD
ATOM     27  C   UNL A   1      44.544  26.484  33.006  1.00  0.00     0.031 A 
ATOM     28  C   UNL A   1      40.922  24.616  27.589  1.00  0.00     0.031 A 
ATOM     29  C   UNL A   1      45.580  26.582  32.017  1.00  0.00     0.049 A 
ATOM     30  C   UNL A   1      42.252  24.182  28.068  1.00  0.00     0.074 A 
ATOM     31  C   UNL A   1      46.373  27.605  31.534  1.00  0.00     0.029 A 
ATOM     32  N   UNL A   1      45.705  25.558  31.113  1.00  0.00    -0.354 N 
ATOM     33  N   UNL A   1      43.374  24.605  27.566  1.00  0.00    -0.248 NA
ATOM     34  C   UNL A   1      42.349  23.558  29.376  1.00  0.00     0.031 C 
ATOM     35  C   UNL A   1      46.519  27.328  30.144  1.00  0.00     0.029 A 
ATOM     36  C   UNL A   1      45.846  26.134  29.878  1.00  0.00     0.049 A 
ATOM     37  H   UNL A   1      45.695  24.594  31.313  1.00  0.00     0.167 HD
ATOM     38  C   UNL A   1      44.232  24.700  28.650  1.00  0.00     0.074 A 
ATOM     39  C   UNL A   1      43.587  23.929  29.710  1.00  0.00     0.031 C 
ATOM     40  C   UNL A   1      45.244  25.618  28.670  1.00  0.00     0.031 A 
BRANCH  27  41
ATOM     41  C   UNL A   1      44.540  25.404  34.055  1.00  0.00    -0.014 A 
ATOM     42  C   UNL A   1      45.296  25.577  35.229  1.00  0.00     0.009 A 
ATOM     43  C   UNL A   1      44.035  24.112  33.812  1.00  0.00     0.009 A 
ATOM     44  C   UNL A   1      45.570  24.501  36.085  1.00  0.00     0.001 A 
ATOM     45  C   UNL A   1      44.273  23.047  34.685  1.00  0.00     0.001 A 
ATOM     46  C   UNL A   1      45.061  23.236  35.809  1.00  0.00     0.000 A 
ENDBRANCH  27  41
BRANCH  28  47
ATOM     47  C   UNL A   1      39.920  23.646  27.101  1.00  0.00    -0.014 A 
ATOM     48  C   UNL A   1      38.680  24.077  26.605  1.00  0.00     0.009 A 
ATOM     49  C   UNL A   1      40.295  22.311  26.866  1.00  0.00     0.009 A 
ATOM     50  C   UNL A   1      37.862  23.211  25.867  1.00  0.00     0.001 A 
ATOM     51  C   UNL A   1      39.477  21.446  26.132  1.00  0.00     0.001 A 
ATOM     52  C   UNL A   1      38.267  21.902  25.619  1.00  0.00     0.000 A 
ENDBRANCH  28  47
BRANCH  40  53
ATOM     53  C   UNL A   1      45.545  26.361  27.390  1.00  0.00    -0.014 A 
ATOM     54  C   UNL A   1      44.811  27.485  26.971  1.00  0.00     0.009 A 
ATOM     55  C   UNL A   1      46.689  26.007  26.659  1.00  0.00     0.009 A 
ATOM     56  C   UNL A   1      45.188  28.207  25.833  1.00  0.00     0.001 A 
ATOM     57  C   UNL A   1      47.080  26.742  25.538  1.00  0.00     0.001 A 
ATOM     58  C   UNL A   1      46.326  27.837  25.120  1.00  0.00     0.000 A 
ENDBRANCH  40  53
ENDBRANCH  14  15
ENDBRANCH   7   9
ENDBRANCH   4   5
ENDBRANCH   3   4
ENDBRANCH   2   3
ENDBRANCH   1   2
BRANCH   1  59
ATOM     59  N   UNL A   1      35.199  34.983  34.165  1.00  0.00    -0.352 N 
ATOM     60  C   UNL A   1      34.794  35.253  32.880  1.00  0.00     0.251 C 
ATOM     61  H   UNL A   1      35.041  35.709  34.811  1.00  0.00     0.163 HD
ATOM     62  O   UNL A   1      34.379  36.364  32.592  1.00  0.00    -0.269 OA
BRANCH  60  63
ATOM     63  C   UNL A   1      34.876  34.211  31.834  1.00  0.00     0.039 A 
ATOM     64  C   UNL A   1      34.580  34.575  30.516  1.00  0.00     0.016 A 
ATOM     65  C   UNL A   1      35.161  32.880  32.150  1.00  0.00     0.016 A 
ATOM     66  C   UNL A   1      34.611  33.616  29.501  1.00  0.00     0.029 A 
ATOM     67  C   UNL A   1      35.172  31.913  31.140  1.00  0.00     0.029 A 
ATOM     68  C   UNL A   1      34.886  32.278  29.812  1.00  0.00     0.066 A 
BRANCH  68  69
ATOM     69  N   UNL A   1      34.795  31.301  28.791  1.00  0.00    -0.220 N 
ATOM     70  C   UNL A   1      33.838  31.193  27.815  1.00  0.00     0.141 A 
ATOM     71  N   UNL A   1      35.714  30.321  28.618  1.00  0.00    -0.062 NA
ATOM     72  C   UNL A   1      34.279  30.193  26.976  1.00  0.00     0.093 A 
ATOM     73  N   UNL A   1      35.399  29.634  27.526  1.00  0.00    -0.134 NA
BRANCH  72  74
ATOM     74  C   UNL A   1      33.611  29.614  25.791  1.00  0.00     0.138 C 
BRANCH  74  75
ATOM     75  S   UNL A   1      32.543  28.175  25.908  1.00  0.00    -0.081 SA
BRANCH  75  76
ATOM     76  C   UNL A   1      31.282  28.182  24.701  1.00  0.00     0.176 A 
ATOM     77  N   UNL A   1      30.994  29.392  24.316  1.00  0.00    -0.223 NA
ATOM     78  N   UNL A   1      30.650  27.069  24.159  1.00  0.00    -0.255 N 
ATOM     79  C   UNL A   1      29.950  29.579  23.405  1.00  0.00     0.079 A 
ATOM     80  C   UNL A   1      29.304  27.284  23.822  1.00  0.00     0.266 A 
ATOM     81  C   UNL A   1      29.801  30.786  22.719  1.00  0.00     0.029 A 
ATOM     82  C   UNL A   1      28.988  28.596  23.240  1.00  0.00     0.066 A 
ATOM     83  O   UNL A   1      28.382  26.486  23.981  1.00  0.00    -0.268 OA
ATOM     84  C   UNL A   1      28.668  31.012  21.927  1.00  0.00     0.002 A 
ATOM     85  C   UNL A   1      27.826  28.823  22.495  1.00  0.00     0.016 A 
ATOM     86  C   UNL A   1      27.665  30.044  21.842  1.00  0.00     0.001 A 
BRANCH  78  87
ATOM     87  C   UNL A   1      31.208  25.743  23.949  1.00  0.00     0.051 A 
ATOM     88  C   UNL A   1      31.087  24.754  24.949  1.00  0.00     0.028 A 
ATOM     89  C   UNL A   1      31.856  25.330  22.778  1.00  0.00     0.028 A 
ATOM     90  C   UNL A   1      31.770  23.533  24.888  1.00  0.00     0.022 A 
ATOM     91  C   UNL A   1      32.594  24.135  22.725  1.00  0.00     0.022 A 
ATOM     92  C   UNL A   1      32.580  23.260  23.802  1.00  0.00     0.041 A 
ATOM     93  Cl  UNL A   1      33.567  21.856  23.793  1.00  0.00    -0.084 Cl
ENDBRANCH  78  87
ENDBRANCH  75  76
ENDBRANCH  74  75
ENDBRANCH  72  74
ENDBRANCH  68  69
ENDBRANCH  60  63
ENDBRANCH   1  59
TORSDOF 16
ENDMDL
