MODEL 1
REMARK VINA RESULT:     -11.5      0.000      0.000
REMARK SMILES Cc1ccc([C@@H](Cc2cccs2)C(=O)NCCCCNC(=O)c2ccc(-c3c4nc(c(-c5ccccc5)c5ccc([nH]5)c(-c5ccccc5)c5nc(c(-c6ccccc6)c6ccc3[nH]6)C=C5)C=C4)cc2)cc1
REMARK SMILES IDX 17 1 16 2 15 3 13 4 14 5 6 7 5 8 1 9 2 10 3 11 72 12 4 13
REMARK SMILES IDX 71 14 7 15 8 16 9 17 12 18 10 19 11 20 18 21 19 22 20 23
REMARK SMILES IDX 21 24 22 26 23 27 24 28 70 29 25 30 69 31 26 32 27 33 28 34
REMARK SMILES IDX 63 35 29 36 68 37 62 38 64 39 30 40 67 41 61 42 60 43 31 45
REMARK SMILES IDX 53 46 38 47 52 48 39 49 42 50 51 51 65 52 40 53 41 54 50 56
REMARK SMILES IDX 66 57 43 58 32 59 33 60 37 61 34 62 36 63 35 64 54 65 55 66
REMARK SMILES IDX 59 67 56 68 58 69 57 70 44 71 45 72 49 73 46 74 48 75 47 76
REMARK H PARENT 15 6 20 25 64 44 42 55
REMARK Flexibility Score: inf
ROOT
ATOM      1  C   UNL A   1      33.215  28.277  26.949  1.00  0.00     0.023 C 
ENDROOT
BRANCH   1   2
ATOM      2  C   UNL A   1      32.155  27.851  25.930  1.00  0.00     0.116 C 
BRANCH   2   3
ATOM      3  N   UNL A   1      31.123  26.971  26.429  1.00  0.00    -0.356 N 
ATOM      4  C   UNL A   1      30.377  26.023  25.798  1.00  0.00     0.227 C 
ATOM      5  O   UNL A   1      29.746  25.258  26.541  1.00  0.00    -0.274 OA
ATOM      6  H   UNL A   1      30.926  27.075  27.388  1.00  0.00     0.163 HD
BRANCH   4   7
ATOM      7  C   UNL A   1      30.259  25.857  24.269  1.00  0.00     0.113 C 
BRANCH   7   8
ATOM      8  C   UNL A   1      29.669  27.076  23.558  1.00  0.00    -0.035 A 
ATOM      9  C   UNL A   1      27.948  30.639  21.773  1.00  0.00     0.044 C 
ATOM     10  C   UNL A   1      28.517  29.392  22.376  1.00  0.00    -0.051 A 
ATOM     11  C   UNL A   1      29.879  29.134  22.256  1.00  0.00     0.004 A 
ATOM     12  C   UNL A   1      27.726  28.490  23.090  1.00  0.00     0.004 A 
ATOM     13  C   UNL A   1      30.435  27.991  22.833  1.00  0.00     0.005 A 
ATOM     14  C   UNL A   1      28.295  27.352  23.676  1.00  0.00     0.005 A 
ENDBRANCH   7   8
BRANCH   7  15
ATOM     15  C   UNL A   1      31.351  24.985  23.584  1.00  0.00     0.065 C 
BRANCH  15  16
ATOM     16  C   UNL A   1      32.554  24.600  24.396  1.00  0.00     0.006 A 
ATOM     17  C   UNL A   1      33.805  25.192  24.400  1.00  0.00     0.015 A 
ATOM     18  S   UNL A   1      32.541  23.230  25.439  1.00  0.00    -0.149 S 
ATOM     19  C   UNL A   1      34.583  24.776  25.515  1.00  0.00     0.012 A 
ATOM     20  C   UNL A   1      33.956  23.784  26.231  1.00  0.00     0.065 A 
ENDBRANCH  15  16
ENDBRANCH   7  15
ENDBRANCH   4   7
ENDBRANCH   2   3
ENDBRANCH   1   2
BRANCH   1  21
ATOM     21  C   UNL A   1      33.009  29.653  27.579  1.00  0.00     0.023 C 
BRANCH  21  22
ATOM     22  C   UNL A   1      33.877  30.753  26.979  1.00  0.00     0.116 C 
BRANCH  22  23
ATOM     23  N   UNL A   1      34.501  31.689  27.899  1.00  0.00    -0.352 N 
ATOM     24  C   UNL A   1      35.567  31.489  28.775  1.00  0.00     0.251 C 
ATOM     25  H   UNL A   1      34.116  32.595  27.904  1.00  0.00     0.163 HD
ATOM     26  O   UNL A   1      35.857  32.370  29.566  1.00  0.00    -0.269 OA
BRANCH  24  27
ATOM     27  C   UNL A   1      36.450  30.285  28.658  1.00  0.00     0.039 A 
ATOM     28  C   UNL A   1      36.563  29.432  29.767  1.00  0.00     0.014 A 
ATOM     29  C   UNL A   1      37.316  30.104  27.590  1.00  0.00     0.014 A 
ATOM     30  C   UNL A   1      37.691  28.620  29.908  1.00  0.00     0.010 A 
ATOM     31  C   UNL A   1      38.504  29.443  27.794  1.00  0.00     0.010 A 
ATOM     32  C   UNL A   1      38.714  28.736  28.975  1.00  0.00    -0.014 A 
BRANCH  32  33
ATOM     33  C   UNL A   1      40.070  28.242  29.153  1.00  0.00     0.031 A 
ATOM     34  C   UNL A   1      40.481  26.959  28.564  1.00  0.00     0.074 A 
ATOM     35  C   UNL A   1      41.005  29.079  29.647  1.00  0.00     0.049 A 
ATOM     36  N   UNL A   1      41.536  26.317  28.927  1.00  0.00    -0.248 NA
ATOM     37  C   UNL A   1      39.723  26.283  27.517  1.00  0.00     0.031 C 
ATOM     38  C   UNL A   1      42.459  28.987  29.548  1.00  0.00     0.029 A 
ATOM     39  N   UNL A   1      40.795  30.164  30.499  1.00  0.00    -0.354 N 
ATOM     40  C   UNL A   1      41.774  25.363  27.971  1.00  0.00     0.074 A 
ATOM     41  C   UNL A   1      40.574  25.315  27.169  1.00  0.00     0.031 C 
ATOM     42  C   UNL A   1      43.007  29.761  30.501  1.00  0.00     0.029 A 
ATOM     43  C   UNL A   1      41.922  30.231  31.345  1.00  0.00     0.049 A 
ATOM     44  H   UNL A   1      40.013  30.763  30.510  1.00  0.00     0.167 HD
ATOM     45  C   UNL A   1      43.019  24.823  27.868  1.00  0.00     0.031 A 
ATOM     46  C   UNL A   1      41.795  29.987  32.683  1.00  0.00     0.031 A 
ATOM     47  C   UNL A   1      43.939  25.358  28.874  1.00  0.00     0.049 A 
ATOM     48  C   UNL A   1      42.557  28.766  33.158  1.00  0.00     0.074 A 
ATOM     49  C   UNL A   1      44.996  26.254  28.842  1.00  0.00     0.029 A 
ATOM     50  N   UNL A   1      43.622  25.197  30.213  1.00  0.00    -0.354 N 
ATOM     51  N   UNL A   1      43.208  27.958  32.368  1.00  0.00    -0.248 NA
ATOM     52  C   UNL A   1      42.569  28.302  34.546  1.00  0.00     0.031 C 
ATOM     53  C   UNL A   1      45.320  26.610  30.184  1.00  0.00     0.029 A 
ATOM     54  C   UNL A   1      44.471  25.919  31.027  1.00  0.00     0.049 A 
ATOM     55  H   UNL A   1      42.884  24.635  30.543  1.00  0.00     0.167 HD
ATOM     56  C   UNL A   1      43.658  26.877  33.074  1.00  0.00     0.074 A 
ATOM     57  C   UNL A   1      43.239  27.140  34.439  1.00  0.00     0.031 C 
ATOM     58  C   UNL A   1      44.295  25.833  32.469  1.00  0.00     0.031 A 
BRANCH  45  59
ATOM     59  C   UNL A   1      43.459  23.990  26.692  1.00  0.00    -0.014 A 
ATOM     60  C   UNL A   1      43.227  22.604  26.697  1.00  0.00     0.009 A 
ATOM     61  C   UNL A   1      44.121  24.501  25.563  1.00  0.00     0.009 A 
ATOM     62  C   UNL A   1      43.712  21.767  25.684  1.00  0.00     0.001 A 
ATOM     63  C   UNL A   1      44.647  23.667  24.567  1.00  0.00     0.001 A 
ATOM     64  C   UNL A   1      44.449  22.295  24.633  1.00  0.00     0.000 A 
ENDBRANCH  45  59
BRANCH  46  65
ATOM     65  C   UNL A   1      40.484  30.453  33.225  1.00  0.00    -0.014 A 
ATOM     66  C   UNL A   1      40.242  31.843  33.279  1.00  0.00     0.009 A 
ATOM     67  C   UNL A   1      39.385  29.584  33.288  1.00  0.00     0.009 A 
ATOM     68  C   UNL A   1      38.937  32.346  33.255  1.00  0.00     0.001 A 
ATOM     69  C   UNL A   1      38.079  30.094  33.282  1.00  0.00     0.001 A 
ATOM     70  C   UNL A   1      37.856  31.469  33.222  1.00  0.00     0.000 A 
ENDBRANCH  46  65
BRANCH  58  71
ATOM     71  C   UNL A   1      44.782  24.599  33.178  1.00  0.00    -0.014 A 
ATOM     72  C   UNL A   1      43.950  23.522  33.501  1.00  0.00     0.009 A 
ATOM     73  C   UNL A   1      46.110  24.545  33.658  1.00  0.00     0.009 A 
ATOM     74  C   UNL A   1      44.441  22.417  34.211  1.00  0.00     0.001 A 
ATOM     75  C   UNL A   1      46.597  23.458  34.385  1.00  0.00     0.001 A 
ATOM     76  C   UNL A   1      45.764  22.384  34.649  1.00  0.00     0.000 A 
ENDBRANCH  58  71
ENDBRANCH  32  33
ENDBRANCH  24  27
ENDBRANCH  22  23
ENDBRANCH  21  22
ENDBRANCH   1  21
TORSDOF 14
ENDMDL
MODEL 2
REMARK VINA RESULT:     -11.4      1.901      3.317
REMARK SMILES Cc1ccc([C@@H](Cc2cccs2)C(=O)NCCCCNC(=O)c2ccc(-c3c4nc(c(-c5ccccc5)c5ccc([nH]5)c(-c5ccccc5)c5nc(c(-c6ccccc6)c6ccc3[nH]6)C=C5)C=C4)cc2)cc1
REMARK SMILES IDX 17 1 16 2 15 3 13 4 14 5 6 7 5 8 1 9 2 10 3 11 72 12 4 13
REMARK SMILES IDX 71 14 7 15 8 16 9 17 12 18 10 19 11 20 18 21 19 22 20 23
REMARK SMILES IDX 21 24 22 26 23 27 24 28 70 29 25 30 69 31 26 32 27 33 28 34
REMARK SMILES IDX 63 35 29 36 68 37 62 38 64 39 30 40 67 41 61 42 60 43 31 45
REMARK SMILES IDX 53 46 38 47 52 48 39 49 42 50 51 51 65 52 40 53 41 54 50 56
REMARK SMILES IDX 66 57 43 58 32 59 33 60 37 61 34 62 36 63 35 64 54 65 55 66
REMARK SMILES IDX 59 67 56 68 58 69 57 70 44 71 45 72 49 73 46 74 48 75 47 76
REMARK H PARENT 15 6 20 25 64 44 42 55
REMARK Flexibility Score: inf
ROOT
ATOM      1  C   UNL A   1      33.943  28.333  26.207  1.00  0.00     0.023 C 
ENDROOT
BRANCH   1   2
ATOM      2  C   UNL A   1      33.125  27.576  25.156  1.00  0.00     0.116 C 
BRANCH   2   3
ATOM      3  N   UNL A   1      33.659  27.593  23.814  1.00  0.00    -0.356 N 
ATOM      4  C   UNL A   1      33.652  26.643  22.838  1.00  0.00     0.227 C 
ATOM      5  O   UNL A   1      33.969  27.036  21.707  1.00  0.00    -0.274 OA
ATOM      6  H   UNL A   1      34.105  28.434  23.563  1.00  0.00     0.163 HD
BRANCH   4   7
ATOM      7  C   UNL A   1      33.301  25.156  23.050  1.00  0.00     0.113 C 
BRANCH   7   8
ATOM      8  C   UNL A   1      34.421  24.342  23.701  1.00  0.00    -0.035 A 
ATOM      9  C   UNL A   1      37.762  22.139  25.382  1.00  0.00     0.044 C 
ATOM     10  C   UNL A   1      36.595  22.871  24.792  1.00  0.00    -0.051 A 
ATOM     11  C   UNL A   1      35.980  23.880  25.526  1.00  0.00     0.004 A 
ATOM     12  C   UNL A   1      36.124  22.594  23.507  1.00  0.00     0.004 A 
ATOM     13  C   UNL A   1      34.907  24.592  24.986  1.00  0.00     0.005 A 
ATOM     14  C   UNL A   1      35.056  23.323  22.968  1.00  0.00     0.005 A 
ENDBRANCH   7   8
BRANCH   7  15
ATOM     15  C   UNL A   1      31.807  24.836  23.343  1.00  0.00     0.065 C 
BRANCH  15  16
ATOM     16  C   UNL A   1      31.493  23.972  24.531  1.00  0.00     0.006 A 
ATOM     17  C   UNL A   1      31.538  22.592  24.618  1.00  0.00     0.015 A 
ATOM     18  S   UNL A   1      30.927  24.643  26.012  1.00  0.00    -0.149 S 
ATOM     19  C   UNL A   1      31.495  22.145  25.967  1.00  0.00     0.012 A 
ATOM     20  C   UNL A   1      31.278  23.184  26.840  1.00  0.00     0.065 A 
ENDBRANCH  15  16
ENDBRANCH   7  15
ENDBRANCH   4   7
ENDBRANCH   2   3
ENDBRANCH   1   2
BRANCH   1  21
ATOM     21  C   UNL A   1      33.730  29.844  26.246  1.00  0.00     0.023 C 
BRANCH  21  22
ATOM     22  C   UNL A   1      33.388  30.393  27.626  1.00  0.00     0.116 C 
BRANCH  22  23
ATOM     23  N   UNL A   1      34.175  31.513  28.115  1.00  0.00    -0.352 N 
ATOM     24  C   UNL A   1      35.427  31.512  28.726  1.00  0.00     0.251 C 
ATOM     25  H   UNL A   1      33.764  32.399  27.997  1.00  0.00     0.163 HD
ATOM     26  O   UNL A   1      35.861  32.553  29.188  1.00  0.00    -0.269 OA
BRANCH  24  27
ATOM     27  C   UNL A   1      36.307  30.300  28.688  1.00  0.00     0.039 A 
ATOM     28  C   UNL A   1      36.435  29.534  29.858  1.00  0.00     0.014 A 
ATOM     29  C   UNL A   1      37.156  30.035  27.625  1.00  0.00     0.014 A 
ATOM     30  C   UNL A   1      37.564  28.732  30.044  1.00  0.00     0.010 A 
ATOM     31  C   UNL A   1      38.346  29.389  27.861  1.00  0.00     0.010 A 
ATOM     32  C   UNL A   1      38.573  28.773  29.090  1.00  0.00    -0.014 A 
BRANCH  32  33
ATOM     33  C   UNL A   1      39.930  28.291  29.284  1.00  0.00     0.031 A 
ATOM     34  C   UNL A   1      40.351  26.999  28.724  1.00  0.00     0.074 A 
ATOM     35  C   UNL A   1      40.858  29.143  29.766  1.00  0.00     0.049 A 
ATOM     36  N   UNL A   1      41.407  26.370  29.106  1.00  0.00    -0.248 NA
ATOM     37  C   UNL A   1      39.602  26.297  27.688  1.00  0.00     0.031 C 
ATOM     38  C   UNL A   1      42.313  29.058  29.676  1.00  0.00     0.029 A 
ATOM     39  N   UNL A   1      40.638  30.244  30.595  1.00  0.00    -0.354 N 
ATOM     40  C   UNL A   1      41.656  25.397  28.171  1.00  0.00     0.074 A 
ATOM     41  C   UNL A   1      40.460  25.327  27.365  1.00  0.00     0.031 C 
ATOM     42  C   UNL A   1      42.852  29.853  30.616  1.00  0.00     0.029 A 
ATOM     43  C   UNL A   1      41.760  30.335  31.444  1.00  0.00     0.049 A 
ATOM     44  H   UNL A   1      39.853  30.839  30.589  1.00  0.00     0.167 HD
ATOM     45  C   UNL A   1      42.905  24.863  28.086  1.00  0.00     0.031 A 
ATOM     46  C   UNL A   1      41.627  30.118  32.786  1.00  0.00     0.031 A 
ATOM     47  C   UNL A   1      43.816  25.423  29.085  1.00  0.00     0.049 A 
ATOM     48  C   UNL A   1      42.394  28.911  33.290  1.00  0.00     0.074 A 
ATOM     49  C   UNL A   1      44.868  26.324  29.040  1.00  0.00     0.029 A 
ATOM     50  N   UNL A   1      43.493  25.288  30.426  1.00  0.00    -0.354 N 
ATOM     51  N   UNL A   1      43.053  28.090  32.521  1.00  0.00    -0.248 NA
ATOM     52  C   UNL A   1      42.401  28.477  34.688  1.00  0.00     0.031 C 
ATOM     53  C   UNL A   1      45.183  26.709  30.376  1.00  0.00     0.029 A 
ATOM     54  C   UNL A   1      44.334  26.031  31.229  1.00  0.00     0.049 A 
ATOM     55  H   UNL A   1      42.756  24.729  30.764  1.00  0.00     0.167 HD
ATOM     56  C   UNL A   1      43.505  27.028  33.251  1.00  0.00     0.074 A 
ATOM     57  C   UNL A   1      43.077  27.316  34.609  1.00  0.00     0.031 C 
ATOM     58  C   UNL A   1      44.151  25.975  32.672  1.00  0.00     0.031 A 
BRANCH  45  59
ATOM     59  C   UNL A   1      43.355  24.007  26.930  1.00  0.00    -0.014 A 
ATOM     60  C   UNL A   1      43.919  24.613  25.794  1.00  0.00     0.009 A 
ATOM     61  C   UNL A   1      43.235  22.607  26.887  1.00  0.00     0.009 A 
ATOM     62  C   UNL A   1      44.252  23.879  24.649  1.00  0.00     0.001 A 
ATOM     63  C   UNL A   1      43.524  21.871  25.731  1.00  0.00     0.001 A 
ATOM     64  C   UNL A   1      44.026  22.510  24.606  1.00  0.00     0.000 A 
ENDBRANCH  45  59
BRANCH  46  65
ATOM     65  C   UNL A   1      40.311  30.589  33.312  1.00  0.00    -0.014 A 
ATOM     66  C   UNL A   1      40.106  31.979  33.448  1.00  0.00     0.009 A 
ATOM     67  C   UNL A   1      39.187  29.750  33.280  1.00  0.00     0.009 A 
ATOM     68  C   UNL A   1      38.817  32.521  33.412  1.00  0.00     0.001 A 
ATOM     69  C   UNL A   1      37.897  30.299  33.262  1.00  0.00     0.001 A 
ATOM     70  C   UNL A   1      37.715  31.681  33.284  1.00  0.00     0.000 A 
ENDBRANCH  46  65
BRANCH  58  71
ATOM     71  C   UNL A   1      44.641  24.758  33.409  1.00  0.00    -0.014 A 
ATOM     72  C   UNL A   1      45.986  24.547  33.730  1.00  0.00     0.009 A 
ATOM     73  C   UNL A   1      43.743  23.706  33.699  1.00  0.00     0.009 A 
ATOM     74  C   UNL A   1      46.400  23.370  34.371  1.00  0.00     0.001 A 
ATOM     75  C   UNL A   1      44.154  22.524  34.315  1.00  0.00     0.001 A 
ATOM     76  C   UNL A   1      45.484  22.362  34.665  1.00  0.00     0.000 A 
ENDBRANCH  58  71
ENDBRANCH  32  33
ENDBRANCH  24  27
ENDBRANCH  22  23
ENDBRANCH  21  22
ENDBRANCH   1  21
TORSDOF 14
ENDMDL
MODEL 3
REMARK VINA RESULT:     -11.4      3.751      8.820
REMARK SMILES Cc1ccc([C@@H](Cc2cccs2)C(=O)NCCCCNC(=O)c2ccc(-c3c4nc(c(-c5ccccc5)c5ccc([nH]5)c(-c5ccccc5)c5nc(c(-c6ccccc6)c6ccc3[nH]6)C=C5)C=C4)cc2)cc1
REMARK SMILES IDX 17 1 16 2 15 3 13 4 14 5 6 7 5 8 1 9 2 10 3 11 72 12 4 13
REMARK SMILES IDX 71 14 7 15 8 16 9 17 12 18 10 19 11 20 18 21 19 22 20 23
REMARK SMILES IDX 21 24 22 26 23 27 24 28 70 29 25 30 69 31 26 32 27 33 28 34
REMARK SMILES IDX 63 35 29 36 68 37 62 38 64 39 30 40 67 41 61 42 60 43 31 45
REMARK SMILES IDX 53 46 38 47 52 48 39 49 42 50 51 51 65 52 40 53 41 54 50 56
REMARK SMILES IDX 66 57 43 58 32 59 33 60 37 61 34 62 36 63 35 64 54 65 55 66
REMARK SMILES IDX 59 67 56 68 58 69 57 70 44 71 45 72 49 73 46 74 48 75 47 76
REMARK H PARENT 15 6 20 25 64 44 42 55
REMARK Flexibility Score: inf
ROOT
ATOM      1  C   UNL A   1      38.628  22.831  26.312  1.00  0.00     0.023 C 
ENDROOT
BRANCH   1   2
ATOM      2  C   UNL A   1      37.303  23.314  25.714  1.00  0.00     0.116 C 
BRANCH   2   3
ATOM      3  N   UNL A   1      36.138  23.142  26.551  1.00  0.00    -0.356 N 
ATOM      4  C   UNL A   1      34.921  22.590  26.285  1.00  0.00     0.227 C 
ATOM      5  O   UNL A   1      34.211  22.361  27.274  1.00  0.00    -0.274 OA
ATOM      6  H   UNL A   1      36.241  23.482  27.469  1.00  0.00     0.163 HD
BRANCH   4   7
ATOM      7  C   UNL A   1      34.385  22.259  24.877  1.00  0.00     0.113 C 
BRANCH   7   8
ATOM      8  C   UNL A   1      34.145  20.767  24.642  1.00  0.00    -0.035 A 
ATOM      9  C   UNL A   1      33.450  16.582  23.723  1.00  0.00     0.044 C 
ATOM     10  C   UNL A   1      33.661  18.027  24.056  1.00  0.00    -0.051 A 
ATOM     11  C   UNL A   1      34.896  18.444  24.542  1.00  0.00     0.004 A 
ATOM     12  C   UNL A   1      32.662  18.982  23.862  1.00  0.00     0.004 A 
ATOM     13  C   UNL A   1      35.123  19.790  24.834  1.00  0.00     0.005 A 
ATOM     14  C   UNL A   1      32.902  20.333  24.146  1.00  0.00     0.005 A 
ENDBRANCH   7   8
BRANCH   7  15
ATOM     15  C   UNL A   1      33.467  23.329  24.220  1.00  0.00     0.065 C 
BRANCH  15  16
ATOM     16  C   UNL A   1      32.501  24.065  25.104  1.00  0.00     0.006 A 
ATOM     17  C   UNL A   1      32.655  25.313  25.682  1.00  0.00     0.015 A 
ATOM     18  S   UNL A   1      31.010  23.360  25.599  1.00  0.00    -0.149 S 
ATOM     19  C   UNL A   1      31.423  25.822  26.177  1.00  0.00     0.012 A 
ATOM     20  C   UNL A   1      30.416  24.891  26.087  1.00  0.00     0.065 A 
ENDBRANCH  15  16
ENDBRANCH   7  15
ENDBRANCH   4   7
ENDBRANCH   2   3
ENDBRANCH   1   2
BRANCH   1  21
ATOM     21  C   UNL A   1      39.137  21.490  25.791  1.00  0.00     0.023 C 
BRANCH  21  22
ATOM     22  C   UNL A   1      40.181  20.827  26.681  1.00  0.00     0.116 C 
BRANCH  22  23
ATOM     23  N   UNL A   1      41.288  20.150  26.025  1.00  0.00    -0.352 N 
ATOM     24  C   UNL A   1      42.623  20.537  25.922  1.00  0.00     0.251 C 
ATOM     25  H   UNL A   1      41.061  19.297  25.591  1.00  0.00     0.163 HD
ATOM     26  O   UNL A   1      43.373  19.891  25.210  1.00  0.00    -0.269 OA
BRANCH  24  27
ATOM     27  C   UNL A   1      43.183  21.627  26.784  1.00  0.00     0.039 A 
ATOM     28  C   UNL A   1      42.781  21.684  28.128  1.00  0.00     0.014 A 
ATOM     29  C   UNL A   1      43.898  22.692  26.258  1.00  0.00     0.014 A 
ATOM     30  C   UNL A   1      42.853  22.893  28.824  1.00  0.00     0.010 A 
ATOM     31  C   UNL A   1      43.818  23.921  26.870  1.00  0.00     0.010 A 
ATOM     32  C   UNL A   1      43.252  24.033  28.138  1.00  0.00    -0.014 A 
BRANCH  32  33
ATOM     33  C   UNL A   1      43.054  25.399  28.594  1.00  0.00     0.031 A 
ATOM     34  C   UNL A   1      41.853  26.150  28.204  1.00  0.00     0.074 A 
ATOM     35  C   UNL A   1      43.854  25.880  29.568  1.00  0.00     0.049 A 
ATOM     36  N   UNL A   1      41.754  27.430  28.299  1.00  0.00    -0.248 NA
ATOM     37  C   UNL A   1      40.658  25.515  27.657  1.00  0.00     0.031 C 
ATOM     38  C   UNL A   1      43.628  27.011  30.462  1.00  0.00     0.029 A 
ATOM     39  N   UNL A   1      45.162  25.484  29.852  1.00  0.00    -0.354 N 
ATOM     40  C   UNL A   1      40.424  27.741  28.160  1.00  0.00     0.074 A 
ATOM     41  C   UNL A   1      39.798  26.536  27.669  1.00  0.00     0.031 C 
ATOM     42  C   UNL A   1      44.807  27.398  30.977  1.00  0.00     0.029 A 
ATOM     43  C   UNL A   1      45.840  26.639  30.294  1.00  0.00     0.049 A 
ATOM     44  H   UNL A   1      45.537  24.578  29.761  1.00  0.00     0.167 HD
ATOM     45  C   UNL A   1      39.972  28.939  28.620  1.00  0.00     0.031 A 
ATOM     46  C   UNL A   1      46.854  27.170  29.548  1.00  0.00     0.031 A 
ATOM     47  C   UNL A   1      41.047  29.755  29.188  1.00  0.00     0.049 A 
ATOM     48  C   UNL A   1      46.562  28.563  29.024  1.00  0.00     0.074 A 
ATOM     49  C   UNL A   1      41.424  30.102  30.476  1.00  0.00     0.029 A 
ATOM     50  N   UNL A   1      42.117  30.099  28.377  1.00  0.00    -0.354 N 
ATOM     51  N   UNL A   1      45.425  29.180  29.183  1.00  0.00    -0.248 NA
ATOM     52  C   UNL A   1      47.493  29.333  28.198  1.00  0.00     0.031 C 
ATOM     53  C   UNL A   1      42.728  30.676  30.420  1.00  0.00     0.029 A 
ATOM     54  C   UNL A   1      43.133  30.692  29.100  1.00  0.00     0.049 A 
ATOM     55  H   UNL A   1      42.148  29.941  27.406  1.00  0.00     0.167 HD
ATOM     56  C   UNL A   1      45.424  30.346  28.470  1.00  0.00     0.074 A 
ATOM     57  C   UNL A   1      46.746  30.404  27.872  1.00  0.00     0.031 C 
ATOM     58  C   UNL A   1      44.320  31.144  28.391  1.00  0.00     0.031 A 
BRANCH  45  59
ATOM     59  C   UNL A   1      38.508  29.262  28.772  1.00  0.00    -0.014 A 
ATOM     60  C   UNL A   1      37.801  29.815  27.691  1.00  0.00     0.009 A 
ATOM     61  C   UNL A   1      37.773  29.064  29.954  1.00  0.00     0.009 A 
ATOM     62  C   UNL A   1      36.471  30.235  27.811  1.00  0.00     0.001 A 
ATOM     63  C   UNL A   1      36.456  29.521  30.096  1.00  0.00     0.001 A 
ATOM     64  C   UNL A   1      35.807  30.116  29.024  1.00  0.00     0.000 A 
ENDBRANCH  45  59
BRANCH  46  65
ATOM     65  C   UNL A   1      47.644  26.124  28.832  1.00  0.00    -0.014 A 
ATOM     66  C   UNL A   1      47.435  25.965  27.445  1.00  0.00     0.009 A 
ATOM     67  C   UNL A   1      48.824  25.612  29.391  1.00  0.00     0.009 A 
ATOM     68  C   UNL A   1      48.436  25.435  26.625  1.00  0.00     0.001 A 
ATOM     69  C   UNL A   1      49.817  25.066  28.565  1.00  0.00     0.001 A 
ATOM     70  C   UNL A   1      49.641  25.017  27.183  1.00  0.00     0.000 A 
ENDBRANCH  46  65
BRANCH  58  71
ATOM     71  C   UNL A   1      44.238  32.420  27.596  1.00  0.00    -0.014 A 
ATOM     72  C   UNL A   1      43.996  33.669  28.176  1.00  0.00     0.009 A 
ATOM     73  C   UNL A   1      44.287  32.369  26.185  1.00  0.00     0.009 A 
ATOM     74  C   UNL A   1      43.875  34.821  27.385  1.00  0.00     0.001 A 
ATOM     75  C   UNL A   1      44.144  33.509  25.393  1.00  0.00     0.001 A 
ATOM     76  C   UNL A   1      43.952  34.741  25.996  1.00  0.00     0.000 A 
ENDBRANCH  58  71
ENDBRANCH  32  33
ENDBRANCH  24  27
ENDBRANCH  22  23
ENDBRANCH  21  22
ENDBRANCH   1  21
TORSDOF 14
ENDMDL
