MODEL 1
REMARK VINA RESULT:      -9.7      0.000      0.000
REMARK SMILES C[N@@H+](CC(=O)NCCCCNC(=O)c1ccc(-c2c3nc(c(-c4ccccc4)c4ccc([nH]4)c(-c4ccccc4)c4nc(c(-c5ccccc5)c5ccc2[nH]5)C=C4)C=C3)cc1)Cc1nccs1
REMARK SMILES IDX 8 1 7 2 6 3 4 4 5 5 3 7 2 8 1 9 62 11 63 12 64 13 67 14
REMARK SMILES IDX 65 15 66 16 9 17 10 18 11 19 12 20 13 22 14 23 15 24 61 25
REMARK SMILES IDX 16 26 60 27 17 28 18 29 19 30 54 31 20 32 59 33 53 34 55 35
REMARK SMILES IDX 21 36 58 37 52 38 51 39 22 41 44 42 29 43 43 44 30 45 33 46
REMARK SMILES IDX 42 47 56 48 31 49 32 50 41 52 57 53 34 54 23 55 24 56 28 57
REMARK SMILES IDX 25 58 27 59 26 60 45 61 46 62 50 63 47 64 49 65 48 66 35 67
REMARK SMILES IDX 36 68 40 69 37 70 39 71 38 72
REMARK H PARENT 6 6 2 10 11 21 55 40 33 51
REMARK Flexibility Score: inf
ROOT
ATOM      1  C   UNL A   1      31.868  30.128  26.603  1.00  0.00     0.023 C 
ENDROOT
BRANCH   1   2
ATOM      2  C   UNL A   1      33.265  29.648  26.218  1.00  0.00     0.116 C 
BRANCH   2   3
ATOM      3  N   UNL A   1      33.516  29.736  24.795  1.00  0.00    -0.351 N 
ATOM      4  C   UNL A   1      33.290  28.829  23.803  1.00  0.00     0.275 C 
ATOM      5  O   UNL A   1      33.456  29.216  22.644  1.00  0.00    -0.269 OA
ATOM      6  H   UNL A   1      33.912  30.586  24.497  1.00  0.00     0.163 HD
BRANCH   4   7
ATOM      7  C   UNL A   1      32.782  27.419  24.110  1.00  0.00     0.363 C 
BRANCH   7   8
ATOM      8  N   UNL A   1      31.335  27.249  24.045  1.00  0.00    -0.324 N 
ATOM      9  C   UNL A   1      30.606  26.782  25.192  1.00  0.00     0.333 C 
ATOM     10  H   UNL A   1      31.268  28.246  24.248  1.00  0.00     0.348 HD
BRANCH   8  11
ATOM     11  C   UNL A   1      30.647  27.274  22.759  1.00  0.00     0.331 C 
BRANCH  11  12
ATOM     12  C   UNL A   1      29.764  28.464  22.478  1.00  0.00     0.147 A 
ATOM     13  N   UNL A   1      30.171  29.538  21.829  1.00  0.00    -0.244 NA
ATOM     14  S   UNL A   1      28.142  28.541  23.054  1.00  0.00    -0.122 S 
ATOM     15  C   UNL A   1      29.117  30.409  21.652  1.00  0.00     0.123 A 
ATOM     16  C   UNL A   1      27.927  30.026  22.230  1.00  0.00     0.087 A 
ENDBRANCH  11  12
ENDBRANCH   8  11
ENDBRANCH   7   8
ENDBRANCH   4   7
ENDBRANCH   2   3
ENDBRANCH   1   2
BRANCH   1  17
ATOM     17  C   UNL A   1      31.680  31.644  26.628  1.00  0.00     0.023 C 
BRANCH  17  18
ATOM     18  C   UNL A   1      32.805  32.408  27.306  1.00  0.00     0.116 C 
BRANCH  18  19
ATOM     19  N   UNL A   1      32.453  33.796  27.574  1.00  0.00    -0.352 N 
ATOM     20  C   UNL A   1      33.031  34.672  28.463  1.00  0.00     0.251 C 
ATOM     21  H   UNL A   1      31.702  34.155  27.049  1.00  0.00     0.163 HD
ATOM     22  O   UNL A   1      32.523  35.767  28.685  1.00  0.00    -0.269 OA
BRANCH  20  23
ATOM     23  C   UNL A   1      34.261  34.266  29.171  1.00  0.00     0.039 A 
ATOM     24  C   UNL A   1      34.159  33.582  30.386  1.00  0.00     0.014 A 
ATOM     25  C   UNL A   1      35.511  34.525  28.605  1.00  0.00     0.014 A 
ATOM     26  C   UNL A   1      35.314  33.088  30.996  1.00  0.00     0.010 A 
ATOM     27  C   UNL A   1      36.646  33.964  29.170  1.00  0.00     0.010 A 
ATOM     28  C   UNL A   1      36.561  33.244  30.373  1.00  0.00    -0.014 A 
BRANCH  28  29
ATOM     29  C   UNL A   1      37.813  32.702  30.954  1.00  0.00     0.031 A 
ATOM     30  C   UNL A   1      38.450  31.497  30.320  1.00  0.00     0.074 A 
ATOM     31  C   UNL A   1      38.306  33.207  32.101  1.00  0.00     0.049 A 
ATOM     32  N   UNL A   1      39.408  30.732  30.773  1.00  0.00    -0.248 NA
ATOM     33  C   UNL A   1      37.903  31.075  29.019  1.00  0.00     0.031 C 
ATOM     34  C   UNL A   1      37.769  34.360  32.828  1.00  0.00     0.029 A 
ATOM     35  N   UNL A   1      39.365  32.794  32.870  1.00  0.00    -0.354 N 
ATOM     36  C   UNL A   1      39.544  29.713  29.839  1.00  0.00     0.074 A 
ATOM     37  C   UNL A   1      38.549  29.938  28.813  1.00  0.00     0.031 C 
ATOM     38  C   UNL A   1      38.509  34.568  33.929  1.00  0.00     0.029 A 
ATOM     39  C   UNL A   1      39.540  33.539  34.011  1.00  0.00     0.049 A 
ATOM     40  H   UNL A   1      39.944  32.036  32.627  1.00  0.00     0.167 HD
ATOM     41  C   UNL A   1      40.427  28.687  29.829  1.00  0.00     0.031 A 
ATOM     42  C   UNL A   1      40.420  33.393  35.020  1.00  0.00     0.031 A 
ATOM     43  C   UNL A   1      41.441  28.490  30.827  1.00  0.00     0.049 A 
ATOM     44  C   UNL A   1      41.403  32.256  34.980  1.00  0.00     0.074 A 
ATOM     45  C   UNL A   1      42.420  27.515  30.881  1.00  0.00     0.029 A 
ATOM     46  N   UNL A   1      41.610  29.295  31.942  1.00  0.00    -0.354 N 
ATOM     47  N   UNL A   1      41.538  31.316  34.076  1.00  0.00    -0.248 NA
ATOM     48  C   UNL A   1      42.355  32.162  36.096  1.00  0.00     0.031 C 
ATOM     49  C   UNL A   1      43.169  27.716  32.045  1.00  0.00     0.029 A 
ATOM     50  C   UNL A   1      42.678  28.838  32.693  1.00  0.00     0.049 A 
ATOM     51  H   UNL A   1      41.055  30.076  32.166  1.00  0.00     0.167 HD
ATOM     52  C   UNL A   1      42.611  30.540  34.497  1.00  0.00     0.074 A 
ATOM     53  C   UNL A   1      43.090  31.119  35.735  1.00  0.00     0.031 C 
ATOM     54  C   UNL A   1      43.150  29.445  33.909  1.00  0.00     0.031 A 
BRANCH  41  55
ATOM     55  C   UNL A   1      40.324  27.701  28.701  1.00  0.00    -0.014 A 
ATOM     56  C   UNL A   1      41.005  27.907  27.491  1.00  0.00     0.009 A 
ATOM     57  C   UNL A   1      39.547  26.543  28.855  1.00  0.00     0.009 A 
ATOM     58  C   UNL A   1      40.876  26.993  26.444  1.00  0.00     0.001 A 
ATOM     59  C   UNL A   1      39.442  25.616  27.817  1.00  0.00     0.001 A 
ATOM     60  C   UNL A   1      40.098  25.848  26.608  1.00  0.00     0.000 A 
ENDBRANCH  41  55
BRANCH  42  61
ATOM     61  C   UNL A   1      40.425  34.357  36.151  1.00  0.00    -0.014 A 
ATOM     62  C   UNL A   1      39.679  34.089  37.309  1.00  0.00     0.009 A 
ATOM     63  C   UNL A   1      41.167  35.546  36.080  1.00  0.00     0.009 A 
ATOM     64  C   UNL A   1      39.658  35.003  38.364  1.00  0.00     0.001 A 
ATOM     65  C   UNL A   1      41.162  36.447  37.149  1.00  0.00     0.001 A 
ATOM     66  C   UNL A   1      40.402  36.179  38.286  1.00  0.00     0.000 A 
ENDBRANCH  42  61
BRANCH  54  67
ATOM     67  C   UNL A   1      44.355  28.834  34.562  1.00  0.00    -0.014 A 
ATOM     68  C   UNL A   1      44.228  27.799  35.498  1.00  0.00     0.009 A 
ATOM     69  C   UNL A   1      45.637  29.256  34.174  1.00  0.00     0.009 A 
ATOM     70  C   UNL A   1      45.367  27.206  36.047  1.00  0.00     0.001 A 
ATOM     71  C   UNL A   1      46.772  28.647  34.708  1.00  0.00     0.001 A 
ATOM     72  C   UNL A   1      46.636  27.626  35.647  1.00  0.00     0.000 A 
ENDBRANCH  54  67
ENDBRANCH  28  29
ENDBRANCH  20  23
ENDBRANCH  18  19
ENDBRANCH  17  18
ENDBRANCH   1  17
TORSDOF 14
ENDMDL
MODEL 2
REMARK VINA RESULT:      -9.7      6.166     10.687
REMARK SMILES C[N@@H+](CC(=O)NCCCCNC(=O)c1ccc(-c2c3nc(c(-c4ccccc4)c4ccc([nH]4)c(-c4ccccc4)c4nc(c(-c5ccccc5)c5ccc2[nH]5)C=C4)C=C3)cc1)Cc1nccs1
REMARK SMILES IDX 8 1 7 2 6 3 4 4 5 5 3 7 2 8 1 9 62 11 63 12 64 13 67 14
REMARK SMILES IDX 65 15 66 16 9 17 10 18 11 19 12 20 13 22 14 23 15 24 61 25
REMARK SMILES IDX 16 26 60 27 17 28 18 29 19 30 54 31 20 32 59 33 53 34 55 35
REMARK SMILES IDX 21 36 58 37 52 38 51 39 22 41 44 42 29 43 43 44 30 45 33 46
REMARK SMILES IDX 42 47 56 48 31 49 32 50 41 52 57 53 34 54 23 55 24 56 28 57
REMARK SMILES IDX 25 58 27 59 26 60 45 61 46 62 50 63 47 64 49 65 48 66 35 67
REMARK SMILES IDX 36 68 40 69 37 70 39 71 38 72
REMARK H PARENT 6 6 2 10 11 21 55 40 33 51
REMARK Flexibility Score: inf
ROOT
ATOM      1  C   UNL A   1      36.409  20.089  24.992  1.00  0.00     0.023 C 
ENDROOT
BRANCH   1   2
ATOM      2  C   UNL A   1      36.152  21.555  25.335  1.00  0.00     0.116 C 
BRANCH   2   3
ATOM      3  N   UNL A   1      35.445  21.722  26.586  1.00  0.00    -0.351 N 
ATOM      4  C   UNL A   1      34.269  22.357  26.855  1.00  0.00     0.275 C 
ATOM      5  O   UNL A   1      33.808  22.222  27.992  1.00  0.00    -0.269 OA
ATOM      6  H   UNL A   1      35.883  21.312  27.367  1.00  0.00     0.163 HD
BRANCH   4   7
ATOM      7  C   UNL A   1      33.518  23.139  25.776  1.00  0.00     0.363 C 
BRANCH   7   8
ATOM      8  N   UNL A   1      32.403  22.434  25.156  1.00  0.00    -0.324 N 
ATOM      9  C   UNL A   1      31.098  22.467  25.756  1.00  0.00     0.333 C 
ATOM     10  H   UNL A   1      32.291  23.255  24.561  1.00  0.00     0.348 HD
BRANCH   8  11
ATOM     11  C   UNL A   1      32.643  21.465  24.091  1.00  0.00     0.331 C 
BRANCH  11  12
ATOM     12  C   UNL A   1      32.665  20.009  24.481  1.00  0.00     0.147 A 
ATOM     13  N   UNL A   1      32.958  19.582  25.694  1.00  0.00    -0.244 NA
ATOM     14  S   UNL A   1      32.368  18.762  23.330  1.00  0.00    -0.122 S 
ATOM     15  C   UNL A   1      32.806  18.214  25.762  1.00  0.00     0.123 A 
ATOM     16  C   UNL A   1      32.466  17.595  24.580  1.00  0.00     0.087 A 
ENDBRANCH  11  12
ENDBRANCH   8  11
ENDBRANCH   7   8
ENDBRANCH   4   7
ENDBRANCH   2   3
ENDBRANCH   1   2
BRANCH   1  17
ATOM     17  C   UNL A   1      37.860  19.736  24.670  1.00  0.00     0.023 C 
BRANCH  17  18
ATOM     18  C   UNL A   1      38.843  20.017  25.794  1.00  0.00     0.116 C 
BRANCH  18  19
ATOM     19  N   UNL A   1      39.975  19.101  25.787  1.00  0.00    -0.352 N 
ATOM     20  C   UNL A   1      41.300  19.370  26.039  1.00  0.00     0.251 C 
ATOM     21  H   UNL A   1      39.764  18.163  25.573  1.00  0.00     0.163 HD
ATOM     22  O   UNL A   1      42.162  18.519  25.844  1.00  0.00    -0.269 OA
BRANCH  20  23
ATOM     23  C   UNL A   1      41.677  20.713  26.523  1.00  0.00     0.039 A 
ATOM     24  C   UNL A   1      41.888  20.916  27.890  1.00  0.00     0.014 A 
ATOM     25  C   UNL A   1      41.866  21.755  25.613  1.00  0.00     0.014 A 
ATOM     26  C   UNL A   1      42.365  22.150  28.337  1.00  0.00     0.010 A 
ATOM     27  C   UNL A   1      42.416  22.951  26.049  1.00  0.00     0.010 A 
ATOM     28  C   UNL A   1      42.667  23.163  27.414  1.00  0.00    -0.014 A 
BRANCH  28  29
ATOM     29  C   UNL A   1      43.215  24.477  27.829  1.00  0.00     0.031 A 
ATOM     30  C   UNL A   1      42.265  25.566  28.243  1.00  0.00     0.074 A 
ATOM     31  C   UNL A   1      44.534  24.730  27.724  1.00  0.00     0.049 A 
ATOM     32  N   UNL A   1      42.495  26.839  28.433  1.00  0.00    -0.248 NA
ATOM     33  C   UNL A   1      40.857  25.174  28.423  1.00  0.00     0.031 C 
ATOM     34  C   UNL A   1      45.558  23.766  27.314  1.00  0.00     0.029 A 
ATOM     35  N   UNL A   1      45.235  25.890  27.933  1.00  0.00    -0.354 N 
ATOM     36  C   UNL A   1      41.257  27.405  28.707  1.00  0.00     0.074 A 
ATOM     37  C   UNL A   1      40.275  26.346  28.625  1.00  0.00     0.031 C 
ATOM     38  C   UNL A   1      46.757  24.373  27.315  1.00  0.00     0.029 A 
ATOM     39  C   UNL A   1      46.580  25.775  27.677  1.00  0.00     0.049 A 
ATOM     40  H   UNL A   1      44.814  26.727  28.238  1.00  0.00     0.167 HD
ATOM     41  C   UNL A   1      40.964  28.691  29.012  1.00  0.00     0.031 A 
ATOM     42  C   UNL A   1      47.556  26.703  27.711  1.00  0.00     0.031 A 
ATOM     43  C   UNL A   1      41.946  29.732  29.134  1.00  0.00     0.049 A 
ATOM     44  C   UNL A   1      47.210  28.121  28.069  1.00  0.00     0.074 A 
ATOM     45  C   UNL A   1      41.762  31.054  29.493  1.00  0.00     0.029 A 
ATOM     46  N   UNL A   1      43.303  29.559  28.910  1.00  0.00    -0.354 N 
ATOM     47  N   UNL A   1      46.038  28.637  28.354  1.00  0.00    -0.248 NA
ATOM     48  C   UNL A   1      48.320  29.084  28.114  1.00  0.00     0.031 C 
ATOM     49  C   UNL A   1      43.006  31.691  29.462  1.00  0.00     0.029 A 
ATOM     50  C   UNL A   1      43.969  30.753  29.121  1.00  0.00     0.049 A 
ATOM     51  H   UNL A   1      43.730  28.714  28.641  1.00  0.00     0.167 HD
ATOM     52  C   UNL A   1      46.275  29.974  28.644  1.00  0.00     0.074 A 
ATOM     53  C   UNL A   1      47.700  30.190  28.502  1.00  0.00     0.031 C 
ATOM     54  C   UNL A   1      45.390  30.938  28.996  1.00  0.00     0.031 A 
BRANCH  41  55
ATOM     55  C   UNL A   1      39.518  29.035  29.230  1.00  0.00    -0.014 A 
ATOM     56  C   UNL A   1      38.708  29.475  28.172  1.00  0.00     0.009 A 
ATOM     57  C   UNL A   1      38.956  28.904  30.509  1.00  0.00     0.009 A 
ATOM     58  C   UNL A   1      37.374  29.816  28.400  1.00  0.00     0.001 A 
ATOM     59  C   UNL A   1      37.614  29.219  30.728  1.00  0.00     0.001 A 
ATOM     60  C   UNL A   1      36.827  29.685  29.676  1.00  0.00     0.000 A 
ENDBRANCH  41  55
BRANCH  42  61
ATOM     61  C   UNL A   1      48.959  26.319  27.411  1.00  0.00    -0.014 A 
ATOM     62  C   UNL A   1      49.808  25.885  28.442  1.00  0.00     0.009 A 
ATOM     63  C   UNL A   1      49.459  26.384  26.102  1.00  0.00     0.009 A 
ATOM     64  C   UNL A   1      51.135  25.547  28.171  1.00  0.00     0.001 A 
ATOM     65  C   UNL A   1      50.782  26.022  25.831  1.00  0.00     0.001 A 
ATOM     66  C   UNL A   1      51.620  25.612  26.866  1.00  0.00     0.000 A 
ENDBRANCH  42  61
BRANCH  54  67
ATOM     67  C   UNL A   1      45.939  32.297  29.311  1.00  0.00    -0.014 A 
ATOM     68  C   UNL A   1      45.990  33.304  28.338  1.00  0.00     0.009 A 
ATOM     69  C   UNL A   1      46.341  32.592  30.624  1.00  0.00     0.009 A 
ATOM     70  C   UNL A   1      46.450  34.580  28.671  1.00  0.00     0.001 A 
ATOM     71  C   UNL A   1      46.779  33.872  30.958  1.00  0.00     0.001 A 
ATOM     72  C   UNL A   1      46.837  34.864  29.981  1.00  0.00     0.000 A 
ENDBRANCH  54  67
ENDBRANCH  28  29
ENDBRANCH  20  23
ENDBRANCH  18  19
ENDBRANCH  17  18
ENDBRANCH   1  17
TORSDOF 14
ENDMDL
MODEL 3
REMARK VINA RESULT:      -9.6      5.431      9.849
REMARK SMILES C[N@@H+](CC(=O)NCCCCNC(=O)c1ccc(-c2c3nc(c(-c4ccccc4)c4ccc([nH]4)c(-c4ccccc4)c4nc(c(-c5ccccc5)c5ccc2[nH]5)C=C4)C=C3)cc1)Cc1nccs1
REMARK SMILES IDX 8 1 7 2 6 3 4 4 5 5 3 7 2 8 1 9 62 11 63 12 64 13 67 14
REMARK SMILES IDX 65 15 66 16 9 17 10 18 11 19 12 20 13 22 14 23 15 24 61 25
REMARK SMILES IDX 16 26 60 27 17 28 18 29 19 30 54 31 20 32 59 33 53 34 55 35
REMARK SMILES IDX 21 36 58 37 52 38 51 39 22 41 44 42 29 43 43 44 30 45 33 46
REMARK SMILES IDX 42 47 56 48 31 49 32 50 41 52 57 53 34 54 23 55 24 56 28 57
REMARK SMILES IDX 25 58 27 59 26 60 45 61 46 62 50 63 47 64 49 65 48 66 35 67
REMARK SMILES IDX 36 68 40 69 37 70 39 71 38 72
REMARK H PARENT 6 6 2 10 11 21 55 40 33 51
REMARK Flexibility Score: inf
ROOT
ATOM      1  C   UNL A   1      36.491  20.234  25.013  1.00  0.00     0.023 C 
ENDROOT
BRANCH   1   2
ATOM      2  C   UNL A   1      36.172  21.688  25.354  1.00  0.00     0.116 C 
BRANCH   2   3
ATOM      3  N   UNL A   1      35.451  21.826  26.601  1.00  0.00    -0.351 N 
ATOM      4  C   UNL A   1      34.253  22.421  26.865  1.00  0.00     0.275 C 
ATOM      5  O   UNL A   1      33.789  22.264  27.998  1.00  0.00    -0.269 OA
ATOM      6  H   UNL A   1      35.897  21.427  27.383  1.00  0.00     0.163 HD
BRANCH   4   7
ATOM      7  C   UNL A   1      33.484  23.183  25.784  1.00  0.00     0.363 C 
BRANCH   7   8
ATOM      8  N   UNL A   1      32.394  22.447  25.157  1.00  0.00    -0.324 N 
ATOM      9  C   UNL A   1      31.083  22.448  25.746  1.00  0.00     0.333 C 
ATOM     10  H   UNL A   1      32.266  23.263  24.559  1.00  0.00     0.348 HD
BRANCH   8  11
ATOM     11  C   UNL A   1      32.669  21.482  24.097  1.00  0.00     0.331 C 
BRANCH  11  12
ATOM     12  C   UNL A   1      32.668  20.024  24.481  1.00  0.00     0.147 A 
ATOM     13  N   UNL A   1      32.924  19.589  25.700  1.00  0.00    -0.244 NA
ATOM     14  S   UNL A   1      32.393  18.784  23.317  1.00  0.00    -0.122 S 
ATOM     15  C   UNL A   1      32.759  18.222  25.758  1.00  0.00     0.123 A 
ATOM     16  C   UNL A   1      32.447  17.611  24.564  1.00  0.00     0.087 A 
ENDBRANCH  11  12
ENDBRANCH   8  11
ENDBRANCH   7   8
ENDBRANCH   4   7
ENDBRANCH   2   3
ENDBRANCH   1   2
BRANCH   1  17
ATOM     17  C   UNL A   1      37.952  19.948  24.669  1.00  0.00     0.023 C 
BRANCH  17  18
ATOM     18  C   UNL A   1      38.937  20.275  25.778  1.00  0.00     0.116 C 
BRANCH  18  19
ATOM     19  N   UNL A   1      39.995  19.280  25.895  1.00  0.00    -0.352 N 
ATOM     20  C   UNL A   1      41.321  19.469  26.209  1.00  0.00     0.251 C 
ATOM     21  H   UNL A   1      39.725  18.349  25.728  1.00  0.00     0.163 HD
ATOM     22  O   UNL A   1      42.125  18.547  26.119  1.00  0.00    -0.269 OA
BRANCH  20  23
ATOM     23  C   UNL A   1      41.772  20.810  26.630  1.00  0.00     0.039 A 
ATOM     24  C   UNL A   1      42.295  21.689  25.677  1.00  0.00     0.014 A 
ATOM     25  C   UNL A   1      41.634  21.207  27.962  1.00  0.00     0.014 A 
ATOM     26  C   UNL A   1      42.607  22.999  26.048  1.00  0.00     0.010 A 
ATOM     27  C   UNL A   1      41.868  22.529  28.308  1.00  0.00     0.010 A 
ATOM     28  C   UNL A   1      42.360  23.438  27.357  1.00  0.00    -0.014 A 
BRANCH  28  29
ATOM     29  C   UNL A   1      42.633  24.829  27.794  1.00  0.00     0.031 A 
ATOM     30  C   UNL A   1      44.032  25.206  28.193  1.00  0.00     0.074 A 
ATOM     31  C   UNL A   1      41.623  25.706  27.944  1.00  0.00     0.049 A 
ATOM     32  N   UNL A   1      44.458  26.281  28.803  1.00  0.00    -0.248 NA
ATOM     33  C   UNL A   1      45.086  24.218  27.903  1.00  0.00     0.031 C 
ATOM     34  C   UNL A   1      40.218  25.457  27.614  1.00  0.00     0.029 A 
ATOM     35  N   UNL A   1      41.625  26.986  28.440  1.00  0.00    -0.354 N 
ATOM     36  C   UNL A   1      45.816  26.078  29.012  1.00  0.00     0.074 A 
ATOM     37  C   UNL A   1      46.136  24.765  28.496  1.00  0.00     0.031 C 
ATOM     38  C   UNL A   1      39.498  26.554  27.904  1.00  0.00     0.029 A 
ATOM     39  C   UNL A   1      40.379  27.561  28.484  1.00  0.00     0.049 A 
ATOM     40  H   UNL A   1      42.443  27.447  28.736  1.00  0.00     0.167 HD
ATOM     41  C   UNL A   1      46.720  26.914  29.574  1.00  0.00     0.031 A 
ATOM     42  C   UNL A   1      39.989  28.761  28.958  1.00  0.00     0.031 A 
ATOM     43  C   UNL A   1      46.408  28.234  30.047  1.00  0.00     0.049 A 
ATOM     44  C   UNL A   1      41.013  29.680  29.561  1.00  0.00     0.074 A 
ATOM     45  C   UNL A   1      47.260  29.183  30.581  1.00  0.00     0.029 A 
ATOM     46  N   UNL A   1      45.140  28.793  30.030  1.00  0.00    -0.354 N 
ATOM     47  N   UNL A   1      42.300  29.486  29.728  1.00  0.00    -0.248 NA
ATOM     48  C   UNL A   1      40.533  30.985  30.040  1.00  0.00     0.031 C 
ATOM     49  C   UNL A   1      46.502  30.311  30.911  1.00  0.00     0.029 A 
ATOM     50  C   UNL A   1      45.186  30.076  30.546  1.00  0.00     0.049 A 
ATOM     51  H   UNL A   1      44.328  28.346  29.699  1.00  0.00     0.167 HD
ATOM     52  C   UNL A   1      42.787  30.655  30.298  1.00  0.00     0.074 A 
ATOM     53  C   UNL A   1      41.660  31.552  30.448  1.00  0.00     0.031 C 
ATOM     54  C   UNL A   1      44.056  30.957  30.664  1.00  0.00     0.031 A 
BRANCH  41  55
ATOM     55  C   UNL A   1      48.131  26.416  29.706  1.00  0.00    -0.014 A 
ATOM     56  C   UNL A   1      48.563  25.754  30.865  1.00  0.00     0.009 A 
ATOM     57  C   UNL A   1      49.036  26.600  28.650  1.00  0.00     0.009 A 
ATOM     58  C   UNL A   1      49.886  25.323  30.981  1.00  0.00     0.001 A 
ATOM     59  C   UNL A   1      50.351  26.142  28.756  1.00  0.00     0.001 A 
ATOM     60  C   UNL A   1      50.777  25.514  29.926  1.00  0.00     0.000 A 
ENDBRANCH  41  55
BRANCH  42  61
ATOM     61  C   UNL A   1      38.563  29.169  28.869  1.00  0.00    -0.014 A 
ATOM     62  C   UNL A   1      38.066  29.743  27.688  1.00  0.00     0.009 A 
ATOM     63  C   UNL A   1      37.695  28.993  29.957  1.00  0.00     0.009 A 
ATOM     64  C   UNL A   1      36.734  30.152  27.607  1.00  0.00     0.001 A 
ATOM     65  C   UNL A   1      36.356  29.382  29.863  1.00  0.00     0.001 A 
ATOM     66  C   UNL A   1      35.879  29.969  28.692  1.00  0.00     0.000 A 
ENDBRANCH  42  61
BRANCH  54  67
ATOM     67  C   UNL A   1      44.308  32.333  31.208  1.00  0.00    -0.014 A 
ATOM     68  C   UNL A   1      44.600  33.408  30.358  1.00  0.00     0.009 A 
ATOM     69  C   UNL A   1      44.174  32.564  32.586  1.00  0.00     0.009 A 
ATOM     70  C   UNL A   1      44.772  34.691  30.882  1.00  0.00     0.001 A 
ATOM     71  C   UNL A   1      44.324  33.850  33.103  1.00  0.00     0.001 A 
ATOM     72  C   UNL A   1      44.627  34.911  32.252  1.00  0.00     0.000 A 
ENDBRANCH  54  67
ENDBRANCH  28  29
ENDBRANCH  20  23
ENDBRANCH  18  19
ENDBRANCH  17  18
ENDBRANCH   1  17
TORSDOF 14
ENDMDL
