MODEL 1
REMARK VINA RESULT:     -10.1      0.000      0.000
REMARK SMILES C[C@H]([NH2+]CC1(O)CCCC1)[C@H](C)C(=O)NCCCCNC(=O)c1ccc(-c2c3nc(c(-c4ccccc4)c4ccc([nH]4)c(-c4ccccc4)c4nc(c(-c5ccccc5)c5ccc2[nH]5)C=C4)C=C3)cc1
REMARK SMILES IDX 16 1 15 2 13 3 14 4 11 6 12 7 2 8 1 9 3 10 4 13 5 14 7 15
REMARK SMILES IDX 10 16 8 17 9 18 6 19 17 21 18 22 19 23 20 24 21 25 22 27
REMARK SMILES IDX 23 28 24 29 70 30 25 31 69 32 26 33 27 34 28 35 63 36 29 37
REMARK SMILES IDX 68 38 62 39 64 40 30 41 67 42 61 43 60 44 31 46 53 47 38 48
REMARK SMILES IDX 52 49 39 50 42 51 51 52 65 53 40 54 41 55 50 57 66 58 43 59
REMARK SMILES IDX 32 60 33 61 37 62 34 63 36 64 35 65 54 66 55 67 59 68 56 69
REMARK SMILES IDX 58 70 57 71 44 72 45 73 49 74 46 75 48 76 47 77
REMARK H PARENT 15 5 3 11 3 12 6 20 20 26 64 45 42 56
REMARK Flexibility Score: inf
ROOT
ATOM      1  C   UNL A   1      37.850  23.615  25.933  1.00  0.00     0.116 C 
ENDROOT
BRANCH   1   2
ATOM      2  N   UNL A   1      37.313  23.307  24.630  1.00  0.00    -0.356 N 
ATOM      3  C   UNL A   1      36.049  23.388  24.149  1.00  0.00     0.228 C 
ATOM      4  O   UNL A   1      35.919  23.181  22.935  1.00  0.00    -0.275 OA
ATOM      5  H   UNL A   1      37.977  22.982  23.981  1.00  0.00     0.163 HD
BRANCH   3   6
ATOM      6  C   UNL A   1      34.796  23.603  25.008  1.00  0.00     0.133 C 
ATOM      7  C   UNL A   1      34.602  25.098  25.262  1.00  0.00     0.024 C 
BRANCH   6   8
ATOM      8  C   UNL A   1      33.511  22.736  24.794  1.00  0.00     0.191 C 
ATOM      9  C   UNL A   1      32.898  22.384  26.162  1.00  0.00     0.076 C 
BRANCH   8  10
ATOM     10  N   UNL A   1      33.484  21.496  23.992  1.00  0.00    -0.341 N 
ATOM     11  H   UNL A   1      34.358  20.997  24.161  1.00  0.00     0.346 HD
ATOM     12  H   UNL A   1      33.351  21.797  23.027  1.00  0.00     0.346 HD
BRANCH  10  13
ATOM     13  C   UNL A   1      32.384  20.570  24.267  1.00  0.00     0.296 C 
BRANCH  13  14
ATOM     14  C   UNL A   1      32.836  19.108  24.498  1.00  0.00     0.113 C 
ATOM     15  C   UNL A   1      34.350  18.901  24.601  1.00  0.00     0.041 C 
ATOM     16  C   UNL A   1      32.448  18.242  23.295  1.00  0.00     0.041 C 
ATOM     17  C   UNL A   1      34.605  17.471  24.116  1.00  0.00     0.003 C 
ATOM     18  C   UNL A   1      33.343  17.014  23.392  1.00  0.00     0.003 C 
BRANCH  14  19
ATOM     19  O   UNL A   1      32.203  18.616  25.683  1.00  0.00    -0.384 OA
ATOM     20  H   UNL A   1      31.669  17.836  25.464  1.00  0.00     0.211 HD
ENDBRANCH  14  19
ENDBRANCH  13  14
ENDBRANCH  10  13
ENDBRANCH   8  10
ENDBRANCH   6   8
ENDBRANCH   3   6
ENDBRANCH   1   2
BRANCH   1  21
ATOM     21  C   UNL A   1      38.975  22.674  26.354  1.00  0.00     0.023 C 
BRANCH  21  22
ATOM     22  C   UNL A   1      38.989  21.323  25.640  1.00  0.00     0.023 C 
BRANCH  22  23
ATOM     23  C   UNL A   1      39.484  20.135  26.461  1.00  0.00     0.116 C 
BRANCH  23  24
ATOM     24  N   UNL A   1      40.595  19.402  25.876  1.00  0.00    -0.352 N 
ATOM     25  C   UNL A   1      41.913  19.796  25.800  1.00  0.00     0.251 C 
ATOM     26  H   UNL A   1      40.381  18.520  25.491  1.00  0.00     0.163 HD
ATOM     27  O   UNL A   1      42.744  19.107  25.216  1.00  0.00    -0.269 OA
BRANCH  25  28
ATOM     28  C   UNL A   1      42.305  21.097  26.389  1.00  0.00     0.039 A 
ATOM     29  C   UNL A   1      42.624  22.160  25.543  1.00  0.00     0.014 A 
ATOM     30  C   UNL A   1      42.292  21.279  27.774  1.00  0.00     0.014 A 
ATOM     31  C   UNL A   1      42.860  23.426  26.086  1.00  0.00     0.010 A 
ATOM     32  C   UNL A   1      42.436  22.555  28.304  1.00  0.00     0.010 A 
ATOM     33  C   UNL A   1      42.734  23.642  27.469  1.00  0.00    -0.014 A 
BRANCH  33  34
ATOM     34  C   UNL A   1      42.948  24.984  28.067  1.00  0.00     0.031 A 
ATOM     35  C   UNL A   1      44.323  25.387  28.528  1.00  0.00     0.074 A 
ATOM     36  C   UNL A   1      41.904  25.817  28.255  1.00  0.00     0.049 A 
ATOM     37  N   UNL A   1      44.710  26.495  29.110  1.00  0.00    -0.248 NA
ATOM     38  C   UNL A   1      45.401  24.403  28.339  1.00  0.00     0.031 C 
ATOM     39  C   UNL A   1      40.511  25.527  27.909  1.00  0.00     0.029 A 
ATOM     40  N   UNL A   1      41.859  27.081  28.788  1.00  0.00    -0.354 N 
ATOM     41  C   UNL A   1      46.062  26.327  29.377  1.00  0.00     0.074 A 
ATOM     42  C   UNL A   1      46.416  24.992  28.951  1.00  0.00     0.031 C 
ATOM     43  C   UNL A   1      39.755  26.598  28.205  1.00  0.00     0.029 A 
ATOM     44  C   UNL A   1      40.601  27.634  28.787  1.00  0.00     0.049 A 
ATOM     45  H   UNL A   1      42.652  27.547  29.138  1.00  0.00     0.167 HD
ATOM     46  C   UNL A   1      46.942  27.211  29.904  1.00  0.00     0.031 A 
ATOM     47  C   UNL A   1      40.181  28.846  29.199  1.00  0.00     0.031 A 
ATOM     48  C   UNL A   1      46.602  28.549  30.302  1.00  0.00     0.049 A 
ATOM     49  C   UNL A   1      41.182  29.824  29.748  1.00  0.00     0.074 A 
ATOM     50  C   UNL A   1      47.431  29.542  30.793  1.00  0.00     0.029 A 
ATOM     51  N   UNL A   1      45.324  29.083  30.246  1.00  0.00    -0.354 N 
ATOM     52  N   UNL A   1      42.473  29.675  29.927  1.00  0.00    -0.248 NA
ATOM     53  C   UNL A   1      40.671  31.150  30.126  1.00  0.00     0.031 C 
ATOM     54  C   UNL A   1      46.647  30.668  31.066  1.00  0.00     0.029 A 
ATOM     55  C   UNL A   1      45.340  30.391  30.697  1.00  0.00     0.049 A 
ATOM     56  H   UNL A   1      44.524  28.603  29.931  1.00  0.00     0.167 HD
ATOM     57  C   UNL A   1      42.933  30.896  30.403  1.00  0.00     0.074 A 
ATOM     58  C   UNL A   1      41.786  31.777  30.473  1.00  0.00     0.031 C 
ATOM     59  C   UNL A   1      44.192  31.257  30.748  1.00  0.00     0.031 A 
BRANCH  46  60
ATOM     60  C   UNL A   1      48.363  26.749  30.069  1.00  0.00    -0.014 A 
ATOM     61  C   UNL A   1      48.775  26.064  31.224  1.00  0.00     0.009 A 
ATOM     62  C   UNL A   1      49.301  26.989  29.053  1.00  0.00     0.009 A 
ATOM     63  C   UNL A   1      50.106  25.669  31.378  1.00  0.00     0.001 A 
ATOM     64  C   UNL A   1      50.623  26.566  29.195  1.00  0.00     0.001 A 
ATOM     65  C   UNL A   1      51.028  25.917  30.362  1.00  0.00     0.000 A 
ENDBRANCH  46  60
BRANCH  47  66
ATOM     66  C   UNL A   1      38.750  29.227  29.063  1.00  0.00    -0.014 A 
ATOM     67  C   UNL A   1      37.877  29.103  30.156  1.00  0.00     0.009 A 
ATOM     68  C   UNL A   1      38.246  29.700  27.843  1.00  0.00     0.009 A 
ATOM     69  C   UNL A   1      36.522  29.414  30.019  1.00  0.00     0.001 A 
ATOM     70  C   UNL A   1      36.896  30.036  27.717  1.00  0.00     0.001 A 
ATOM     71  C   UNL A   1      36.034  29.882  28.801  1.00  0.00     0.000 A 
ENDBRANCH  47  66
BRANCH  59  72
ATOM     72  C   UNL A   1      44.405  32.681  31.176  1.00  0.00    -0.014 A 
ATOM     73  C   UNL A   1      44.320  33.062  32.525  1.00  0.00     0.009 A 
ATOM     74  C   UNL A   1      44.728  33.650  30.214  1.00  0.00     0.009 A 
ATOM     75  C   UNL A   1      44.515  34.395  32.893  1.00  0.00     0.001 A 
ATOM     76  C   UNL A   1      44.953  34.975  30.589  1.00  0.00     0.001 A 
ATOM     77  C   UNL A   1      44.835  35.348  31.926  1.00  0.00     0.000 A 
ENDBRANCH  59  72
ENDBRANCH  33  34
ENDBRANCH  25  28
ENDBRANCH  23  24
ENDBRANCH  22  23
ENDBRANCH  21  22
ENDBRANCH   1  21
TORSDOF 16
ENDMDL
MODEL 2
REMARK VINA RESULT:     -10.1      5.181     10.019
REMARK SMILES C[C@H]([NH2+]CC1(O)CCCC1)[C@H](C)C(=O)NCCCCNC(=O)c1ccc(-c2c3nc(c(-c4ccccc4)c4ccc([nH]4)c(-c4ccccc4)c4nc(c(-c5ccccc5)c5ccc2[nH]5)C=C4)C=C3)cc1
REMARK SMILES IDX 16 1 15 2 13 3 14 4 11 6 12 7 2 8 1 9 3 10 4 13 5 14 7 15
REMARK SMILES IDX 10 16 8 17 9 18 6 19 17 21 18 22 19 23 20 24 21 25 22 27
REMARK SMILES IDX 23 28 24 29 70 30 25 31 69 32 26 33 27 34 28 35 63 36 29 37
REMARK SMILES IDX 68 38 62 39 64 40 30 41 67 42 61 43 60 44 31 46 53 47 38 48
REMARK SMILES IDX 52 49 39 50 42 51 51 52 65 53 40 54 41 55 50 57 66 58 43 59
REMARK SMILES IDX 32 60 33 61 37 62 34 63 36 64 35 65 54 66 55 67 59 68 56 69
REMARK SMILES IDX 58 70 57 71 44 72 45 73 49 74 46 75 48 76 47 77
REMARK H PARENT 15 5 3 11 3 12 6 20 20 26 64 45 42 56
REMARK Flexibility Score: inf
ROOT
ATOM      1  C   UNL A   1      33.079  29.900  26.094  1.00  0.00     0.116 C 
ENDROOT
BRANCH   1   2
ATOM      2  N   UNL A   1      33.421  29.764  24.700  1.00  0.00    -0.356 N 
ATOM      3  C   UNL A   1      33.017  28.865  23.769  1.00  0.00     0.228 C 
ATOM      4  O   UNL A   1      33.384  29.088  22.608  1.00  0.00    -0.275 OA
ATOM      5  H   UNL A   1      34.057  30.438  24.368  1.00  0.00     0.163 HD
BRANCH   3   6
ATOM      6  C   UNL A   1      32.253  27.570  24.075  1.00  0.00     0.133 C 
ATOM      7  C   UNL A   1      32.898  26.868  25.269  1.00  0.00     0.024 C 
BRANCH   6   8
ATOM      8  C   UNL A   1      30.694  27.505  23.958  1.00  0.00     0.191 C 
ATOM      9  C   UNL A   1      30.205  26.117  24.412  1.00  0.00     0.076 C 
BRANCH   8  10
ATOM     10  N   UNL A   1      29.951  27.826  22.722  1.00  0.00    -0.341 N 
ATOM     11  H   UNL A   1      29.562  26.955  22.358  1.00  0.00     0.346 HD
ATOM     12  H   UNL A   1      30.629  28.273  22.104  1.00  0.00     0.346 HD
BRANCH  10  13
ATOM     13  C   UNL A   1      28.852  28.782  22.856  1.00  0.00     0.296 C 
BRANCH  13  14
ATOM     14  C   UNL A   1      29.165  30.183  22.277  1.00  0.00     0.113 C 
ATOM     15  C   UNL A   1      29.061  31.340  23.275  1.00  0.00     0.041 C 
ATOM     16  C   UNL A   1      28.131  30.554  21.208  1.00  0.00     0.041 C 
ATOM     17  C   UNL A   1      28.696  32.573  22.443  1.00  0.00     0.003 C 
ATOM     18  C   UNL A   1      28.221  32.068  21.085  1.00  0.00     0.003 C 
BRANCH  14  19
ATOM     19  O   UNL A   1      30.476  30.160  21.705  1.00  0.00    -0.384 OA
ATOM     20  H   UNL A   1      31.121  29.906  22.384  1.00  0.00     0.211 HD
ENDBRANCH  14  19
ENDBRANCH  13  14
ENDBRANCH  10  13
ENDBRANCH   8  10
ENDBRANCH   6   8
ENDBRANCH   3   6
ENDBRANCH   1   2
BRANCH   1  21
ATOM     21  C   UNL A   1      31.638  30.351  26.314  1.00  0.00     0.023 C 
BRANCH  21  22
ATOM     22  C   UNL A   1      31.456  31.854  26.523  1.00  0.00     0.023 C 
BRANCH  22  23
ATOM     23  C   UNL A   1      32.591  32.574  27.246  1.00  0.00     0.116 C 
BRANCH  23  24
ATOM     24  N   UNL A   1      32.310  33.952  27.616  1.00  0.00    -0.352 N 
ATOM     25  C   UNL A   1      33.036  34.757  28.467  1.00  0.00     0.251 C 
ATOM     26  H   UNL A   1      31.509  34.358  27.211  1.00  0.00     0.163 HD
ATOM     27  O   UNL A   1      32.649  35.886  28.748  1.00  0.00    -0.269 OA
BRANCH  25  28
ATOM     28  C   UNL A   1      34.269  34.216  29.084  1.00  0.00     0.039 A 
ATOM     29  C   UNL A   1      34.167  33.423  30.227  1.00  0.00     0.014 A 
ATOM     30  C   UNL A   1      35.514  34.442  28.491  1.00  0.00     0.014 A 
ATOM     31  C   UNL A   1      35.309  32.796  30.735  1.00  0.00     0.010 A 
ATOM     32  C   UNL A   1      36.629  33.746  28.941  1.00  0.00     0.010 A 
ATOM     33  C   UNL A   1      36.544  32.925  30.075  1.00  0.00    -0.014 A 
BRANCH  33  34
ATOM     34  C   UNL A   1      37.764  32.244  30.575  1.00  0.00     0.031 A 
ATOM     35  C   UNL A   1      38.492  32.795  31.773  1.00  0.00     0.074 A 
ATOM     36  C   UNL A   1      38.257  31.171  29.924  1.00  0.00     0.049 A 
ATOM     37  N   UNL A   1      39.594  32.372  32.339  1.00  0.00    -0.248 NA
ATOM     38  C   UNL A   1      37.923  34.001  32.397  1.00  0.00     0.031 C 
ATOM     39  C   UNL A   1      37.685  30.570  28.718  1.00  0.00     0.029 A 
ATOM     40  N   UNL A   1      39.359  30.396  30.191  1.00  0.00    -0.354 N 
ATOM     41  C   UNL A   1      39.860  33.272  33.363  1.00  0.00     0.074 A 
ATOM     42  C   UNL A   1      38.842  34.296  33.303  1.00  0.00     0.031 C 
ATOM     43  C   UNL A   1      38.419  29.499  28.371  1.00  0.00     0.029 A 
ATOM     44  C   UNL A   1      39.527  29.355  29.309  1.00  0.00     0.049 A 
ATOM     45  H   UNL A   1      39.970  30.569  30.942  1.00  0.00     0.167 HD
ATOM     46  C   UNL A   1      40.846  33.239  34.291  1.00  0.00     0.031 A 
ATOM     47  C   UNL A   1      40.463  28.388  29.270  1.00  0.00     0.031 A 
ATOM     48  C   UNL A   1      41.843  32.208  34.373  1.00  0.00     0.049 A 
ATOM     49  C   UNL A   1      41.528  28.351  30.332  1.00  0.00     0.074 A 
ATOM     50  C   UNL A   1      42.849  32.051  35.309  1.00  0.00     0.029 A 
ATOM     51  N   UNL A   1      41.952  31.150  33.484  1.00  0.00    -0.354 N 
ATOM     52  N   UNL A   1      41.722  29.170  31.337  1.00  0.00    -0.248 NA
ATOM     53  C   UNL A   1      42.486  27.238  30.267  1.00  0.00     0.031 C 
ATOM     54  C   UNL A   1      43.590  30.915  34.967  1.00  0.00     0.029 A 
ATOM     55  C   UNL A   1      43.012  30.337  33.848  1.00  0.00     0.049 A 
ATOM     56  H   UNL A   1      41.363  30.998  32.711  1.00  0.00     0.167 HD
ATOM     57  C   UNL A   1      42.800  28.652  32.044  1.00  0.00     0.074 A 
ATOM     58  C   UNL A   1      43.208  27.443  31.360  1.00  0.00     0.031 C 
ATOM     59  C   UNL A   1      43.396  29.131  33.163  1.00  0.00     0.031 A 
BRANCH  46  60
ATOM     60  C   UNL A   1      40.879  34.356  35.296  1.00  0.00    -0.014 A 
ATOM     61  C   UNL A   1      40.155  34.275  36.498  1.00  0.00     0.009 A 
ATOM     62  C   UNL A   1      41.653  35.500  35.048  1.00  0.00     0.009 A 
ATOM     63  C   UNL A   1      40.170  35.334  37.407  1.00  0.00     0.001 A 
ATOM     64  C   UNL A   1      41.691  36.545  35.973  1.00  0.00     0.001 A 
ATOM     65  C   UNL A   1      40.940  36.466  37.146  1.00  0.00     0.000 A 
ENDBRANCH  46  60
BRANCH  47  66
ATOM     66  C   UNL A   1      40.412  27.340  28.216  1.00  0.00    -0.014 A 
ATOM     67  C   UNL A   1      41.088  27.526  26.999  1.00  0.00     0.009 A 
ATOM     68  C   UNL A   1      39.679  26.161  28.412  1.00  0.00     0.009 A 
ATOM     69  C   UNL A   1      41.002  26.565  25.988  1.00  0.00     0.001 A 
ATOM     70  C   UNL A   1      39.618  25.190  27.410  1.00  0.00     0.001 A 
ATOM     71  C   UNL A   1      40.270  25.398  26.195  1.00  0.00     0.000 A 
ENDBRANCH  47  66
BRANCH  59  72
ATOM     72  C   UNL A   1      44.514  28.317  33.747  1.00  0.00    -0.014 A 
ATOM     73  C   UNL A   1      45.852  28.541  33.386  1.00  0.00     0.009 A 
ATOM     74  C   UNL A   1      44.222  27.330  34.702  1.00  0.00     0.009 A 
ATOM     75  C   UNL A   1      46.870  27.763  33.940  1.00  0.00     0.001 A 
ATOM     76  C   UNL A   1      45.245  26.575  35.276  1.00  0.00     0.001 A 
ATOM     77  C   UNL A   1      46.567  26.785  34.887  1.00  0.00     0.000 A 
ENDBRANCH  59  72
ENDBRANCH  33  34
ENDBRANCH  25  28
ENDBRANCH  23  24
ENDBRANCH  22  23
ENDBRANCH  21  22
ENDBRANCH   1  21
TORSDOF 16
ENDMDL
MODEL 3
REMARK VINA RESULT:      -9.7      2.029      7.235
REMARK SMILES C[C@H]([NH2+]CC1(O)CCCC1)[C@H](C)C(=O)NCCCCNC(=O)c1ccc(-c2c3nc(c(-c4ccccc4)c4ccc([nH]4)c(-c4ccccc4)c4nc(c(-c5ccccc5)c5ccc2[nH]5)C=C4)C=C3)cc1
REMARK SMILES IDX 16 1 15 2 13 3 14 4 11 6 12 7 2 8 1 9 3 10 4 13 5 14 7 15
REMARK SMILES IDX 10 16 8 17 9 18 6 19 17 21 18 22 19 23 20 24 21 25 22 27
REMARK SMILES IDX 23 28 24 29 70 30 25 31 69 32 26 33 27 34 28 35 63 36 29 37
REMARK SMILES IDX 68 38 62 39 64 40 30 41 67 42 61 43 60 44 31 46 53 47 38 48
REMARK SMILES IDX 52 49 39 50 42 51 51 52 65 53 40 54 41 55 50 57 66 58 43 59
REMARK SMILES IDX 32 60 33 61 37 62 34 63 36 64 35 65 54 66 55 67 59 68 56 69
REMARK SMILES IDX 58 70 57 71 44 72 45 73 49 74 46 75 48 76 47 77
REMARK H PARENT 15 5 3 11 3 12 6 20 20 26 64 45 42 56
REMARK Flexibility Score: inf
ROOT
ATOM      1  C   UNL A   1      34.020  25.127  24.708  1.00  0.00     0.116 C 
ENDROOT
BRANCH   1   2
ATOM      2  N   UNL A   1      35.203  24.916  25.506  1.00  0.00    -0.356 N 
ATOM      3  C   UNL A   1      36.143  23.941  25.461  1.00  0.00     0.228 C 
ATOM      4  O   UNL A   1      37.126  24.105  26.196  1.00  0.00    -0.275 OA
ATOM      5  H   UNL A   1      35.352  25.596  26.202  1.00  0.00     0.163 HD
BRANCH   3   6
ATOM      6  C   UNL A   1      36.013  22.635  24.667  1.00  0.00     0.133 C 
ATOM      7  C   UNL A   1      36.489  22.860  23.233  1.00  0.00     0.024 C 
BRANCH   6   8
ATOM      8  C   UNL A   1      36.340  21.253  25.326  1.00  0.00     0.191 C 
ATOM      9  C   UNL A   1      37.794  20.863  25.000  1.00  0.00     0.076 C 
BRANCH   8  10
ATOM     10  N   UNL A   1      35.526  20.037  25.125  1.00  0.00    -0.341 N 
ATOM     11  H   UNL A   1      35.862  19.328  25.779  1.00  0.00     0.346 HD
ATOM     12  H   UNL A   1      35.641  19.790  24.142  1.00  0.00     0.346 HD
BRANCH  10  13
ATOM     13  C   UNL A   1      34.085  20.181  25.327  1.00  0.00     0.296 C 
BRANCH  13  14
ATOM     14  C   UNL A   1      33.247  19.031  24.717  1.00  0.00     0.113 C 
ATOM     15  C   UNL A   1      34.039  17.779  24.331  1.00  0.00     0.041 C 
ATOM     16  C   UNL A   1      32.633  19.478  23.385  1.00  0.00     0.041 C 
ATOM     17  C   UNL A   1      33.260  17.136  23.180  1.00  0.00     0.003 C 
ATOM     18  C   UNL A   1      32.280  18.184  22.664  1.00  0.00     0.003 C 
BRANCH  14  19
ATOM     19  O   UNL A   1      32.213  18.679  25.641  1.00  0.00    -0.384 OA
ATOM     20  H   UNL A   1      31.591  18.069  25.214  1.00  0.00     0.211 HD
ENDBRANCH  14  19
ENDBRANCH  13  14
ENDBRANCH  10  13
ENDBRANCH   8  10
ENDBRANCH   6   8
ENDBRANCH   3   6
ENDBRANCH   1   2
BRANCH   1  21
ATOM     21  C   UNL A   1      33.692  26.602  24.502  1.00  0.00     0.023 C 
BRANCH  21  22
ATOM     22  C   UNL A   1      33.139  27.319  25.733  1.00  0.00     0.023 C 
BRANCH  22  23
ATOM     23  C   UNL A   1      34.144  28.133  26.543  1.00  0.00     0.116 C 
BRANCH  23  24
ATOM     24  N   UNL A   1      33.683  29.449  26.955  1.00  0.00    -0.352 N 
ATOM     25  C   UNL A   1      34.370  30.385  27.698  1.00  0.00     0.251 C 
ATOM     26  H   UNL A   1      32.775  29.702  26.669  1.00  0.00     0.163 HD
ATOM     27  O   UNL A   1      33.836  31.436  28.036  1.00  0.00    -0.269 OA
BRANCH  25  28
ATOM     28  C   UNL A   1      35.752  30.078  28.131  1.00  0.00     0.039 A 
ATOM     29  C   UNL A   1      35.966  29.554  29.407  1.00  0.00     0.014 A 
ATOM     30  C   UNL A   1      36.824  30.249  27.251  1.00  0.00     0.014 A 
ATOM     31  C   UNL A   1      37.248  29.133  29.773  1.00  0.00     0.010 A 
ATOM     32  C   UNL A   1      38.076  29.746  27.583  1.00  0.00     0.010 A 
ATOM     33  C   UNL A   1      38.306  29.193  28.851  1.00  0.00    -0.014 A 
BRANCH  33  34
ATOM     34  C   UNL A   1      39.670  28.723  29.205  1.00  0.00     0.031 A 
ATOM     35  C   UNL A   1      40.583  29.610  30.009  1.00  0.00     0.074 A 
ATOM     36  C   UNL A   1      40.114  27.532  28.757  1.00  0.00     0.049 A 
ATOM     37  N   UNL A   1      41.819  29.402  30.386  1.00  0.00    -0.248 NA
ATOM     38  C   UNL A   1      40.046  30.919  30.416  1.00  0.00     0.031 C 
ATOM     39  C   UNL A   1      39.354  26.601  27.920  1.00  0.00     0.029 A 
ATOM     40  N   UNL A   1      41.319  26.903  28.945  1.00  0.00    -0.354 N 
ATOM     41  C   UNL A   1      42.211  30.559  31.047  1.00  0.00     0.074 A 
ATOM     42  C   UNL A   1      41.106  31.488  30.968  1.00  0.00     0.031 C 
ATOM     43  C   UNL A   1      40.099  25.504  27.698  1.00  0.00     0.029 A 
ATOM     44  C   UNL A   1      41.395  25.666  28.349  1.00  0.00     0.049 A 
ATOM     45  H   UNL A   1      42.060  27.299  29.456  1.00  0.00     0.167 HD
ATOM     46  C   UNL A   1      43.375  30.820  31.689  1.00  0.00     0.031 A 
ATOM     47  C   UNL A   1      42.392  24.762  28.339  1.00  0.00     0.031 A 
ATOM     48  C   UNL A   1      44.465  29.890  31.795  1.00  0.00     0.049 A 
ATOM     49  C   UNL A   1      43.662  25.059  29.089  1.00  0.00     0.074 A 
ATOM     50  C   UNL A   1      45.662  30.036  32.472  1.00  0.00     0.029 A 
ATOM     51  N   UNL A   1      44.482  28.633  31.212  1.00  0.00    -0.354 N 
ATOM     52  N   UNL A   1      43.988  26.131  29.771  1.00  0.00    -0.248 NA
ATOM     53  C   UNL A   1      44.690  24.009  29.089  1.00  0.00     0.031 C 
ATOM     54  C   UNL A   1      46.421  28.878  32.270  1.00  0.00     0.029 A 
ATOM     55  C   UNL A   1      45.673  27.993  31.510  1.00  0.00     0.049 A 
ATOM     56  H   UNL A   1      43.756  28.251  30.668  1.00  0.00     0.167 HD
ATOM     57  C   UNL A   1      45.242  25.868  30.310  1.00  0.00     0.074 A 
ATOM     58  C   UNL A   1      45.609  24.534  29.886  1.00  0.00     0.031 C 
ATOM     59  C   UNL A   1      46.016  26.660  31.090  1.00  0.00     0.031 A 
BRANCH  46  60
ATOM     60  C   UNL A   1      43.515  32.172  32.332  1.00  0.00    -0.014 A 
ATOM     61  C   UNL A   1      43.153  32.379  33.674  1.00  0.00     0.009 A 
ATOM     62  C   UNL A   1      44.025  33.250  31.594  1.00  0.00     0.009 A 
ATOM     63  C   UNL A   1      43.258  33.648  34.248  1.00  0.00     0.001 A 
ATOM     64  C   UNL A   1      44.159  34.510  32.179  1.00  0.00     0.001 A 
ATOM     65  C   UNL A   1      43.764  34.711  33.502  1.00  0.00     0.000 A 
ENDBRANCH  46  60
BRANCH  47  66
ATOM     66  C   UNL A   1      42.217  23.463  27.638  1.00  0.00    -0.014 A 
ATOM     67  C   UNL A   1      41.596  22.384  28.288  1.00  0.00     0.009 A 
ATOM     68  C   UNL A   1      42.682  23.288  26.326  1.00  0.00     0.009 A 
ATOM     69  C   UNL A   1      41.475  21.147  27.650  1.00  0.00     0.001 A 
ATOM     70  C   UNL A   1      42.534  22.058  25.681  1.00  0.00     0.001 A 
ATOM     71  C   UNL A   1      41.941  20.986  26.347  1.00  0.00     0.000 A 
ENDBRANCH  47  66
BRANCH  59  72
ATOM     72  C   UNL A   1      47.312  26.082  31.582  1.00  0.00    -0.014 A 
ATOM     73  C   UNL A   1      48.480  26.131  30.804  1.00  0.00     0.009 A 
ATOM     74  C   UNL A   1      47.369  25.506  32.861  1.00  0.00     0.009 A 
ATOM     75  C   UNL A   1      49.669  25.578  31.284  1.00  0.00     0.001 A 
ATOM     76  C   UNL A   1      48.566  24.981  33.350  1.00  0.00     0.001 A 
ATOM     77  C   UNL A   1      49.712  25.008  32.557  1.00  0.00     0.000 A 
ENDBRANCH  59  72
ENDBRANCH  33  34
ENDBRANCH  25  28
ENDBRANCH  23  24
ENDBRANCH  22  23
ENDBRANCH  21  22
ENDBRANCH   1  21
TORSDOF 16
ENDMDL
