MODEL 1
REMARK VINA RESULT:     -11.2      0.000      0.000
REMARK SMILES Cc1nc(CCc2ccc(S(=O)(=O)N3CCCC3)cc2)ncc1C(=O)NCCCCNC(=O)c1ccc(-c2c3nc(c(-c4ccccc4)c4ccc([nH]4)c(-c4ccccc4)c4nc(c(-c5ccccc5)c5ccc2[nH]5)C=C4)C=C3)cc1
REMARK SMILES IDX 27 1 26 2 24 3 25 4 23 6 1 7 2 8 3 9 4 10 22 11 21 12 5 13
REMARK SMILES IDX 6 14 7 15 8 16 20 17 9 18 19 19 10 20 11 21 12 22 13 23
REMARK SMILES IDX 14 24 15 25 18 26 16 27 17 28 28 29 29 30 30 31 31 32 32 33
REMARK SMILES IDX 33 35 34 36 35 37 81 38 36 39 80 40 37 41 38 42 39 43 74 44
REMARK SMILES IDX 40 45 79 46 73 47 75 48 41 49 78 50 72 51 71 52 42 54 64 55
REMARK SMILES IDX 49 56 63 57 50 58 53 59 62 60 76 61 51 62 52 63 61 65 77 66
REMARK SMILES IDX 54 67 43 68 44 69 48 70 45 71 47 72 46 73 65 74 66 75 70 76
REMARK SMILES IDX 67 77 69 78 68 79 55 80 56 81 60 82 57 83 59 84 58 85
REMARK H PARENT 26 5 31 34 75 53 53 64
REMARK Flexibility Score: inf
ROOT
ATOM      1  C   UNL A   1      38.282  23.850  26.247  1.00  0.00     0.116 C 
ENDROOT
BRANCH   1   2
ATOM      2  N   UNL A   1      37.912  23.699  24.855  1.00  0.00    -0.352 N 
ATOM      3  C   UNL A   1      36.694  23.369  24.296  1.00  0.00     0.254 C 
ATOM      4  O   UNL A   1      36.627  23.265  23.070  1.00  0.00    -0.269 OA
ATOM      5  H   UNL A   1      38.640  23.855  24.210  1.00  0.00     0.163 HD
BRANCH   3   6
ATOM      6  C   UNL A   1      35.486  23.048  25.090  1.00  0.00     0.079 A 
ATOM      7  C   UNL A   1      35.529  20.494  24.973  1.00  0.00     0.068 C 
ATOM      8  C   UNL A   1      34.959  21.806  25.394  1.00  0.00     0.054 A 
ATOM      9  N   UNL A   1      33.806  21.664  26.095  1.00  0.00    -0.237 NA
ATOM     10  C   UNL A   1      33.179  22.768  26.532  1.00  0.00     0.128 A 
ATOM     11  C   UNL A   1      34.817  24.114  25.674  1.00  0.00     0.129 A 
ATOM     12  N   UNL A   1      33.658  24.011  26.370  1.00  0.00    -0.241 NA
BRANCH  10  13
ATOM     13  C   UNL A   1      31.812  22.581  27.128  1.00  0.00     0.082 C 
BRANCH  13  14
ATOM     14  C   UNL A   1      30.711  22.643  26.062  1.00  0.00     0.043 C 
BRANCH  14  15
ATOM     15  C   UNL A   1      30.608  23.949  25.296  1.00  0.00    -0.047 A 
ATOM     16  C   UNL A   1      30.247  25.133  25.951  1.00  0.00     0.005 A 
ATOM     17  C   UNL A   1      30.892  24.001  23.922  1.00  0.00     0.005 A 
ATOM     18  C   UNL A   1      30.175  26.341  25.250  1.00  0.00     0.022 A 
ATOM     19  C   UNL A   1      30.841  25.213  23.219  1.00  0.00     0.022 A 
ATOM     20  C   UNL A   1      30.473  26.383  23.882  1.00  0.00     0.082 A 
BRANCH  20  21
ATOM     21  S   UNL A   1      30.362  27.966  23.054  1.00  0.00     0.243 S 
ATOM     22  O   UNL A   1      30.692  27.726  21.666  1.00  0.00    -0.207 OA
ATOM     23  O   UNL A   1      29.097  28.554  23.442  1.00  0.00    -0.207 OA
BRANCH  21  24
ATOM     24  N   UNL A   1      31.593  28.922  23.669  1.00  0.00    -0.198 NA
ATOM     25  C   UNL A   1      32.995  28.521  23.519  1.00  0.00     0.102 C 
ATOM     26  C   UNL A   1      31.405  29.695  24.906  1.00  0.00     0.102 C 
ATOM     27  C   UNL A   1      33.492  28.506  24.952  1.00  0.00     0.018 C 
ATOM     28  C   UNL A   1      32.763  29.674  25.589  1.00  0.00     0.018 C 
ENDBRANCH  21  24
ENDBRANCH  20  21
ENDBRANCH  14  15
ENDBRANCH  13  14
ENDBRANCH  10  13
ENDBRANCH   3   6
ENDBRANCH   1   2
BRANCH   1  29
ATOM     29  C   UNL A   1      39.423  22.961  26.730  1.00  0.00     0.023 C 
BRANCH  29  30
ATOM     30  C   UNL A   1      39.636  21.583  26.093  1.00  0.00     0.023 C 
BRANCH  30  31
ATOM     31  C   UNL A   1      40.460  20.526  26.824  1.00  0.00     0.116 C 
BRANCH  31  32
ATOM     32  N   UNL A   1      41.617  20.034  26.088  1.00  0.00    -0.352 N 
ATOM     33  C   UNL A   1      42.794  20.650  25.721  1.00  0.00     0.251 C 
ATOM     34  H   UNL A   1      41.546  19.095  25.801  1.00  0.00     0.163 HD
ATOM     35  O   UNL A   1      43.623  20.062  25.035  1.00  0.00    -0.269 OA
BRANCH  33  36
ATOM     36  C   UNL A   1      43.068  22.029  26.151  1.00  0.00     0.039 A 
ATOM     37  C   UNL A   1      43.129  23.057  25.206  1.00  0.00     0.014 A 
ATOM     38  C   UNL A   1      43.261  22.294  27.504  1.00  0.00     0.014 A 
ATOM     39  C   UNL A   1      43.281  24.375  25.638  1.00  0.00     0.010 A 
ATOM     40  C   UNL A   1      43.302  23.607  27.939  1.00  0.00     0.010 A 
ATOM     41  C   UNL A   1      43.316  24.659  27.012  1.00  0.00    -0.014 A 
BRANCH  41  42
ATOM     42  C   UNL A   1      43.367  26.045  27.533  1.00  0.00     0.031 A 
ATOM     43  C   UNL A   1      44.693  26.639  27.919  1.00  0.00     0.074 A 
ATOM     44  C   UNL A   1      42.219  26.704  27.774  1.00  0.00     0.049 A 
ATOM     45  N   UNL A   1      44.946  27.765  28.533  1.00  0.00    -0.248 NA
ATOM     46  C   UNL A   1      45.892  25.837  27.617  1.00  0.00     0.031 C 
ATOM     47  C   UNL A   1      40.872  26.201  27.491  1.00  0.00     0.029 A 
ATOM     48  N   UNL A   1      42.000  27.937  28.332  1.00  0.00    -0.354 N 
ATOM     49  C   UNL A   1      46.323  27.790  28.717  1.00  0.00     0.074 A 
ATOM     50  C   UNL A   1      46.844  26.542  28.208  1.00  0.00     0.031 C 
ATOM     51  C   UNL A   1      39.971  27.128  27.850  1.00  0.00     0.029 A 
ATOM     52  C   UNL A   1      40.670  28.267  28.432  1.00  0.00     0.049 A 
ATOM     53  H   UNL A   1      42.726  28.529  28.632  1.00  0.00     0.167 HD
ATOM     54  C   UNL A   1      47.087  28.776  29.242  1.00  0.00     0.031 A 
ATOM     55  C   UNL A   1      40.083  29.364  28.946  1.00  0.00     0.031 A 
ATOM     56  C   UNL A   1      46.557  30.020  29.727  1.00  0.00     0.049 A 
ATOM     57  C   UNL A   1      40.953  30.447  29.517  1.00  0.00     0.074 A 
ATOM     58  C   UNL A   1      47.242  31.118  30.217  1.00  0.00     0.029 A 
ATOM     59  N   UNL A   1      45.206  30.332  29.780  1.00  0.00    -0.354 N 
ATOM     60  N   UNL A   1      42.261  30.490  29.618  1.00  0.00    -0.248 NA
ATOM     61  C   UNL A   1      40.268  31.639  30.033  1.00  0.00     0.031 C 
ATOM     62  C   UNL A   1      46.301  32.073  30.616  1.00  0.00     0.029 A 
ATOM     63  C   UNL A   1      45.035  31.595  30.317  1.00  0.00     0.049 A 
ATOM     64  H   UNL A   1      44.478  29.742  29.480  1.00  0.00     0.167 HD
ATOM     65  C   UNL A   1      42.556  31.722  30.185  1.00  0.00     0.074 A 
ATOM     66  C   UNL A   1      41.293  32.402  30.386  1.00  0.00     0.031 C 
ATOM     67  C   UNL A   1      43.764  32.246  30.510  1.00  0.00     0.031 A 
BRANCH  54  68
ATOM     68  C   UNL A   1      48.570  28.537  29.317  1.00  0.00    -0.014 A 
ATOM     69  C   UNL A   1      49.162  27.963  30.454  1.00  0.00     0.009 A 
ATOM     70  C   UNL A   1      49.389  28.878  28.229  1.00  0.00     0.009 A 
ATOM     71  C   UNL A   1      50.545  27.775  30.517  1.00  0.00     0.001 A 
ATOM     72  C   UNL A   1      50.767  28.658  28.280  1.00  0.00     0.001 A 
ATOM     73  C   UNL A   1      51.345  28.118  29.428  1.00  0.00     0.000 A 
ENDBRANCH  54  68
BRANCH  55  74
ATOM     74  C   UNL A   1      38.603  29.502  28.916  1.00  0.00    -0.014 A 
ATOM     75  C   UNL A   1      37.950  29.882  27.734  1.00  0.00     0.009 A 
ATOM     76  C   UNL A   1      37.834  29.248  30.063  1.00  0.00     0.009 A 
ATOM     77  C   UNL A   1      36.561  30.030  27.705  1.00  0.00     0.001 A 
ATOM     78  C   UNL A   1      36.442  29.368  30.024  1.00  0.00     0.001 A 
ATOM     79  C   UNL A   1      35.809  29.767  28.849  1.00  0.00     0.000 A 
ENDBRANCH  55  74
BRANCH  67  80
ATOM     80  C   UNL A   1      43.772  33.634  31.084  1.00  0.00    -0.014 A 
ATOM     81  C   UNL A   1      43.822  34.766  30.256  1.00  0.00     0.009 A 
ATOM     82  C   UNL A   1      43.686  33.809  32.474  1.00  0.00     0.009 A 
ATOM     83  C   UNL A   1      43.821  36.046  30.814  1.00  0.00     0.001 A 
ATOM     84  C   UNL A   1      43.653  35.089  33.026  1.00  0.00     0.001 A 
ATOM     85  C   UNL A   1      43.731  36.206  32.197  1.00  0.00     0.000 A 
ENDBRANCH  67  80
ENDBRANCH  41  42
ENDBRANCH  33  36
ENDBRANCH  31  32
ENDBRANCH  30  31
ENDBRANCH  29  30
ENDBRANCH   1  29
TORSDOF 16
ENDMDL
MODEL 2
REMARK VINA RESULT:     -11.1      4.925     11.439
REMARK SMILES Cc1nc(CCc2ccc(S(=O)(=O)N3CCCC3)cc2)ncc1C(=O)NCCCCNC(=O)c1ccc(-c2c3nc(c(-c4ccccc4)c4ccc([nH]4)c(-c4ccccc4)c4nc(c(-c5ccccc5)c5ccc2[nH]5)C=C4)C=C3)cc1
REMARK SMILES IDX 27 1 26 2 24 3 25 4 23 6 1 7 2 8 3 9 4 10 22 11 21 12 5 13
REMARK SMILES IDX 6 14 7 15 8 16 20 17 9 18 19 19 10 20 11 21 12 22 13 23
REMARK SMILES IDX 14 24 15 25 18 26 16 27 17 28 28 29 29 30 30 31 31 32 32 33
REMARK SMILES IDX 33 35 34 36 35 37 81 38 36 39 80 40 37 41 38 42 39 43 74 44
REMARK SMILES IDX 40 45 79 46 73 47 75 48 41 49 78 50 72 51 71 52 42 54 64 55
REMARK SMILES IDX 49 56 63 57 50 58 53 59 62 60 76 61 51 62 52 63 61 65 77 66
REMARK SMILES IDX 54 67 43 68 44 69 48 70 45 71 47 72 46 73 65 74 66 75 70 76
REMARK SMILES IDX 67 77 69 78 68 79 55 80 56 81 60 82 57 83 59 84 58 85
REMARK H PARENT 26 5 31 34 75 53 53 64
REMARK Flexibility Score: inf
ROOT
ATOM      1  C   UNL A   1      37.295  33.131  30.362  1.00  0.00     0.116 C 
ENDROOT
BRANCH   1   2
ATOM      2  N   UNL A   1      36.770  34.095  31.306  1.00  0.00    -0.352 N 
ATOM      3  C   UNL A   1      37.040  34.251  32.651  1.00  0.00     0.254 C 
ATOM      4  O   UNL A   1      36.439  35.133  33.265  1.00  0.00    -0.269 OA
ATOM      5  H   UNL A   1      36.124  34.737  30.932  1.00  0.00     0.163 HD
BRANCH   3   6
ATOM      6  C   UNL A   1      37.944  33.361  33.415  1.00  0.00     0.079 A 
ATOM      7  C   UNL A   1      40.191  34.493  32.961  1.00  0.00     0.068 C 
ATOM      8  C   UNL A   1      39.316  33.445  33.561  1.00  0.00     0.054 A 
ATOM      9  N   UNL A   1      40.025  32.520  34.256  1.00  0.00    -0.237 NA
ATOM     10  C   UNL A   1      39.362  31.512  34.845  1.00  0.00     0.128 A 
ATOM     11  C   UNL A   1      37.350  32.342  34.146  1.00  0.00     0.129 A 
ATOM     12  N   UNL A   1      38.026  31.394  34.841  1.00  0.00    -0.241 NA
BRANCH  10  13
ATOM     13  C   UNL A   1      40.193  30.406  35.433  1.00  0.00     0.082 C 
BRANCH  13  14
ATOM     14  C   UNL A   1      40.697  29.435  34.358  1.00  0.00     0.043 C 
BRANCH  14  15
ATOM     15  C   UNL A   1      41.706  28.402  34.823  1.00  0.00    -0.047 A 
ATOM     16  C   UNL A   1      42.608  27.829  33.918  1.00  0.00     0.005 A 
ATOM     17  C   UNL A   1      41.770  28.016  36.171  1.00  0.00     0.005 A 
ATOM     18  C   UNL A   1      43.553  26.894  34.350  1.00  0.00     0.022 A 
ATOM     19  C   UNL A   1      42.729  27.094  36.613  1.00  0.00     0.022 A 
ATOM     20  C   UNL A   1      43.616  26.525  35.700  1.00  0.00     0.082 A 
BRANCH  20  21
ATOM     21  S   UNL A   1      44.855  25.326  36.178  1.00  0.00     0.243 S 
ATOM     22  O   UNL A   1      46.140  25.918  35.874  1.00  0.00    -0.207 OA
ATOM     23  O   UNL A   1      44.521  24.891  37.518  1.00  0.00    -0.207 OA
BRANCH  21  24
ATOM     24  N   UNL A   1      44.687  24.016  35.147  1.00  0.00    -0.198 NA
ATOM     25  C   UNL A   1      45.519  23.903  33.945  1.00  0.00     0.102 C 
ATOM     26  C   UNL A   1      43.376  23.386  34.930  1.00  0.00     0.102 C 
ATOM     27  C   UNL A   1      44.491  23.778  32.838  1.00  0.00     0.018 C 
ATOM     28  C   UNL A   1      43.389  22.950  33.474  1.00  0.00     0.018 C 
ENDBRANCH  21  24
ENDBRANCH  20  21
ENDBRANCH  14  15
ENDBRANCH  13  14
ENDBRANCH  10  13
ENDBRANCH   3   6
ENDBRANCH   1   2
BRANCH   1  29
ATOM     29  C   UNL A   1      37.030  33.433  28.890  1.00  0.00     0.023 C 
BRANCH  29  30
ATOM     30  C   UNL A   1      35.606  33.318  28.334  1.00  0.00     0.023 C 
BRANCH  30  31
ATOM     31  C   UNL A   1      34.572  32.464  29.064  1.00  0.00     0.116 C 
BRANCH  31  32
ATOM     32  N   UNL A   1      34.087  31.314  28.312  1.00  0.00    -0.352 N 
ATOM     33  C   UNL A   1      34.696  30.128  27.965  1.00  0.00     0.251 C 
ATOM     34  H   UNL A   1      33.158  31.399  27.995  1.00  0.00     0.163 HD
ATOM     35  O   UNL A   1      34.119  29.308  27.260  1.00  0.00    -0.269 OA
BRANCH  33  36
ATOM     36  C   UNL A   1      36.057  29.834  28.439  1.00  0.00     0.039 A 
ATOM     37  C   UNL A   1      36.258  29.370  29.742  1.00  0.00     0.014 A 
ATOM     38  C   UNL A   1      37.133  30.021  27.576  1.00  0.00     0.014 A 
ATOM     39  C   UNL A   1      37.540  28.993  30.143  1.00  0.00     0.010 A 
ATOM     40  C   UNL A   1      38.381  29.545  27.936  1.00  0.00     0.010 A 
ATOM     41  C   UNL A   1      38.598  29.030  29.222  1.00  0.00    -0.014 A 
BRANCH  41  42
ATOM     42  C   UNL A   1      39.956  28.541  29.557  1.00  0.00     0.031 A 
ATOM     43  C   UNL A   1      40.888  29.427  30.336  1.00  0.00     0.074 A 
ATOM     44  C   UNL A   1      40.380  27.370  29.049  1.00  0.00     0.049 A 
ATOM     45  N   UNL A   1      42.157  29.260  30.600  1.00  0.00    -0.248 NA
ATOM     46  C   UNL A   1      40.329  30.691  30.845  1.00  0.00     0.031 C 
ATOM     47  C   UNL A   1      39.580  26.456  28.230  1.00  0.00     0.029 A 
ATOM     48  N   UNL A   1      41.603  26.754  29.131  1.00  0.00    -0.354 N 
ATOM     49  C   UNL A   1      42.553  30.407  31.277  1.00  0.00     0.074 A 
ATOM     50  C   UNL A   1      41.408  31.289  31.327  1.00  0.00     0.031 C 
ATOM     51  C   UNL A   1      40.322  25.384  27.911  1.00  0.00     0.029 A 
ATOM     52  C   UNL A   1      41.662  25.557  28.459  1.00  0.00     0.049 A 
ATOM     53  H   UNL A   1      42.365  27.133  29.625  1.00  0.00     0.167 HD
ATOM     54  C   UNL A   1      43.756  30.692  31.826  1.00  0.00     0.031 A 
ATOM     55  C   UNL A   1      42.688  24.701  28.296  1.00  0.00     0.031 A 
ATOM     56  C   UNL A   1      44.880  29.798  31.785  1.00  0.00     0.049 A 
ATOM     57  C   UNL A   1      44.013  25.036  28.922  1.00  0.00     0.074 A 
ATOM     58  C   UNL A   1      46.126  29.951  32.366  1.00  0.00     0.029 A 
ATOM     59  N   UNL A   1      44.891  28.578  31.124  1.00  0.00    -0.354 N 
ATOM     60  N   UNL A   1      44.353  26.092  29.622  1.00  0.00    -0.248 NA
ATOM     61  C   UNL A   1      45.091  24.055  28.746  1.00  0.00     0.031 C 
ATOM     62  C   UNL A   1      46.909  28.847  32.011  1.00  0.00     0.029 A 
ATOM     63  C   UNL A   1      46.130  27.979  31.262  1.00  0.00     0.049 A 
ATOM     64  H   UNL A   1      44.130  28.196  30.630  1.00  0.00     0.167 HD
ATOM     65  C   UNL A   1      45.675  25.891  29.993  1.00  0.00     0.074 A 
ATOM     66  C   UNL A   1      46.067  24.604  29.456  1.00  0.00     0.031 C 
ATOM     67  C   UNL A   1      46.494  26.697  30.713  1.00  0.00     0.031 A 
BRANCH  54  68
ATOM     68  C   UNL A   1      43.908  32.022  32.512  1.00  0.00    -0.014 A 
ATOM     69  C   UNL A   1      43.664  32.167  33.888  1.00  0.00     0.009 A 
ATOM     70  C   UNL A   1      44.315  33.146  31.777  1.00  0.00     0.009 A 
ATOM     71  C   UNL A   1      43.782  33.416  34.503  1.00  0.00     0.001 A 
ATOM     72  C   UNL A   1      44.465  34.386  32.400  1.00  0.00     0.001 A 
ATOM     73  C   UNL A   1      44.187  34.522  33.760  1.00  0.00     0.000 A 
ENDBRANCH  54  68
BRANCH  55  74
ATOM     74  C   UNL A   1      42.495  23.440  27.534  1.00  0.00    -0.014 A 
ATOM     75  C   UNL A   1      41.902  22.325  28.148  1.00  0.00     0.009 A 
ATOM     76  C   UNL A   1      42.891  23.342  26.191  1.00  0.00     0.009 A 
ATOM     77  C   UNL A   1      41.734  21.132  27.442  1.00  0.00     0.001 A 
ATOM     78  C   UNL A   1      42.694  22.156  25.478  1.00  0.00     0.001 A 
ATOM     79  C   UNL A   1      42.125  21.050  26.106  1.00  0.00     0.000 A 
ENDBRANCH  55  74
BRANCH  67  80
ATOM     80  C   UNL A   1      47.881  26.190  30.987  1.00  0.00    -0.014 A 
ATOM     81  C   UNL A   1      48.202  25.565  32.202  1.00  0.00     0.009 A 
ATOM     82  C   UNL A   1      48.868  26.303  29.996  1.00  0.00     0.009 A 
ATOM     83  C   UNL A   1      49.496  25.096  32.430  1.00  0.00     0.001 A 
ATOM     84  C   UNL A   1      50.151  25.804  30.215  1.00  0.00     0.001 A 
ATOM     85  C   UNL A   1      50.468  25.210  31.435  1.00  0.00     0.000 A 
ENDBRANCH  67  80
ENDBRANCH  41  42
ENDBRANCH  33  36
ENDBRANCH  31  32
ENDBRANCH  30  31
ENDBRANCH  29  30
ENDBRANCH   1  29
TORSDOF 16
ENDMDL
MODEL 3
REMARK VINA RESULT:     -10.9      4.202      9.871
REMARK SMILES Cc1nc(CCc2ccc(S(=O)(=O)N3CCCC3)cc2)ncc1C(=O)NCCCCNC(=O)c1ccc(-c2c3nc(c(-c4ccccc4)c4ccc([nH]4)c(-c4ccccc4)c4nc(c(-c5ccccc5)c5ccc2[nH]5)C=C4)C=C3)cc1
REMARK SMILES IDX 27 1 26 2 24 3 25 4 23 6 1 7 2 8 3 9 4 10 22 11 21 12 5 13
REMARK SMILES IDX 6 14 7 15 8 16 20 17 9 18 19 19 10 20 11 21 12 22 13 23
REMARK SMILES IDX 14 24 15 25 18 26 16 27 17 28 28 29 29 30 30 31 31 32 32 33
REMARK SMILES IDX 33 35 34 36 35 37 81 38 36 39 80 40 37 41 38 42 39 43 74 44
REMARK SMILES IDX 40 45 79 46 73 47 75 48 41 49 78 50 72 51 71 52 42 54 64 55
REMARK SMILES IDX 49 56 63 57 50 58 53 59 62 60 76 61 51 62 52 63 61 65 77 66
REMARK SMILES IDX 54 67 43 68 44 69 48 70 45 71 47 72 46 73 65 74 66 75 70 76
REMARK SMILES IDX 67 77 69 78 68 79 55 80 56 81 60 82 57 83 59 84 58 85
REMARK H PARENT 26 5 31 34 75 53 53 64
REMARK Flexibility Score: inf
ROOT
ATOM      1  C   UNL A   1      32.143  29.685  25.121  1.00  0.00     0.116 C 
ENDROOT
BRANCH   1   2
ATOM      2  N   UNL A   1      31.023  28.963  24.553  1.00  0.00    -0.352 N 
ATOM      3  C   UNL A   1      30.864  27.609  24.333  1.00  0.00     0.254 C 
ATOM      4  O   UNL A   1      29.824  27.226  23.798  1.00  0.00    -0.269 OA
ATOM      5  H   UNL A   1      30.260  29.523  24.282  1.00  0.00     0.163 HD
BRANCH   3   6
ATOM      6  C   UNL A   1      31.912  26.603  24.622  1.00  0.00     0.079 A 
ATOM      7  C   UNL A   1      33.394  26.880  22.558  1.00  0.00     0.068 C 
ATOM      8  C   UNL A   1      33.018  26.266  23.864  1.00  0.00     0.054 A 
ATOM      9  N   UNL A   1      33.872  25.279  24.233  1.00  0.00    -0.237 NA
ATOM     10  C   UNL A   1      33.647  24.634  25.389  1.00  0.00     0.128 A 
ATOM     11  C   UNL A   1      31.831  25.947  25.842  1.00  0.00     0.129 A 
ATOM     12  N   UNL A   1      32.658  24.948  26.239  1.00  0.00    -0.241 NA
BRANCH  10  13
ATOM     13  C   UNL A   1      34.492  23.422  25.665  1.00  0.00     0.082 C 
BRANCH  13  14
ATOM     14  C   UNL A   1      35.558  23.209  24.583  1.00  0.00     0.043 C 
BRANCH  14  15
ATOM     15  C   UNL A   1      36.887  22.659  25.066  1.00  0.00    -0.047 A 
ATOM     16  C   UNL A   1      37.746  23.448  25.841  1.00  0.00     0.005 A 
ATOM     17  C   UNL A   1      37.273  21.344  24.764  1.00  0.00     0.005 A 
ATOM     18  C   UNL A   1      38.960  22.934  26.306  1.00  0.00     0.022 A 
ATOM     19  C   UNL A   1      38.480  20.816  25.244  1.00  0.00     0.022 A 
ATOM     20  C   UNL A   1      39.330  21.616  26.009  1.00  0.00     0.082 A 
BRANCH  20  21
ATOM     21  S   UNL A   1      40.896  21.027  26.642  1.00  0.00     0.243 S 
ATOM     22  O   UNL A   1      40.674  20.677  28.028  1.00  0.00    -0.207 OA
ATOM     23  O   UNL A   1      41.397  20.060  25.687  1.00  0.00    -0.207 OA
BRANCH  21  24
ATOM     24  N   UNL A   1      41.939  22.339  26.652  1.00  0.00    -0.198 NA
ATOM     25  C   UNL A   1      42.832  22.591  25.517  1.00  0.00     0.102 C 
ATOM     26  C   UNL A   1      42.549  22.811  27.904  1.00  0.00     0.102 C 
ATOM     27  C   UNL A   1      44.200  22.625  26.169  1.00  0.00     0.018 C 
ATOM     28  C   UNL A   1      43.935  23.291  27.506  1.00  0.00     0.018 C 
ENDBRANCH  21  24
ENDBRANCH  20  21
ENDBRANCH  14  15
ENDBRANCH  13  14
ENDBRANCH  10  13
ENDBRANCH   3   6
ENDBRANCH   1   2
BRANCH   1  29
ATOM     29  C   UNL A   1      31.955  30.178  26.552  1.00  0.00     0.023 C 
BRANCH  29  30
ATOM     30  C   UNL A   1      31.717  31.669  26.817  1.00  0.00     0.023 C 
BRANCH  30  31
ATOM     31  C   UNL A   1      32.880  32.558  27.255  1.00  0.00     0.116 C 
BRANCH  31  32
ATOM     32  N   UNL A   1      32.507  33.919  27.618  1.00  0.00    -0.352 N 
ATOM     33  C   UNL A   1      33.020  34.784  28.560  1.00  0.00     0.251 C 
ATOM     34  H   UNL A   1      31.756  34.286  27.098  1.00  0.00     0.163 HD
ATOM     35  O   UNL A   1      32.507  35.881  28.750  1.00  0.00    -0.269 OA
BRANCH  33  36
ATOM     36  C   UNL A   1      34.195  34.395  29.354  1.00  0.00     0.039 A 
ATOM     37  C   UNL A   1      34.026  33.814  30.614  1.00  0.00     0.014 A 
ATOM     38  C   UNL A   1      35.468  34.609  28.834  1.00  0.00     0.014 A 
ATOM     39  C   UNL A   1      35.144  33.352  31.309  1.00  0.00     0.010 A 
ATOM     40  C   UNL A   1      36.563  34.053  29.472  1.00  0.00     0.010 A 
ATOM     41  C   UNL A   1      36.413  33.423  30.715  1.00  0.00    -0.014 A 
BRANCH  41  42
ATOM     42  C   UNL A   1      37.620  32.851  31.357  1.00  0.00     0.031 A 
ATOM     43  C   UNL A   1      38.319  31.689  30.709  1.00  0.00     0.074 A 
ATOM     44  C   UNL A   1      37.996  33.294  32.570  1.00  0.00     0.049 A 
ATOM     45  N   UNL A   1      39.290  30.946  31.173  1.00  0.00    -0.248 NA
ATOM     46  C   UNL A   1      37.829  31.277  29.381  1.00  0.00     0.031 C 
ATOM     47  C   UNL A   1      37.356  34.378  33.318  1.00  0.00     0.029 A 
ATOM     48  N   UNL A   1      39.003  32.870  33.400  1.00  0.00    -0.354 N 
ATOM     49  C   UNL A   1      39.503  29.965  30.211  1.00  0.00     0.074 A 
ATOM     50  C   UNL A   1      38.521  30.168  29.170  1.00  0.00     0.031 C 
ATOM     51  C   UNL A   1      38.002  34.554  34.482  1.00  0.00     0.029 A 
ATOM     52  C   UNL A   1      39.068  33.565  34.583  1.00  0.00     0.049 A 
ATOM     53  H   UNL A   1      39.619  32.138  33.170  1.00  0.00     0.167 HD
ATOM     54  C   UNL A   1      40.446  28.996  30.189  1.00  0.00     0.031 A 
ATOM     55  C   UNL A   1      39.893  33.411  35.637  1.00  0.00     0.031 A 
ATOM     56  C   UNL A   1      41.429  28.818  31.222  1.00  0.00     0.049 A 
ATOM     57  C   UNL A   1      40.937  32.332  35.584  1.00  0.00     0.074 A 
ATOM     58  C   UNL A   1      42.474  27.914  31.272  1.00  0.00     0.029 A 
ATOM     59  N   UNL A   1      41.485  29.563  32.390  1.00  0.00    -0.354 N 
ATOM     60  N   UNL A   1      41.175  31.458  34.636  1.00  0.00    -0.248 NA
ATOM     61  C   UNL A   1      41.834  32.228  36.742  1.00  0.00     0.031 C 
ATOM     62  C   UNL A   1      43.131  28.078  32.496  1.00  0.00     0.029 A 
ATOM     63  C   UNL A   1      42.532  29.125  33.179  1.00  0.00     0.049 A 
ATOM     64  H   UNL A   1      40.870  30.297  32.623  1.00  0.00     0.167 HD
ATOM     65  C   UNL A   1      42.265  30.717  35.069  1.00  0.00     0.074 A 
ATOM     66  C   UNL A   1      42.652  31.258  36.356  1.00  0.00     0.031 C 
ATOM     67  C   UNL A   1      42.893  29.681  34.459  1.00  0.00     0.031 A 
BRANCH  54  68
ATOM     68  C   UNL A   1      40.452  28.063  29.009  1.00  0.00    -0.014 A 
ATOM     69  C   UNL A   1      41.152  28.376  27.832  1.00  0.00     0.009 A 
ATOM     70  C   UNL A   1      39.761  26.843  29.079  1.00  0.00     0.009 A 
ATOM     71  C   UNL A   1      41.122  27.510  26.736  1.00  0.00     0.001 A 
ATOM     72  C   UNL A   1      39.760  25.963  27.995  1.00  0.00     0.001 A 
ATOM     73  C   UNL A   1      40.432  26.303  26.821  1.00  0.00     0.000 A 
ENDBRANCH  54  68
BRANCH  55  74
ATOM     74  C   UNL A   1      39.780  34.317  36.811  1.00  0.00    -0.014 A 
ATOM     75  C   UNL A   1      40.402  35.575  36.797  1.00  0.00     0.009 A 
ATOM     76  C   UNL A   1      39.047  33.936  37.946  1.00  0.00     0.009 A 
ATOM     77  C   UNL A   1      40.315  36.422  37.905  1.00  0.00     0.001 A 
ATOM     78  C   UNL A   1      38.936  34.798  39.040  1.00  0.00     0.001 A 
ATOM     79  C   UNL A   1      39.578  36.035  39.022  1.00  0.00     0.000 A 
ENDBRANCH  55  74
BRANCH  67  80
ATOM     80  C   UNL A   1      44.081  29.092  35.165  1.00  0.00    -0.014 A 
ATOM     81  C   UNL A   1      43.943  28.012  36.050  1.00  0.00     0.009 A 
ATOM     82  C   UNL A   1      45.363  29.601  34.904  1.00  0.00     0.009 A 
ATOM     83  C   UNL A   1      45.063  27.479  36.689  1.00  0.00     0.001 A 
ATOM     84  C   UNL A   1      46.484  29.044  35.519  1.00  0.00     0.001 A 
ATOM     85  C   UNL A   1      46.332  27.991  36.418  1.00  0.00     0.000 A 
ENDBRANCH  67  80
ENDBRANCH  41  42
ENDBRANCH  33  36
ENDBRANCH  31  32
ENDBRANCH  30  31
ENDBRANCH  29  30
ENDBRANCH   1  29
TORSDOF 16
ENDMDL
