MODEL 1
REMARK VINA RESULT:     -13.0      0.000      0.000
REMARK SMILES O=C(Cn1c(-c2nc(-c3ccc(C(F)(F)F)cc3)no2)cc2ccccc21)NCCCCNC(=O)c1ccc(-c2c3nc(c(-c4ccccc4)c4ccc([nH]4)c(-c4ccccc4)c4nc(c(-c5ccccc5)c5ccc2[nH]5)C=C4)C=C3)cc1
REMARK SMILES IDX 29 1 28 2 1 3 2 4 3 6 4 7 5 8 27 9 21 10 22 11 26 12 23 13
REMARK SMILES IDX 25 14 24 15 6 16 7 17 20 18 8 19 19 20 9 21 10 22 18 23
REMARK SMILES IDX 11 24 17 25 12 26 13 27 14 28 15 29 16 30 30 31 31 32 32 33
REMARK SMILES IDX 33 34 34 35 35 37 36 38 37 39 83 40 38 41 82 42 39 43 40 44
REMARK SMILES IDX 41 45 76 46 42 47 81 48 75 49 77 50 43 51 80 52 74 53 73 54
REMARK SMILES IDX 44 56 66 57 51 58 65 59 52 60 55 61 64 62 78 63 53 64 54 65
REMARK SMILES IDX 63 67 79 68 56 69 45 70 46 71 50 72 47 73 49 74 48 75 67 76
REMARK SMILES IDX 68 77 72 78 69 79 71 80 70 81 57 82 58 83 62 84 59 85 61 86
REMARK SMILES IDX 60 87
REMARK H PARENT 28 5 33 36 77 55 55 66
REMARK Flexibility Score: inf
ROOT
ATOM      1  C   UNL A   1      33.950  28.587  25.610  1.00  0.00     0.116 C 
ENDROOT
BRANCH   1   2
ATOM      2  N   UNL A   1      32.977  28.083  24.658  1.00  0.00    -0.355 N 
ATOM      3  O   UNL A   1      34.230  28.592  22.805  1.00  0.00    -0.273 OA
ATOM      4  C   UNL A   1      33.246  28.045  23.303  1.00  0.00     0.239 C 
ATOM      5  H   UNL A   1      32.106  27.760  24.984  1.00  0.00     0.163 HD
BRANCH   4   6
ATOM      6  C   UNL A   1      32.240  27.316  22.442  1.00  0.00     0.222 C 
BRANCH   6   7
ATOM      7  N   UNL A   1      30.846  27.308  22.906  1.00  0.00    -0.327 N 
ATOM      8  C   UNL A   1      30.284  26.233  23.581  1.00  0.00     0.109 A 
ATOM      9  C   UNL A   1      29.900  28.315  22.776  1.00  0.00     0.049 A 
ATOM     10  C   UNL A   1      28.937  26.487  23.724  1.00  0.00     0.042 A 
ATOM     11  C   UNL A   1      28.687  27.799  23.247  1.00  0.00     0.000 A 
ATOM     12  C   UNL A   1      29.977  29.638  22.295  1.00  0.00     0.027 A 
ATOM     13  C   UNL A   1      27.530  28.606  23.213  1.00  0.00     0.010 A 
ATOM     14  C   UNL A   1      28.813  30.410  22.246  1.00  0.00     0.002 A 
ATOM     15  C   UNL A   1      27.602  29.903  22.699  1.00  0.00     0.001 A 
BRANCH   8  16
ATOM     16  C   UNL A   1      31.023  25.119  24.093  1.00  0.00     0.274 A 
ATOM     17  N   UNL A   1      30.964  23.886  23.631  1.00  0.00    -0.185 NA
ATOM     18  O   UNL A   1      31.849  25.231  25.180  1.00  0.00    -0.332 OA
ATOM     19  C   UNL A   1      31.776  23.197  24.507  1.00  0.00     0.202 A 
ATOM     20  N   UNL A   1      32.332  23.961  25.459  1.00  0.00    -0.057 NA
BRANCH  19  21
ATOM     21  C   UNL A   1      32.063  21.775  24.409  1.00  0.00     0.023 A 
ATOM     22  C   UNL A   1      32.488  21.071  25.544  1.00  0.00     0.013 A 
ATOM     23  C   UNL A   1      32.031  21.122  23.173  1.00  0.00     0.013 A 
ATOM     24  C   UNL A   1      32.924  19.747  25.436  1.00  0.00     0.014 A 
ATOM     25  C   UNL A   1      32.484  19.800  23.061  1.00  0.00     0.014 A 
ATOM     26  C   UNL A   1      32.957  19.108  24.188  1.00  0.00     0.056 A 
BRANCH  26  27
ATOM     27  C   UNL A   1      33.536  17.717  24.076  1.00  0.00     0.416 C 
ATOM     28  F   UNL A   1      32.958  16.997  23.073  1.00  0.00    -0.166 F 
ATOM     29  F   UNL A   1      34.871  17.724  23.806  1.00  0.00    -0.166 F 
ATOM     30  F   UNL A   1      33.385  16.968  25.204  1.00  0.00    -0.166 F 
ENDBRANCH  26  27
ENDBRANCH  19  21
ENDBRANCH   8  16
ENDBRANCH   6   7
ENDBRANCH   4   6
ENDBRANCH   1   2
BRANCH   1  31
ATOM     31  C   UNL A   1      33.386  28.756  27.016  1.00  0.00     0.023 C 
BRANCH  31  32
ATOM     32  C   UNL A   1      33.122  30.202  27.448  1.00  0.00     0.023 C 
BRANCH  32  33
ATOM     33  C   UNL A   1      34.371  31.059  27.670  1.00  0.00     0.116 C 
BRANCH  33  34
ATOM     34  N   UNL A   1      34.352  31.830  28.897  1.00  0.00    -0.352 N 
ATOM     35  C   UNL A   1      35.245  32.042  29.910  1.00  0.00     0.251 C 
ATOM     36  H   UNL A   1      33.502  32.309  29.031  1.00  0.00     0.163 HD
ATOM     37  O   UNL A   1      34.943  32.924  30.722  1.00  0.00    -0.269 OA
BRANCH  35  38
ATOM     38  C   UNL A   1      36.495  31.264  30.139  1.00  0.00     0.039 A 
ATOM     39  C   UNL A   1      37.793  31.769  30.071  1.00  0.00     0.014 A 
ATOM     40  C   UNL A   1      36.331  29.884  30.372  1.00  0.00     0.014 A 
ATOM     41  C   UNL A   1      38.891  30.914  30.120  1.00  0.00     0.010 A 
ATOM     42  C   UNL A   1      37.425  29.026  30.443  1.00  0.00     0.010 A 
ATOM     43  C   UNL A   1      38.706  29.538  30.262  1.00  0.00    -0.014 A 
BRANCH  43  44
ATOM     44  C   UNL A   1      39.893  28.687  30.231  1.00  0.00     0.031 A 
ATOM     45  C   UNL A   1      40.622  28.498  31.519  1.00  0.00     0.074 A 
ATOM     46  C   UNL A   1      40.298  28.022  29.131  1.00  0.00     0.049 A 
ATOM     47  N   UNL A   1      41.863  28.754  31.781  1.00  0.00    -0.248 NA
ATOM     48  C   UNL A   1      39.857  27.996  32.668  1.00  0.00     0.031 C 
ATOM     49  C   UNL A   1      39.585  27.840  27.866  1.00  0.00     0.029 A 
ATOM     50  N   UNL A   1      41.418  27.259  28.972  1.00  0.00    -0.354 N 
ATOM     51  C   UNL A   1      42.082  28.341  33.095  1.00  0.00     0.074 A 
ATOM     52  C   UNL A   1      40.793  27.951  33.616  1.00  0.00     0.031 C 
ATOM     53  C   UNL A   1      40.164  26.831  27.176  1.00  0.00     0.029 A 
ATOM     54  C   UNL A   1      41.362  26.407  27.882  1.00  0.00     0.049 A 
ATOM     55  H   UNL A   1      42.194  27.310  29.577  1.00  0.00     0.167 HD
ATOM     56  C   UNL A   1      43.326  28.227  33.637  1.00  0.00     0.031 A 
ATOM     57  C   UNL A   1      42.197  25.373  27.624  1.00  0.00     0.031 A 
ATOM     58  C   UNL A   1      44.321  28.928  32.876  1.00  0.00     0.049 A 
ATOM     59  C   UNL A   1      43.450  25.591  28.380  1.00  0.00     0.074 A 
ATOM     60  C   UNL A   1      44.530  30.252  32.545  1.00  0.00     0.029 A 
ATOM     61  N   UNL A   1      45.140  28.202  32.047  1.00  0.00    -0.354 N 
ATOM     62  N   UNL A   1      44.303  26.537  28.110  1.00  0.00    -0.248 NA
ATOM     63  C   UNL A   1      43.577  24.997  29.702  1.00  0.00     0.031 C 
ATOM     64  C   UNL A   1      45.064  30.218  31.226  1.00  0.00     0.029 A 
ATOM     65  C   UNL A   1      45.185  28.878  30.854  1.00  0.00     0.049 A 
ATOM     66  H   UNL A   1      45.603  27.361  32.265  1.00  0.00     0.167 HD
ATOM     67  C   UNL A   1      44.776  26.951  29.345  1.00  0.00     0.074 A 
ATOM     68  C   UNL A   1      44.390  25.890  30.272  1.00  0.00     0.031 C 
ATOM     69  C   UNL A   1      45.183  28.239  29.556  1.00  0.00     0.031 A 
BRANCH  56  70
ATOM     70  C   UNL A   1      43.697  27.262  34.733  1.00  0.00    -0.014 A 
ATOM     71  C   UNL A   1      43.807  27.645  36.081  1.00  0.00     0.009 A 
ATOM     72  C   UNL A   1      43.694  25.880  34.464  1.00  0.00     0.009 A 
ATOM     73  C   UNL A   1      43.909  26.703  37.111  1.00  0.00     0.001 A 
ATOM     74  C   UNL A   1      43.754  24.934  35.495  1.00  0.00     0.001 A 
ATOM     75  C   UNL A   1      43.860  25.347  36.819  1.00  0.00     0.000 A 
ENDBRANCH  56  70
BRANCH  57  76
ATOM     76  C   UNL A   1      41.850  24.070  27.021  1.00  0.00    -0.014 A 
ATOM     77  C   UNL A   1      40.836  23.276  27.590  1.00  0.00     0.009 A 
ATOM     78  C   UNL A   1      42.677  23.479  26.056  1.00  0.00     0.009 A 
ATOM     79  C   UNL A   1      40.673  21.935  27.233  1.00  0.00     0.001 A 
ATOM     80  C   UNL A   1      42.520  22.132  25.702  1.00  0.00     0.001 A 
ATOM     81  C   UNL A   1      41.526  21.359  26.300  1.00  0.00     0.000 A 
ENDBRANCH  57  76
BRANCH  69  82
ATOM     82  C   UNL A   1      45.314  29.162  28.364  1.00  0.00    -0.014 A 
ATOM     83  C   UNL A   1      46.593  29.406  27.836  1.00  0.00     0.009 A 
ATOM     84  C   UNL A   1      44.244  29.941  27.889  1.00  0.00     0.009 A 
ATOM     85  C   UNL A   1      46.795  30.401  26.876  1.00  0.00     0.001 A 
ATOM     86  C   UNL A   1      44.442  30.916  26.907  1.00  0.00     0.001 A 
ATOM     87  C   UNL A   1      45.720  31.155  26.410  1.00  0.00     0.000 A 
ENDBRANCH  69  82
ENDBRANCH  43  44
ENDBRANCH  35  38
ENDBRANCH  33  34
ENDBRANCH  32  33
ENDBRANCH  31  32
ENDBRANCH   1  31
TORSDOF 15
ENDMDL
MODEL 2
REMARK VINA RESULT:     -12.9      2.223      6.749
REMARK SMILES O=C(Cn1c(-c2nc(-c3ccc(C(F)(F)F)cc3)no2)cc2ccccc21)NCCCCNC(=O)c1ccc(-c2c3nc(c(-c4ccccc4)c4ccc([nH]4)c(-c4ccccc4)c4nc(c(-c5ccccc5)c5ccc2[nH]5)C=C4)C=C3)cc1
REMARK SMILES IDX 29 1 28 2 1 3 2 4 3 6 4 7 5 8 27 9 21 10 22 11 26 12 23 13
REMARK SMILES IDX 25 14 24 15 6 16 7 17 20 18 8 19 19 20 9 21 10 22 18 23
REMARK SMILES IDX 11 24 17 25 12 26 13 27 14 28 15 29 16 30 30 31 31 32 32 33
REMARK SMILES IDX 33 34 34 35 35 37 36 38 37 39 83 40 38 41 82 42 39 43 40 44
REMARK SMILES IDX 41 45 76 46 42 47 81 48 75 49 77 50 43 51 80 52 74 53 73 54
REMARK SMILES IDX 44 56 66 57 51 58 65 59 52 60 55 61 64 62 78 63 53 64 54 65
REMARK SMILES IDX 63 67 79 68 56 69 45 70 46 71 50 72 47 73 49 74 48 75 67 76
REMARK SMILES IDX 68 77 72 78 69 79 71 80 70 81 57 82 58 83 62 84 59 85 61 86
REMARK SMILES IDX 60 87
REMARK H PARENT 28 5 33 36 77 55 55 66
REMARK Flexibility Score: inf
ROOT
ATOM      1  C   UNL A   1      34.976  23.968  23.408  1.00  0.00     0.116 C 
ENDROOT
BRANCH   1   2
ATOM      2  N   UNL A   1      34.235  24.952  24.178  1.00  0.00    -0.355 N 
ATOM      3  O   UNL A   1      33.579  26.177  22.353  1.00  0.00    -0.273 OA
ATOM      4  C   UNL A   1      33.504  25.949  23.560  1.00  0.00     0.239 C 
ATOM      5  H   UNL A   1      34.253  24.907  25.161  1.00  0.00     0.163 HD
BRANCH   4   6
ATOM      6  C   UNL A   1      32.619  26.782  24.460  1.00  0.00     0.222 C 
BRANCH   6   7
ATOM      7  N   UNL A   1      31.181  26.784  24.165  1.00  0.00    -0.327 N 
ATOM      8  C   UNL A   1      30.406  25.632  24.191  1.00  0.00     0.109 A 
ATOM      9  C   UNL A   1      30.379  27.871  23.843  1.00  0.00     0.049 A 
ATOM     10  C   UNL A   1      29.154  25.960  23.715  1.00  0.00     0.042 A 
ATOM     11  C   UNL A   1      29.115  27.363  23.517  1.00  0.00     0.000 A 
ATOM     12  C   UNL A   1      30.625  29.258  23.805  1.00  0.00     0.027 A 
ATOM     13  C   UNL A   1      28.092  28.252  23.123  1.00  0.00     0.010 A 
ATOM     14  C   UNL A   1      29.605  30.116  23.386  1.00  0.00     0.002 A 
ATOM     15  C   UNL A   1      28.352  29.622  23.049  1.00  0.00     0.001 A 
BRANCH   8  16
ATOM     16  C   UNL A   1      30.843  24.370  24.705  1.00  0.00     0.274 A 
ATOM     17  N   UNL A   1      31.491  23.449  24.020  1.00  0.00    -0.185 NA
ATOM     18  O   UNL A   1      30.573  23.974  25.988  1.00  0.00    -0.332 OA
ATOM     19  C   UNL A   1      31.594  22.416  24.927  1.00  0.00     0.202 A 
ATOM     20  N   UNL A   1      31.056  22.681  26.126  1.00  0.00    -0.057 NA
BRANCH  19  21
ATOM     21  C   UNL A   1      32.262  21.153  24.654  1.00  0.00     0.023 A 
ATOM     22  C   UNL A   1      32.154  20.569  23.385  1.00  0.00     0.013 A 
ATOM     23  C   UNL A   1      32.916  20.454  25.674  1.00  0.00     0.013 A 
ATOM     24  C   UNL A   1      32.648  19.282  23.151  1.00  0.00     0.014 A 
ATOM     25  C   UNL A   1      33.397  19.158  25.445  1.00  0.00     0.014 A 
ATOM     26  C   UNL A   1      33.247  18.551  24.187  1.00  0.00     0.056 A 
BRANCH  26  27
ATOM     27  C   UNL A   1      33.673  17.122  23.944  1.00  0.00     0.416 C 
ATOM     28  F   UNL A   1      32.720  16.227  24.330  1.00  0.00    -0.166 F 
ATOM     29  F   UNL A   1      33.915  16.862  22.629  1.00  0.00    -0.166 F 
ATOM     30  F   UNL A   1      34.806  16.767  24.612  1.00  0.00    -0.166 F 
ENDBRANCH  26  27
ENDBRANCH  19  21
ENDBRANCH   8  16
ENDBRANCH   6   7
ENDBRANCH   4   6
ENDBRANCH   1   2
BRANCH   1  31
ATOM     31  C   UNL A   1      35.485  22.804  24.250  1.00  0.00     0.023 C 
BRANCH  31  32
ATOM     32  C   UNL A   1      37.004  22.745  24.438  1.00  0.00     0.023 C 
BRANCH  32  33
ATOM     33  C   UNL A   1      37.486  21.940  25.649  1.00  0.00     0.116 C 
BRANCH  33  34
ATOM     34  N   UNL A   1      38.905  21.646  25.640  1.00  0.00    -0.352 N 
ATOM     35  C   UNL A   1      39.999  22.186  26.256  1.00  0.00     0.251 C 
ATOM     36  H   UNL A   1      39.131  20.886  25.058  1.00  0.00     0.163 HD
ATOM     37  O   UNL A   1      41.051  21.547  26.149  1.00  0.00    -0.269 OA
BRANCH  35  38
ATOM     38  C   UNL A   1      40.032  23.491  26.976  1.00  0.00     0.039 A 
ATOM     39  C   UNL A   1      39.119  24.532  26.817  1.00  0.00     0.014 A 
ATOM     40  C   UNL A   1      41.132  23.697  27.833  1.00  0.00     0.014 A 
ATOM     41  C   UNL A   1      39.350  25.775  27.401  1.00  0.00     0.010 A 
ATOM     42  C   UNL A   1      41.358  24.931  28.437  1.00  0.00     0.010 A 
ATOM     43  C   UNL A   1      40.492  25.987  28.175  1.00  0.00    -0.014 A 
BRANCH  43  44
ATOM     44  C   UNL A   1      40.716  27.333  28.698  1.00  0.00     0.031 A 
ATOM     45  C   UNL A   1      41.817  28.123  28.076  1.00  0.00     0.074 A 
ATOM     46  C   UNL A   1      39.937  27.901  29.639  1.00  0.00     0.049 A 
ATOM     47  N   UNL A   1      42.846  28.655  28.654  1.00  0.00    -0.248 NA
ATOM     48  C   UNL A   1      41.785  28.309  26.619  1.00  0.00     0.031 C 
ATOM     49  C   UNL A   1      38.657  27.425  30.167  1.00  0.00     0.029 A 
ATOM     50  N   UNL A   1      40.091  29.115  30.242  1.00  0.00    -0.354 N 
ATOM     51  C   UNL A   1      43.542  29.347  27.663  1.00  0.00     0.074 A 
ATOM     52  C   UNL A   1      42.883  29.038  26.417  1.00  0.00     0.031 C 
ATOM     53  C   UNL A   1      38.041  28.441  30.811  1.00  0.00     0.029 A 
ATOM     54  C   UNL A   1      38.944  29.579  30.863  1.00  0.00     0.049 A 
ATOM     55  H   UNL A   1      40.940  29.615  30.234  1.00  0.00     0.167 HD
ATOM     56  C   UNL A   1      44.541  30.230  27.940  1.00  0.00     0.031 A 
ATOM     57  C   UNL A   1      38.725  30.836  31.315  1.00  0.00     0.031 A 
ATOM     58  C   UNL A   1      45.050  30.080  29.274  1.00  0.00     0.049 A 
ATOM     59  C   UNL A   1      40.037  31.494  31.506  1.00  0.00     0.074 A 
ATOM     60  C   UNL A   1      45.688  29.064  29.957  1.00  0.00     0.029 A 
ATOM     61  N   UNL A   1      44.644  30.977  30.232  1.00  0.00    -0.354 N 
ATOM     62  N   UNL A   1      40.888  31.154  32.431  1.00  0.00    -0.248 NA
ATOM     63  C   UNL A   1      40.585  32.284  30.414  1.00  0.00     0.031 C 
ATOM     64  C   UNL A   1      45.193  29.153  31.290  1.00  0.00     0.029 A 
ATOM     65  C   UNL A   1      44.318  30.240  31.343  1.00  0.00     0.049 A 
ATOM     66  H   UNL A   1      44.595  31.955  30.140  1.00  0.00     0.167 HD
ATOM     67  C   UNL A   1      42.133  31.304  31.839  1.00  0.00     0.074 A 
ATOM     68  C   UNL A   1      41.889  32.115  30.648  1.00  0.00     0.031 C 
ATOM     69  C   UNL A   1      43.194  30.524  32.207  1.00  0.00     0.031 A 
BRANCH  56  70
ATOM     70  C   UNL A   1      44.898  31.415  27.082  1.00  0.00    -0.014 A 
ATOM     71  C   UNL A   1      43.937  32.308  26.576  1.00  0.00     0.009 A 
ATOM     72  C   UNL A   1      46.247  31.808  26.975  1.00  0.00     0.009 A 
ATOM     73  C   UNL A   1      44.295  33.528  25.993  1.00  0.00     0.001 A 
ATOM     74  C   UNL A   1      46.606  33.047  26.430  1.00  0.00     0.001 A 
ATOM     75  C   UNL A   1      45.629  33.908  25.941  1.00  0.00     0.000 A 
ENDBRANCH  56  70
BRANCH  57  76
ATOM     76  C   UNL A   1      37.455  31.591  31.284  1.00  0.00    -0.014 A 
ATOM     77  C   UNL A   1      36.759  31.853  32.480  1.00  0.00     0.009 A 
ATOM     78  C   UNL A   1      36.787  31.826  30.074  1.00  0.00     0.009 A 
ATOM     79  C   UNL A   1      35.437  32.304  32.470  1.00  0.00     0.001 A 
ATOM     80  C   UNL A   1      35.458  32.271  30.063  1.00  0.00     0.001 A 
ATOM     81  C   UNL A   1      34.781  32.498  31.261  1.00  0.00     0.000 A 
ENDBRANCH  57  76
BRANCH  69  82
ATOM     82  C   UNL A   1      43.053  29.636  33.424  1.00  0.00    -0.014 A 
ATOM     83  C   UNL A   1      42.339  28.432  33.303  1.00  0.00     0.009 A 
ATOM     84  C   UNL A   1      43.429  30.054  34.713  1.00  0.00     0.009 A 
ATOM     85  C   UNL A   1      42.004  27.680  34.432  1.00  0.00     0.001 A 
ATOM     86  C   UNL A   1      43.118  29.286  35.839  1.00  0.00     0.001 A 
ATOM     87  C   UNL A   1      42.395  28.104  35.699  1.00  0.00     0.000 A 
ENDBRANCH  69  82
ENDBRANCH  43  44
ENDBRANCH  35  38
ENDBRANCH  33  34
ENDBRANCH  32  33
ENDBRANCH  31  32
ENDBRANCH   1  31
TORSDOF 15
ENDMDL
MODEL 3
REMARK VINA RESULT:     -12.8      2.867      7.249
REMARK SMILES O=C(Cn1c(-c2nc(-c3ccc(C(F)(F)F)cc3)no2)cc2ccccc21)NCCCCNC(=O)c1ccc(-c2c3nc(c(-c4ccccc4)c4ccc([nH]4)c(-c4ccccc4)c4nc(c(-c5ccccc5)c5ccc2[nH]5)C=C4)C=C3)cc1
REMARK SMILES IDX 29 1 28 2 1 3 2 4 3 6 4 7 5 8 27 9 21 10 22 11 26 12 23 13
REMARK SMILES IDX 25 14 24 15 6 16 7 17 20 18 8 19 19 20 9 21 10 22 18 23
REMARK SMILES IDX 11 24 17 25 12 26 13 27 14 28 15 29 16 30 30 31 31 32 32 33
REMARK SMILES IDX 33 34 34 35 35 37 36 38 37 39 83 40 38 41 82 42 39 43 40 44
REMARK SMILES IDX 41 45 76 46 42 47 81 48 75 49 77 50 43 51 80 52 74 53 73 54
REMARK SMILES IDX 44 56 66 57 51 58 65 59 52 60 55 61 64 62 78 63 53 64 54 65
REMARK SMILES IDX 63 67 79 68 56 69 45 70 46 71 50 72 47 73 49 74 48 75 67 76
REMARK SMILES IDX 68 77 72 78 69 79 71 80 70 81 57 82 58 83 62 84 59 85 61 86
REMARK SMILES IDX 60 87
REMARK H PARENT 28 5 33 36 77 55 55 66
REMARK Flexibility Score: inf
ROOT
ATOM      1  C   UNL A   1      35.994  22.864  25.189  1.00  0.00     0.116 C 
ENDROOT
BRANCH   1   2
ATOM      2  N   UNL A   1      35.377  24.159  24.963  1.00  0.00    -0.355 N 
ATOM      3  O   UNL A   1      34.902  23.768  22.753  1.00  0.00    -0.273 OA
ATOM      4  C   UNL A   1      34.786  24.475  23.753  1.00  0.00     0.239 C 
ATOM      5  H   UNL A   1      35.379  24.827  25.686  1.00  0.00     0.163 HD
BRANCH   4   6
ATOM      6  C   UNL A   1      34.005  25.769  23.710  1.00  0.00     0.222 C 
BRANCH   6   7
ATOM      7  N   UNL A   1      33.010  25.984  24.768  1.00  0.00    -0.327 N 
ATOM      8  C   UNL A   1      31.965  25.103  25.009  1.00  0.00     0.109 A 
ATOM      9  C   UNL A   1      32.946  27.033  25.676  1.00  0.00     0.049 A 
ATOM     10  C   UNL A   1      31.139  25.681  25.949  1.00  0.00     0.042 A 
ATOM     11  C   UNL A   1      31.754  26.878  26.395  1.00  0.00     0.000 A 
ATOM     12  C   UNL A   1      33.813  28.110  25.950  1.00  0.00     0.027 A 
ATOM     13  C   UNL A   1      31.412  27.826  27.382  1.00  0.00     0.010 A 
ATOM     14  C   UNL A   1      33.440  29.051  26.914  1.00  0.00     0.002 A 
ATOM     15  C   UNL A   1      32.255  28.914  27.623  1.00  0.00     0.001 A 
BRANCH   8  16
ATOM     16  C   UNL A   1      31.848  23.802  24.424  1.00  0.00     0.274 A 
ATOM     17  N   UNL A   1      32.297  22.682  24.954  1.00  0.00    -0.185 NA
ATOM     18  O   UNL A   1      31.279  23.606  23.193  1.00  0.00    -0.332 OA
ATOM     19  C   UNL A   1      32.018  21.752  23.975  1.00  0.00     0.202 A 
ATOM     20  N   UNL A   1      31.406  22.258  22.894  1.00  0.00    -0.057 NA
BRANCH  19  21
ATOM     21  C   UNL A   1      32.306  20.332  24.092  1.00  0.00     0.023 A 
ATOM     22  C   UNL A   1      32.833  19.825  25.288  1.00  0.00     0.013 A 
ATOM     23  C   UNL A   1      32.174  19.481  22.990  1.00  0.00     0.013 A 
ATOM     24  C   UNL A   1      33.269  18.499  25.366  1.00  0.00     0.014 A 
ATOM     25  C   UNL A   1      32.626  18.157  23.063  1.00  0.00     0.014 A 
ATOM     26  C   UNL A   1      33.199  17.659  24.245  1.00  0.00     0.056 A 
BRANCH  26  27
ATOM     27  C   UNL A   1      33.778  16.266  24.317  1.00  0.00     0.416 C 
ATOM     28  F   UNL A   1      34.310  15.866  23.128  1.00  0.00    -0.166 F 
ATOM     29  F   UNL A   1      34.785  16.161  25.228  1.00  0.00    -0.166 F 
ATOM     30  F   UNL A   1      32.866  15.311  24.655  1.00  0.00    -0.166 F 
ENDBRANCH  26  27
ENDBRANCH  19  21
ENDBRANCH   8  16
ENDBRANCH   6   7
ENDBRANCH   4   6
ENDBRANCH   1   2
BRANCH   1  31
ATOM     31  C   UNL A   1      37.404  22.961  25.759  1.00  0.00     0.023 C 
BRANCH  31  32
ATOM     32  C   UNL A   1      38.346  21.813  25.379  1.00  0.00     0.023 C 
BRANCH  32  33
ATOM     33  C   UNL A   1      39.471  21.528  26.377  1.00  0.00     0.116 C 
BRANCH  33  34
ATOM     34  N   UNL A   1      40.795  21.859  25.890  1.00  0.00    -0.352 N 
ATOM     35  C   UNL A   1      41.675  22.879  26.123  1.00  0.00     0.251 C 
ATOM     36  H   UNL A   1      41.137  21.200  25.244  1.00  0.00     0.163 HD
ATOM     37  O   UNL A   1      42.810  22.732  25.654  1.00  0.00    -0.269 OA
BRANCH  35  38
ATOM     38  C   UNL A   1      41.357  24.153  26.827  1.00  0.00     0.039 A 
ATOM     39  C   UNL A   1      40.332  25.035  26.492  1.00  0.00     0.014 A 
ATOM     40  C   UNL A   1      42.227  24.514  27.876  1.00  0.00     0.014 A 
ATOM     41  C   UNL A   1      40.242  26.285  27.101  1.00  0.00     0.010 A 
ATOM     42  C   UNL A   1      42.131  25.752  28.504  1.00  0.00     0.010 A 
ATOM     43  C   UNL A   1      41.168  26.660  28.076  1.00  0.00    -0.014 A 
BRANCH  43  44
ATOM     44  C   UNL A   1      41.065  28.011  28.623  1.00  0.00     0.031 A 
ATOM     45  C   UNL A   1      42.086  29.001  28.170  1.00  0.00     0.074 A 
ATOM     46  C   UNL A   1      40.067  28.407  29.435  1.00  0.00     0.049 A 
ATOM     47  N   UNL A   1      42.905  29.694  28.895  1.00  0.00    -0.248 NA
ATOM     48  C   UNL A   1      42.236  29.214  26.725  1.00  0.00     0.031 C 
ATOM     49  C   UNL A   1      38.830  27.697  29.767  1.00  0.00     0.029 A 
ATOM     50  N   UNL A   1      39.908  29.614  30.051  1.00  0.00    -0.354 N 
ATOM     51  C   UNL A   1      43.603  30.523  28.017  1.00  0.00     0.074 A 
ATOM     52  C   UNL A   1      43.202  30.132  26.687  1.00  0.00     0.031 C 
ATOM     53  C   UNL A   1      37.953  28.571  30.310  1.00  0.00     0.029 A 
ATOM     54  C   UNL A   1      38.618  29.850  30.493  1.00  0.00     0.049 A 
ATOM     55  H   UNL A   1      40.645  30.258  30.170  1.00  0.00     0.167 HD
ATOM     56  C   UNL A   1      44.374  31.563  28.439  1.00  0.00     0.031 A 
ATOM     57  C   UNL A   1      38.111  31.037  30.904  1.00  0.00     0.031 A 
ATOM     58  C   UNL A   1      44.699  31.474  29.834  1.00  0.00     0.049 A 
ATOM     59  C   UNL A   1      39.240  31.913  31.288  1.00  0.00     0.074 A 
ATOM     60  C   UNL A   1      45.403  30.572  30.607  1.00  0.00     0.029 A 
ATOM     61  N   UNL A   1      44.002  32.260  30.718  1.00  0.00    -0.354 N 
ATOM     62  N   UNL A   1      39.993  31.709  32.331  1.00  0.00    -0.248 NA
ATOM     63  C   UNL A   1      39.792  32.815  30.288  1.00  0.00     0.031 C 
ATOM     64  C   UNL A   1      44.709  30.538  31.850  1.00  0.00     0.029 A 
ATOM     65  C   UNL A   1      43.654  31.450  31.769  1.00  0.00     0.049 A 
ATOM     66  H   UNL A   1      43.791  33.216  30.617  1.00  0.00     0.167 HD
ATOM     67  C   UNL A   1      41.263  32.093  31.931  1.00  0.00     0.074 A 
ATOM     68  C   UNL A   1      41.056  32.876  30.715  1.00  0.00     0.031 C 
ATOM     69  C   UNL A   1      42.382  31.507  32.455  1.00  0.00     0.031 A 
BRANCH  56  70
ATOM     70  C   UNL A   1      44.634  32.814  27.641  1.00  0.00    -0.014 A 
ATOM     71  C   UNL A   1      45.690  32.926  26.719  1.00  0.00     0.009 A 
ATOM     72  C   UNL A   1      43.657  33.829  27.612  1.00  0.00     0.009 A 
ATOM     73  C   UNL A   1      45.774  33.991  25.815  1.00  0.00     0.001 A 
ATOM     74  C   UNL A   1      43.716  34.873  26.680  1.00  0.00     0.001 A 
ATOM     75  C   UNL A   1      44.773  34.952  25.781  1.00  0.00     0.000 A 
ENDBRANCH  56  70
BRANCH  57  76
ATOM     76  C   UNL A   1      36.745  31.553  30.682  1.00  0.00    -0.014 A 
ATOM     77  C   UNL A   1      36.143  31.436  29.414  1.00  0.00     0.009 A 
ATOM     78  C   UNL A   1      36.130  32.391  31.622  1.00  0.00     0.009 A 
ATOM     79  C   UNL A   1      34.989  32.151  29.087  1.00  0.00     0.001 A 
ATOM     80  C   UNL A   1      34.976  33.115  31.292  1.00  0.00     0.001 A 
ATOM     81  C   UNL A   1      34.414  33.004  30.021  1.00  0.00     0.000 A 
ENDBRANCH  57  76
BRANCH  69  82
ATOM     82  C   UNL A   1      42.226  30.578  33.640  1.00  0.00    -0.014 A 
ATOM     83  C   UNL A   1      41.839  29.248  33.408  1.00  0.00     0.009 A 
ATOM     84  C   UNL A   1      42.253  31.036  34.969  1.00  0.00     0.009 A 
ATOM     85  C   UNL A   1      41.482  28.409  34.468  1.00  0.00     0.001 A 
ATOM     86  C   UNL A   1      41.924  30.189  36.031  1.00  0.00     0.001 A 
ATOM     87  C   UNL A   1      41.527  28.878  35.779  1.00  0.00     0.000 A 
ENDBRANCH  69  82
ENDBRANCH  43  44
ENDBRANCH  35  38
ENDBRANCH  33  34
ENDBRANCH  32  33
ENDBRANCH  31  32
ENDBRANCH   1  31
TORSDOF 15
ENDMDL
