MODEL 1
REMARK VINA RESULT:     -10.3      0.000      0.000
REMARK SMILES C[NH+](C)CC(C)(C)CNc1cccc(F)c1C(=O)NCCCCNC(=O)c1ccc(-c2c3nc(c(-c4ccccc4)c4ccc([nH]4)c(-c4ccccc4)c4nc(c(-c5ccccc5)c5ccc2[nH]5)C=C4)C=C3)cc1
REMARK SMILES IDX 20 1 19 2 17 3 18 4 16 6 10 7 11 8 12 9 14 10 13 11 15 12
REMARK SMILES IDX 9 13 8 15 5 16 6 17 7 18 4 19 2 20 1 21 3 22 21 24 22 25
REMARK SMILES IDX 23 26 24 27 25 28 26 30 27 31 28 32 74 33 29 34 73 35 30 36
REMARK SMILES IDX 31 37 32 38 67 39 33 40 72 41 66 42 68 43 34 44 71 45 65 46
REMARK SMILES IDX 64 47 35 49 57 50 42 51 56 52 43 53 46 54 55 55 69 56 44 57
REMARK SMILES IDX 45 58 54 60 70 61 47 62 36 63 37 64 41 65 38 66 40 67 39 68
REMARK SMILES IDX 58 69 59 70 63 71 60 72 62 73 61 74 48 75 49 76 53 77 50 78
REMARK SMILES IDX 52 79 51 80
REMARK H PARENT 19 5 9 14 2 23 24 29 68 48 46 59
REMARK Flexibility Score: inf
ROOT
ATOM      1  C   UNL A   1      33.490  29.034  23.129  1.00  0.00     0.116 C 
ENDROOT
BRANCH   1   2
ATOM      2  N   UNL A   1      33.578  27.968  22.150  1.00  0.00    -0.352 N 
ATOM      3  C   UNL A   1      33.032  26.708  22.095  1.00  0.00     0.256 C 
ATOM      4  O   UNL A   1      33.408  26.016  21.145  1.00  0.00    -0.269 OA
ATOM      5  H   UNL A   1      34.138  28.190  21.372  1.00  0.00     0.163 HD
BRANCH   3   6
ATOM      6  C   UNL A   1      32.116  26.134  23.132  1.00  0.00     0.098 A 
ATOM      7  C   UNL A   1      32.553  25.048  23.938  1.00  0.00     0.050 A 
ATOM      8  C   UNL A   1      31.744  24.630  25.015  1.00  0.00     0.027 A 
ATOM      9  C   UNL A   1      30.485  25.181  25.237  1.00  0.00     0.005 A 
ATOM     10  C   UNL A   1      30.794  26.564  23.290  1.00  0.00     0.138 A 
ATOM     11  C   UNL A   1      29.993  26.118  24.344  1.00  0.00     0.040 A 
ATOM     12  F   UNL A   1      30.200  27.351  22.382  1.00  0.00    -0.206 F 
BRANCH   7  13
ATOM     13  N   UNL A   1      33.698  24.305  23.623  1.00  0.00    -0.384 N 
ATOM     14  H   UNL A   1      33.673  23.655  22.883  1.00  0.00     0.160 HD
BRANCH  13  15
ATOM     15  C   UNL A   1      34.933  24.491  24.390  1.00  0.00     0.125 C 
BRANCH  15  16
ATOM     16  C   UNL A   1      35.597  23.169  24.868  1.00  0.00     0.031 C 
ATOM     17  C   UNL A   1      36.606  23.527  25.978  1.00  0.00     0.019 C 
ATOM     18  C   UNL A   1      36.434  22.571  23.705  1.00  0.00     0.019 C 
BRANCH  16  19
ATOM     19  C   UNL A   1      34.600  22.055  25.347  1.00  0.00     0.269 C 
BRANCH  19  20
ATOM     20  N   UNL A   1      34.079  20.968  24.509  1.00  0.00    -0.339 N 
ATOM     21  C   UNL A   1      34.543  19.628  24.811  1.00  0.00     0.332 C 
ATOM     22  C   UNL A   1      32.668  21.015  24.193  1.00  0.00     0.332 C 
ATOM     23  H   UNL A   1      34.548  21.204  23.634  1.00  0.00     0.347 HD
ENDBRANCH  19  20
ENDBRANCH  16  19
ENDBRANCH  15  16
ENDBRANCH  13  15
ENDBRANCH   7  13
ENDBRANCH   3   6
ENDBRANCH   1   2
BRANCH   1  24
ATOM     24  C   UNL A   1      33.974  28.625  24.516  1.00  0.00     0.023 C 
BRANCH  24  25
ATOM     25  C   UNL A   1      32.962  28.738  25.652  1.00  0.00     0.023 C 
BRANCH  25  26
ATOM     26  C   UNL A   1      33.536  28.804  27.063  1.00  0.00     0.116 C 
BRANCH  26  27
ATOM     27  N   UNL A   1      33.575  30.149  27.618  1.00  0.00    -0.352 N 
ATOM     28  C   UNL A   1      34.591  30.807  28.268  1.00  0.00     0.251 C 
ATOM     29  H   UNL A   1      32.745  30.667  27.511  1.00  0.00     0.163 HD
ATOM     30  O   UNL A   1      34.398  31.924  28.740  1.00  0.00    -0.269 OA
BRANCH  28  31
ATOM     31  C   UNL A   1      35.909  30.158  28.441  1.00  0.00     0.039 A 
ATOM     32  C   UNL A   1      36.822  30.194  27.382  1.00  0.00     0.014 A 
ATOM     33  C   UNL A   1      36.254  29.533  29.642  1.00  0.00     0.014 A 
ATOM     34  C   UNL A   1      38.111  29.685  27.560  1.00  0.00     0.010 A 
ATOM     35  C   UNL A   1      37.561  29.098  29.843  1.00  0.00     0.010 A 
ATOM     36  C   UNL A   1      38.506  29.176  28.807  1.00  0.00    -0.014 A 
BRANCH  36  37
ATOM     37  C   UNL A   1      39.898  28.723  29.053  1.00  0.00     0.031 A 
ATOM     38  C   UNL A   1      40.901  29.664  29.662  1.00  0.00     0.074 A 
ATOM     39  C   UNL A   1      40.282  27.489  28.666  1.00  0.00     0.049 A 
ATOM     40  N   UNL A   1      42.181  29.485  29.873  1.00  0.00    -0.248 NA
ATOM     41  C   UNL A   1      40.406  30.991  30.065  1.00  0.00     0.031 C 
ATOM     42  C   UNL A   1      39.418  26.489  28.031  1.00  0.00     0.029 A 
ATOM     43  N   UNL A   1      41.504  26.869  28.744  1.00  0.00    -0.354 N 
ATOM     44  C   UNL A   1      42.644  30.677  30.413  1.00  0.00     0.074 A 
ATOM     45  C   UNL A   1      41.523  31.590  30.452  1.00  0.00     0.031 C 
ATOM     46  C   UNL A   1      40.132  25.374  27.804  1.00  0.00     0.029 A 
ATOM     47  C   UNL A   1      41.508  25.592  28.237  1.00  0.00     0.049 A 
ATOM     48  H   UNL A   1      42.302  27.298  29.127  1.00  0.00     0.167 HD
ATOM     49  C   UNL A   1      43.886  30.982  30.857  1.00  0.00     0.031 A 
ATOM     50  C   UNL A   1      42.509  24.698  28.128  1.00  0.00     0.031 A 
ATOM     51  C   UNL A   1      45.001  30.074  30.837  1.00  0.00     0.049 A 
ATOM     52  C   UNL A   1      43.881  25.067  28.617  1.00  0.00     0.074 A 
ATOM     53  C   UNL A   1      46.288  30.278  31.302  1.00  0.00     0.029 A 
ATOM     54  N   UNL A   1      44.958  28.785  30.328  1.00  0.00    -0.354 N 
ATOM     55  N   UNL A   1      44.290  26.182  29.172  1.00  0.00    -0.248 NA
ATOM     56  C   UNL A   1      44.931  24.047  28.475  1.00  0.00     0.031 C 
ATOM     57  C   UNL A   1      47.034  29.123  31.043  1.00  0.00     0.029 A 
ATOM     58  C   UNL A   1      46.198  28.186  30.460  1.00  0.00     0.049 A 
ATOM     59  H   UNL A   1      44.163  28.360  29.933  1.00  0.00     0.167 HD
ATOM     60  C   UNL A   1      45.631  25.985  29.473  1.00  0.00     0.074 A 
ATOM     61  C   UNL A   1      45.964  24.641  29.054  1.00  0.00     0.031 C 
ATOM     62  C   UNL A   1      46.509  26.842  30.050  1.00  0.00     0.031 A 
BRANCH  49  63
ATOM     63  C   UNL A   1      44.102  32.361  31.413  1.00  0.00    -0.014 A 
ATOM     64  C   UNL A   1      44.487  33.423  30.581  1.00  0.00     0.009 A 
ATOM     65  C   UNL A   1      43.881  32.610  32.777  1.00  0.00     0.009 A 
ATOM     66  C   UNL A   1      44.680  34.702  31.109  1.00  0.00     0.001 A 
ATOM     67  C   UNL A   1      44.048  33.895  33.297  1.00  0.00     0.001 A 
ATOM     68  C   UNL A   1      44.455  34.937  32.465  1.00  0.00     0.000 A 
ENDBRANCH  49  63
BRANCH  50  69
ATOM     69  C   UNL A   1      42.258  23.354  27.545  1.00  0.00    -0.014 A 
ATOM     70  C   UNL A   1      42.643  23.071  26.224  1.00  0.00     0.009 A 
ATOM     71  C   UNL A   1      41.606  22.358  28.289  1.00  0.00     0.009 A 
ATOM     72  C   UNL A   1      42.348  21.833  25.650  1.00  0.00     0.001 A 
ATOM     73  C   UNL A   1      41.338  21.111  27.720  1.00  0.00     0.001 A 
ATOM     74  C   UNL A   1      41.698  20.853  26.399  1.00  0.00     0.000 A 
ENDBRANCH  50  69
BRANCH  62  75
ATOM     75  C   UNL A   1      47.898  26.334  30.304  1.00  0.00    -0.014 A 
ATOM     76  C   UNL A   1      48.270  25.818  31.555  1.00  0.00     0.009 A 
ATOM     77  C   UNL A   1      48.837  26.337  29.261  1.00  0.00     0.009 A 
ATOM     78  C   UNL A   1      49.565  25.344  31.765  1.00  0.00     0.001 A 
ATOM     79  C   UNL A   1      50.124  25.836  29.466  1.00  0.00     0.001 A 
ATOM     80  C   UNL A   1      50.489  25.349  30.719  1.00  0.00     0.000 A 
ENDBRANCH  62  75
ENDBRANCH  36  37
ENDBRANCH  28  31
ENDBRANCH  26  27
ENDBRANCH  25  26
ENDBRANCH  24  25
ENDBRANCH   1  24
TORSDOF 16
ENDMDL
MODEL 2
REMARK VINA RESULT:     -10.1      2.757      4.062
REMARK SMILES C[NH+](C)CC(C)(C)CNc1cccc(F)c1C(=O)NCCCCNC(=O)c1ccc(-c2c3nc(c(-c4ccccc4)c4ccc([nH]4)c(-c4ccccc4)c4nc(c(-c5ccccc5)c5ccc2[nH]5)C=C4)C=C3)cc1
REMARK SMILES IDX 20 1 19 2 17 3 18 4 16 6 10 7 11 8 12 9 14 10 13 11 15 12
REMARK SMILES IDX 9 13 8 15 5 16 6 17 7 18 4 19 2 20 1 21 3 22 21 24 22 25
REMARK SMILES IDX 23 26 24 27 25 28 26 30 27 31 28 32 74 33 29 34 73 35 30 36
REMARK SMILES IDX 31 37 32 38 67 39 33 40 72 41 66 42 68 43 34 44 71 45 65 46
REMARK SMILES IDX 64 47 35 49 57 50 42 51 56 52 43 53 46 54 55 55 69 56 44 57
REMARK SMILES IDX 45 58 54 60 70 61 47 62 36 63 37 64 41 65 38 66 40 67 39 68
REMARK SMILES IDX 58 69 59 70 63 71 60 72 62 73 61 74 48 75 49 76 53 77 50 78
REMARK SMILES IDX 52 79 51 80
REMARK H PARENT 19 5 9 14 2 23 24 29 68 48 46 59
REMARK Flexibility Score: inf
ROOT
ATOM      1  C   UNL A   1      33.029  29.920  26.035  1.00  0.00     0.116 C 
ENDROOT
BRANCH   1   2
ATOM      2  N   UNL A   1      33.554  29.703  24.702  1.00  0.00    -0.352 N 
ATOM      3  C   UNL A   1      33.224  28.816  23.705  1.00  0.00     0.256 C 
ATOM      4  O   UNL A   1      33.960  28.842  22.715  1.00  0.00    -0.269 OA
ATOM      5  H   UNL A   1      34.289  30.312  24.461  1.00  0.00     0.163 HD
BRANCH   3   6
ATOM      6  C   UNL A   1      32.121  27.805  23.799  1.00  0.00     0.098 A 
ATOM      7  C   UNL A   1      32.433  26.440  24.047  1.00  0.00     0.050 A 
ATOM      8  C   UNL A   1      31.379  25.536  24.296  1.00  0.00     0.027 A 
ATOM      9  C   UNL A   1      30.046  25.924  24.196  1.00  0.00     0.005 A 
ATOM     10  C   UNL A   1      30.782  28.129  23.563  1.00  0.00     0.138 A 
ATOM     11  C   UNL A   1      29.750  27.214  23.783  1.00  0.00     0.040 A 
ATOM     12  F   UNL A   1      30.430  29.304  23.021  1.00  0.00    -0.206 F 
BRANCH   7  13
ATOM     13  N   UNL A   1      33.738  25.945  23.932  1.00  0.00    -0.384 N 
ATOM     14  H   UNL A   1      34.486  26.435  24.344  1.00  0.00     0.160 HD
BRANCH  13  15
ATOM     15  C   UNL A   1      33.992  24.700  23.202  1.00  0.00     0.125 C 
BRANCH  15  16
ATOM     16  C   UNL A   1      34.669  23.586  24.051  1.00  0.00     0.031 C 
ATOM     17  C   UNL A   1      34.943  24.167  25.453  1.00  0.00     0.019 C 
ATOM     18  C   UNL A   1      36.060  23.258  23.443  1.00  0.00     0.019 C 
BRANCH  16  19
ATOM     19  C   UNL A   1      33.870  22.237  24.143  1.00  0.00     0.269 C 
BRANCH  19  20
ATOM     20  N   UNL A   1      33.165  21.751  25.335  1.00  0.00    -0.339 N 
ATOM     21  C   UNL A   1      31.762  22.092  25.451  1.00  0.00     0.332 C 
ATOM     22  C   UNL A   1      33.447  20.391  25.743  1.00  0.00     0.332 C 
ATOM     23  H   UNL A   1      33.623  22.332  26.038  1.00  0.00     0.347 HD
ENDBRANCH  19  20
ENDBRANCH  16  19
ENDBRANCH  15  16
ENDBRANCH  13  15
ENDBRANCH   7  13
ENDBRANCH   3   6
ENDBRANCH   1   2
BRANCH   1  24
ATOM     24  C   UNL A   1      31.603  30.459  26.046  1.00  0.00     0.023 C 
BRANCH  24  25
ATOM     25  C   UNL A   1      31.408  31.863  26.611  1.00  0.00     0.023 C 
BRANCH  25  26
ATOM     26  C   UNL A   1      32.637  32.516  27.234  1.00  0.00     0.116 C 
BRANCH  26  27
ATOM     27  N   UNL A   1      32.415  33.886  27.671  1.00  0.00    -0.352 N 
ATOM     28  C   UNL A   1      33.145  34.666  28.535  1.00  0.00     0.251 C 
ATOM     29  H   UNL A   1      31.619  34.321  27.290  1.00  0.00     0.163 HD
ATOM     30  O   UNL A   1      32.742  35.785  28.844  1.00  0.00    -0.269 OA
BRANCH  28  31
ATOM     31  C   UNL A   1      34.395  34.149  29.131  1.00  0.00     0.039 A 
ATOM     32  C   UNL A   1      34.322  33.416  30.320  1.00  0.00     0.014 A 
ATOM     33  C   UNL A   1      35.631  34.365  28.517  1.00  0.00     0.014 A 
ATOM     34  C   UNL A   1      35.474  32.825  30.843  1.00  0.00     0.010 A 
ATOM     35  C   UNL A   1      36.763  33.710  28.996  1.00  0.00     0.010 A 
ATOM     36  C   UNL A   1      36.697  32.928  30.159  1.00  0.00    -0.014 A 
BRANCH  36  37
ATOM     37  C   UNL A   1      37.913  32.225  30.638  1.00  0.00     0.031 A 
ATOM     38  C   UNL A   1      38.743  32.819  31.743  1.00  0.00     0.074 A 
ATOM     39  C   UNL A   1      38.314  31.088  30.034  1.00  0.00     0.049 A 
ATOM     40  N   UNL A   1      39.882  32.403  32.237  1.00  0.00    -0.248 NA
ATOM     41  C   UNL A   1      38.238  34.058  32.358  1.00  0.00     0.031 C 
ATOM     42  C   UNL A   1      37.621  30.423  28.926  1.00  0.00     0.029 A 
ATOM     43  N   UNL A   1      39.410  30.293  30.263  1.00  0.00    -0.354 N 
ATOM     44  C   UNL A   1      40.237  33.336  33.203  1.00  0.00     0.074 A 
ATOM     45  C   UNL A   1      39.220  34.365  33.193  1.00  0.00     0.031 C 
ATOM     46  C   UNL A   1      38.294  29.308  28.593  1.00  0.00     0.029 A 
ATOM     47  C   UNL A   1      39.483  29.201  29.432  1.00  0.00     0.049 A 
ATOM     48  H   UNL A   1      40.079  30.486  30.958  1.00  0.00     0.167 HD
ATOM     49  C   UNL A   1      41.301  33.329  34.040  1.00  0.00     0.031 A 
ATOM     50  C   UNL A   1      40.407  28.225  29.350  1.00  0.00     0.031 A 
ATOM     51  C   UNL A   1      42.305  32.300  34.067  1.00  0.00     0.049 A 
ATOM     52  C   UNL A   1      41.586  28.249  30.283  1.00  0.00     0.074 A 
ATOM     53  C   UNL A   1      43.399  32.185  34.907  1.00  0.00     0.029 A 
ATOM     54  N   UNL A   1      42.333  31.205  33.218  1.00  0.00    -0.354 N 
ATOM     55  N   UNL A   1      41.879  29.112  31.225  1.00  0.00    -0.248 NA
ATOM     56  C   UNL A   1      42.558  27.153  30.148  1.00  0.00     0.031 C 
ATOM     57  C   UNL A   1      44.109  31.036  34.543  1.00  0.00     0.029 A 
ATOM     58  C   UNL A   1      43.430  30.413  33.507  1.00  0.00     0.049 A 
ATOM     59  H   UNL A   1      41.670  31.018  32.514  1.00  0.00     0.167 HD
ATOM     60  C   UNL A   1      43.047  28.647  31.814  1.00  0.00     0.074 A 
ATOM     61  C   UNL A   1      43.401  27.419  31.134  1.00  0.00     0.031 C 
ATOM     62  C   UNL A   1      43.761  29.188  32.831  1.00  0.00     0.031 A 
BRANCH  49  63
ATOM     63  C   UNL A   1      41.427  34.472  35.006  1.00  0.00    -0.014 A 
ATOM     64  C   UNL A   1      42.151  35.626  34.669  1.00  0.00     0.009 A 
ATOM     65  C   UNL A   1      40.785  34.412  36.253  1.00  0.00     0.009 A 
ATOM     66  C   UNL A   1      42.257  36.685  35.573  1.00  0.00     0.001 A 
ATOM     67  C   UNL A   1      40.871  35.483  37.144  1.00  0.00     0.001 A 
ATOM     68  C   UNL A   1      41.613  36.614  36.808  1.00  0.00     0.000 A 
ENDBRANCH  49  63
BRANCH  50  69
ATOM     69  C   UNL A   1      40.257  27.127  28.360  1.00  0.00    -0.014 A 
ATOM     70  C   UNL A   1      40.819  27.247  27.078  1.00  0.00     0.009 A 
ATOM     71  C   UNL A   1      39.528  25.970  28.675  1.00  0.00     0.009 A 
ATOM     72  C   UNL A   1      40.623  26.248  26.123  1.00  0.00     0.001 A 
ATOM     73  C   UNL A   1      39.358  24.960  27.726  1.00  0.00     0.001 A 
ATOM     74  C   UNL A   1      39.895  25.104  26.447  1.00  0.00     0.000 A 
ENDBRANCH  50  69
BRANCH  62  75
ATOM     75  C   UNL A   1      44.969  28.430  33.301  1.00  0.00    -0.014 A 
ATOM     76  C   UNL A   1      44.871  27.441  34.291  1.00  0.00     0.009 A 
ATOM     77  C   UNL A   1      46.218  28.685  32.712  1.00  0.00     0.009 A 
ATOM     78  C   UNL A   1      46.008  26.744  34.705  1.00  0.00     0.001 A 
ATOM     79  C   UNL A   1      47.347  27.967  33.108  1.00  0.00     0.001 A 
ATOM     80  C   UNL A   1      47.242  27.005  34.110  1.00  0.00     0.000 A 
ENDBRANCH  62  75
ENDBRANCH  36  37
ENDBRANCH  28  31
ENDBRANCH  26  27
ENDBRANCH  25  26
ENDBRANCH  24  25
ENDBRANCH   1  24
TORSDOF 16
ENDMDL
MODEL 3
REMARK VINA RESULT:     -10.0      2.596      3.893
REMARK SMILES C[NH+](C)CC(C)(C)CNc1cccc(F)c1C(=O)NCCCCNC(=O)c1ccc(-c2c3nc(c(-c4ccccc4)c4ccc([nH]4)c(-c4ccccc4)c4nc(c(-c5ccccc5)c5ccc2[nH]5)C=C4)C=C3)cc1
REMARK SMILES IDX 20 1 19 2 17 3 18 4 16 6 10 7 11 8 12 9 14 10 13 11 15 12
REMARK SMILES IDX 9 13 8 15 5 16 6 17 7 18 4 19 2 20 1 21 3 22 21 24 22 25
REMARK SMILES IDX 23 26 24 27 25 28 26 30 27 31 28 32 74 33 29 34 73 35 30 36
REMARK SMILES IDX 31 37 32 38 67 39 33 40 72 41 66 42 68 43 34 44 71 45 65 46
REMARK SMILES IDX 64 47 35 49 57 50 42 51 56 52 43 53 46 54 55 55 69 56 44 57
REMARK SMILES IDX 45 58 54 60 70 61 47 62 36 63 37 64 41 65 38 66 40 67 39 68
REMARK SMILES IDX 58 69 59 70 63 71 60 72 62 73 61 74 48 75 49 76 53 77 50 78
REMARK SMILES IDX 52 79 51 80
REMARK H PARENT 19 5 9 14 2 23 24 29 68 48 46 59
REMARK Flexibility Score: inf
ROOT
ATOM      1  C   UNL A   1      34.402  29.539  27.120  1.00  0.00     0.116 C 
ENDROOT
BRANCH   1   2
ATOM      2  N   UNL A   1      33.294  28.851  27.753  1.00  0.00    -0.352 N 
ATOM      3  C   UNL A   1      32.168  28.244  27.252  1.00  0.00     0.256 C 
ATOM      4  O   UNL A   1      31.369  27.839  28.101  1.00  0.00    -0.269 OA
ATOM      5  H   UNL A   1      33.363  28.809  28.734  1.00  0.00     0.163 HD
BRANCH   3   6
ATOM      6  C   UNL A   1      31.837  28.137  25.794  1.00  0.00     0.098 A 
ATOM      7  C   UNL A   1      32.079  26.918  25.103  1.00  0.00     0.050 A 
ATOM      8  C   UNL A   1      31.611  26.782  23.779  1.00  0.00     0.027 A 
ATOM      9  C   UNL A   1      31.019  27.845  23.102  1.00  0.00     0.005 A 
ATOM     10  C   UNL A   1      31.375  29.223  25.045  1.00  0.00     0.138 A 
ATOM     11  C   UNL A   1      30.944  29.081  23.724  1.00  0.00     0.040 A 
ATOM     12  F   UNL A   1      31.415  30.474  25.527  1.00  0.00    -0.206 F 
BRANCH   7  13
ATOM     13  N   UNL A   1      32.870  25.900  25.650  1.00  0.00    -0.384 N 
ATOM     14  H   UNL A   1      32.506  25.326  26.362  1.00  0.00     0.160 HD
BRANCH  13  15
ATOM     15  C   UNL A   1      34.236  25.686  25.165  1.00  0.00     0.125 C 
BRANCH  15  16
ATOM     16  C   UNL A   1      34.582  24.202  24.854  1.00  0.00     0.031 C 
ATOM     17  C   UNL A   1      36.081  23.998  25.155  1.00  0.00     0.019 C 
ATOM     18  C   UNL A   1      34.411  23.948  23.332  1.00  0.00     0.019 C 
BRANCH  16  19
ATOM     19  C   UNL A   1      33.704  23.139  25.606  1.00  0.00     0.269 C 
BRANCH  19  20
ATOM     20  N   UNL A   1      34.186  21.849  26.112  1.00  0.00    -0.339 N 
ATOM     21  C   UNL A   1      33.893  21.538  27.497  1.00  0.00     0.332 C 
ATOM     22  C   UNL A   1      34.025  20.709  25.236  1.00  0.00     0.332 C 
ATOM     23  H   UNL A   1      35.188  22.040  26.106  1.00  0.00     0.347 HD
ENDBRANCH  19  20
ENDBRANCH  16  19
ENDBRANCH  15  16
ENDBRANCH  13  15
ENDBRANCH   7  13
ENDBRANCH   3   6
ENDBRANCH   1   2
BRANCH   1  24
ATOM     24  C   UNL A   1      34.652  30.933  27.683  1.00  0.00     0.023 C 
BRANCH  24  25
ATOM     25  C   UNL A   1      33.428  31.828  27.858  1.00  0.00     0.023 C 
BRANCH  25  26
ATOM     26  C   UNL A   1      33.634  33.314  27.585  1.00  0.00     0.116 C 
BRANCH  26  27
ATOM     27  N   UNL A   1      33.144  34.179  28.648  1.00  0.00    -0.352 N 
ATOM     28  C   UNL A   1      33.659  34.416  29.900  1.00  0.00     0.251 C 
ATOM     29  H   UNL A   1      32.318  34.669  28.438  1.00  0.00     0.163 HD
ATOM     30  O   UNL A   1      33.046  35.126  30.693  1.00  0.00    -0.269 OA
BRANCH  28  31
ATOM     31  C   UNL A   1      34.930  33.784  30.316  1.00  0.00     0.039 A 
ATOM     32  C   UNL A   1      34.894  32.764  31.272  1.00  0.00     0.014 A 
ATOM     33  C   UNL A   1      36.148  34.176  29.756  1.00  0.00     0.014 A 
ATOM     34  C   UNL A   1      36.066  32.079  31.600  1.00  0.00     0.010 A 
ATOM     35  C   UNL A   1      37.299  33.440  30.024  1.00  0.00     0.010 A 
ATOM     36  C   UNL A   1      37.270  32.379  30.944  1.00  0.00    -0.014 A 
BRANCH  36  37
ATOM     37  C   UNL A   1      38.507  31.599  31.198  1.00  0.00     0.031 A 
ATOM     38  C   UNL A   1      39.499  32.070  32.225  1.00  0.00     0.074 A 
ATOM     39  C   UNL A   1      38.774  30.503  30.458  1.00  0.00     0.049 A 
ATOM     40  N   UNL A   1      40.674  31.577  32.527  1.00  0.00    -0.248 NA
ATOM     41  C   UNL A   1      39.135  33.270  32.997  1.00  0.00     0.031 C 
ATOM     42  C   UNL A   1      37.913  29.957  29.405  1.00  0.00     0.029 A 
ATOM     43  N   UNL A   1      39.854  29.656  30.475  1.00  0.00    -0.354 N 
ATOM     44  C   UNL A   1      41.193  32.413  33.507  1.00  0.00     0.074 A 
ATOM     45  C   UNL A   1      40.231  33.473  33.713  1.00  0.00     0.031 C 
ATOM     46  C   UNL A   1      38.486  28.852  28.898  1.00  0.00     0.029 A 
ATOM     47  C   UNL A   1      39.769  28.635  29.558  1.00  0.00     0.049 A 
ATOM     48  H   UNL A   1      40.616  29.768  31.087  1.00  0.00     0.167 HD
ATOM     49  C   UNL A   1      42.357  32.300  34.189  1.00  0.00     0.031 A 
ATOM     50  C   UNL A   1      40.630  27.639  29.277  1.00  0.00     0.031 A 
ATOM     51  C   UNL A   1      43.309  31.240  34.001  1.00  0.00     0.049 A 
ATOM     52  C   UNL A   1      41.921  27.545  30.042  1.00  0.00     0.074 A 
ATOM     53  C   UNL A   1      44.498  31.018  34.674  1.00  0.00     0.029 A 
ATOM     54  N   UNL A   1      43.177  30.219  33.073  1.00  0.00    -0.354 N 
ATOM     55  N   UNL A   1      42.373  28.316  31.001  1.00  0.00    -0.248 NA
ATOM     56  C   UNL A   1      42.817  26.433  29.692  1.00  0.00     0.031 C 
ATOM     57  C   UNL A   1      45.102  29.880  34.129  1.00  0.00     0.029 A 
ATOM     58  C   UNL A   1      44.267  29.370  33.149  1.00  0.00     0.049 A 
ATOM     59  H   UNL A   1      42.420  30.114  32.452  1.00  0.00     0.167 HD
ATOM     60  C   UNL A   1      43.586  27.765  31.389  1.00  0.00     0.074 A 
ATOM     61  C   UNL A   1      43.794  26.587  30.574  1.00  0.00     0.031 C 
ATOM     62  C   UNL A   1      44.451  28.194  32.340  1.00  0.00     0.031 A 
BRANCH  49  63
ATOM     63  C   UNL A   1      42.659  33.354  35.216  1.00  0.00    -0.014 A 
ATOM     64  C   UNL A   1      43.379  34.509  34.875  1.00  0.00     0.009 A 
ATOM     65  C   UNL A   1      42.188  33.209  36.531  1.00  0.00     0.009 A 
ATOM     66  C   UNL A   1      43.650  35.485  35.838  1.00  0.00     0.001 A 
ATOM     67  C   UNL A   1      42.437  34.199  37.484  1.00  0.00     0.001 A 
ATOM     68  C   UNL A   1      43.175  35.330  37.139  1.00  0.00     0.000 A 
ENDBRANCH  49  63
BRANCH  50  69
ATOM     69  C   UNL A   1      40.303  26.633  28.233  1.00  0.00    -0.014 A 
ATOM     70  C   UNL A   1      39.465  25.548  28.533  1.00  0.00     0.009 A 
ATOM     71  C   UNL A   1      40.849  26.733  26.943  1.00  0.00     0.009 A 
ATOM     72  C   UNL A   1      39.210  24.564  27.575  1.00  0.00     0.001 A 
ATOM     73  C   UNL A   1      40.569  25.762  25.980  1.00  0.00     0.001 A 
ATOM     74  C   UNL A   1      39.760  24.673  26.299  1.00  0.00     0.000 A 
ENDBRANCH  50  69
BRANCH  62  75
ATOM     75  C   UNL A   1      45.675  27.360  32.582  1.00  0.00    -0.014 A 
ATOM     76  C   UNL A   1      45.638  26.234  33.418  1.00  0.00     0.009 A 
ATOM     77  C   UNL A   1      46.875  27.687  31.931  1.00  0.00     0.009 A 
ATOM     78  C   UNL A   1      46.788  25.469  33.621  1.00  0.00     0.001 A 
ATOM     79  C   UNL A   1      48.016  26.904  32.114  1.00  0.00     0.001 A 
ATOM     80  C   UNL A   1      47.974  25.802  32.966  1.00  0.00     0.000 A 
ENDBRANCH  62  75
ENDBRANCH  36  37
ENDBRANCH  28  31
ENDBRANCH  26  27
ENDBRANCH  25  26
ENDBRANCH  24  25
ENDBRANCH   1  24
TORSDOF 16
ENDMDL
