MODEL 1
REMARK VINA RESULT:     -11.5      0.000      0.000
REMARK SMILES O=C(NCCCCNC(=O)c1ccc(F)cc1-c1ccc(F)c(Cl)c1)c1ccc(-c2c3nc(c(-c4ccccc4)c4ccc([nH]4)c(-c4ccccc4)c4nc(c(-c5ccccc5)c5ccc2[nH]5)C=C4)C=C3)cc1
REMARK SMILES IDX 5 1 4 2 3 3 1 4 2 5 26 7 27 8 73 9 28 10 72 11 29 12 30 13
REMARK SMILES IDX 31 14 66 15 32 16 71 17 65 18 67 19 33 20 70 21 64 22 63 23
REMARK SMILES IDX 34 25 56 26 41 27 55 28 42 29 45 30 54 31 68 32 43 33 44 34
REMARK SMILES IDX 53 36 69 37 46 38 35 39 36 40 40 41 37 42 39 43 38 44 57 45
REMARK SMILES IDX 58 46 62 47 59 48 61 49 60 50 47 51 48 52 52 53 49 54 51 55
REMARK SMILES IDX 50 56 6 57 7 58 8 59 9 60 10 62 11 63 12 64 17 65 13 66
REMARK SMILES IDX 16 67 14 68 15 69 18 70 19 71 25 72 20 73 23 74 21 75 24 76
REMARK SMILES IDX 22 77
REMARK H PARENT 3 6 67 24 45 35 8 61
REMARK Flexibility Score: inf
ROOT
ATOM      1  C   UNL A   1      33.034  28.353  25.799  1.00  0.00     0.023 C 
ENDROOT
BRANCH   1   2
ATOM      2  C   UNL A   1      33.564  28.572  27.211  1.00  0.00     0.116 C 
BRANCH   2   3
ATOM      3  N   UNL A   1      33.534  29.967  27.619  1.00  0.00    -0.352 N 
ATOM      4  O   UNL A   1      34.240  31.854  28.634  1.00  0.00    -0.269 OA
ATOM      5  C   UNL A   1      34.502  30.723  28.236  1.00  0.00     0.251 C 
ATOM      6  H   UNL A   1      32.693  30.443  27.424  1.00  0.00     0.163 HD
BRANCH   5   7
ATOM      7  C   UNL A   1      35.853  30.162  28.451  1.00  0.00     0.039 A 
ATOM      8  C   UNL A   1      36.212  29.607  29.681  1.00  0.00     0.014 A 
ATOM      9  C   UNL A   1      36.773  30.194  27.400  1.00  0.00     0.014 A 
ATOM     10  C   UNL A   1      37.530  29.227  29.911  1.00  0.00     0.010 A 
ATOM     11  C   UNL A   1      38.075  29.731  27.606  1.00  0.00     0.010 A 
ATOM     12  C   UNL A   1      38.473  29.278  28.873  1.00  0.00    -0.014 A 
BRANCH  12  13
ATOM     13  C   UNL A   1      39.864  28.816  29.110  1.00  0.00     0.031 A 
ATOM     14  C   UNL A   1      40.889  29.731  29.720  1.00  0.00     0.074 A 
ATOM     15  C   UNL A   1      40.205  27.562  28.759  1.00  0.00     0.049 A 
ATOM     16  N   UNL A   1      42.160  29.510  29.946  1.00  0.00    -0.248 NA
ATOM     17  C   UNL A   1      40.431  31.069  30.121  1.00  0.00     0.031 C 
ATOM     18  C   UNL A   1      39.299  26.574  28.168  1.00  0.00     0.029 A 
ATOM     19  N   UNL A   1      41.404  26.902  28.847  1.00  0.00    -0.354 N 
ATOM     20  C   UNL A   1      42.659  30.687  30.491  1.00  0.00     0.074 A 
ATOM     21  C   UNL A   1      41.559  31.628  30.537  1.00  0.00     0.031 C 
ATOM     22  C   UNL A   1      39.967  25.430  27.970  1.00  0.00     0.029 A 
ATOM     23  C   UNL A   1      41.360  25.622  28.353  1.00  0.00     0.049 A 
ATOM     24  H   UNL A   1      42.217  27.308  29.228  1.00  0.00     0.167 HD
ATOM     25  C   UNL A   1      43.917  30.958  30.915  1.00  0.00     0.031 A 
ATOM     26  C   UNL A   1      42.337  24.711  28.191  1.00  0.00     0.031 A 
ATOM     27  C   UNL A   1      45.011  30.023  30.855  1.00  0.00     0.049 A 
ATOM     28  C   UNL A   1      43.735  25.055  28.613  1.00  0.00     0.074 A 
ATOM     29  C   UNL A   1      46.316  30.193  31.284  1.00  0.00     0.029 A 
ATOM     30  N   UNL A   1      44.931  28.745  30.320  1.00  0.00    -0.354 N 
ATOM     31  N   UNL A   1      44.186  26.162  29.154  1.00  0.00    -0.248 NA
ATOM     32  C   UNL A   1      44.760  24.023  28.405  1.00  0.00     0.031 C 
ATOM     33  C   UNL A   1      47.040  29.043  30.950  1.00  0.00     0.029 A 
ATOM     34  C   UNL A   1      46.170  28.128  30.380  1.00  0.00     0.049 A 
ATOM     35  H   UNL A   1      44.114  28.337  29.951  1.00  0.00     0.167 HD
ATOM     36  C   UNL A   1      45.538  25.949  29.380  1.00  0.00     0.074 A 
ATOM     37  C   UNL A   1      45.833  24.604  28.925  1.00  0.00     0.031 C 
ATOM     38  C   UNL A   1      46.452  26.790  29.924  1.00  0.00     0.031 A 
BRANCH  25  39
ATOM     39  C   UNL A   1      44.188  32.344  31.441  1.00  0.00    -0.014 A 
ATOM     40  C   UNL A   1      44.599  33.387  30.595  1.00  0.00     0.009 A 
ATOM     41  C   UNL A   1      44.005  32.615  32.807  1.00  0.00     0.009 A 
ATOM     42  C   UNL A   1      44.867  34.656  31.112  1.00  0.00     0.001 A 
ATOM     43  C   UNL A   1      44.241  33.894  33.316  1.00  0.00     0.001 A 
ATOM     44  C   UNL A   1      44.685  34.909  32.472  1.00  0.00     0.000 A 
ENDBRANCH  25  39
BRANCH  26  45
ATOM     45  C   UNL A   1      42.015  23.394  27.587  1.00  0.00    -0.014 A 
ATOM     46  C   UNL A   1      42.234  23.161  26.221  1.00  0.00     0.009 A 
ATOM     47  C   UNL A   1      41.518  22.349  28.384  1.00  0.00     0.009 A 
ATOM     48  C   UNL A   1      41.944  21.914  25.663  1.00  0.00     0.001 A 
ATOM     49  C   UNL A   1      41.260  21.094  27.830  1.00  0.00     0.001 A 
ATOM     50  C   UNL A   1      41.465  20.881  26.468  1.00  0.00     0.000 A 
ENDBRANCH  26  45
BRANCH  38  51
ATOM     51  C   UNL A   1      47.849  26.266  30.106  1.00  0.00    -0.014 A 
ATOM     52  C   UNL A   1      48.785  26.285  29.060  1.00  0.00     0.009 A 
ATOM     53  C   UNL A   1      48.247  25.792  31.366  1.00  0.00     0.009 A 
ATOM     54  C   UNL A   1      50.083  25.811  29.267  1.00  0.00     0.001 A 
ATOM     55  C   UNL A   1      49.553  25.349  31.577  1.00  0.00     0.001 A 
ATOM     56  C   UNL A   1      50.467  25.351  30.526  1.00  0.00     0.000 A 
ENDBRANCH  38  51
ENDBRANCH  12  13
ENDBRANCH   5   7
ENDBRANCH   2   3
ENDBRANCH   1   2
BRANCH   1  57
ATOM     57  C   UNL A   1      34.097  28.278  24.707  1.00  0.00     0.023 C 
BRANCH  57  58
ATOM     58  C   UNL A   1      33.668  28.799  23.339  1.00  0.00     0.116 C 
BRANCH  58  59
ATOM     59  N   UNL A   1      33.839  27.822  22.275  1.00  0.00    -0.352 N 
ATOM     60  C   UNL A   1      33.001  26.802  21.893  1.00  0.00     0.251 C 
ATOM     61  H   UNL A   1      34.672  27.902  21.757  1.00  0.00     0.163 HD
ATOM     62  O   UNL A   1      33.310  26.061  20.965  1.00  0.00    -0.269 OA
BRANCH  60  63
ATOM     63  C   UNL A   1      31.720  26.613  22.612  1.00  0.00     0.047 A 
ATOM     64  C   UNL A   1      30.697  27.550  22.377  1.00  0.00     0.017 A 
ATOM     65  C   UNL A   1      31.522  25.523  23.488  1.00  0.00    -0.003 A 
ATOM     66  C   UNL A   1      29.498  27.467  23.079  1.00  0.00     0.040 A 
ATOM     67  C   UNL A   1      30.298  25.464  24.180  1.00  0.00     0.048 A 
ATOM     68  C   UNL A   1      29.315  26.431  23.983  1.00  0.00     0.123 A 
ATOM     69  F   UNL A   1      28.171  26.357  24.675  1.00  0.00    -0.207 F 
BRANCH  65  70
ATOM     70  C   UNL A   1      32.511  24.450  23.697  1.00  0.00    -0.016 A 
ATOM     71  C   UNL A   1      32.369  23.187  23.097  1.00  0.00     0.012 A 
ATOM     72  C   UNL A   1      33.640  24.684  24.505  1.00  0.00     0.032 A 
ATOM     73  C   UNL A   1      33.324  22.185  23.306  1.00  0.00     0.041 A 
ATOM     74  C   UNL A   1      34.594  23.685  24.710  1.00  0.00     0.077 A 
ATOM     75  C   UNL A   1      34.431  22.441  24.109  1.00  0.00     0.141 A 
ATOM     76  Cl  UNL A   1      35.966  24.015  25.696  1.00  0.00    -0.081 Cl
ATOM     77  F   UNL A   1      35.337  21.468  24.289  1.00  0.00    -0.205 F 
ENDBRANCH  65  70
ENDBRANCH  60  63
ENDBRANCH  58  59
ENDBRANCH  57  58
ENDBRANCH   1  57
TORSDOF 12
ENDMDL
MODEL 2
REMARK VINA RESULT:     -11.4      2.438      7.515
REMARK SMILES O=C(NCCCCNC(=O)c1ccc(F)cc1-c1ccc(F)c(Cl)c1)c1ccc(-c2c3nc(c(-c4ccccc4)c4ccc([nH]4)c(-c4ccccc4)c4nc(c(-c5ccccc5)c5ccc2[nH]5)C=C4)C=C3)cc1
REMARK SMILES IDX 5 1 4 2 3 3 1 4 2 5 26 7 27 8 73 9 28 10 72 11 29 12 30 13
REMARK SMILES IDX 31 14 66 15 32 16 71 17 65 18 67 19 33 20 70 21 64 22 63 23
REMARK SMILES IDX 34 25 56 26 41 27 55 28 42 29 45 30 54 31 68 32 43 33 44 34
REMARK SMILES IDX 53 36 69 37 46 38 35 39 36 40 40 41 37 42 39 43 38 44 57 45
REMARK SMILES IDX 58 46 62 47 59 48 61 49 60 50 47 51 48 52 52 53 49 54 51 55
REMARK SMILES IDX 50 56 6 57 7 58 8 59 9 60 10 62 11 63 12 64 17 65 13 66
REMARK SMILES IDX 16 67 14 68 15 69 18 70 19 71 25 72 20 73 23 74 21 75 24 76
REMARK SMILES IDX 22 77
REMARK H PARENT 3 6 67 24 45 35 8 61
REMARK Flexibility Score: inf
ROOT
ATOM      1  C   UNL A   1      39.092  21.256  25.566  1.00  0.00     0.023 C 
ENDROOT
BRANCH   1   2
ATOM      2  C   UNL A   1      39.383  19.992  26.366  1.00  0.00     0.116 C 
BRANCH   2   3
ATOM      3  N   UNL A   1      40.584  19.303  25.922  1.00  0.00    -0.352 N 
ATOM      4  O   UNL A   1      42.746  19.065  25.327  1.00  0.00    -0.269 OA
ATOM      5  C   UNL A   1      41.883  19.748  25.870  1.00  0.00     0.251 C 
ATOM      6  H   UNL A   1      40.446  18.378  25.612  1.00  0.00     0.163 HD
BRANCH   5   7
ATOM      7  C   UNL A   1      42.236  21.066  26.439  1.00  0.00     0.039 A 
ATOM      8  C   UNL A   1      42.183  21.290  27.817  1.00  0.00     0.014 A 
ATOM      9  C   UNL A   1      42.628  22.092  25.576  1.00  0.00     0.014 A 
ATOM     10  C   UNL A   1      42.368  22.576  28.316  1.00  0.00     0.010 A 
ATOM     11  C   UNL A   1      42.899  23.363  26.088  1.00  0.00     0.010 A 
ATOM     12  C   UNL A   1      42.736  23.623  27.458  1.00  0.00    -0.014 A 
BRANCH  12  13
ATOM     13  C   UNL A   1      42.989  24.979  28.007  1.00  0.00     0.031 A 
ATOM     14  C   UNL A   1      44.367  25.392  28.442  1.00  0.00     0.074 A 
ATOM     15  C   UNL A   1      41.959  25.839  28.125  1.00  0.00     0.049 A 
ATOM     16  N   UNL A   1      44.755  26.515  28.993  1.00  0.00    -0.248 NA
ATOM     17  C   UNL A   1      45.449  24.417  28.239  1.00  0.00     0.031 C 
ATOM     18  C   UNL A   1      40.577  25.560  27.729  1.00  0.00     0.029 A 
ATOM     19  N   UNL A   1      41.914  27.120  28.611  1.00  0.00    -0.354 N 
ATOM     20  C   UNL A   1      46.117  26.373  29.226  1.00  0.00     0.074 A 
ATOM     21  C   UNL A   1      46.483  25.045  28.781  1.00  0.00     0.031 C 
ATOM     22  C   UNL A   1      39.826  26.645  27.965  1.00  0.00     0.029 A 
ATOM     23  C   UNL A   1      40.656  27.668  28.591  1.00  0.00     0.049 A 
ATOM     24  H   UNL A   1      42.708  27.600  28.942  1.00  0.00     0.167 HD
ATOM     25  C   UNL A   1      46.984  27.267  29.761  1.00  0.00     0.031 A 
ATOM     26  C   UNL A   1      40.206  28.848  29.054  1.00  0.00     0.031 A 
ATOM     27  C   UNL A   1      46.612  28.583  30.215  1.00  0.00     0.049 A 
ATOM     28  C   UNL A   1      41.173  29.798  29.697  1.00  0.00     0.074 A 
ATOM     29  C   UNL A   1      47.421  29.573  30.746  1.00  0.00     0.029 A 
ATOM     30  N   UNL A   1      45.320  29.088  30.203  1.00  0.00    -0.354 N 
ATOM     31  N   UNL A   1      42.464  29.662  29.883  1.00  0.00    -0.248 NA
ATOM     32  C   UNL A   1      40.622  31.067  30.191  1.00  0.00     0.031 C 
ATOM     33  C   UNL A   1      46.609  30.650  31.115  1.00  0.00     0.029 A 
ATOM     34  C   UNL A   1      45.305  30.362  30.746  1.00  0.00     0.049 A 
ATOM     35  H   UNL A   1      44.530  28.611  29.860  1.00  0.00     0.167 HD
ATOM     36  C   UNL A   1      42.885  30.838  30.487  1.00  0.00     0.074 A 
ATOM     37  C   UNL A   1      41.714  31.680  30.627  1.00  0.00     0.031 C 
ATOM     38  C   UNL A   1      44.133  31.192  30.881  1.00  0.00     0.031 A 
BRANCH  25  39
ATOM     39  C   UNL A   1      48.416  26.831  29.927  1.00  0.00    -0.014 A 
ATOM     40  C   UNL A   1      49.385  27.092  28.944  1.00  0.00     0.009 A 
ATOM     41  C   UNL A   1      48.808  26.167  31.101  1.00  0.00     0.009 A 
ATOM     42  C   UNL A   1      50.701  26.655  29.111  1.00  0.00     0.001 A 
ATOM     43  C   UNL A   1      50.132  25.762  31.281  1.00  0.00     0.001 A 
ATOM     44  C   UNL A   1      51.074  25.993  30.281  1.00  0.00     0.000 A 
ENDBRANCH  25  39
BRANCH  26  45
ATOM     45  C   UNL A   1      38.764  29.179  28.934  1.00  0.00    -0.014 A 
ATOM     46  C   UNL A   1      37.896  29.001  30.022  1.00  0.00     0.009 A 
ATOM     47  C   UNL A   1      38.253  29.706  27.737  1.00  0.00     0.009 A 
ATOM     48  C   UNL A   1      36.544  29.330  29.907  1.00  0.00     0.001 A 
ATOM     49  C   UNL A   1      36.907  30.064  27.635  1.00  0.00     0.001 A 
ATOM     50  C   UNL A   1      36.052  29.867  28.718  1.00  0.00     0.000 A 
ENDBRANCH  26  45
BRANCH  38  51
ATOM     51  C   UNL A   1      44.311  32.568  31.458  1.00  0.00    -0.014 A 
ATOM     52  C   UNL A   1      44.221  32.806  32.838  1.00  0.00     0.009 A 
ATOM     53  C   UNL A   1      44.623  33.637  30.603  1.00  0.00     0.009 A 
ATOM     54  C   UNL A   1      44.412  34.094  33.346  1.00  0.00     0.001 A 
ATOM     55  C   UNL A   1      44.845  34.915  31.116  1.00  0.00     0.001 A 
ATOM     56  C   UNL A   1      44.731  35.144  32.486  1.00  0.00     0.000 A 
ENDBRANCH  38  51
ENDBRANCH  12  13
ENDBRANCH   5   7
ENDBRANCH   2   3
ENDBRANCH   1   2
BRANCH   1  57
ATOM     57  C   UNL A   1      38.840  22.511  26.398  1.00  0.00     0.023 C 
BRANCH  57  58
ATOM     58  C   UNL A   1      37.663  23.370  25.947  1.00  0.00     0.116 C 
BRANCH  58  59
ATOM     59  N   UNL A   1      37.560  23.484  24.501  1.00  0.00    -0.352 N 
ATOM     60  C   UNL A   1      36.559  23.045  23.667  1.00  0.00     0.251 C 
ATOM     61  H   UNL A   1      38.312  23.937  24.057  1.00  0.00     0.163 HD
ATOM     62  O   UNL A   1      36.640  23.225  22.455  1.00  0.00    -0.269 OA
BRANCH  60  63
ATOM     63  C   UNL A   1      35.383  22.360  24.248  1.00  0.00     0.047 A 
ATOM     64  C   UNL A   1      35.531  21.007  24.611  1.00  0.00     0.017 A 
ATOM     65  C   UNL A   1      34.161  23.037  24.450  1.00  0.00    -0.003 A 
ATOM     66  C   UNL A   1      34.440  20.290  25.093  1.00  0.00     0.040 A 
ATOM     67  C   UNL A   1      33.078  22.285  24.943  1.00  0.00     0.048 A 
ATOM     68  C   UNL A   1      33.222  20.933  25.243  1.00  0.00     0.123 A 
ATOM     69  F   UNL A   1      32.164  20.243  25.689  1.00  0.00    -0.207 F 
BRANCH  65  70
ATOM     70  C   UNL A   1      33.971  24.476  24.191  1.00  0.00    -0.016 A 
ATOM     71  C   UNL A   1      33.668  24.964  22.909  1.00  0.00     0.012 A 
ATOM     72  C   UNL A   1      34.079  25.399  25.249  1.00  0.00     0.032 A 
ATOM     73  C   UNL A   1      33.486  26.333  22.689  1.00  0.00     0.041 A 
ATOM     74  C   UNL A   1      33.894  26.766  25.029  1.00  0.00     0.077 A 
ATOM     75  C   UNL A   1      33.599  27.226  23.750  1.00  0.00     0.141 A 
ATOM     76  Cl  UNL A   1      34.024  27.861  26.351  1.00  0.00    -0.081 Cl
ATOM     77  F   UNL A   1      33.412  28.533  23.517  1.00  0.00    -0.205 F 
ENDBRANCH  65  70
ENDBRANCH  60  63
ENDBRANCH  58  59
ENDBRANCH  57  58
ENDBRANCH   1  57
TORSDOF 12
ENDMDL
MODEL 3
REMARK VINA RESULT:     -11.4      2.739      7.606
REMARK SMILES O=C(NCCCCNC(=O)c1ccc(F)cc1-c1ccc(F)c(Cl)c1)c1ccc(-c2c3nc(c(-c4ccccc4)c4ccc([nH]4)c(-c4ccccc4)c4nc(c(-c5ccccc5)c5ccc2[nH]5)C=C4)C=C3)cc1
REMARK SMILES IDX 5 1 4 2 3 3 1 4 2 5 26 7 27 8 73 9 28 10 72 11 29 12 30 13
REMARK SMILES IDX 31 14 66 15 32 16 71 17 65 18 67 19 33 20 70 21 64 22 63 23
REMARK SMILES IDX 34 25 56 26 41 27 55 28 42 29 45 30 54 31 68 32 43 33 44 34
REMARK SMILES IDX 53 36 69 37 46 38 35 39 36 40 40 41 37 42 39 43 38 44 57 45
REMARK SMILES IDX 58 46 62 47 59 48 61 49 60 50 47 51 48 52 52 53 49 54 51 55
REMARK SMILES IDX 50 56 6 57 7 58 8 59 9 60 10 62 11 63 12 64 17 65 13 66
REMARK SMILES IDX 16 67 14 68 15 69 18 70 19 71 25 72 20 73 23 74 21 75 24 76
REMARK SMILES IDX 22 77
REMARK H PARENT 3 6 67 24 45 35 8 61
REMARK Flexibility Score: inf
ROOT
ATOM      1  C   UNL A   1      37.993  19.821  24.686  1.00  0.00     0.023 C 
ENDROOT
BRANCH   1   2
ATOM      2  C   UNL A   1      39.010  20.177  25.763  1.00  0.00     0.116 C 
BRANCH   2   3
ATOM      3  N   UNL A   1      40.140  19.262  25.802  1.00  0.00    -0.352 N 
ATOM      4  O   UNL A   1      42.299  18.628  25.958  1.00  0.00    -0.269 OA
ATOM      5  C   UNL A   1      41.455  19.504  26.121  1.00  0.00     0.251 C 
ATOM      6  H   UNL A   1      39.932  18.329  25.566  1.00  0.00     0.163 HD
BRANCH   5   7
ATOM      7  C   UNL A   1      41.861  20.832  26.628  1.00  0.00     0.039 A 
ATOM      8  C   UNL A   1      41.822  21.121  27.993  1.00  0.00     0.014 A 
ATOM      9  C   UNL A   1      42.288  21.802  25.717  1.00  0.00     0.014 A 
ATOM     10  C   UNL A   1      42.058  22.420  28.433  1.00  0.00     0.010 A 
ATOM     11  C   UNL A   1      42.610  23.083  26.170  1.00  0.00     0.010 A 
ATOM     12  C   UNL A   1      42.463  23.412  27.527  1.00  0.00    -0.014 A 
BRANCH  12  13
ATOM     13  C   UNL A   1      42.770  24.781  28.013  1.00  0.00     0.031 A 
ATOM     14  C   UNL A   1      44.173  25.173  28.384  1.00  0.00     0.074 A 
ATOM     15  C   UNL A   1      41.768  25.673  28.130  1.00  0.00     0.049 A 
ATOM     16  N   UNL A   1      44.608  26.305  28.877  1.00  0.00    -0.248 NA
ATOM     17  C   UNL A   1      45.220  24.161  28.185  1.00  0.00     0.031 C 
ATOM     18  C   UNL A   1      40.366  25.417  27.792  1.00  0.00     0.029 A 
ATOM     19  N   UNL A   1      41.773  26.973  28.566  1.00  0.00    -0.354 N 
ATOM     20  C   UNL A   1      45.974  26.135  29.070  1.00  0.00     0.074 A 
ATOM     21  C   UNL A   1      46.289  24.781  28.667  1.00  0.00     0.031 C 
ATOM     22  C   UNL A   1      39.653  26.531  28.009  1.00  0.00     0.029 A 
ATOM     23  C   UNL A   1      40.529  27.554  28.565  1.00  0.00     0.049 A 
ATOM     24  H   UNL A   1      42.590  27.443  28.851  1.00  0.00     0.167 HD
ATOM     25  C   UNL A   1      46.881  27.025  29.540  1.00  0.00     0.031 A 
ATOM     26  C   UNL A   1      40.127  28.763  28.996  1.00  0.00     0.031 A 
ATOM     27  C   UNL A   1      46.560  28.367  29.953  1.00  0.00     0.049 A 
ATOM     28  C   UNL A   1      41.140  29.710  29.568  1.00  0.00     0.074 A 
ATOM     29  C   UNL A   1      47.412  29.354  30.417  1.00  0.00     0.029 A 
ATOM     30  N   UNL A   1      45.282  28.907  29.963  1.00  0.00    -0.354 N 
ATOM     31  N   UNL A   1      42.433  29.546  29.716  1.00  0.00    -0.248 NA
ATOM     32  C   UNL A   1      40.639  31.013  30.028  1.00  0.00     0.031 C 
ATOM     33  C   UNL A   1      46.642  30.468  30.769  1.00  0.00     0.029 A 
ATOM     34  C   UNL A   1      45.319  30.201  30.455  1.00  0.00     0.049 A 
ATOM     35  H   UNL A   1      44.469  28.439  29.666  1.00  0.00     0.167 HD
ATOM     36  C   UNL A   1      42.905  30.733  30.258  1.00  0.00     0.074 A 
ATOM     37  C   UNL A   1      41.762  31.612  30.404  1.00  0.00     0.031 C 
ATOM     38  C   UNL A   1      44.175  31.067  30.596  1.00  0.00     0.031 A 
BRANCH  25  39
ATOM     39  C   UNL A   1      48.307  26.556  29.675  1.00  0.00    -0.014 A 
ATOM     40  C   UNL A   1      48.765  25.916  30.838  1.00  0.00     0.009 A 
ATOM     41  C   UNL A   1      49.201  26.738  28.607  1.00  0.00     0.009 A 
ATOM     42  C   UNL A   1      50.099  25.513  30.947  1.00  0.00     0.001 A 
ATOM     43  C   UNL A   1      50.524  26.304  28.706  1.00  0.00     0.001 A 
ATOM     44  C   UNL A   1      50.976  25.704  29.879  1.00  0.00     0.000 A 
ENDBRANCH  25  39
BRANCH  26  45
ATOM     45  C   UNL A   1      38.690  29.129  28.911  1.00  0.00    -0.014 A 
ATOM     46  C   UNL A   1      37.844  28.965  30.018  1.00  0.00     0.009 A 
ATOM     47  C   UNL A   1      38.165  29.675  27.729  1.00  0.00     0.009 A 
ATOM     48  C   UNL A   1      36.498  29.327  29.935  1.00  0.00     0.001 A 
ATOM     49  C   UNL A   1      36.827  30.065  27.660  1.00  0.00     0.001 A 
ATOM     50  C   UNL A   1      35.992  29.882  28.761  1.00  0.00     0.000 A 
ENDBRANCH  26  45
BRANCH  38  51
ATOM     51  C   UNL A   1      44.408  32.460  31.111  1.00  0.00    -0.014 A 
ATOM     52  C   UNL A   1      44.663  33.533  30.242  1.00  0.00     0.009 A 
ATOM     53  C   UNL A   1      44.321  32.708  32.490  1.00  0.00     0.009 A 
ATOM     54  C   UNL A   1      44.855  34.820  30.750  1.00  0.00     0.001 A 
ATOM     55  C   UNL A   1      44.482  34.000  32.990  1.00  0.00     0.001 A 
ATOM     56  C   UNL A   1      44.757  35.054  32.121  1.00  0.00     0.000 A 
ENDBRANCH  38  51
ENDBRANCH  12  13
ENDBRANCH   5   7
ENDBRANCH   2   3
ENDBRANCH   1   2
BRANCH   1  57
ATOM     57  C   UNL A   1      36.538  20.119  25.037  1.00  0.00     0.023 C 
BRANCH  57  58
ATOM     58  C   UNL A   1      36.267  21.524  25.564  1.00  0.00     0.116 C 
BRANCH  58  59
ATOM     59  N   UNL A   1      35.296  21.551  26.647  1.00  0.00    -0.352 N 
ATOM     60  C   UNL A   1      33.924  21.503  26.582  1.00  0.00     0.251 C 
ATOM     61  H   UNL A   1      35.675  21.612  27.553  1.00  0.00     0.163 HD
ATOM     62  O   UNL A   1      33.253  21.541  27.609  1.00  0.00    -0.269 OA
BRANCH  60  63
ATOM     63  C   UNL A   1      33.267  21.401  25.259  1.00  0.00     0.047 A 
ATOM     64  C   UNL A   1      32.940  20.114  24.792  1.00  0.00     0.017 A 
ATOM     65  C   UNL A   1      32.962  22.551  24.498  1.00  0.00    -0.003 A 
ATOM     66  C   UNL A   1      32.389  19.950  23.524  1.00  0.00     0.040 A 
ATOM     67  C   UNL A   1      32.402  22.352  23.222  1.00  0.00     0.048 A 
ATOM     68  C   UNL A   1      32.137  21.070  22.747  1.00  0.00     0.123 A 
ATOM     69  F   UNL A   1      31.625  20.917  21.519  1.00  0.00    -0.207 F 
BRANCH  65  70
ATOM     70  C   UNL A   1      33.181  23.928  24.973  1.00  0.00    -0.016 A 
ATOM     71  C   UNL A   1      34.435  24.555  24.875  1.00  0.00     0.012 A 
ATOM     72  C   UNL A   1      32.112  24.656  25.531  1.00  0.00     0.032 A 
ATOM     73  C   UNL A   1      34.617  25.866  25.329  1.00  0.00     0.041 A 
ATOM     74  C   UNL A   1      32.294  25.966  25.980  1.00  0.00     0.077 A 
ATOM     75  C   UNL A   1      33.546  26.564  25.877  1.00  0.00     0.141 A 
ATOM     76  Cl  UNL A   1      30.959  26.825  26.647  1.00  0.00    -0.081 Cl
ATOM     77  F   UNL A   1      33.742  27.822  26.298  1.00  0.00    -0.205 F 
ENDBRANCH  65  70
ENDBRANCH  60  63
ENDBRANCH  58  59
ENDBRANCH  57  58
ENDBRANCH   1  57
TORSDOF 12
ENDMDL
