MODEL 1
REMARK VINA RESULT:     -11.7      0.000      0.000
REMARK SMILES Cc1ccc(CNc2ccc(C(=O)NCCCCNC(=O)c3ccc(-c4c5nc(c(-c6ccccc6)c6ccc([nH]6)c(-c6ccccc6)c6nc(c(-c7ccccc7)c7ccc4[nH]7)C=C6)C=C5)cc3)cc2Br)cc1
REMARK SMILES IDX 16 1 15 2 14 3 12 4 13 5 11 7 8 8 9 9 71 10 10 11 70 12
REMARK SMILES IDX 72 13 7 14 6 16 5 17 1 18 2 19 3 20 74 21 4 22 73 23 17 24
REMARK SMILES IDX 18 25 19 26 20 27 21 29 22 30 23 31 69 32 24 33 68 34 25 35
REMARK SMILES IDX 26 36 27 37 62 38 28 39 67 40 61 41 63 42 29 43 66 44 60 45
REMARK SMILES IDX 59 46 30 48 52 49 37 50 51 51 38 52 41 53 50 54 64 55 39 56
REMARK SMILES IDX 40 57 49 59 65 60 42 61 31 62 32 63 36 64 33 65 35 66 34 67
REMARK SMILES IDX 53 68 54 69 58 70 55 71 57 72 56 73 43 74 44 75 48 76 45 77
REMARK SMILES IDX 47 78 46 79
REMARK H PARENT 14 6 7 15 19 28 63 47 41 58
REMARK Flexibility Score: inf
ROOT
ATOM      1  C   UNL A   1      33.229  29.704  25.198  1.00  0.00     0.023 C 
ENDROOT
BRANCH   1   2
ATOM      2  C   UNL A   1      31.784  29.981  25.618  1.00  0.00     0.116 C 
BRANCH   2   3
ATOM      3  N   UNL A   1      30.885  30.253  24.504  1.00  0.00    -0.352 N 
ATOM      4  C   UNL A   1      30.310  29.477  23.525  1.00  0.00     0.251 C 
ATOM      5  O   UNL A   1      29.633  30.052  22.671  1.00  0.00    -0.269 OA
ATOM      6  H   UNL A   1      30.633  31.203  24.438  1.00  0.00     0.163 HD
BRANCH   4   7
ATOM      7  C   UNL A   1      30.483  28.004  23.420  1.00  0.00     0.041 A 
ATOM      8  C   UNL A   1      30.882  25.197  23.119  1.00  0.00     0.049 A 
ATOM      9  C   UNL A   1      30.066  25.721  24.124  1.00  0.00     0.028 A 
ATOM     10  C   UNL A   1      31.482  26.122  22.242  1.00  0.00     0.041 A 
ATOM     11  C   UNL A   1      29.818  27.091  24.230  1.00  0.00     0.016 A 
ATOM     12  C   UNL A   1      31.297  27.505  22.394  1.00  0.00     0.031 A 
ATOM     13  Br  UNL A   1      32.534  25.526  20.771  1.00  0.00    -0.049 Br
BRANCH   8  14
ATOM     14  N   UNL A   1      31.070  23.834  22.967  1.00  0.00    -0.380 N 
ATOM     15  H   UNL A   1      30.912  23.450  22.075  1.00  0.00     0.160 HD
BRANCH  14  16
ATOM     16  C   UNL A   1      31.480  22.928  24.024  1.00  0.00     0.148 C 
BRANCH  16  17
ATOM     17  C   UNL A   1      32.933  23.147  24.367  1.00  0.00    -0.029 A 
ATOM     18  C   UNL A   1      37.092  23.695  25.372  1.00  0.00     0.044 C 
ATOM     19  C   UNL A   1      35.646  23.488  25.036  1.00  0.00    -0.051 A 
ATOM     20  C   UNL A   1      35.280  23.124  23.737  1.00  0.00     0.004 A 
ATOM     21  C   UNL A   1      34.650  23.664  26.002  1.00  0.00     0.004 A 
ATOM     22  C   UNL A   1      33.936  22.946  23.407  1.00  0.00     0.006 A 
ATOM     23  C   UNL A   1      33.304  23.492  25.671  1.00  0.00     0.006 A 
ENDBRANCH  16  17
ENDBRANCH  14  16
ENDBRANCH   8  14
ENDBRANCH   4   7
ENDBRANCH   2   3
ENDBRANCH   1   2
BRANCH   1  24
ATOM     24  C   UNL A   1      34.076  28.935  26.211  1.00  0.00     0.023 C 
BRANCH  24  25
ATOM     25  C   UNL A   1      34.087  29.523  27.617  1.00  0.00     0.116 C 
BRANCH  25  26
ATOM     26  N   UNL A   1      34.836  30.761  27.778  1.00  0.00    -0.352 N 
ATOM     27  C   UNL A   1      36.183  30.958  28.074  1.00  0.00     0.251 C 
ATOM     28  H   UNL A   1      34.311  31.585  27.659  1.00  0.00     0.163 HD
ATOM     29  O   UNL A   1      36.602  32.080  28.259  1.00  0.00    -0.269 OA
BRANCH  27  30
ATOM     30  C   UNL A   1      37.135  29.809  28.014  1.00  0.00     0.039 A 
ATOM     31  C   UNL A   1      37.190  28.955  29.124  1.00  0.00     0.014 A 
ATOM     32  C   UNL A   1      38.099  29.702  27.018  1.00  0.00     0.014 A 
ATOM     33  C   UNL A   1      38.351  28.223  29.368  1.00  0.00     0.010 A 
ATOM     34  C   UNL A   1      39.293  29.076  27.312  1.00  0.00     0.010 A 
ATOM     35  C   UNL A   1      39.445  28.408  28.528  1.00  0.00    -0.014 A 
BRANCH  35  36
ATOM     36  C   UNL A   1      40.811  28.068  28.904  1.00  0.00     0.031 A 
ATOM     37  C   UNL A   1      41.461  26.860  28.348  1.00  0.00     0.074 A 
ATOM     38  C   UNL A   1      41.507  28.908  29.706  1.00  0.00     0.049 A 
ATOM     39  N   UNL A   1      42.434  26.229  28.918  1.00  0.00    -0.248 NA
ATOM     40  C   UNL A   1      41.023  26.236  27.103  1.00  0.00     0.031 C 
ATOM     41  C   UNL A   1      42.943  28.872  29.984  1.00  0.00     0.029 A 
ATOM     42  N   UNL A   1      41.067  29.919  30.556  1.00  0.00    -0.354 N 
ATOM     43  C   UNL A   1      42.942  25.341  27.996  1.00  0.00     0.074 A 
ATOM     44  C   UNL A   1      41.970  25.312  26.927  1.00  0.00     0.031 C 
ATOM     45  C   UNL A   1      43.179  29.547  31.122  1.00  0.00     0.029 A 
ATOM     46  C   UNL A   1      41.884  29.881  31.689  1.00  0.00     0.049 A 
ATOM     47  H   UNL A   1      40.323  30.542  30.390  1.00  0.00     0.167 HD
ATOM     48  C   UNL A   1      44.204  24.850  28.158  1.00  0.00     0.031 A 
ATOM     49  C   UNL A   1      41.470  29.503  32.938  1.00  0.00     0.031 A 
ATOM     50  C   UNL A   1      44.806  25.303  29.412  1.00  0.00     0.049 A 
ATOM     51  C   UNL A   1      42.244  28.316  33.495  1.00  0.00     0.074 A 
ATOM     52  C   UNL A   1      45.711  26.310  29.707  1.00  0.00     0.029 A 
ATOM     53  N   UNL A   1      44.256  24.899  30.624  1.00  0.00    -0.354 N 
ATOM     54  N   UNL A   1      42.948  27.502  32.758  1.00  0.00    -0.248 NA
ATOM     55  C   UNL A   1      42.239  27.917  34.904  1.00  0.00     0.031 C 
ATOM     56  C   UNL A   1      45.635  26.573  31.099  1.00  0.00     0.029 A 
ATOM     57  C   UNL A   1      44.711  25.704  31.651  1.00  0.00     0.049 A 
ATOM     58  H   UNL A   1      43.632  24.145  30.734  1.00  0.00     0.167 HD
ATOM     59  C   UNL A   1      43.473  26.506  33.536  1.00  0.00     0.074 A 
ATOM     60  C   UNL A   1      43.008  26.813  34.877  1.00  0.00     0.031 C 
ATOM     61  C   UNL A   1      44.234  25.503  33.012  1.00  0.00     0.031 A 
BRANCH  48  62
ATOM     62  C   UNL A   1      45.002  24.229  27.031  1.00  0.00    -0.014 A 
ATOM     63  C   UNL A   1      45.693  25.059  26.129  1.00  0.00     0.009 A 
ATOM     64  C   UNL A   1      45.063  22.852  26.761  1.00  0.00     0.009 A 
ATOM     65  C   UNL A   1      46.306  24.559  24.972  1.00  0.00     0.001 A 
ATOM     66  C   UNL A   1      45.638  22.344  25.586  1.00  0.00     0.001 A 
ATOM     67  C   UNL A   1      46.250  23.202  24.684  1.00  0.00     0.000 A 
ENDBRANCH  48  62
BRANCH  49  68
ATOM     68  C   UNL A   1      40.031  29.751  33.220  1.00  0.00    -0.014 A 
ATOM     69  C   UNL A   1      39.602  31.078  33.413  1.00  0.00     0.009 A 
ATOM     70  C   UNL A   1      39.068  28.767  32.954  1.00  0.00     0.009 A 
ATOM     71  C   UNL A   1      38.264  31.431  33.217  1.00  0.00     0.001 A 
ATOM     72  C   UNL A   1      37.727  29.124  32.772  1.00  0.00     0.001 A 
ATOM     73  C   UNL A   1      37.333  30.459  32.864  1.00  0.00     0.000 A 
ENDBRANCH  49  68
BRANCH  61  74
ATOM     74  C   UNL A   1      44.666  24.263  33.748  1.00  0.00    -0.014 A 
ATOM     75  C   UNL A   1      43.919  23.077  33.782  1.00  0.00     0.009 A 
ATOM     76  C   UNL A   1      45.956  24.223  34.319  1.00  0.00     0.009 A 
ATOM     77  C   UNL A   1      44.420  21.923  34.399  1.00  0.00     0.001 A 
ATOM     78  C   UNL A   1      46.475  23.063  34.897  1.00  0.00     0.001 A 
ATOM     79  C   UNL A   1      45.699  21.913  34.947  1.00  0.00     0.000 A 
ENDBRANCH  61  74
ENDBRANCH  35  36
ENDBRANCH  27  30
ENDBRANCH  25  26
ENDBRANCH  24  25
ENDBRANCH   1  24
TORSDOF 14
ENDMDL
MODEL 2
REMARK VINA RESULT:     -11.6      3.706      8.755
REMARK SMILES Cc1ccc(CNc2ccc(C(=O)NCCCCNC(=O)c3ccc(-c4c5nc(c(-c6ccccc6)c6ccc([nH]6)c(-c6ccccc6)c6nc(c(-c7ccccc7)c7ccc4[nH]7)C=C6)C=C5)cc3)cc2Br)cc1
REMARK SMILES IDX 16 1 15 2 14 3 12 4 13 5 11 7 8 8 9 9 71 10 10 11 70 12
REMARK SMILES IDX 72 13 7 14 6 16 5 17 1 18 2 19 3 20 74 21 4 22 73 23 17 24
REMARK SMILES IDX 18 25 19 26 20 27 21 29 22 30 23 31 69 32 24 33 68 34 25 35
REMARK SMILES IDX 26 36 27 37 62 38 28 39 67 40 61 41 63 42 29 43 66 44 60 45
REMARK SMILES IDX 59 46 30 48 52 49 37 50 51 51 38 52 41 53 50 54 64 55 39 56
REMARK SMILES IDX 40 57 49 59 65 60 42 61 31 62 32 63 36 64 33 65 35 66 34 67
REMARK SMILES IDX 53 68 54 69 58 70 55 71 57 72 56 73 43 74 44 75 48 76 45 77
REMARK SMILES IDX 47 78 46 79
REMARK H PARENT 14 6 7 15 19 28 63 47 41 58
REMARK Flexibility Score: inf
ROOT
ATOM      1  C   UNL A   1      36.797  20.218  25.039  1.00  0.00     0.023 C 
ENDROOT
BRANCH   1   2
ATOM      2  C   UNL A   1      35.417  20.749  25.432  1.00  0.00     0.116 C 
BRANCH   2   3
ATOM      3  N   UNL A   1      34.345  19.771  25.299  1.00  0.00    -0.352 N 
ATOM      4  C   UNL A   1      33.019  19.845  24.942  1.00  0.00     0.251 C 
ATOM      5  O   UNL A   1      32.359  18.806  24.999  1.00  0.00    -0.269 OA
ATOM      6  H   UNL A   1      34.634  18.854  25.512  1.00  0.00     0.163 HD
BRANCH   4   7
ATOM      7  C   UNL A   1      32.336  21.098  24.526  1.00  0.00     0.041 A 
ATOM      8  C   UNL A   1      30.997  23.521  23.845  1.00  0.00     0.049 A 
ATOM      9  C   UNL A   1      31.558  22.692  22.871  1.00  0.00     0.028 A 
ATOM     10  C   UNL A   1      31.103  23.092  25.182  1.00  0.00     0.041 A 
ATOM     11  C   UNL A   1      32.155  21.472  23.199  1.00  0.00     0.016 A 
ATOM     12  C   UNL A   1      31.771  21.906  25.522  1.00  0.00     0.031 A 
ATOM     13  Br  UNL A   1      30.292  24.086  26.589  1.00  0.00    -0.049 Br
BRANCH   8  14
ATOM     14  N   UNL A   1      30.340  24.694  23.514  1.00  0.00    -0.380 N 
ATOM     15  H   UNL A   1      29.366  24.723  23.649  1.00  0.00     0.160 HD
BRANCH  14  16
ATOM     16  C   UNL A   1      30.978  25.884  22.982  1.00  0.00     0.148 C 
BRANCH  16  17
ATOM     17  C   UNL A   1      31.721  26.613  24.074  1.00  0.00    -0.029 A 
ATOM     18  C   UNL A   1      33.825  28.635  27.251  1.00  0.00     0.044 C 
ATOM     19  C   UNL A   1      33.082  27.922  26.162  1.00  0.00    -0.051 A 
ATOM     20  C   UNL A   1      33.762  27.029  25.326  1.00  0.00     0.004 A 
ATOM     21  C   UNL A   1      31.716  28.143  25.958  1.00  0.00     0.004 A 
ATOM     22  C   UNL A   1      33.085  26.374  24.298  1.00  0.00     0.006 A 
ATOM     23  C   UNL A   1      31.040  27.492  24.924  1.00  0.00     0.006 A 
ENDBRANCH  16  17
ENDBRANCH  14  16
ENDBRANCH   8  14
ENDBRANCH   4   7
ENDBRANCH   2   3
ENDBRANCH   1   2
BRANCH   1  24
ATOM     24  C   UNL A   1      37.823  21.277  24.640  1.00  0.00     0.023 C 
BRANCH  24  25
ATOM     25  C   UNL A   1      38.247  22.217  25.762  1.00  0.00     0.116 C 
BRANCH  25  26
ATOM     26  N   UNL A   1      39.654  22.167  26.130  1.00  0.00    -0.352 N 
ATOM     27  C   UNL A   1      40.506  23.190  26.539  1.00  0.00     0.251 C 
ATOM     28  H   UNL A   1      40.067  21.275  26.085  1.00  0.00     0.163 HD
ATOM     29  O   UNL A   1      41.683  22.961  26.716  1.00  0.00    -0.269 OA
BRANCH  27  30
ATOM     30  C   UNL A   1      39.947  24.525  26.906  1.00  0.00     0.039 A 
ATOM     31  C   UNL A   1      40.438  25.644  26.218  1.00  0.00     0.014 A 
ATOM     32  C   UNL A   1      39.150  24.707  28.029  1.00  0.00     0.014 A 
ATOM     33  C   UNL A   1      40.377  26.899  26.820  1.00  0.00     0.010 A 
ATOM     34  C   UNL A   1      39.189  25.921  28.685  1.00  0.00     0.010 A 
ATOM     35  C   UNL A   1      39.877  26.994  28.116  1.00  0.00    -0.014 A 
BRANCH  35  36
ATOM     36  C   UNL A   1      40.155  28.117  29.001  1.00  0.00     0.031 A 
ATOM     37  C   UNL A   1      39.148  29.184  29.194  1.00  0.00     0.074 A 
ATOM     38  C   UNL A   1      41.311  28.136  29.707  1.00  0.00     0.049 A 
ATOM     39  N   UNL A   1      39.427  30.391  29.560  1.00  0.00    -0.248 NA
ATOM     40  C   UNL A   1      37.726  28.976  28.939  1.00  0.00     0.031 C 
ATOM     41  C   UNL A   1      41.651  29.028  30.815  1.00  0.00     0.029 A 
ATOM     42  N   UNL A   1      42.500  27.438  29.514  1.00  0.00    -0.354 N 
ATOM     43  C   UNL A   1      38.238  31.005  29.888  1.00  0.00     0.074 A 
ATOM     44  C   UNL A   1      37.209  30.123  29.388  1.00  0.00     0.031 C 
ATOM     45  C   UNL A   1      42.988  29.051  30.956  1.00  0.00     0.029 A 
ATOM     46  C   UNL A   1      43.541  28.314  29.833  1.00  0.00     0.049 A 
ATOM     47  H   UNL A   1      42.590  26.506  29.211  1.00  0.00     0.167 HD
ATOM     48  C   UNL A   1      38.247  32.111  30.686  1.00  0.00     0.031 A 
ATOM     49  C   UNL A   1      44.426  28.837  28.930  1.00  0.00     0.031 A 
ATOM     50  C   UNL A   1      39.610  32.541  31.001  1.00  0.00     0.049 A 
ATOM     51  C   UNL A   1      44.415  30.359  28.890  1.00  0.00     0.074 A 
ATOM     52  C   UNL A   1      40.416  32.359  32.114  1.00  0.00     0.029 A 
ATOM     53  N   UNL A   1      40.440  32.998  29.983  1.00  0.00    -0.354 N 
ATOM     54  N   UNL A   1      43.439  31.088  29.356  1.00  0.00    -0.248 NA
ATOM     55  C   UNL A   1      45.463  31.174  28.271  1.00  0.00     0.031 C 
ATOM     56  C   UNL A   1      41.756  32.623  31.731  1.00  0.00     0.029 A 
ATOM     57  C   UNL A   1      41.758  32.998  30.399  1.00  0.00     0.049 A 
ATOM     58  H   UNL A   1      40.131  33.283  29.093  1.00  0.00     0.167 HD
ATOM     59  C   UNL A   1      43.694  32.412  29.120  1.00  0.00     0.074 A 
ATOM     60  C   UNL A   1      44.979  32.417  28.444  1.00  0.00     0.031 C 
ATOM     61  C   UNL A   1      42.820  33.393  29.485  1.00  0.00     0.031 A 
BRANCH  48  62
ATOM     62  C   UNL A   1      37.028  32.600  31.438  1.00  0.00    -0.014 A 
ATOM     63  C   UNL A   1      36.934  32.384  32.825  1.00  0.00     0.009 A 
ATOM     64  C   UNL A   1      35.915  33.215  30.840  1.00  0.00     0.009 A 
ATOM     65  C   UNL A   1      35.764  32.659  33.547  1.00  0.00     0.001 A 
ATOM     66  C   UNL A   1      34.726  33.456  31.544  1.00  0.00     0.001 A 
ATOM     67  C   UNL A   1      34.646  33.165  32.898  1.00  0.00     0.000 A 
ENDBRANCH  48  62
BRANCH  49  68
ATOM     68  C   UNL A   1      44.677  27.985  27.736  1.00  0.00    -0.014 A 
ATOM     69  C   UNL A   1      45.335  26.754  27.916  1.00  0.00     0.009 A 
ATOM     70  C   UNL A   1      43.984  28.207  26.538  1.00  0.00     0.009 A 
ATOM     71  C   UNL A   1      45.195  25.726  26.980  1.00  0.00     0.001 A 
ATOM     72  C   UNL A   1      43.857  27.178  25.597  1.00  0.00     0.001 A 
ATOM     73  C   UNL A   1      44.428  25.928  25.836  1.00  0.00     0.000 A 
ENDBRANCH  49  68
BRANCH  61  74
ATOM     74  C   UNL A   1      42.914  34.839  29.077  1.00  0.00    -0.014 A 
ATOM     75  C   UNL A   1      41.911  35.516  28.370  1.00  0.00     0.009 A 
ATOM     76  C   UNL A   1      43.997  35.611  29.549  1.00  0.00     0.009 A 
ATOM     77  C   UNL A   1      42.011  36.888  28.106  1.00  0.00     0.001 A 
ATOM     78  C   UNL A   1      44.079  36.987  29.325  1.00  0.00     0.001 A 
ATOM     79  C   UNL A   1      43.089  37.624  28.591  1.00  0.00     0.000 A 
ENDBRANCH  61  74
ENDBRANCH  35  36
ENDBRANCH  27  30
ENDBRANCH  25  26
ENDBRANCH  24  25
ENDBRANCH   1  24
TORSDOF 14
ENDMDL
MODEL 3
REMARK VINA RESULT:     -11.3      2.055      2.708
REMARK SMILES Cc1ccc(CNc2ccc(C(=O)NCCCCNC(=O)c3ccc(-c4c5nc(c(-c6ccccc6)c6ccc([nH]6)c(-c6ccccc6)c6nc(c(-c7ccccc7)c7ccc4[nH]7)C=C6)C=C5)cc3)cc2Br)cc1
REMARK SMILES IDX 16 1 15 2 14 3 12 4 13 5 11 7 8 8 9 9 71 10 10 11 70 12
REMARK SMILES IDX 72 13 7 14 6 16 5 17 1 18 2 19 3 20 74 21 4 22 73 23 17 24
REMARK SMILES IDX 18 25 19 26 20 27 21 29 22 30 23 31 69 32 24 33 68 34 25 35
REMARK SMILES IDX 26 36 27 37 62 38 28 39 67 40 61 41 63 42 29 43 66 44 60 45
REMARK SMILES IDX 59 46 30 48 52 49 37 50 51 51 38 52 41 53 50 54 64 55 39 56
REMARK SMILES IDX 40 57 49 59 65 60 42 61 31 62 32 63 36 64 33 65 35 66 34 67
REMARK SMILES IDX 53 68 54 69 58 70 55 71 57 72 56 73 43 74 44 75 48 76 45 77
REMARK SMILES IDX 47 78 46 79
REMARK H PARENT 14 6 7 15 19 28 63 47 41 58
REMARK Flexibility Score: inf
ROOT
ATOM      1  C   UNL A   1      33.156  29.476  27.243  1.00  0.00     0.023 C 
ENDROOT
BRANCH   1   2
ATOM      2  C   UNL A   1      31.790  28.792  27.148  1.00  0.00     0.116 C 
BRANCH   2   3
ATOM      3  N   UNL A   1      31.395  28.445  25.789  1.00  0.00    -0.352 N 
ATOM      4  C   UNL A   1      31.344  27.270  25.077  1.00  0.00     0.251 C 
ATOM      5  O   UNL A   1      31.015  27.340  23.891  1.00  0.00    -0.269 OA
ATOM      6  H   UNL A   1      31.097  29.224  25.266  1.00  0.00     0.163 HD
BRANCH   4   7
ATOM      7  C   UNL A   1      31.691  25.938  25.638  1.00  0.00     0.041 A 
ATOM      8  C   UNL A   1      32.238  23.362  26.733  1.00  0.00     0.049 A 
ATOM      9  C   UNL A   1      33.261  24.230  26.345  1.00  0.00     0.028 A 
ATOM     10  C   UNL A   1      30.918  23.830  26.579  1.00  0.00     0.041 A 
ATOM     11  C   UNL A   1      32.995  25.517  25.872  1.00  0.00     0.016 A 
ATOM     12  C   UNL A   1      30.644  25.092  26.030  1.00  0.00     0.031 A 
ATOM     13  Br  UNL A   1      29.440  22.779  27.162  1.00  0.00    -0.049 Br
BRANCH   8  14
ATOM     14  N   UNL A   1      32.503  22.115  27.271  1.00  0.00    -0.380 N 
ATOM     15  H   UNL A   1      31.886  21.777  27.959  1.00  0.00     0.160 HD
BRANCH  14  16
ATOM     16  C   UNL A   1      33.621  21.268  26.899  1.00  0.00     0.148 C 
BRANCH  16  17
ATOM     17  C   UNL A   1      33.269  20.438  25.689  1.00  0.00    -0.029 A 
ATOM     18  C   UNL A   1      32.183  18.083  22.242  1.00  0.00     0.044 C 
ATOM     19  C   UNL A   1      32.540  18.898  23.448  1.00  0.00    -0.051 A 
ATOM     20  C   UNL A   1      32.839  20.257  23.304  1.00  0.00     0.004 A 
ATOM     21  C   UNL A   1      32.592  18.319  24.720  1.00  0.00     0.004 A 
ATOM     22  C   UNL A   1      33.192  21.022  24.416  1.00  0.00     0.006 A 
ATOM     23  C   UNL A   1      32.951  19.083  25.832  1.00  0.00     0.006 A 
ENDBRANCH  16  17
ENDBRANCH  14  16
ENDBRANCH   8  14
ENDBRANCH   4   7
ENDBRANCH   2   3
ENDBRANCH   1   2
BRANCH   1  24
ATOM     24  C   UNL A   1      33.126  30.964  27.586  1.00  0.00     0.023 C 
BRANCH  24  25
ATOM     25  C   UNL A   1      34.487  31.650  27.589  1.00  0.00     0.116 C 
BRANCH  25  26
ATOM     26  N   UNL A   1      34.963  32.103  28.887  1.00  0.00    -0.352 N 
ATOM     27  C   UNL A   1      35.862  31.504  29.767  1.00  0.00     0.251 C 
ATOM     28  H   UNL A   1      34.596  32.965  29.190  1.00  0.00     0.163 HD
ATOM     29  O   UNL A   1      36.064  32.000  30.854  1.00  0.00    -0.269 OA
BRANCH  27  30
ATOM     30  C   UNL A   1      36.687  30.344  29.316  1.00  0.00     0.039 A 
ATOM     31  C   UNL A   1      36.848  29.277  30.211  1.00  0.00     0.014 A 
ATOM     32  C   UNL A   1      37.459  30.393  28.162  1.00  0.00     0.014 A 
ATOM     33  C   UNL A   1      37.965  28.451  30.097  1.00  0.00     0.010 A 
ATOM     34  C   UNL A   1      38.626  29.658  28.110  1.00  0.00     0.010 A 
ATOM     35  C   UNL A   1      38.917  28.746  29.125  1.00  0.00    -0.014 A 
BRANCH  35  36
ATOM     36  C   UNL A   1      40.291  28.264  29.178  1.00  0.00     0.031 A 
ATOM     37  C   UNL A   1      40.640  26.940  28.616  1.00  0.00     0.074 A 
ATOM     38  C   UNL A   1      41.259  29.070  29.674  1.00  0.00     0.049 A 
ATOM     39  N   UNL A   1      41.659  26.237  28.987  1.00  0.00    -0.248 NA
ATOM     40  C   UNL A   1      39.824  26.278  27.603  1.00  0.00     0.031 C 
ATOM     41  C   UNL A   1      42.705  28.870  29.579  1.00  0.00     0.029 A 
ATOM     42  N   UNL A   1      41.169  30.196  30.488  1.00  0.00    -0.354 N 
ATOM     43  C   UNL A   1      41.808  25.218  28.073  1.00  0.00     0.074 A 
ATOM     44  C   UNL A   1      40.589  25.226  27.298  1.00  0.00     0.031 C 
ATOM     45  C   UNL A   1      43.305  29.601  30.535  1.00  0.00     0.029 A 
ATOM     46  C   UNL A   1      42.250  30.146  31.372  1.00  0.00     0.049 A 
ATOM     47  H   UNL A   1      40.477  30.895  30.447  1.00  0.00     0.167 HD
ATOM     48  C   UNL A   1      43.009  24.581  27.963  1.00  0.00     0.031 A 
ATOM     49  C   UNL A   1      42.147  29.930  32.720  1.00  0.00     0.031 A 
ATOM     50  C   UNL A   1      43.967  25.054  28.962  1.00  0.00     0.049 A 
ATOM     51  C   UNL A   1      42.914  28.703  33.192  1.00  0.00     0.074 A 
ATOM     52  C   UNL A   1      45.018  25.956  28.900  1.00  0.00     0.029 A 
ATOM     53  N   UNL A   1      43.722  24.827  30.312  1.00  0.00    -0.354 N 
ATOM     54  N   UNL A   1      43.308  27.746  32.398  1.00  0.00    -0.248 NA
ATOM     55  C   UNL A   1      43.243  28.426  34.592  1.00  0.00     0.031 C 
ATOM     56  C   UNL A   1      45.343  26.341  30.226  1.00  0.00     0.029 A 
ATOM     57  C   UNL A   1      44.515  25.648  31.091  1.00  0.00     0.049 A 
ATOM     58  H   UNL A   1      43.076  24.173  30.663  1.00  0.00     0.167 HD
ATOM     59  C   UNL A   1      43.915  26.758  33.125  1.00  0.00     0.074 A 
ATOM     60  C   UNL A   1      43.858  27.233  34.496  1.00  0.00     0.031 C 
ATOM     61  C   UNL A   1      44.400  25.625  32.542  1.00  0.00     0.031 A 
BRANCH  48  62
ATOM     62  C   UNL A   1      43.409  23.771  26.749  1.00  0.00    -0.014 A 
ATOM     63  C   UNL A   1      44.030  22.520  26.921  1.00  0.00     0.009 A 
ATOM     64  C   UNL A   1      43.267  24.202  25.419  1.00  0.00     0.009 A 
ATOM     65  C   UNL A   1      44.575  21.802  25.848  1.00  0.00     0.001 A 
ATOM     66  C   UNL A   1      43.845  23.511  24.343  1.00  0.00     0.001 A 
ATOM     67  C   UNL A   1      44.511  22.315  24.560  1.00  0.00     0.000 A 
ENDBRANCH  48  62
BRANCH  49  68
ATOM     68  C   UNL A   1      40.869  30.385  33.329  1.00  0.00    -0.014 A 
ATOM     69  C   UNL A   1      40.653  31.768  33.484  1.00  0.00     0.009 A 
ATOM     70  C   UNL A   1      39.770  29.520  33.420  1.00  0.00     0.009 A 
ATOM     71  C   UNL A   1      39.357  32.280  33.597  1.00  0.00     0.001 A 
ATOM     72  C   UNL A   1      38.474  30.037  33.546  1.00  0.00     0.001 A 
ATOM     73  C   UNL A   1      38.266  31.415  33.595  1.00  0.00     0.000 A 
ENDBRANCH  49  68
BRANCH  61  74
ATOM     74  C   UNL A   1      44.881  24.404  33.280  1.00  0.00    -0.014 A 
ATOM     75  C   UNL A   1      46.181  24.260  33.784  1.00  0.00     0.009 A 
ATOM     76  C   UNL A   1      43.948  23.401  33.621  1.00  0.00     0.009 A 
ATOM     77  C   UNL A   1      46.542  23.144  34.550  1.00  0.00     0.001 A 
ATOM     78  C   UNL A   1      44.293  22.309  34.420  1.00  0.00     0.001 A 
ATOM     79  C   UNL A   1      45.597  22.175  34.875  1.00  0.00     0.000 A 
ENDBRANCH  61  74
ENDBRANCH  35  36
ENDBRANCH  27  30
ENDBRANCH  25  26
ENDBRANCH  24  25
ENDBRANCH   1  24
TORSDOF 14
ENDMDL
