MODEL 1
REMARK VINA RESULT:      -9.8      0.000      0.000
REMARK SMILES Cc1c(CC(=O)N[C@@H](C)C(=O)NCCCCNC(=O)c2ccc(-c3c4nc(c(-c5ccccc5)c5ccc([nH]5)c(-c5ccccc5)c5nc(c(-c6ccccc6)c6ccc3[nH]6)C=C5)C=C4)cc2)c(=O)oc2cc3oc4c(c3cc12)CCCC4
REMARK SMILES IDX 14 1 13 2 12 3 10 4 11 5 8 7 9 8 7 9 5 10 6 11 4 13 3 14
REMARK SMILES IDX 1 15 2 16 79 17 68 18 71 19 78 20 69 21 70 22 72 23 77 24
REMARK SMILES IDX 73 25 76 26 74 27 75 28 80 29 83 30 81 31 82 32 15 33 16 34
REMARK SMILES IDX 17 35 18 36 19 38 20 39 21 40 67 41 22 42 66 43 23 44 24 45
REMARK SMILES IDX 25 46 60 47 26 48 65 49 59 50 61 51 27 52 64 53 58 54 57 55
REMARK SMILES IDX 28 57 50 58 35 59 49 60 36 61 39 62 48 63 62 64 37 65 38 66
REMARK SMILES IDX 47 68 63 69 40 70 29 71 30 72 34 73 31 74 33 75 32 76 51 77
REMARK SMILES IDX 52 78 56 79 53 80 55 81 54 82 41 83 42 84 46 85 43 86 45 87
REMARK SMILES IDX 44 88
REMARK H PARENT 12 6 7 12 17 37 61 56 39 67
REMARK Flexibility Score: inf
ROOT
ATOM      1  C   UNL A   1      44.566  33.228  27.158  1.00  0.00     0.023 C 
ENDROOT
BRANCH   1   2
ATOM      2  C   UNL A   1      44.171  31.839  26.664  1.00  0.00     0.116 C 
BRANCH   2   3
ATOM      3  N   UNL A   1      45.226  31.229  25.865  1.00  0.00    -0.354 N 
ATOM      4  C   UNL A   1      46.042  30.166  26.104  1.00  0.00     0.242 C 
ATOM      5  O   UNL A   1      46.731  29.752  25.169  1.00  0.00    -0.273 OA
ATOM      6  H   UNL A   1      45.375  31.665  24.994  1.00  0.00     0.163 HD
BRANCH   4   7
ATOM      7  C   UNL A   1      46.035  29.466  27.462  1.00  0.00     0.168 C 
ATOM      8  C   UNL A   1      46.913  30.233  28.449  1.00  0.00     0.041 C 
BRANCH   7   9
ATOM      9  N   UNL A   1      46.425  28.066  27.274  1.00  0.00    -0.344 N 
ATOM     10  C   UNL A   1      45.706  26.932  27.495  1.00  0.00     0.225 C 
ATOM     11  O   UNL A   1      46.177  25.866  27.094  1.00  0.00    -0.275 OA
ATOM     12  H   UNL A   1      47.340  27.927  26.940  1.00  0.00     0.164 HD
BRANCH  10  13
ATOM     13  C   UNL A   1      44.382  26.986  28.242  1.00  0.00     0.143 C 
BRANCH  13  14
ATOM     14  C   UNL A   1      44.401  26.041  29.419  1.00  0.00     0.051 A 
ATOM     15  C   UNL A   1      45.879  27.523  30.829  1.00  0.00     0.046 C 
ATOM     16  C   UNL A   1      44.969  26.336  30.607  1.00  0.00    -0.029 A 
ATOM     17  C   UNL A   1      44.748  25.428  31.740  1.00  0.00     0.022 A 
ATOM     18  C   UNL A   1      43.671  24.762  29.201  1.00  0.00     0.340 A 
ATOM     19  C   UNL A   1      44.170  24.178  31.508  1.00  0.00     0.142 A 
ATOM     20  C   UNL A   1      45.217  25.737  33.021  1.00  0.00     0.024 A 
ATOM     21  O   UNL A   1      43.141  24.496  28.128  1.00  0.00    -0.246 OA
ATOM     22  O   UNL A   1      43.609  23.872  30.257  1.00  0.00    -0.422 OA
ATOM     23  C   UNL A   1      44.192  23.133  32.436  1.00  0.00     0.095 A 
ATOM     24  C   UNL A   1      45.433  24.667  33.895  1.00  0.00     0.025 A 
ATOM     25  C   UNL A   1      44.973  23.399  33.550  1.00  0.00     0.138 A 
ATOM     26  C   UNL A   1      46.330  24.490  34.974  1.00  0.00     0.001 A 
ATOM     27  O   UNL A   1      45.574  22.452  34.328  1.00  0.00    -0.461 OA
ATOM     28  C   UNL A   1      46.520  23.124  35.027  1.00  0.00     0.108 A 
ATOM     29  C   UNL A   1      47.396  25.400  35.466  1.00  0.00     0.040 C 
ATOM     30  C   UNL A   1      47.877  22.531  35.182  1.00  0.00     0.076 C 
ATOM     31  C   UNL A   1      48.740  24.981  34.830  1.00  0.00     0.005 C 
ATOM     32  C   UNL A   1      48.834  23.483  34.408  1.00  0.00     0.008 C 
ENDBRANCH  13  14
ENDBRANCH  10  13
ENDBRANCH   7   9
ENDBRANCH   4   7
ENDBRANCH   2   3
ENDBRANCH   1   2
BRANCH   1  33
ATOM     33  C   UNL A   1      44.629  34.282  26.051  1.00  0.00     0.023 C 
BRANCH  33  34
ATOM     34  C   UNL A   1      43.315  35.036  25.847  1.00  0.00     0.116 C 
BRANCH  34  35
ATOM     35  N   UNL A   1      43.423  36.446  26.167  1.00  0.00    -0.352 N 
ATOM     36  C   UNL A   1      43.180  37.057  27.380  1.00  0.00     0.251 C 
ATOM     37  H   UNL A   1      43.703  37.038  25.432  1.00  0.00     0.163 HD
ATOM     38  O   UNL A   1      43.192  38.267  27.499  1.00  0.00    -0.269 OA
BRANCH  36  39
ATOM     39  C   UNL A   1      42.841  36.186  28.522  1.00  0.00     0.039 A 
ATOM     40  C   UNL A   1      43.803  35.911  29.500  1.00  0.00     0.014 A 
ATOM     41  C   UNL A   1      41.594  35.564  28.542  1.00  0.00     0.014 A 
ATOM     42  C   UNL A   1      43.573  34.904  30.426  1.00  0.00     0.010 A 
ATOM     43  C   UNL A   1      41.345  34.590  29.503  1.00  0.00     0.010 A 
ATOM     44  C   UNL A   1      42.349  34.235  30.423  1.00  0.00    -0.014 A 
BRANCH  44  45
ATOM     45  C   UNL A   1      42.105  33.262  31.498  1.00  0.00     0.031 A 
ATOM     46  C   UNL A   1      40.718  33.322  32.017  1.00  0.00     0.074 A 
ATOM     47  C   UNL A   1      42.722  32.063  31.569  1.00  0.00     0.049 A 
ATOM     48  N   UNL A   1      39.778  32.700  31.378  1.00  0.00    -0.248 NA
ATOM     49  C   UNL A   1      40.231  34.257  33.024  1.00  0.00     0.031 C 
ATOM     50  C   UNL A   1      43.447  31.429  30.460  1.00  0.00     0.029 A 
ATOM     51  N   UNL A   1      42.651  31.082  32.533  1.00  0.00    -0.354 N 
ATOM     52  C   UNL A   1      38.574  33.206  31.812  1.00  0.00     0.074 A 
ATOM     53  C   UNL A   1      38.900  34.140  32.868  1.00  0.00     0.031 C 
ATOM     54  C   UNL A   1      43.594  30.117  30.735  1.00  0.00     0.029 A 
ATOM     55  C   UNL A   1      43.136  29.860  32.093  1.00  0.00     0.049 A 
ATOM     56  H   UNL A   1      42.295  31.233  33.438  1.00  0.00     0.167 HD
ATOM     57  C   UNL A   1      37.402  32.816  31.243  1.00  0.00     0.031 A 
ATOM     58  C   UNL A   1      42.823  28.639  32.591  1.00  0.00     0.031 A 
ATOM     59  C   UNL A   1      37.455  31.826  30.185  1.00  0.00     0.049 A 
ATOM     60  C   UNL A   1      41.424  28.418  32.082  1.00  0.00     0.074 A 
ATOM     61  C   UNL A   1      36.738  31.488  29.054  1.00  0.00     0.029 A 
ATOM     62  N   UNL A   1      38.473  30.915  30.238  1.00  0.00    -0.354 N 
ATOM     63  N   UNL A   1      41.099  28.021  30.881  1.00  0.00    -0.248 NA
ATOM     64  C   UNL A   1      40.291  28.892  32.896  1.00  0.00     0.031 C 
ATOM     65  C   UNL A   1      37.281  30.260  28.546  1.00  0.00     0.029 A 
ATOM     66  C   UNL A   1      38.290  29.853  29.401  1.00  0.00     0.049 A 
ATOM     67  H   UNL A   1      39.261  31.016  30.820  1.00  0.00     0.167 HD
ATOM     68  C   UNL A   1      39.796  28.466  30.702  1.00  0.00     0.074 A 
ATOM     69  C   UNL A   1      39.303  28.852  32.008  1.00  0.00     0.031 C 
ATOM     70  C   UNL A   1      39.259  28.788  29.491  1.00  0.00     0.031 A 
BRANCH  57  71
ATOM     71  C   UNL A   1      36.090  33.195  31.813  1.00  0.00    -0.014 A 
ATOM     72  C   UNL A   1      35.632  32.766  33.061  1.00  0.00     0.009 A 
ATOM     73  C   UNL A   1      35.333  34.135  31.091  1.00  0.00     0.009 A 
ATOM     74  C   UNL A   1      34.438  33.284  33.578  1.00  0.00     0.001 A 
ATOM     75  C   UNL A   1      34.148  34.650  31.608  1.00  0.00     0.001 A 
ATOM     76  C   UNL A   1      33.701  34.226  32.857  1.00  0.00     0.000 A 
ENDBRANCH  57  71
BRANCH  58  77
ATOM     77  C   UNL A   1      43.232  28.372  34.005  1.00  0.00    -0.014 A 
ATOM     78  C   UNL A   1      42.538  27.541  34.893  1.00  0.00     0.009 A 
ATOM     79  C   UNL A   1      44.437  28.942  34.469  1.00  0.00     0.009 A 
ATOM     80  C   UNL A   1      42.956  27.390  36.222  1.00  0.00     0.001 A 
ATOM     81  C   UNL A   1      44.874  28.769  35.786  1.00  0.00     0.001 A 
ATOM     82  C   UNL A   1      44.116  28.013  36.671  1.00  0.00     0.000 A 
ENDBRANCH  58  77
BRANCH  70  83
ATOM     83  C   UNL A   1      39.843  28.165  28.276  1.00  0.00    -0.014 A 
ATOM     84  C   UNL A   1      39.718  26.791  28.028  1.00  0.00     0.009 A 
ATOM     85  C   UNL A   1      40.599  28.948  27.392  1.00  0.00     0.009 A 
ATOM     86  C   UNL A   1      40.343  26.216  26.920  1.00  0.00     0.001 A 
ATOM     87  C   UNL A   1      41.221  28.373  26.285  1.00  0.00     0.001 A 
ATOM     88  C   UNL A   1      41.095  27.006  26.052  1.00  0.00     0.000 A 
ENDBRANCH  70  83
ENDBRANCH  44  45
ENDBRANCH  36  39
ENDBRANCH  34  35
ENDBRANCH  33  34
ENDBRANCH   1  33
TORSDOF 14
ENDMDL
MODEL 2
REMARK VINA RESULT:      -9.7      3.666     11.361
REMARK SMILES Cc1c(CC(=O)N[C@@H](C)C(=O)NCCCCNC(=O)c2ccc(-c3c4nc(c(-c5ccccc5)c5ccc([nH]5)c(-c5ccccc5)c5nc(c(-c6ccccc6)c6ccc3[nH]6)C=C5)C=C4)cc2)c(=O)oc2cc3oc4c(c3cc12)CCCC4
REMARK SMILES IDX 14 1 13 2 12 3 10 4 11 5 8 7 9 8 7 9 5 10 6 11 4 13 3 14
REMARK SMILES IDX 1 15 2 16 79 17 68 18 71 19 78 20 69 21 70 22 72 23 77 24
REMARK SMILES IDX 73 25 76 26 74 27 75 28 80 29 83 30 81 31 82 32 15 33 16 34
REMARK SMILES IDX 17 35 18 36 19 38 20 39 21 40 67 41 22 42 66 43 23 44 24 45
REMARK SMILES IDX 25 46 60 47 26 48 65 49 59 50 61 51 27 52 64 53 58 54 57 55
REMARK SMILES IDX 28 57 50 58 35 59 49 60 36 61 39 62 48 63 62 64 37 65 38 66
REMARK SMILES IDX 47 68 63 69 40 70 29 71 30 72 34 73 31 74 33 75 32 76 51 77
REMARK SMILES IDX 52 78 56 79 53 80 55 81 54 82 41 83 42 84 46 85 43 86 45 87
REMARK SMILES IDX 44 88
REMARK H PARENT 12 6 7 12 17 37 61 56 39 67
REMARK Flexibility Score: inf
ROOT
ATOM      1  C   UNL A   1      42.650  26.949  34.921  1.00  0.00     0.023 C 
ENDROOT
BRANCH   1   2
ATOM      2  C   UNL A   1      41.524  27.919  35.268  1.00  0.00     0.116 C 
BRANCH   2   3
ATOM      3  N   UNL A   1      41.930  28.880  36.285  1.00  0.00    -0.354 N 
ATOM      4  C   UNL A   1      42.037  30.236  36.257  1.00  0.00     0.242 C 
ATOM      5  O   UNL A   1      42.235  30.817  37.326  1.00  0.00    -0.273 OA
ATOM      6  H   UNL A   1      42.173  28.474  37.149  1.00  0.00     0.163 HD
BRANCH   4   7
ATOM      7  C   UNL A   1      41.831  31.009  34.955  1.00  0.00     0.168 C 
ATOM      8  C   UNL A   1      43.082  30.908  34.085  1.00  0.00     0.041 C 
BRANCH   7   9
ATOM      9  N   UNL A   1      41.433  32.381  35.277  1.00  0.00    -0.344 N 
ATOM     10  C   UNL A   1      40.302  32.834  35.885  1.00  0.00     0.225 C 
ATOM     11  O   UNL A   1      40.263  34.020  36.217  1.00  0.00    -0.275 OA
ATOM     12  H   UNL A   1      42.077  33.078  35.015  1.00  0.00     0.164 HD
BRANCH  10  13
ATOM     13  C   UNL A   1      39.119  31.905  36.112  1.00  0.00     0.143 C 
BRANCH  13  14
ATOM     14  C   UNL A   1      37.929  32.357  35.303  1.00  0.00     0.051 A 
ATOM     15  C   UNL A   1      38.590  31.051  33.247  1.00  0.00     0.046 C 
ATOM     16  C   UNL A   1      37.636  31.884  34.073  1.00  0.00    -0.029 A 
ATOM     17  C   UNL A   1      36.347  32.241  33.468  1.00  0.00     0.022 A 
ATOM     18  C   UNL A   1      37.039  33.328  35.995  1.00  0.00     0.340 A 
ATOM     19  C   UNL A   1      35.570  33.241  34.059  1.00  0.00     0.142 A 
ATOM     20  C   UNL A   1      35.940  31.692  32.247  1.00  0.00     0.024 A 
ATOM     21  O   UNL A   1      37.293  33.750  37.118  1.00  0.00    -0.246 OA
ATOM     22  O   UNL A   1      35.903  33.746  35.326  1.00  0.00    -0.422 OA
ATOM     23  C   UNL A   1      34.497  33.865  33.418  1.00  0.00     0.095 A 
ATOM     24  C   UNL A   1      35.007  32.420  31.501  1.00  0.00     0.025 A 
ATOM     25  C   UNL A   1      34.367  33.510  32.084  1.00  0.00     0.138 A 
ATOM     26  C   UNL A   1      34.765  32.508  30.110  1.00  0.00     0.001 A 
ATOM     27  O   UNL A   1      33.786  34.285  31.122  1.00  0.00    -0.461 OA
ATOM     28  C   UNL A   1      34.214  33.762  29.948  1.00  0.00     0.108 A 
ATOM     29  C   UNL A   1      35.510  31.881  28.988  1.00  0.00     0.040 C 
ATOM     30  C   UNL A   1      34.657  34.673  28.856  1.00  0.00     0.076 C 
ATOM     31  C   UNL A   1      36.540  32.896  28.446  1.00  0.00     0.005 C 
ATOM     32  C   UNL A   1      36.177  34.395  28.679  1.00  0.00     0.008 C 
ENDBRANCH  13  14
ENDBRANCH  10  13
ENDBRANCH   7   9
ENDBRANCH   4   7
ENDBRANCH   2   3
ENDBRANCH   1   2
BRANCH   1  33
ATOM     33  C   UNL A   1      42.840  25.831  35.946  1.00  0.00     0.023 C 
BRANCH  33  34
ATOM     34  C   UNL A   1      42.445  24.449  35.426  1.00  0.00     0.116 C 
BRANCH  34  35
ATOM     35  N   UNL A   1      43.413  23.424  35.767  1.00  0.00    -0.352 N 
ATOM     36  C   UNL A   1      44.542  23.063  35.061  1.00  0.00     0.251 C 
ATOM     37  H   UNL A   1      43.244  22.927  36.600  1.00  0.00     0.163 HD
ATOM     38  O   UNL A   1      45.219  22.107  35.387  1.00  0.00    -0.269 OA
BRANCH  36  39
ATOM     39  C   UNL A   1      44.867  23.846  33.853  1.00  0.00     0.039 A 
ATOM     40  C   UNL A   1      45.800  24.887  33.926  1.00  0.00     0.014 A 
ATOM     41  C   UNL A   1      44.150  23.600  32.684  1.00  0.00     0.014 A 
ATOM     42  C   UNL A   1      45.918  25.778  32.869  1.00  0.00     0.010 A 
ATOM     43  C   UNL A   1      44.307  24.465  31.606  1.00  0.00     0.010 A 
ATOM     44  C   UNL A   1      45.164  25.575  31.712  1.00  0.00    -0.014 A 
BRANCH  44  45
ATOM     45  C   UNL A   1      45.413  26.473  30.575  1.00  0.00     0.031 A 
ATOM     46  C   UNL A   1      45.453  25.754  29.280  1.00  0.00     0.074 A 
ATOM     47  C   UNL A   1      44.998  27.757  30.537  1.00  0.00     0.049 A 
ATOM     48  N   UNL A   1      44.338  25.470  28.682  1.00  0.00    -0.248 NA
ATOM     49  C   UNL A   1      46.612  25.062  28.730  1.00  0.00     0.031 C 
ATOM     50  C   UNL A   1      43.991  28.336  31.436  1.00  0.00     0.029 A 
ATOM     51  N   UNL A   1      45.205  28.731  29.587  1.00  0.00    -0.354 N 
ATOM     52  C   UNL A   1      44.605  24.502  27.740  1.00  0.00     0.074 A 
ATOM     53  C   UNL A   1      46.040  24.310  27.773  1.00  0.00     0.031 C 
ATOM     54  C   UNL A   1      43.538  29.485  30.893  1.00  0.00     0.029 A 
ATOM     55  C   UNL A   1      44.336  29.803  29.718  1.00  0.00     0.049 A 
ATOM     56  H   UNL A   1      45.897  28.673  28.889  1.00  0.00     0.167 HD
ATOM     57  C   UNL A   1      43.605  23.927  27.021  1.00  0.00     0.031 A 
ATOM     58  C   UNL A   1      43.975  30.676  28.744  1.00  0.00     0.031 A 
ATOM     59  C   UNL A   1      42.250  24.387  27.251  1.00  0.00     0.049 A 
ATOM     60  C   UNL A   1      43.048  29.857  27.888  1.00  0.00     0.074 A 
ATOM     61  C   UNL A   1      40.967  23.878  27.196  1.00  0.00     0.029 A 
ATOM     62  N   UNL A   1      42.092  25.690  27.635  1.00  0.00    -0.354 N 
ATOM     63  N   UNL A   1      41.792  29.606  28.141  1.00  0.00    -0.248 NA
ATOM     64  C   UNL A   1      43.618  29.068  26.782  1.00  0.00     0.031 C 
ATOM     65  C   UNL A   1      40.058  24.969  27.404  1.00  0.00     0.029 A 
ATOM     66  C   UNL A   1      40.804  26.127  27.541  1.00  0.00     0.049 A 
ATOM     67  H   UNL A   1      42.835  26.256  27.949  1.00  0.00     0.167 HD
ATOM     68  C   UNL A   1      41.514  28.445  27.433  1.00  0.00     0.074 A 
ATOM     69  C   UNL A   1      42.610  28.247  26.507  1.00  0.00     0.031 C 
ATOM     70  C   UNL A   1      40.578  27.527  27.808  1.00  0.00     0.031 A 
BRANCH  57  71
ATOM     71  C   UNL A   1      43.880  23.030  25.876  1.00  0.00    -0.014 A 
ATOM     72  C   UNL A   1      44.328  23.475  24.630  1.00  0.00     0.009 A 
ATOM     73  C   UNL A   1      43.791  21.648  26.119  1.00  0.00     0.009 A 
ATOM     74  C   UNL A   1      44.692  22.544  23.650  1.00  0.00     0.001 A 
ATOM     75  C   UNL A   1      44.155  20.724  25.144  1.00  0.00     0.001 A 
ATOM     76  C   UNL A   1      44.610  21.173  23.908  1.00  0.00     0.000 A 
ENDBRANCH  57  71
BRANCH  58  77
ATOM     77  C   UNL A   1      45.064  31.535  28.185  1.00  0.00    -0.014 A 
ATOM     78  C   UNL A   1      44.973  32.262  26.990  1.00  0.00     0.009 A 
ATOM     79  C   UNL A   1      46.249  31.684  28.936  1.00  0.00     0.009 A 
ATOM     80  C   UNL A   1      46.061  32.998  26.504  1.00  0.00     0.001 A 
ATOM     81  C   UNL A   1      47.327  32.443  28.469  1.00  0.00     0.001 A 
ATOM     82  C   UNL A   1      47.242  33.079  27.237  1.00  0.00     0.000 A 
ENDBRANCH  58  77
BRANCH  70  83
ATOM     83  C   UNL A   1      39.452  27.982  28.663  1.00  0.00    -0.014 A 
ATOM     84  C   UNL A   1      38.411  28.764  28.143  1.00  0.00     0.009 A 
ATOM     85  C   UNL A   1      39.461  27.690  30.034  1.00  0.00     0.009 A 
ATOM     86  C   UNL A   1      37.405  29.246  28.982  1.00  0.00     0.001 A 
ATOM     87  C   UNL A   1      38.455  28.170  30.871  1.00  0.00     0.001 A 
ATOM     88  C   UNL A   1      37.430  28.952  30.345  1.00  0.00     0.000 A 
ENDBRANCH  70  83
ENDBRANCH  44  45
ENDBRANCH  36  39
ENDBRANCH  34  35
ENDBRANCH  33  34
ENDBRANCH   1  33
TORSDOF 14
ENDMDL
MODEL 3
REMARK VINA RESULT:      -9.6      6.272     10.717
REMARK SMILES Cc1c(CC(=O)N[C@@H](C)C(=O)NCCCCNC(=O)c2ccc(-c3c4nc(c(-c5ccccc5)c5ccc([nH]5)c(-c5ccccc5)c5nc(c(-c6ccccc6)c6ccc3[nH]6)C=C5)C=C4)cc2)c(=O)oc2cc3oc4c(c3cc12)CCCC4
REMARK SMILES IDX 14 1 13 2 12 3 10 4 11 5 8 7 9 8 7 9 5 10 6 11 4 13 3 14
REMARK SMILES IDX 1 15 2 16 79 17 68 18 71 19 78 20 69 21 70 22 72 23 77 24
REMARK SMILES IDX 73 25 76 26 74 27 75 28 80 29 83 30 81 31 82 32 15 33 16 34
REMARK SMILES IDX 17 35 18 36 19 38 20 39 21 40 67 41 22 42 66 43 23 44 24 45
REMARK SMILES IDX 25 46 60 47 26 48 65 49 59 50 61 51 27 52 64 53 58 54 57 55
REMARK SMILES IDX 28 57 50 58 35 59 49 60 36 61 39 62 48 63 62 64 37 65 38 66
REMARK SMILES IDX 47 68 63 69 40 70 29 71 30 72 34 73 31 74 33 75 32 76 51 77
REMARK SMILES IDX 52 78 56 79 53 80 55 81 54 82 41 83 42 84 46 85 43 86 45 87
REMARK SMILES IDX 44 88
REMARK H PARENT 12 6 7 12 17 37 61 56 39 67
REMARK Flexibility Score: inf
ROOT
ATOM      1  C   UNL A   1      34.878  29.295  27.486  1.00  0.00     0.023 C 
ENDROOT
BRANCH   1   2
ATOM      2  C   UNL A   1      34.148  28.641  26.317  1.00  0.00     0.116 C 
BRANCH   2   3
ATOM      3  N   UNL A   1      33.044  29.462  25.840  1.00  0.00    -0.354 N 
ATOM      4  C   UNL A   1      31.970  29.169  25.058  1.00  0.00     0.242 C 
ATOM      5  O   UNL A   1      31.085  30.021  24.956  1.00  0.00    -0.273 OA
ATOM      6  H   UNL A   1      33.083  30.401  26.137  1.00  0.00     0.163 HD
BRANCH   4   7
ATOM      7  C   UNL A   1      31.833  27.796  24.401  1.00  0.00     0.168 C 
ATOM      8  C   UNL A   1      30.984  27.904  23.135  1.00  0.00     0.041 C 
BRANCH   7   9
ATOM      9  N   UNL A   1      31.317  26.848  25.391  1.00  0.00    -0.344 N 
ATOM     10  C   UNL A   1      31.910  25.745  25.924  1.00  0.00     0.225 C 
ATOM     11  O   UNL A   1      31.355  25.197  26.878  1.00  0.00    -0.275 OA
ATOM     12  H   UNL A   1      30.407  27.036  25.718  1.00  0.00     0.164 HD
BRANCH  10  13
ATOM     13  C   UNL A   1      33.199  25.195  25.331  1.00  0.00     0.143 C 
BRANCH  13  14
ATOM     14  C   UNL A   1      32.931  23.913  24.582  1.00  0.00     0.051 A 
ATOM     15  C   UNL A   1      33.169  22.447  26.623  1.00  0.00     0.046 C 
ATOM     16  C   UNL A   1      32.803  22.710  25.180  1.00  0.00    -0.029 A 
ATOM     17  C   UNL A   1      32.341  21.569  24.378  1.00  0.00     0.022 A 
ATOM     18  C   UNL A   1      32.742  24.078  23.115  1.00  0.00     0.340 A 
ATOM     19  C   UNL A   1      32.280  21.693  22.988  1.00  0.00     0.142 A 
ATOM     20  C   UNL A   1      32.082  20.326  24.965  1.00  0.00     0.024 A 
ATOM     21  O   UNL A   1      32.844  25.171  22.570  1.00  0.00    -0.246 OA
ATOM     22  O   UNL A   1      32.446  22.947  22.376  1.00  0.00    -0.422 OA
ATOM     23  C   UNL A   1      32.153  20.606  22.121  1.00  0.00     0.095 A 
ATOM     24  C   UNL A   1      32.152  19.203  24.134  1.00  0.00     0.025 A 
ATOM     25  C   UNL A   1      32.247  19.377  22.756  1.00  0.00     0.138 A 
ATOM     26  C   UNL A   1      32.477  17.851  24.392  1.00  0.00     0.001 A 
ATOM     27  O   UNL A   1      32.657  18.219  22.161  1.00  0.00    -0.461 OA
ATOM     28  C   UNL A   1      32.973  17.393  23.188  1.00  0.00     0.108 A 
ATOM     29  C   UNL A   1      32.926  17.220  25.659  1.00  0.00     0.040 C 
ATOM     30  C   UNL A   1      34.216  16.576  23.117  1.00  0.00     0.076 C 
ATOM     31  C   UNL A   1      34.470  17.152  25.662  1.00  0.00     0.005 C 
ATOM     32  C   UNL A   1      35.132  17.120  24.251  1.00  0.00     0.008 C 
ENDBRANCH  13  14
ENDBRANCH  10  13
ENDBRANCH   7   9
ENDBRANCH   4   7
ENDBRANCH   2   3
ENDBRANCH   1   2
BRANCH   1  33
ATOM     33  C   UNL A   1      35.035  30.810  27.348  1.00  0.00     0.023 C 
BRANCH  33  34
ATOM     34  C   UNL A   1      34.093  31.608  28.248  1.00  0.00     0.116 C 
BRANCH  34  35
ATOM     35  N   UNL A   1      34.183  33.038  28.025  1.00  0.00    -0.352 N 
ATOM     36  C   UNL A   1      35.107  33.917  28.552  1.00  0.00     0.251 C 
ATOM     37  H   UNL A   1      33.505  33.429  27.428  1.00  0.00     0.163 HD
ATOM     38  O   UNL A   1      35.014  35.118  28.384  1.00  0.00    -0.269 OA
BRANCH  36  39
ATOM     39  C   UNL A   1      36.187  33.349  29.383  1.00  0.00     0.039 A 
ATOM     40  C   UNL A   1      37.399  32.973  28.793  1.00  0.00     0.014 A 
ATOM     41  C   UNL A   1      35.931  33.096  30.729  1.00  0.00     0.014 A 
ATOM     42  C   UNL A   1      38.308  32.214  29.514  1.00  0.00     0.010 A 
ATOM     43  C   UNL A   1      36.867  32.378  31.467  1.00  0.00     0.010 A 
ATOM     44  C   UNL A   1      38.040  31.907  30.849  1.00  0.00    -0.014 A 
BRANCH  44  45
ATOM     45  C   UNL A   1      39.087  31.206  31.606  1.00  0.00     0.031 A 
ATOM     46  C   UNL A   1      39.257  29.798  31.174  1.00  0.00     0.074 A 
ATOM     47  C   UNL A   1      40.183  31.819  32.101  1.00  0.00     0.049 A 
ATOM     48  N   UNL A   1      39.982  29.542  30.130  1.00  0.00    -0.248 NA
ATOM     49  C   UNL A   1      38.453  28.670  31.627  1.00  0.00     0.031 C 
ATOM     50  C   UNL A   1      40.650  33.151  31.695  1.00  0.00     0.029 A 
ATOM     51  N   UNL A   1      41.207  31.322  32.876  1.00  0.00    -0.354 N 
ATOM     52  C   UNL A   1      39.681  28.264  29.717  1.00  0.00     0.074 A 
ATOM     53  C   UNL A   1      38.758  27.742  30.703  1.00  0.00     0.031 C 
ATOM     54  C   UNL A   1      41.937  33.291  32.073  1.00  0.00     0.029 A 
ATOM     55  C   UNL A   1      42.322  32.146  32.886  1.00  0.00     0.049 A 
ATOM     56  H   UNL A   1      41.153  30.472  33.370  1.00  0.00     0.167 HD
ATOM     57  C   UNL A   1      40.213  27.751  28.577  1.00  0.00     0.031 A 
ATOM     58  C   UNL A   1      43.598  31.777  33.158  1.00  0.00     0.031 A 
ATOM     59  C   UNL A   1      41.135  28.579  27.823  1.00  0.00     0.049 A 
ATOM     60  C   UNL A   1      44.000  31.026  31.917  1.00  0.00     0.074 A 
ATOM     61  C   UNL A   1      41.522  28.754  26.509  1.00  0.00     0.029 A 
ATOM     62  N   UNL A   1      41.886  29.475  28.531  1.00  0.00    -0.354 N 
ATOM     63  N   UNL A   1      44.384  31.559  30.789  1.00  0.00    -0.248 NA
ATOM     64  C   UNL A   1      43.738  29.577  31.851  1.00  0.00     0.031 C 
ATOM     65  C   UNL A   1      42.631  29.666  26.501  1.00  0.00     0.029 A 
ATOM     66  C   UNL A   1      42.923  29.994  27.813  1.00  0.00     0.049 A 
ATOM     67  H   UNL A   1      41.696  29.723  29.465  1.00  0.00     0.167 HD
ATOM     68  C   UNL A   1      44.130  30.584  29.833  1.00  0.00     0.074 A 
ATOM     69  C   UNL A   1      43.883  29.350  30.550  1.00  0.00     0.031 C 
ATOM     70  C   UNL A   1      43.836  30.852  28.529  1.00  0.00     0.031 A 
BRANCH  57  71
ATOM     71  C   UNL A   1      40.060  26.324  28.213  1.00  0.00    -0.014 A 
ATOM     72  C   UNL A   1      38.910  25.792  27.627  1.00  0.00     0.009 A 
ATOM     73  C   UNL A   1      41.192  25.505  28.368  1.00  0.00     0.009 A 
ATOM     74  C   UNL A   1      38.904  24.461  27.192  1.00  0.00     0.001 A 
ATOM     75  C   UNL A   1      41.185  24.183  27.934  1.00  0.00     0.001 A 
ATOM     76  C   UNL A   1      40.040  23.661  27.341  1.00  0.00     0.000 A 
ENDBRANCH  57  71
BRANCH  58  77
ATOM     77  C   UNL A   1      43.866  31.277  34.541  1.00  0.00    -0.014 A 
ATOM     78  C   UNL A   1      44.862  30.351  34.877  1.00  0.00     0.009 A 
ATOM     79  C   UNL A   1      43.111  31.819  35.604  1.00  0.00     0.009 A 
ATOM     80  C   UNL A   1      45.010  29.889  36.191  1.00  0.00     0.001 A 
ATOM     81  C   UNL A   1      43.277  31.383  36.922  1.00  0.00     0.001 A 
ATOM     82  C   UNL A   1      44.210  30.396  37.211  1.00  0.00     0.000 A 
ENDBRANCH  58  77
BRANCH  70  83
ATOM     83  C   UNL A   1      44.308  32.137  27.953  1.00  0.00    -0.014 A 
ATOM     84  C   UNL A   1      43.554  33.312  28.074  1.00  0.00     0.009 A 
ATOM     85  C   UNL A   1      45.496  32.167  27.208  1.00  0.00     0.009 A 
ATOM     86  C   UNL A   1      43.980  34.489  27.456  1.00  0.00     0.001 A 
ATOM     87  C   UNL A   1      45.921  33.343  26.593  1.00  0.00     0.001 A 
ATOM     88  C   UNL A   1      45.161  34.503  26.714  1.00  0.00     0.000 A 
ENDBRANCH  70  83
ENDBRANCH  44  45
ENDBRANCH  36  39
ENDBRANCH  34  35
ENDBRANCH  33  34
ENDBRANCH   1  33
TORSDOF 14
ENDMDL
