MODEL 1
REMARK VINA RESULT:     -12.2      0.000      0.000
REMARK SMILES CC(C)(C)OC(=O)N1CCC[C@H]1C(=O)N1CCC[C@H]1C(=O)N1CCC[C@@H]1C(=O)NCCCCNC(=O)c1ccc(-c2c3nc(c(-c4ccccc4)c4ccc([nH]4)c(-c4ccccc4)c4nc(c(-c5ccccc5)c5ccc2[nH]5)C=C4)C=C3)cc1
REMARK SMILES IDX 27 1 28 2 29 3 26 5 22 6 23 7 24 8 25 9 20 10 21 11 19 12
REMARK SMILES IDX 15 13 16 14 17 15 18 16 13 17 14 18 12 19 8 20 9 21 10 22
REMARK SMILES IDX 11 23 6 24 7 25 5 26 2 27 1 28 3 29 4 30 30 31 31 32 32 33
REMARK SMILES IDX 33 34 34 35 35 36 36 38 37 39 38 40 84 41 39 42 83 43 40 44
REMARK SMILES IDX 41 45 42 46 77 47 43 48 82 49 76 50 78 51 44 52 81 53 75 54
REMARK SMILES IDX 74 55 45 57 67 58 52 59 66 60 53 61 56 62 65 63 79 64 54 65
REMARK SMILES IDX 55 66 64 68 80 69 57 70 46 71 47 72 51 73 48 74 50 75 49 76
REMARK SMILES IDX 68 77 69 78 73 79 70 80 72 81 71 82 58 83 59 84 63 85 60 86
REMARK SMILES IDX 62 87 61 88
REMARK H PARENT 29 4 34 37 78 56 56 67
REMARK Flexibility Score: inf
ROOT
ATOM      1  C   UNL A   1      32.898  29.124  24.458  1.00  0.00     0.242 C 
ATOM      2  O   UNL A   1      33.622  28.820  23.505  1.00  0.00    -0.273 OA
ATOM      3  N   UNL A   1      33.495  29.778  25.492  1.00  0.00    -0.354 N 
ATOM      4  H   UNL A   1      34.415  30.081  25.317  1.00  0.00     0.163 HD
ENDROOT
BRANCH   1   5
ATOM      5  C   UNL A   1      31.428  28.679  24.503  1.00  0.00     0.174 C 
ATOM      6  N   UNL A   1      31.227  27.256  24.761  1.00  0.00    -0.329 N 
ATOM      7  C   UNL A   1      29.897  26.941  24.269  1.00  0.00     0.120 C 
ATOM      8  C   UNL A   1      29.875  27.643  22.926  1.00  0.00     0.024 C 
ATOM      9  C   UNL A   1      30.651  28.940  23.199  1.00  0.00     0.037 C 
BRANCH   6  10
ATOM     10  C   UNL A   1      31.629  26.739  25.970  1.00  0.00     0.246 C 
ATOM     11  O   UNL A   1      31.152  27.171  27.023  1.00  0.00    -0.272 OA
BRANCH  10  12
ATOM     12  C   UNL A   1      32.605  25.524  25.970  1.00  0.00     0.174 C 
ATOM     13  N   UNL A   1      32.540  24.411  24.995  1.00  0.00    -0.329 N 
ATOM     14  C   UNL A   1      33.732  24.365  24.164  1.00  0.00     0.120 C 
ATOM     15  C   UNL A   1      34.799  25.066  24.972  1.00  0.00     0.024 C 
ATOM     16  C   UNL A   1      34.020  26.116  25.747  1.00  0.00     0.037 C 
BRANCH  13  17
ATOM     17  C   UNL A   1      31.591  23.412  25.109  1.00  0.00     0.246 C 
ATOM     18  O   UNL A   1      30.566  23.422  24.429  1.00  0.00    -0.272 OA
BRANCH  17  19
ATOM     19  C   UNL A   1      31.830  22.252  26.103  1.00  0.00     0.178 C 
ATOM     20  N   UNL A   1      32.818  21.329  25.545  1.00  0.00    -0.296 N 
ATOM     21  C   UNL A   1      34.088  21.425  26.225  1.00  0.00     0.124 C 
ATOM     22  C   UNL A   1      33.689  21.846  27.623  1.00  0.00     0.024 C 
ATOM     23  C   UNL A   1      32.473  22.744  27.396  1.00  0.00     0.037 C 
BRANCH  20  24
ATOM     24  C   UNL A   1      32.531  20.538  24.462  1.00  0.00     0.410 C 
ATOM     25  O   UNL A   1      32.508  20.969  23.318  1.00  0.00    -0.224 OA
BRANCH  24  26
ATOM     26  O   UNL A   1      32.241  19.268  24.833  1.00  0.00    -0.444 OA
BRANCH  26  27
ATOM     27  C   UNL A   1      32.911  18.106  24.275  1.00  0.00     0.106 C 
ATOM     28  C   UNL A   1      32.434  16.930  25.141  1.00  0.00     0.056 C 
ATOM     29  C   UNL A   1      34.419  18.291  24.452  1.00  0.00     0.056 C 
ATOM     30  C   UNL A   1      32.562  17.791  22.815  1.00  0.00     0.056 C 
ENDBRANCH  26  27
ENDBRANCH  24  26
ENDBRANCH  20  24
ENDBRANCH  17  19
ENDBRANCH  13  17
ENDBRANCH  10  12
ENDBRANCH   6  10
ENDBRANCH   1   5
BRANCH   3  31
ATOM     31  C   UNL A   1      32.984  30.094  26.805  1.00  0.00     0.116 C 
BRANCH  31  32
ATOM     32  C   UNL A   1      31.570  30.664  26.737  1.00  0.00     0.023 C 
BRANCH  32  33
ATOM     33  C   UNL A   1      31.493  32.194  26.662  1.00  0.00     0.023 C 
BRANCH  33  34
ATOM     34  C   UNL A   1      32.679  32.949  27.255  1.00  0.00     0.116 C 
BRANCH  34  35
ATOM     35  N   UNL A   1      32.315  34.245  27.798  1.00  0.00    -0.352 N 
ATOM     36  C   UNL A   1      32.984  35.052  28.683  1.00  0.00     0.251 C 
ATOM     37  H   UNL A   1      31.452  34.601  27.483  1.00  0.00     0.163 HD
ATOM     38  O   UNL A   1      32.502  36.130  29.015  1.00  0.00    -0.269 OA
BRANCH  36  39
ATOM     39  C   UNL A   1      34.240  34.591  29.299  1.00  0.00     0.039 A 
ATOM     40  C   UNL A   1      34.144  33.907  30.514  1.00  0.00     0.014 A 
ATOM     41  C   UNL A   1      35.482  34.775  28.687  1.00  0.00     0.014 A 
ATOM     42  C   UNL A   1      35.284  33.341  31.078  1.00  0.00     0.010 A 
ATOM     43  C   UNL A   1      36.608  34.148  29.215  1.00  0.00     0.010 A 
ATOM     44  C   UNL A   1      36.517  33.420  30.412  1.00  0.00    -0.014 A 
BRANCH  44  45
ATOM     45  C   UNL A   1      37.703  32.722  30.965  1.00  0.00     0.031 A 
ATOM     46  C   UNL A   1      38.315  33.171  32.260  1.00  0.00     0.074 A 
ATOM     47  C   UNL A   1      38.233  31.684  30.287  1.00  0.00     0.049 A 
ATOM     48  N   UNL A   1      39.320  32.654  32.918  1.00  0.00    -0.248 NA
ATOM     49  C   UNL A   1      37.736  34.368  32.890  1.00  0.00     0.031 C 
ATOM     50  C   UNL A   1      37.755  31.182  28.996  1.00  0.00     0.029 A 
ATOM     51  N   UNL A   1      39.283  30.858  30.596  1.00  0.00    -0.354 N 
ATOM     52  C   UNL A   1      39.497  33.463  34.032  1.00  0.00     0.074 A 
ATOM     53  C   UNL A   1      38.535  34.538  33.932  1.00  0.00     0.031 C 
ATOM     54  C   UNL A   1      38.482  30.108  28.646  1.00  0.00     0.029 A 
ATOM     55  C   UNL A   1      39.498  29.870  29.665  1.00  0.00     0.049 A 
ATOM     56  H   UNL A   1      39.831  30.963  31.406  1.00  0.00     0.167 HD
ATOM     57  C   UNL A   1      40.367  33.311  35.059  1.00  0.00     0.031 A 
ATOM     58  C   UNL A   1      40.407  28.878  29.640  1.00  0.00     0.031 A 
ATOM     59  C   UNL A   1      41.326  32.242  35.155  1.00  0.00     0.049 A 
ATOM     60  C   UNL A   1      41.368  28.740  30.787  1.00  0.00     0.074 A 
ATOM     61  C   UNL A   1      42.220  31.976  36.177  1.00  0.00     0.029 A 
ATOM     62  N   UNL A   1      41.519  31.267  34.190  1.00  0.00    -0.354 N 
ATOM     63  N   UNL A   1      41.470  29.468  31.874  1.00  0.00    -0.248 NA
ATOM     64  C   UNL A   1      42.328  27.631  30.712  1.00  0.00     0.031 C 
ATOM     65  C   UNL A   1      42.994  30.873  35.802  1.00  0.00     0.029 A 
ATOM     66  C   UNL A   1      42.536  30.411  34.579  1.00  0.00     0.049 A 
ATOM     67  H   UNL A   1      41.009  31.193  33.351  1.00  0.00     0.167 HD
ATOM     68  C   UNL A   1      42.485  28.887  32.624  1.00  0.00     0.074 A 
ATOM     69  C   UNL A   1      42.946  27.733  31.879  1.00  0.00     0.031 C 
ATOM     70  C   UNL A   1      42.990  29.273  33.821  1.00  0.00     0.031 A 
BRANCH  57  71
ATOM     71  C   UNL A   1      40.327  34.341  36.155  1.00  0.00    -0.014 A 
ATOM     72  C   UNL A   1      41.100  35.512  36.086  1.00  0.00     0.009 A 
ATOM     73  C   UNL A   1      39.484  34.151  37.262  1.00  0.00     0.009 A 
ATOM     74  C   UNL A   1      41.059  36.451  37.119  1.00  0.00     0.001 A 
ATOM     75  C   UNL A   1      39.419  35.107  38.278  1.00  0.00     0.001 A 
ATOM     76  C   UNL A   1      40.215  36.251  38.211  1.00  0.00     0.000 A 
ENDBRANCH  57  71
BRANCH  58  77
ATOM     77  C   UNL A   1      40.442  27.922  28.500  1.00  0.00    -0.014 A 
ATOM     78  C   UNL A   1      39.740  26.708  28.561  1.00  0.00     0.009 A 
ATOM     79  C   UNL A   1      41.198  28.209  27.353  1.00  0.00     0.009 A 
ATOM     80  C   UNL A   1      39.822  25.788  27.513  1.00  0.00     0.001 A 
ATOM     81  C   UNL A   1      41.251  27.303  26.293  1.00  0.00     0.001 A 
ATOM     82  C   UNL A   1      40.574  26.088  26.378  1.00  0.00     0.000 A 
ENDBRANCH  58  77
BRANCH  70  83
ATOM     83  C   UNL A   1      44.076  28.416  34.411  1.00  0.00    -0.014 A 
ATOM     84  C   UNL A   1      43.780  27.327  35.246  1.00  0.00     0.009 A 
ATOM     85  C   UNL A   1      45.420  28.698  34.117  1.00  0.00     0.009 A 
ATOM     86  C   UNL A   1      44.808  26.570  35.813  1.00  0.00     0.001 A 
ATOM     87  C   UNL A   1      46.444  27.919  34.655  1.00  0.00     0.001 A 
ATOM     88  C   UNL A   1      46.137  26.865  35.515  1.00  0.00     0.000 A 
ENDBRANCH  70  83
ENDBRANCH  44  45
ENDBRANCH  36  39
ENDBRANCH  34  35
ENDBRANCH  33  34
ENDBRANCH  32  33
ENDBRANCH  31  32
ENDBRANCH   3  31
TORSDOF 18
ENDMDL
MODEL 2
REMARK VINA RESULT:     -11.9      4.516     10.116
REMARK SMILES CC(C)(C)OC(=O)N1CCC[C@H]1C(=O)N1CCC[C@H]1C(=O)N1CCC[C@@H]1C(=O)NCCCCNC(=O)c1ccc(-c2c3nc(c(-c4ccccc4)c4ccc([nH]4)c(-c4ccccc4)c4nc(c(-c5ccccc5)c5ccc2[nH]5)C=C4)C=C3)cc1
REMARK SMILES IDX 27 1 28 2 29 3 26 5 22 6 23 7 24 8 25 9 20 10 21 11 19 12
REMARK SMILES IDX 15 13 16 14 17 15 18 16 13 17 14 18 12 19 8 20 9 21 10 22
REMARK SMILES IDX 11 23 6 24 7 25 5 26 2 27 1 28 3 29 4 30 30 31 31 32 32 33
REMARK SMILES IDX 33 34 34 35 35 36 36 38 37 39 38 40 84 41 39 42 83 43 40 44
REMARK SMILES IDX 41 45 42 46 77 47 43 48 82 49 76 50 78 51 44 52 81 53 75 54
REMARK SMILES IDX 74 55 45 57 67 58 52 59 66 60 53 61 56 62 65 63 79 64 54 65
REMARK SMILES IDX 55 66 64 68 80 69 57 70 46 71 47 72 51 73 48 74 50 75 49 76
REMARK SMILES IDX 68 77 69 78 73 79 70 80 72 81 71 82 58 83 59 84 63 85 60 86
REMARK SMILES IDX 62 87 61 88
REMARK H PARENT 29 4 34 37 78 56 56 67
REMARK Flexibility Score: inf
ROOT
ATOM      1  C   UNL A   1      34.686  21.580  26.094  1.00  0.00     0.242 C 
ATOM      2  O   UNL A   1      33.866  21.533  27.017  1.00  0.00    -0.273 OA
ATOM      3  N   UNL A   1      35.963  21.908  26.432  1.00  0.00    -0.354 N 
ATOM      4  H   UNL A   1      36.146  21.929  27.399  1.00  0.00     0.163 HD
ENDROOT
BRANCH   1   5
ATOM      5  C   UNL A   1      34.242  21.385  24.636  1.00  0.00     0.174 C 
ATOM      6  N   UNL A   1      33.528  22.518  24.057  1.00  0.00    -0.329 N 
ATOM      7  C   UNL A   1      32.772  21.988  22.937  1.00  0.00     0.120 C 
ATOM      8  C   UNL A   1      32.170  20.726  23.521  1.00  0.00     0.024 C 
ATOM      9  C   UNL A   1      33.295  20.191  24.421  1.00  0.00     0.037 C 
BRANCH   6  10
ATOM     10  C   UNL A   1      34.192  23.713  23.905  1.00  0.00     0.246 C 
ATOM     11  O   UNL A   1      35.254  23.762  23.278  1.00  0.00    -0.272 OA
BRANCH  10  12
ATOM     12  C   UNL A   1      33.517  25.012  24.441  1.00  0.00     0.174 C 
ATOM     13  N   UNL A   1      32.167  25.469  24.036  1.00  0.00    -0.329 N 
ATOM     14  C   UNL A   1      31.248  25.465  25.162  1.00  0.00     0.120 C 
ATOM     15  C   UNL A   1      32.128  25.565  26.386  1.00  0.00     0.024 C 
ATOM     16  C   UNL A   1      33.388  24.823  25.974  1.00  0.00     0.037 C 
BRANCH  13  17
ATOM     17  C   UNL A   1      31.952  26.081  22.816  1.00  0.00     0.246 C 
ATOM     18  O   UNL A   1      31.678  25.427  21.810  1.00  0.00    -0.272 OA
BRANCH  17  19
ATOM     19  C   UNL A   1      32.047  27.621  22.715  1.00  0.00     0.178 C 
ATOM     20  N   UNL A   1      30.944  28.226  23.462  1.00  0.00    -0.296 N 
ATOM     21  C   UNL A   1      31.398  28.841  24.688  1.00  0.00     0.124 C 
ATOM     22  C   UNL A   1      32.814  29.255  24.350  1.00  0.00     0.024 C 
ATOM     23  C   UNL A   1      33.298  28.153  23.409  1.00  0.00     0.037 C 
BRANCH  20  24
ATOM     24  C   UNL A   1      29.646  28.130  23.030  1.00  0.00     0.410 C 
ATOM     25  O   UNL A   1      28.885  27.254  23.416  1.00  0.00    -0.224 OA
BRANCH  24  26
ATOM     26  O   UNL A   1      29.353  29.082  22.112  1.00  0.00    -0.444 OA
BRANCH  26  27
ATOM     27  C   UNL A   1      28.451  30.189  22.376  1.00  0.00     0.106 C 
ATOM     28  C   UNL A   1      27.205  29.535  22.993  1.00  0.00     0.056 C 
ATOM     29  C   UNL A   1      28.080  30.835  21.040  1.00  0.00     0.056 C 
ATOM     30  C   UNL A   1      28.976  31.236  23.367  1.00  0.00     0.056 C 
ENDBRANCH  26  27
ENDBRANCH  24  26
ENDBRANCH  20  24
ENDBRANCH  17  19
ENDBRANCH  13  17
ENDBRANCH  10  12
ENDBRANCH   6  10
ENDBRANCH   1   5
BRANCH   3  31
ATOM     31  C   UNL A   1      37.090  22.229  25.588  1.00  0.00     0.116 C 
BRANCH  31  32
ATOM     32  C   UNL A   1      37.298  21.178  24.502  1.00  0.00     0.023 C 
BRANCH  32  33
ATOM     33  C   UNL A   1      38.025  19.909  24.962  1.00  0.00     0.023 C 
BRANCH  33  34
ATOM     34  C   UNL A   1      39.178  20.121  25.940  1.00  0.00     0.116 C 
BRANCH  34  35
ATOM     35  N   UNL A   1      40.259  19.168  25.761  1.00  0.00    -0.352 N 
ATOM     36  C   UNL A   1      41.594  19.282  26.054  1.00  0.00     0.251 C 
ATOM     37  H   UNL A   1      39.992  18.306  25.368  1.00  0.00     0.163 HD
ATOM     38  O   UNL A   1      42.353  18.344  25.830  1.00  0.00    -0.269 OA
BRANCH  36  39
ATOM     39  C   UNL A   1      42.134  20.556  26.560  1.00  0.00     0.039 A 
ATOM     40  C   UNL A   1      42.597  21.475  25.615  1.00  0.00     0.014 A 
ATOM     41  C   UNL A   1      42.145  20.873  27.920  1.00  0.00     0.014 A 
ATOM     42  C   UNL A   1      43.002  22.742  26.026  1.00  0.00     0.010 A 
ATOM     43  C   UNL A   1      42.482  22.164  28.322  1.00  0.00     0.010 A 
ATOM     44  C   UNL A   1      42.907  23.111  27.377  1.00  0.00    -0.014 A 
BRANCH  44  45
ATOM     45  C   UNL A   1      43.237  24.497  27.791  1.00  0.00     0.031 A 
ATOM     46  C   UNL A   1      44.665  24.958  27.836  1.00  0.00     0.074 A 
ATOM     47  C   UNL A   1      42.240  25.336  28.136  1.00  0.00     0.049 A 
ATOM     48  N   UNL A   1      45.138  26.143  28.125  1.00  0.00    -0.248 NA
ATOM     49  C   UNL A   1      45.698  23.955  27.535  1.00  0.00     0.031 C 
ATOM     50  C   UNL A   1      40.817  24.992  28.176  1.00  0.00     0.029 A 
ATOM     51  N   UNL A   1      42.273  26.656  28.509  1.00  0.00    -0.354 N 
ATOM     52  C   UNL A   1      46.519  26.026  28.048  1.00  0.00     0.074 A 
ATOM     53  C   UNL A   1      46.810  24.643  27.741  1.00  0.00     0.031 C 
ATOM     54  C   UNL A   1      40.110  26.084  28.509  1.00  0.00     0.029 A 
ATOM     55  C   UNL A   1      41.029  27.192  28.742  1.00  0.00     0.049 A 
ATOM     56  H   UNL A   1      43.107  27.170  28.601  1.00  0.00     0.167 HD
ATOM     57  C   UNL A   1      47.460  26.989  28.195  1.00  0.00     0.031 A 
ATOM     58  C   UNL A   1      40.669  28.440  29.097  1.00  0.00     0.031 A 
ATOM     59  C   UNL A   1      47.168  28.364  28.502  1.00  0.00     0.049 A 
ATOM     60  C   UNL A   1      41.736  29.486  29.266  1.00  0.00     0.074 A 
ATOM     61  C   UNL A   1      48.047  29.425  28.628  1.00  0.00     0.029 A 
ATOM     62  N   UNL A   1      45.898  28.866  28.740  1.00  0.00    -0.354 N 
ATOM     63  N   UNL A   1      43.034  29.377  29.111  1.00  0.00    -0.248 NA
ATOM     64  C   UNL A   1      41.283  30.833  29.640  1.00  0.00     0.031 C 
ATOM     65  C   UNL A   1      47.315  30.557  28.998  1.00  0.00     0.029 A 
ATOM     66  C   UNL A   1      45.972  30.217  29.037  1.00  0.00     0.049 A 
ATOM     67  H   UNL A   1      45.066  28.341  28.704  1.00  0.00     0.167 HD
ATOM     68  C   UNL A   1      43.549  30.647  29.340  1.00  0.00     0.074 A 
ATOM     69  C   UNL A   1      42.420  31.512  29.617  1.00  0.00     0.031 C 
ATOM     70  C   UNL A   1      44.840  31.061  29.322  1.00  0.00     0.031 A 
BRANCH  57  71
ATOM     71  C   UNL A   1      48.899  26.577  28.037  1.00  0.00    -0.014 A 
ATOM     72  C   UNL A   1      49.498  26.490  26.770  1.00  0.00     0.009 A 
ATOM     73  C   UNL A   1      49.674  26.298  29.174  1.00  0.00     0.009 A 
ATOM     74  C   UNL A   1      50.832  26.094  26.642  1.00  0.00     0.001 A 
ATOM     75  C   UNL A   1      51.016  25.934  29.045  1.00  0.00     0.001 A 
ATOM     76  C   UNL A   1      51.590  25.822  27.780  1.00  0.00     0.000 A 
ENDBRANCH  57  71
BRANCH  58  77
ATOM     77  C   UNL A   1      39.235  28.778  29.300  1.00  0.00    -0.014 A 
ATOM     78  C   UNL A   1      38.462  29.281  28.242  1.00  0.00     0.009 A 
ATOM     79  C   UNL A   1      38.637  28.619  30.559  1.00  0.00     0.009 A 
ATOM     80  C   UNL A   1      37.131  29.651  28.450  1.00  0.00     0.001 A 
ATOM     81  C   UNL A   1      37.297  28.958  30.757  1.00  0.00     0.001 A 
ATOM     82  C   UNL A   1      36.549  29.485  29.706  1.00  0.00     0.000 A 
ENDBRANCH  58  77
BRANCH  70  83
ATOM     83  C   UNL A   1      45.091  32.522  29.578  1.00  0.00    -0.014 A 
ATOM     84  C   UNL A   1      45.329  33.011  30.872  1.00  0.00     0.009 A 
ATOM     85  C   UNL A   1      45.099  33.423  28.501  1.00  0.00     0.009 A 
ATOM     86  C   UNL A   1      45.519  34.378  31.088  1.00  0.00     0.001 A 
ATOM     87  C   UNL A   1      45.326  34.783  28.715  1.00  0.00     0.001 A 
ATOM     88  C   UNL A   1      45.521  35.261  30.009  1.00  0.00     0.000 A 
ENDBRANCH  70  83
ENDBRANCH  44  45
ENDBRANCH  36  39
ENDBRANCH  34  35
ENDBRANCH  33  34
ENDBRANCH  32  33
ENDBRANCH  31  32
ENDBRANCH   3  31
TORSDOF 18
ENDMDL
MODEL 3
REMARK VINA RESULT:     -11.8      1.546      2.169
REMARK SMILES CC(C)(C)OC(=O)N1CCC[C@H]1C(=O)N1CCC[C@H]1C(=O)N1CCC[C@@H]1C(=O)NCCCCNC(=O)c1ccc(-c2c3nc(c(-c4ccccc4)c4ccc([nH]4)c(-c4ccccc4)c4nc(c(-c5ccccc5)c5ccc2[nH]5)C=C4)C=C3)cc1
REMARK SMILES IDX 27 1 28 2 29 3 26 5 22 6 23 7 24 8 25 9 20 10 21 11 19 12
REMARK SMILES IDX 15 13 16 14 17 15 18 16 13 17 14 18 12 19 8 20 9 21 10 22
REMARK SMILES IDX 11 23 6 24 7 25 5 26 2 27 1 28 3 29 4 30 30 31 31 32 32 33
REMARK SMILES IDX 33 34 34 35 35 36 36 38 37 39 38 40 84 41 39 42 83 43 40 44
REMARK SMILES IDX 41 45 42 46 77 47 43 48 82 49 76 50 78 51 44 52 81 53 75 54
REMARK SMILES IDX 74 55 45 57 67 58 52 59 66 60 53 61 56 62 65 63 79 64 54 65
REMARK SMILES IDX 55 66 64 68 80 69 57 70 46 71 47 72 51 73 48 74 50 75 49 76
REMARK SMILES IDX 68 77 69 78 73 79 70 80 72 81 71 82 58 83 59 84 63 85 60 86
REMARK SMILES IDX 62 87 61 88
REMARK H PARENT 29 4 34 37 78 56 56 67
REMARK Flexibility Score: inf
ROOT
ATOM      1  C   UNL A   1      33.283  28.191  24.473  1.00  0.00     0.242 C 
ATOM      2  O   UNL A   1      33.857  27.775  23.461  1.00  0.00    -0.273 OA
ATOM      3  N   UNL A   1      34.071  28.463  25.549  1.00  0.00    -0.354 N 
ATOM      4  H   UNL A   1      35.039  28.445  25.373  1.00  0.00     0.163 HD
ENDROOT
BRANCH   1   5
ATOM      5  C   UNL A   1      31.751  28.283  24.527  1.00  0.00     0.174 C 
ATOM      6  N   UNL A   1      31.064  27.001  24.649  1.00  0.00    -0.329 N 
ATOM      7  C   UNL A   1      29.709  27.223  24.178  1.00  0.00     0.120 C 
ATOM      8  C   UNL A   1      29.933  28.027  22.913  1.00  0.00     0.024 C 
ATOM      9  C   UNL A   1      31.115  28.936  23.285  1.00  0.00     0.037 C 
BRANCH   6  10
ATOM     10  C   UNL A   1      31.259  26.251  25.785  1.00  0.00     0.246 C 
ATOM     11  O   UNL A   1      31.089  26.751  26.900  1.00  0.00    -0.272 OA
BRANCH  10  12
ATOM     12  C   UNL A   1      31.583  24.734  25.627  1.00  0.00     0.174 C 
ATOM     13  N   UNL A   1      32.686  24.046  26.337  1.00  0.00    -0.329 N 
ATOM     14  C   UNL A   1      32.179  23.038  27.252  1.00  0.00     0.120 C 
ATOM     15  C   UNL A   1      30.813  22.676  26.717  1.00  0.00     0.024 C 
ATOM     16  C   UNL A   1      30.319  23.976  26.107  1.00  0.00     0.037 C 
BRANCH  13  17
ATOM     17  C   UNL A   1      33.999  24.181  25.925  1.00  0.00     0.246 C 
ATOM     18  O   UNL A   1      34.458  25.275  25.596  1.00  0.00    -0.272 OA
BRANCH  17  19
ATOM     19  C   UNL A   1      34.913  22.935  25.889  1.00  0.00     0.178 C 
ATOM     20  N   UNL A   1      34.782  22.272  24.591  1.00  0.00    -0.296 N 
ATOM     21  C   UNL A   1      35.955  22.461  23.770  1.00  0.00     0.124 C 
ATOM     22  C   UNL A   1      37.062  22.597  24.793  1.00  0.00     0.024 C 
ATOM     23  C   UNL A   1      36.388  23.318  25.960  1.00  0.00     0.037 C 
BRANCH  20  24
ATOM     24  C   UNL A   1      33.630  21.621  24.230  1.00  0.00     0.410 C 
ATOM     25  O   UNL A   1      32.936  21.979  23.289  1.00  0.00    -0.224 OA
BRANCH  24  26
ATOM     26  O   UNL A   1      33.357  20.589  25.065  1.00  0.00    -0.444 OA
BRANCH  26  27
ATOM     27  C   UNL A   1      33.365  19.201  24.639  1.00  0.00     0.106 C 
ATOM     28  C   UNL A   1      32.690  18.438  25.790  1.00  0.00     0.056 C 
ATOM     29  C   UNL A   1      34.820  18.747  24.511  1.00  0.00     0.056 C 
ATOM     30  C   UNL A   1      32.581  18.908  23.353  1.00  0.00     0.056 C 
ENDBRANCH  26  27
ENDBRANCH  24  26
ENDBRANCH  20  24
ENDBRANCH  17  19
ENDBRANCH  13  17
ENDBRANCH  10  12
ENDBRANCH   6  10
ENDBRANCH   1   5
BRANCH   3  31
ATOM     31  C   UNL A   1      33.701  28.772  26.911  1.00  0.00     0.116 C 
BRANCH  31  32
ATOM     32  C   UNL A   1      34.161  30.170  27.316  1.00  0.00     0.023 C 
BRANCH  32  33
ATOM     33  C   UNL A   1      33.030  31.147  27.660  1.00  0.00     0.023 C 
BRANCH  33  34
ATOM     34  C   UNL A   1      33.051  32.478  26.912  1.00  0.00     0.116 C 
BRANCH  34  35
ATOM     35  N   UNL A   1      32.578  33.590  27.717  1.00  0.00    -0.352 N 
ATOM     36  C   UNL A   1      33.210  34.294  28.710  1.00  0.00     0.251 C 
ATOM     37  H   UNL A   1      31.659  33.884  27.520  1.00  0.00     0.163 HD
ATOM     38  O   UNL A   1      32.631  35.218  29.270  1.00  0.00    -0.269 OA
BRANCH  36  39
ATOM     39  C   UNL A   1      34.553  33.890  29.162  1.00  0.00     0.039 A 
ATOM     40  C   UNL A   1      34.629  33.061  30.284  1.00  0.00     0.014 A 
ATOM     41  C   UNL A   1      35.713  34.267  28.481  1.00  0.00     0.014 A 
ATOM     42  C   UNL A   1      35.861  32.549  30.681  1.00  0.00     0.010 A 
ATOM     43  C   UNL A   1      36.933  33.697  28.835  1.00  0.00     0.010 A 
ATOM     44  C   UNL A   1      37.016  32.827  29.934  1.00  0.00    -0.014 A 
BRANCH  44  45
ATOM     45  C   UNL A   1      38.305  32.190  30.299  1.00  0.00     0.031 A 
ATOM     46  C   UNL A   1      39.223  32.844  31.290  1.00  0.00     0.074 A 
ATOM     47  C   UNL A   1      38.648  31.021  29.723  1.00  0.00     0.049 A 
ATOM     48  N   UNL A   1      40.363  32.411  31.765  1.00  0.00    -0.248 NA
ATOM     49  C   UNL A   1      38.820  34.163  31.802  1.00  0.00     0.031 C 
ATOM     50  C   UNL A   1      37.861  30.310  28.712  1.00  0.00     0.029 A 
ATOM     51  N   UNL A   1      39.744  30.218  29.914  1.00  0.00    -0.354 N 
ATOM     52  C   UNL A   1      40.814  33.405  32.624  1.00  0.00     0.074 A 
ATOM     53  C   UNL A   1      39.856  34.486  32.561  1.00  0.00     0.031 C 
ATOM     54  C   UNL A   1      38.478  29.157  28.405  1.00  0.00     0.029 A 
ATOM     55  C   UNL A   1      39.719  29.065  29.167  1.00  0.00     0.049 A 
ATOM     56  H   UNL A   1      40.479  30.446  30.528  1.00  0.00     0.167 HD
ATOM     57  C   UNL A   1      41.916  33.407  33.412  1.00  0.00     0.031 A 
ATOM     58  C   UNL A   1      40.593  28.044  29.108  1.00  0.00     0.031 A 
ATOM     59  C   UNL A   1      42.869  32.331  33.471  1.00  0.00     0.049 A 
ATOM     60  C   UNL A   1      41.814  28.078  29.985  1.00  0.00     0.074 A 
ATOM     61  C   UNL A   1      43.993  32.218  34.270  1.00  0.00     0.029 A 
ATOM     62  N   UNL A   1      42.814  31.185  32.694  1.00  0.00    -0.354 N 
ATOM     63  N   UNL A   1      42.186  28.990  30.852  1.00  0.00    -0.248 NA
ATOM     64  C   UNL A   1      42.726  26.930  29.889  1.00  0.00     0.031 C 
ATOM     65  C   UNL A   1      44.650  31.029  33.935  1.00  0.00     0.029 A 
ATOM     66  C   UNL A   1      43.898  30.370  32.975  1.00  0.00     0.049 A 
ATOM     67  H   UNL A   1      42.109  30.980  32.038  1.00  0.00     0.167 HD
ATOM     68  C   UNL A   1      43.358  28.512  31.424  1.00  0.00     0.074 A 
ATOM     69  C   UNL A   1      43.618  27.219  30.825  1.00  0.00     0.031 C 
ATOM     70  C   UNL A   1      44.148  29.091  32.362  1.00  0.00     0.031 A 
BRANCH  57  71
ATOM     71  C   UNL A   1      42.151  34.624  34.265  1.00  0.00    -0.014 A 
ATOM     72  C   UNL A   1      42.812  35.755  33.757  1.00  0.00     0.009 A 
ATOM     73  C   UNL A   1      41.682  34.651  35.588  1.00  0.00     0.009 A 
ATOM     74  C   UNL A   1      43.033  36.871  34.568  1.00  0.00     0.001 A 
ATOM     75  C   UNL A   1      41.875  35.781  36.386  1.00  0.00     0.001 A 
ATOM     76  C   UNL A   1      42.560  36.884  35.879  1.00  0.00     0.000 A 
ENDBRANCH  57  71
BRANCH  58  77
ATOM     77  C   UNL A   1      40.342  26.892  28.201  1.00  0.00    -0.014 A 
ATOM     78  C   UNL A   1      40.894  26.862  26.912  1.00  0.00     0.009 A 
ATOM     79  C   UNL A   1      39.530  25.825  28.614  1.00  0.00     0.009 A 
ATOM     80  C   UNL A   1      40.610  25.807  26.042  1.00  0.00     0.001 A 
ATOM     81  C   UNL A   1      39.274  24.754  27.755  1.00  0.00     0.001 A 
ATOM     82  C   UNL A   1      39.804  24.751  26.467  1.00  0.00     0.000 A 
ENDBRANCH  58  77
BRANCH  70  83
ATOM     83  C   UNL A   1      45.350  28.308  32.817  1.00  0.00    -0.014 A 
ATOM     84  C   UNL A   1      46.601  28.458  32.199  1.00  0.00     0.009 A 
ATOM     85  C   UNL A   1      45.227  27.413  33.892  1.00  0.00     0.009 A 
ATOM     86  C   UNL A   1      47.692  27.690  32.615  1.00  0.00     0.001 A 
ATOM     87  C   UNL A   1      46.327  26.674  34.329  1.00  0.00     0.001 A 
ATOM     88  C   UNL A   1      47.554  26.803  33.680  1.00  0.00     0.000 A 
ENDBRANCH  70  83
ENDBRANCH  44  45
ENDBRANCH  36  39
ENDBRANCH  34  35
ENDBRANCH  33  34
ENDBRANCH  32  33
ENDBRANCH  31  32
ENDBRANCH   3  31
TORSDOF 18
ENDMDL
