MODEL 1
REMARK VINA RESULT:     -12.3      0.000      0.000
REMARK SMILES C[C@]12C[C@@H](O)[C@H]3[C@@H](CCC4=CC(=O)C=C[C@]43C)[C@H]1CC[C@@]2(O)C(=O)COC(=O)CCC(=O)NCCCCNC(=O)c1ccc(-c2c3nc(c(-c4ccccc4)c4ccc([nH]4)c(-c4ccccc4)c4nc(c(-c5ccccc5)c5ccc2[nH]5)C=C4)C=C3)cc1
REMARK SMILES IDX 31 1 32 2 33 3 30 5 29 6 27 7 28 8 26 9 25 10 23 11 24 12
REMARK SMILES IDX 21 13 17 14 16 15 15 16 10 17 6 18 14 19 11 20 9 21 7 22
REMARK SMILES IDX 4 23 12 24 8 25 18 26 3 27 13 28 2 29 19 30 1 31 20 32 5 33
REMARK SMILES IDX 22 35 34 37 35 38 36 39 37 40 38 41 39 42 40 44 41 45 42 46
REMARK SMILES IDX 88 47 43 48 87 49 44 50 45 51 46 52 81 53 47 54 86 55 80 56
REMARK SMILES IDX 82 57 48 58 85 59 79 60 78 61 49 63 71 64 56 65 70 66 57 67
REMARK SMILES IDX 60 68 69 69 83 70 58 71 59 72 68 74 84 75 61 76 50 77 51 78
REMARK SMILES IDX 55 79 52 80 54 81 53 82 72 83 73 84 77 85 74 86 76 87 75 88
REMARK SMILES IDX 62 89 63 90 67 91 64 92 66 93 65 94
REMARK H PARENT 33 4 5 34 22 36 38 43 82 62 60 73
REMARK Flexibility Score: inf
ROOT
ATOM      1  C   UNL A   1      29.656  29.735  23.423  1.00  0.00     0.220 C 
ATOM      2  O   UNL A   1      28.619  30.340  23.147  1.00  0.00    -0.275 OA
ATOM      3  N   UNL A   1      30.510  30.315  24.308  1.00  0.00    -0.356 N 
ATOM      4  H   UNL A   1      30.264  31.237  24.548  1.00  0.00     0.163 HD
ENDROOT
BRANCH   1   5
ATOM      5  C   UNL A   1      29.938  28.390  22.797  1.00  0.00     0.111 C 
BRANCH   5   6
ATOM      6  C   UNL A   1      29.266  27.243  23.534  1.00  0.00     0.132 C 
BRANCH   6   7
ATOM      7  C   UNL A   1      30.246  26.493  24.394  1.00  0.00     0.306 C 
ATOM      8  O   UNL A   1      29.942  25.798  25.350  1.00  0.00    -0.252 OA
BRANCH   7   9
ATOM      9  O   UNL A   1      31.508  26.666  23.921  1.00  0.00    -0.458 OA
BRANCH   9  10
ATOM     10  C   UNL A   1      32.275  25.496  23.737  1.00  0.00     0.311 C 
BRANCH  10  11
ATOM     11  C   UNL A   1      33.249  25.099  24.829  1.00  0.00     0.202 C 
ATOM     12  O   UNL A   1      33.410  25.893  25.770  1.00  0.00    -0.293 OA
BRANCH  11  13
ATOM     13  C   UNL A   1      34.191  23.890  24.746  1.00  0.00     0.132 C 
ATOM     14  C   UNL A   1      33.562  17.306  22.711  1.00  0.00     0.021 C 
ATOM     15  C   UNL A   1      33.738  17.910  24.140  1.00  0.00     0.013 C 
ATOM     16  C   UNL A   1      32.532  17.389  24.930  1.00  0.00    -0.012 C 
ATOM     17  C   UNL A   1      35.003  17.260  24.761  1.00  0.00    -0.056 C 
ATOM     18  C   UNL A   1      33.839  19.504  23.972  1.00  0.00     0.035 C 
ATOM     19  C   UNL A   1      32.496  16.147  25.450  1.00  0.00     0.048 C 
ATOM     20  C   UNL A   1      34.980  15.995  25.233  1.00  0.00     0.052 C 
ATOM     21  C   UNL A   1      36.247  18.042  25.080  1.00  0.00     0.032 C 
ATOM     22  C   UNL A   1      34.819  20.122  24.981  1.00  0.00    -0.000 C 
ATOM     23  C   UNL A   1      32.510  20.307  23.935  1.00  0.00     0.119 C 
ATOM     24  C   UNL A   1      33.696  15.279  25.374  1.00  0.00     0.178 C 
ATOM     25  C   UNL A   1      36.205  19.514  24.747  1.00  0.00     0.009 C 
ATOM     26  C   UNL A   1      34.936  21.652  24.921  1.00  0.00     0.002 C 
ATOM     27  C   UNL A   1      32.703  21.850  23.857  1.00  0.00     0.042 C 
ATOM     28  O   UNL A   1      33.642  14.069  25.533  1.00  0.00    -0.290 OA
ATOM     29  C   UNL A   1      33.609  22.438  24.972  1.00  0.00     0.009 C 
ATOM     30  C   UNL A   1      35.628  22.250  23.670  1.00  0.00     0.008 C 
ATOM     31  C   UNL A   1      32.878  22.316  26.319  1.00  0.00     0.015 C 
ATOM     32  C   UNL A   1      35.183  23.727  23.599  1.00  0.00     0.044 C 
BRANCH  23  33
ATOM     33  O   UNL A   1      31.707  19.917  22.821  1.00  0.00    -0.393 OA
ATOM     34  H   UNL A   1      30.879  20.422  22.827  1.00  0.00     0.210 HD
ENDBRANCH  23  33
BRANCH  13  35
ATOM     35  O   UNL A   1      35.049  24.199  25.900  1.00  0.00    -0.381 OA
ATOM     36  H   UNL A   1      35.969  23.978  25.687  1.00  0.00     0.212 HD
ENDBRANCH  13  35
ENDBRANCH  11  13
ENDBRANCH  10  11
ENDBRANCH   9  10
ENDBRANCH   7   9
ENDBRANCH   6   7
ENDBRANCH   5   6
ENDBRANCH   1   5
BRANCH   3  37
ATOM     37  C   UNL A   1      31.713  29.840  24.970  1.00  0.00     0.116 C 
BRANCH  37  38
ATOM     38  C   UNL A   1      31.578  29.789  26.497  1.00  0.00     0.023 C 
BRANCH  38  39
ATOM     39  C   UNL A   1      32.906  29.796  27.265  1.00  0.00     0.023 C 
BRANCH  39  40
ATOM     40  C   UNL A   1      33.712  31.091  27.303  1.00  0.00     0.116 C 
BRANCH  40  41
ATOM     41  N   UNL A   1      32.946  32.318  27.469  1.00  0.00    -0.352 N 
ATOM     42  C   UNL A   1      33.316  33.462  28.164  1.00  0.00     0.251 C 
ATOM     43  H   UNL A   1      32.061  32.338  27.038  1.00  0.00     0.163 HD
ATOM     44  O   UNL A   1      32.562  34.409  28.276  1.00  0.00    -0.269 OA
BRANCH  42  45
ATOM     45  C   UNL A   1      34.611  33.464  28.885  1.00  0.00     0.039 A 
ATOM     46  C   UNL A   1      34.662  32.818  30.124  1.00  0.00     0.014 A 
ATOM     47  C   UNL A   1      35.776  33.935  28.280  1.00  0.00     0.014 A 
ATOM     48  C   UNL A   1      35.900  32.502  30.684  1.00  0.00     0.010 A 
ATOM     49  C   UNL A   1      37.008  33.558  28.803  1.00  0.00     0.010 A 
ATOM     50  C   UNL A   1      37.078  32.797  29.983  1.00  0.00    -0.014 A 
BRANCH  50  51
ATOM     51  C   UNL A   1      38.390  32.252  30.409  1.00  0.00     0.031 A 
ATOM     52  C   UNL A   1      38.890  30.962  29.832  1.00  0.00     0.074 A 
ATOM     53  C   UNL A   1      39.068  32.858  31.407  1.00  0.00     0.049 A 
ATOM     54  N   UNL A   1      39.928  30.248  30.183  1.00  0.00    -0.248 NA
ATOM     55  C   UNL A   1      38.098  30.381  28.737  1.00  0.00     0.031 C 
ATOM     56  C   UNL A   1      38.665  34.096  32.080  1.00  0.00     0.029 A 
ATOM     57  N   UNL A   1      40.230  32.502  32.045  1.00  0.00    -0.354 N 
ATOM     58  C   UNL A   1      39.898  29.122  29.372  1.00  0.00     0.074 A 
ATOM     59  C   UNL A   1      38.719  29.228  28.540  1.00  0.00     0.031 C 
ATOM     60  C   UNL A   1      39.571  34.402  33.022  1.00  0.00     0.029 A 
ATOM     61  C   UNL A   1      40.593  33.361  33.054  1.00  0.00     0.049 A 
ATOM     62  H   UNL A   1      40.755  31.705  31.802  1.00  0.00     0.167 HD
ATOM     63  C   UNL A   1      40.782  28.098  29.317  1.00  0.00     0.031 A 
ATOM     64  C   UNL A   1      41.623  33.310  33.921  1.00  0.00     0.031 A 
ATOM     65  C   UNL A   1      41.959  28.003  30.137  1.00  0.00     0.049 A 
ATOM     66  C   UNL A   1      42.588  32.160  33.841  1.00  0.00     0.074 A 
ATOM     67  C   UNL A   1      42.947  27.034  30.118  1.00  0.00     0.029 A 
ATOM     68  N   UNL A   1      42.308  28.914  31.122  1.00  0.00    -0.354 N 
ATOM     69  N   UNL A   1      42.580  31.133  33.027  1.00  0.00    -0.248 NA
ATOM     70  C   UNL A   1      43.708  32.165  34.794  1.00  0.00     0.031 C 
ATOM     71  C   UNL A   1      43.872  27.336  31.122  1.00  0.00     0.029 A 
ATOM     72  C   UNL A   1      43.488  28.520  31.730  1.00  0.00     0.049 A 
ATOM     73  H   UNL A   1      41.794  29.720  31.356  1.00  0.00     0.167 HD
ATOM     74  C   UNL A   1      43.708  30.389  33.345  1.00  0.00     0.074 A 
ATOM     75  C   UNL A   1      44.381  31.085  34.423  1.00  0.00     0.031 C 
ATOM     76  C   UNL A   1      44.149  29.235  32.791  1.00  0.00     0.031 A 
BRANCH  63  77
ATOM     77  C   UNL A   1      40.496  26.993  28.340  1.00  0.00    -0.014 A 
ATOM     78  C   UNL A   1      39.685  25.903  28.693  1.00  0.00     0.009 A 
ATOM     79  C   UNL A   1      41.025  27.055  27.042  1.00  0.00     0.009 A 
ATOM     80  C   UNL A   1      39.446  24.874  27.779  1.00  0.00     0.001 A 
ATOM     81  C   UNL A   1      40.759  26.040  26.121  1.00  0.00     0.001 A 
ATOM     82  C   UNL A   1      39.980  24.946  26.493  1.00  0.00     0.000 A 
ENDBRANCH  63  77
BRANCH  64  83
ATOM     83  C   UNL A   1      41.806  34.386  34.930  1.00  0.00    -0.014 A 
ATOM     84  C   UNL A   1      41.259  34.254  36.215  1.00  0.00     0.009 A 
ATOM     85  C   UNL A   1      42.526  35.550  34.616  1.00  0.00     0.009 A 
ATOM     86  C   UNL A   1      41.407  35.276  37.157  1.00  0.00     0.001 A 
ATOM     87  C   UNL A   1      42.695  36.558  35.568  1.00  0.00     0.001 A 
ATOM     88  C   UNL A   1      42.128  36.425  36.834  1.00  0.00     0.000 A 
ENDBRANCH  64  83
BRANCH  76  89
ATOM     89  C   UNL A   1      45.446  28.674  33.298  1.00  0.00    -0.014 A 
ATOM     90  C   UNL A   1      45.480  27.752  34.354  1.00  0.00     0.009 A 
ATOM     91  C   UNL A   1      46.646  29.024  32.657  1.00  0.00     0.009 A 
ATOM     92  C   UNL A   1      46.695  27.204  34.770  1.00  0.00     0.001 A 
ATOM     93  C   UNL A   1      47.855  28.455  33.059  1.00  0.00     0.001 A 
ATOM     94  C   UNL A   1      47.879  27.550  34.119  1.00  0.00     0.000 A 
ENDBRANCH  76  89
ENDBRANCH  50  51
ENDBRANCH  42  45
ENDBRANCH  40  41
ENDBRANCH  39  40
ENDBRANCH  38  39
ENDBRANCH  37  38
ENDBRANCH   3  37
TORSDOF 19
ENDMDL
MODEL 2
REMARK VINA RESULT:     -12.2      0.473      5.492
REMARK SMILES C[C@]12C[C@@H](O)[C@H]3[C@@H](CCC4=CC(=O)C=C[C@]43C)[C@H]1CC[C@@]2(O)C(=O)COC(=O)CCC(=O)NCCCCNC(=O)c1ccc(-c2c3nc(c(-c4ccccc4)c4ccc([nH]4)c(-c4ccccc4)c4nc(c(-c5ccccc5)c5ccc2[nH]5)C=C4)C=C3)cc1
REMARK SMILES IDX 31 1 32 2 33 3 30 5 29 6 27 7 28 8 26 9 25 10 23 11 24 12
REMARK SMILES IDX 21 13 17 14 16 15 15 16 10 17 6 18 14 19 11 20 9 21 7 22
REMARK SMILES IDX 4 23 12 24 8 25 18 26 3 27 13 28 2 29 19 30 1 31 20 32 5 33
REMARK SMILES IDX 22 35 34 37 35 38 36 39 37 40 38 41 39 42 40 44 41 45 42 46
REMARK SMILES IDX 88 47 43 48 87 49 44 50 45 51 46 52 81 53 47 54 86 55 80 56
REMARK SMILES IDX 82 57 48 58 85 59 79 60 78 61 49 63 71 64 56 65 70 66 57 67
REMARK SMILES IDX 60 68 69 69 83 70 58 71 59 72 68 74 84 75 61 76 50 77 51 78
REMARK SMILES IDX 55 79 52 80 54 81 53 82 72 83 73 84 77 85 74 86 76 87 75 88
REMARK SMILES IDX 62 89 63 90 67 91 64 92 66 93 65 94
REMARK H PARENT 33 4 5 34 22 36 38 43 82 62 60 73
REMARK Flexibility Score: inf
ROOT
ATOM      1  C   UNL A   1      29.625  29.756  23.149  1.00  0.00     0.220 C 
ATOM      2  O   UNL A   1      28.664  30.343  22.649  1.00  0.00    -0.275 OA
ATOM      3  N   UNL A   1      30.311  30.392  24.135  1.00  0.00    -0.356 N 
ATOM      4  H   UNL A   1      30.040  31.329  24.264  1.00  0.00     0.163 HD
ENDROOT
BRANCH   1   5
ATOM      5  C   UNL A   1      29.995  28.370  22.677  1.00  0.00     0.111 C 
BRANCH   5   6
ATOM      6  C   UNL A   1      29.312  27.271  23.475  1.00  0.00     0.132 C 
BRANCH   6   7
ATOM      7  C   UNL A   1      30.236  26.108  23.712  1.00  0.00     0.306 C 
ATOM      8  O   UNL A   1      29.989  24.952  23.408  1.00  0.00    -0.252 OA
BRANCH   7   9
ATOM      9  O   UNL A   1      31.396  26.541  24.270  1.00  0.00    -0.458 OA
BRANCH   9  10
ATOM     10  C   UNL A   1      32.566  25.840  23.907  1.00  0.00     0.311 C 
BRANCH  10  11
ATOM     11  C   UNL A   1      33.439  25.284  25.014  1.00  0.00     0.202 C 
ATOM     12  O   UNL A   1      33.561  25.965  26.046  1.00  0.00    -0.293 OA
BRANCH  11  13
ATOM     13  C   UNL A   1      34.337  24.049  24.865  1.00  0.00     0.132 C 
ATOM     14  C   UNL A   1      33.410  17.537  22.715  1.00  0.00     0.021 C 
ATOM     15  C   UNL A   1      33.664  18.102  24.148  1.00  0.00     0.013 C 
ATOM     16  C   UNL A   1      32.476  17.600  24.977  1.00  0.00    -0.012 C 
ATOM     17  C   UNL A   1      34.932  17.397  24.702  1.00  0.00    -0.056 C 
ATOM     18  C   UNL A   1      33.810  19.695  24.011  1.00  0.00     0.035 C 
ATOM     19  C   UNL A   1      32.420  16.349  25.471  1.00  0.00     0.048 C 
ATOM     20  C   UNL A   1      34.886  16.123  25.147  1.00  0.00     0.052 C 
ATOM     21  C   UNL A   1      36.212  18.132  24.986  1.00  0.00     0.032 C 
ATOM     22  C   UNL A   1      34.851  20.258  24.991  1.00  0.00    -0.000 C 
ATOM     23  C   UNL A   1      32.508  20.541  24.047  1.00  0.00     0.119 C 
ATOM     24  C   UNL A   1      33.587  15.445  25.326  1.00  0.00     0.178 C 
ATOM     25  C   UNL A   1      36.205  19.612  24.687  1.00  0.00     0.009 C 
ATOM     26  C   UNL A   1      35.015  21.785  24.960  1.00  0.00     0.002 C 
ATOM     27  C   UNL A   1      32.748  22.077  23.996  1.00  0.00     0.042 C 
ATOM     28  O   UNL A   1      33.500  14.234  25.460  1.00  0.00    -0.290 OA
ATOM     29  C   UNL A   1      33.718  22.611  25.084  1.00  0.00     0.009 C 
ATOM     30  C   UNL A   1      35.674  22.388  23.694  1.00  0.00     0.008 C 
ATOM     31  C   UNL A   1      33.039  22.481  26.457  1.00  0.00     0.015 C 
ATOM     32  C   UNL A   1      35.275  23.881  23.675  1.00  0.00     0.044 C 
BRANCH  23  33
ATOM     33  O   UNL A   1      31.647  20.202  22.960  1.00  0.00    -0.393 OA
ATOM     34  H   UNL A   1      32.140  19.677  22.310  1.00  0.00     0.210 HD
ENDBRANCH  23  33
BRANCH  13  35
ATOM     35  O   UNL A   1      35.252  24.303  25.989  1.00  0.00    -0.381 OA
ATOM     36  H   UNL A   1      35.175  23.586  26.637  1.00  0.00     0.212 HD
ENDBRANCH  13  35
ENDBRANCH  11  13
ENDBRANCH  10  11
ENDBRANCH   9  10
ENDBRANCH   7   9
ENDBRANCH   6   7
ENDBRANCH   5   6
ENDBRANCH   1   5
BRANCH   3  37
ATOM     37  C   UNL A   1      31.366  29.961  25.036  1.00  0.00     0.116 C 
BRANCH  37  38
ATOM     38  C   UNL A   1      31.438  30.796  26.320  1.00  0.00     0.023 C 
BRANCH  38  39
ATOM     39  C   UNL A   1      32.719  30.608  27.143  1.00  0.00     0.023 C 
BRANCH  39  40
ATOM     40  C   UNL A   1      33.604  31.827  27.391  1.00  0.00     0.116 C 
BRANCH  40  41
ATOM     41  N   UNL A   1      32.913  33.069  27.700  1.00  0.00    -0.352 N 
ATOM     42  C   UNL A   1      33.335  34.090  28.541  1.00  0.00     0.251 C 
ATOM     43  H   UNL A   1      32.042  33.202  27.259  1.00  0.00     0.163 HD
ATOM     44  O   UNL A   1      32.639  35.062  28.760  1.00  0.00    -0.269 OA
BRANCH  42  45
ATOM     45  C   UNL A   1      34.610  33.917  29.278  1.00  0.00     0.039 A 
ATOM     46  C   UNL A   1      34.556  33.277  30.521  1.00  0.00     0.014 A 
ATOM     47  C   UNL A   1      35.836  34.217  28.686  1.00  0.00     0.014 A 
ATOM     48  C   UNL A   1      35.731  32.796  31.097  1.00  0.00     0.010 A 
ATOM     49  C   UNL A   1      36.997  33.677  29.226  1.00  0.00     0.010 A 
ATOM     50  C   UNL A   1      36.947  32.920  30.409  1.00  0.00    -0.014 A 
BRANCH  50  51
ATOM     51  C   UNL A   1      38.166  32.201  30.855  1.00  0.00     0.031 A 
ATOM     52  C   UNL A   1      39.080  32.826  31.864  1.00  0.00     0.074 A 
ATOM     53  C   UNL A   1      38.508  31.041  30.254  1.00  0.00     0.049 A 
ATOM     54  N   UNL A   1      40.261  32.432  32.265  1.00  0.00    -0.248 NA
ATOM     55  C   UNL A   1      38.619  34.080  32.480  1.00  0.00     0.031 C 
ATOM     56  C   UNL A   1      37.723  30.351  29.226  1.00  0.00     0.029 A 
ATOM     57  N   UNL A   1      39.618  30.248  30.407  1.00  0.00    -0.354 N 
ATOM     58  C   UNL A   1      40.696  33.402  33.158  1.00  0.00     0.074 A 
ATOM     59  C   UNL A   1      39.671  34.422  33.210  1.00  0.00     0.031 C 
ATOM     60  C   UNL A   1      38.368  29.234  28.855  1.00  0.00     0.029 A 
ATOM     61  C   UNL A   1      39.631  29.150  29.580  1.00  0.00     0.049 A 
ATOM     62  H   UNL A   1      40.338  30.446  31.049  1.00  0.00     0.167 HD
ATOM     63  C   UNL A   1      41.841  33.432  33.879  1.00  0.00     0.031 A 
ATOM     64  C   UNL A   1      40.563  28.192  29.410  1.00  0.00     0.031 A 
ATOM     65  C   UNL A   1      42.850  32.410  33.835  1.00  0.00     0.049 A 
ATOM     66  C   UNL A   1      41.827  28.251  30.221  1.00  0.00     0.074 A 
ATOM     67  C   UNL A   1      44.020  32.320  34.568  1.00  0.00     0.029 A 
ATOM     68  N   UNL A   1      42.807  31.296  33.009  1.00  0.00    -0.354 N 
ATOM     69  N   UNL A   1      42.197  29.144  31.107  1.00  0.00    -0.248 NA
ATOM     70  C   UNL A   1      42.800  27.168  30.015  1.00  0.00     0.031 C 
ATOM     71  C   UNL A   1      44.706  31.175  34.156  1.00  0.00     0.029 A 
ATOM     72  C   UNL A   1      43.939  30.523  33.203  1.00  0.00     0.049 A 
ATOM     73  H   UNL A   1      42.082  31.088  32.378  1.00  0.00     0.167 HD
ATOM     74  C   UNL A   1      43.426  28.713  31.588  1.00  0.00     0.074 A 
ATOM     75  C   UNL A   1      43.737  27.477  30.900  1.00  0.00     0.031 C 
ATOM     76  C   UNL A   1      44.223  29.288  32.520  1.00  0.00     0.031 A 
BRANCH  63  77
ATOM     77  C   UNL A   1      42.060  34.621  34.772  1.00  0.00    -0.014 A 
ATOM     78  C   UNL A   1      41.612  34.623  36.102  1.00  0.00     0.009 A 
ATOM     79  C   UNL A   1      42.744  35.744  34.283  1.00  0.00     0.009 A 
ATOM     80  C   UNL A   1      41.807  35.745  36.911  1.00  0.00     0.001 A 
ATOM     81  C   UNL A   1      42.963  36.852  35.103  1.00  0.00     0.001 A 
ATOM     82  C   UNL A   1      42.485  36.856  36.412  1.00  0.00     0.000 A 
ENDBRANCH  63  77
BRANCH  64  83
ATOM     83  C   UNL A   1      40.332  27.087  28.444  1.00  0.00    -0.014 A 
ATOM     84  C   UNL A   1      40.819  27.177  27.131  1.00  0.00     0.009 A 
ATOM     85  C   UNL A   1      39.623  25.936  28.825  1.00  0.00     0.009 A 
ATOM     86  C   UNL A   1      40.580  26.151  26.213  1.00  0.00     0.001 A 
ATOM     87  C   UNL A   1      39.409  24.900  27.913  1.00  0.00     0.001 A 
ATOM     88  C   UNL A   1      39.879  25.012  26.606  1.00  0.00     0.000 A 
ENDBRANCH  64  83
BRANCH  76  89
ATOM     89  C   UNL A   1      45.485  28.565  32.894  1.00  0.00    -0.014 A 
ATOM     90  C   UNL A   1      46.675  28.756  32.177  1.00  0.00     0.009 A 
ATOM     91  C   UNL A   1      45.493  27.736  34.027  1.00  0.00     0.009 A 
ATOM     92  C   UNL A   1      47.848  28.113  32.579  1.00  0.00     0.001 A 
ATOM     93  C   UNL A   1      46.673  27.116  34.441  1.00  0.00     0.001 A 
ATOM     94  C   UNL A   1      47.848  27.301  33.713  1.00  0.00     0.000 A 
ENDBRANCH  76  89
ENDBRANCH  50  51
ENDBRANCH  42  45
ENDBRANCH  40  41
ENDBRANCH  39  40
ENDBRANCH  38  39
ENDBRANCH  37  38
ENDBRANCH   3  37
TORSDOF 19
ENDMDL
MODEL 3
REMARK VINA RESULT:     -12.0      5.754     10.860
REMARK SMILES C[C@]12C[C@@H](O)[C@H]3[C@@H](CCC4=CC(=O)C=C[C@]43C)[C@H]1CC[C@@]2(O)C(=O)COC(=O)CCC(=O)NCCCCNC(=O)c1ccc(-c2c3nc(c(-c4ccccc4)c4ccc([nH]4)c(-c4ccccc4)c4nc(c(-c5ccccc5)c5ccc2[nH]5)C=C4)C=C3)cc1
REMARK SMILES IDX 31 1 32 2 33 3 30 5 29 6 27 7 28 8 26 9 25 10 23 11 24 12
REMARK SMILES IDX 21 13 17 14 16 15 15 16 10 17 6 18 14 19 11 20 9 21 7 22
REMARK SMILES IDX 4 23 12 24 8 25 18 26 3 27 13 28 2 29 19 30 1 31 20 32 5 33
REMARK SMILES IDX 22 35 34 37 35 38 36 39 37 40 38 41 39 42 40 44 41 45 42 46
REMARK SMILES IDX 88 47 43 48 87 49 44 50 45 51 46 52 81 53 47 54 86 55 80 56
REMARK SMILES IDX 82 57 48 58 85 59 79 60 78 61 49 63 71 64 56 65 70 66 57 67
REMARK SMILES IDX 60 68 69 69 83 70 58 71 59 72 68 74 84 75 61 76 50 77 51 78
REMARK SMILES IDX 55 79 52 80 54 81 53 82 72 83 73 84 77 85 74 86 76 87 75 88
REMARK SMILES IDX 62 89 63 90 67 91 64 92 66 93 65 94
REMARK H PARENT 33 4 5 34 22 36 38 43 82 62 60 73
REMARK Flexibility Score: inf
ROOT
ATOM      1  C   UNL A   1      42.737  19.577  25.938  1.00  0.00     0.220 C 
ATOM      2  O   UNL A   1      42.422  18.453  25.542  1.00  0.00    -0.275 OA
ATOM      3  N   UNL A   1      43.480  20.355  25.106  1.00  0.00    -0.356 N 
ATOM      4  H   UNL A   1      43.803  19.881  24.306  1.00  0.00     0.163 HD
ENDROOT
BRANCH   1   5
ATOM      5  C   UNL A   1      42.286  20.056  27.297  1.00  0.00     0.111 C 
BRANCH   5   6
ATOM      6  C   UNL A   1      41.112  21.018  27.225  1.00  0.00     0.132 C 
BRANCH   6   7
ATOM      7  C   UNL A   1      41.428  22.324  27.902  1.00  0.00     0.306 C 
ATOM      8  O   UNL A   1      42.118  22.439  28.902  1.00  0.00    -0.252 OA
BRANCH   7   9
ATOM      9  O   UNL A   1      40.874  23.353  27.209  1.00  0.00    -0.458 OA
BRANCH   9  10
ATOM     10  C   UNL A   1      41.736  24.420  26.875  1.00  0.00     0.311 C 
BRANCH  10  11
ATOM     11  C   UNL A   1      41.653  25.691  27.696  1.00  0.00     0.202 C 
ATOM     12  O   UNL A   1      42.370  25.769  28.708  1.00  0.00    -0.293 OA
BRANCH  11  13
ATOM     13  C   UNL A   1      40.604  26.790  27.479  1.00  0.00     0.132 C 
ATOM     14  C   UNL A   1      38.718  32.516  30.878  1.00  0.00     0.021 C 
ATOM     15  C   UNL A   1      37.977  31.153  30.704  1.00  0.00     0.013 C 
ATOM     16  C   UNL A   1      37.718  30.669  32.136  1.00  0.00    -0.012 C 
ATOM     17  C   UNL A   1      36.592  31.459  30.073  1.00  0.00    -0.056 C 
ATOM     18  C   UNL A   1      38.914  30.215  29.799  1.00  0.00     0.035 C 
ATOM     19  C   UNL A   1      36.699  31.138  32.881  1.00  0.00     0.048 C 
ATOM     20  C   UNL A   1      35.588  31.981  30.809  1.00  0.00     0.052 C 
ATOM     21  C   UNL A   1      36.208  31.002  28.693  1.00  0.00     0.032 C 
ATOM     22  C   UNL A   1      38.088  29.326  28.856  1.00  0.00    -0.000 C 
ATOM     23  C   UNL A   1      40.008  29.382  30.520  1.00  0.00     0.119 C 
ATOM     24  C   UNL A   1      35.709  32.063  32.279  1.00  0.00     0.178 C 
ATOM     25  C   UNL A   1      37.261  30.228  27.937  1.00  0.00     0.009 C 
ATOM     26  C   UNL A   1      38.908  28.359  27.988  1.00  0.00     0.002 C 
ATOM     27  C   UNL A   1      40.811  28.438  29.579  1.00  0.00     0.042 C 
ATOM     28  O   UNL A   1      34.965  32.758  32.953  1.00  0.00    -0.290 OA
ATOM     29  C   UNL A   1      39.932  27.477  28.734  1.00  0.00     0.009 C 
ATOM     30  C   UNL A   1      39.770  28.991  26.866  1.00  0.00     0.008 C 
ATOM     31  C   UNL A   1      39.282  26.448  29.673  1.00  0.00     0.015 C 
ATOM     32  C   UNL A   1      40.836  27.935  26.499  1.00  0.00     0.044 C 
BRANCH  23  33
ATOM     33  O   UNL A   1      40.946  30.232  31.180  1.00  0.00    -0.393 OA
ATOM     34  H   UNL A   1      41.730  30.344  30.620  1.00  0.00     0.210 HD
ENDBRANCH  23  33
BRANCH  13  35
ATOM     35  O   UNL A   1      39.567  25.980  26.821  1.00  0.00    -0.381 OA
ATOM     36  H   UNL A   1      39.837  25.791  25.908  1.00  0.00     0.212 HD
ENDBRANCH  13  35
ENDBRANCH  11  13
ENDBRANCH  10  11
ENDBRANCH   9  10
ENDBRANCH   7   9
ENDBRANCH   6   7
ENDBRANCH   5   6
ENDBRANCH   1   5
BRANCH   3  37
ATOM     37  C   UNL A   1      43.892  21.747  25.167  1.00  0.00     0.116 C 
BRANCH  37  38
ATOM     38  C   UNL A   1      45.219  21.949  25.907  1.00  0.00     0.023 C 
BRANCH  38  39
ATOM     39  C   UNL A   1      45.136  22.838  27.155  1.00  0.00     0.023 C 
BRANCH  39  40
ATOM     40  C   UNL A   1      45.763  24.228  27.096  1.00  0.00     0.116 C 
BRANCH  40  41
ATOM     41  N   UNL A   1      46.372  24.603  25.828  1.00  0.00    -0.352 N 
ATOM     42  C   UNL A   1      46.631  25.883  25.356  1.00  0.00     0.251 C 
ATOM     43  H   UNL A   1      46.632  23.861  25.236  1.00  0.00     0.163 HD
ATOM     44  O   UNL A   1      47.099  26.070  24.251  1.00  0.00    -0.269 OA
BRANCH  42  45
ATOM     45  C   UNL A   1      46.204  27.040  26.180  1.00  0.00     0.039 A 
ATOM     46  C   UNL A   1      44.865  27.434  26.096  1.00  0.00     0.014 A 
ATOM     47  C   UNL A   1      47.054  27.604  27.132  1.00  0.00     0.014 A 
ATOM     48  C   UNL A   1      44.336  28.279  27.072  1.00  0.00     0.010 A 
ATOM     49  C   UNL A   1      46.509  28.389  28.142  1.00  0.00     0.010 A 
ATOM     50  C   UNL A   1      45.137  28.693  28.146  1.00  0.00    -0.014 A 
BRANCH  50  51
ATOM     51  C   UNL A   1      44.554  29.368  29.332  1.00  0.00     0.031 A 
ATOM     52  C   UNL A   1      44.237  28.578  30.565  1.00  0.00     0.074 A 
ATOM     53  C   UNL A   1      44.198  30.667  29.246  1.00  0.00     0.049 A 
ATOM     54  N   UNL A   1      43.590  28.949  31.639  1.00  0.00    -0.248 NA
ATOM     55  C   UNL A   1      44.677  27.174  30.578  1.00  0.00     0.031 C 
ATOM     56  C   UNL A   1      44.415  31.535  28.085  1.00  0.00     0.029 A 
ATOM     57  N   UNL A   1      43.557  31.481  30.148  1.00  0.00    -0.354 N 
ATOM     58  C   UNL A   1      43.521  27.819  32.443  1.00  0.00     0.074 A 
ATOM     59  C   UNL A   1      44.156  26.741  31.716  1.00  0.00     0.031 C 
ATOM     60  C   UNL A   1      43.931  32.758  28.351  1.00  0.00     0.029 A 
ATOM     61  C   UNL A   1      43.329  32.752  29.680  1.00  0.00     0.049 A 
ATOM     62  H   UNL A   1      43.287  31.181  31.046  1.00  0.00     0.167 HD
ATOM     63  C   UNL A   1      42.987  27.695  33.681  1.00  0.00     0.031 A 
ATOM     64  C   UNL A   1      42.691  33.793  30.248  1.00  0.00     0.031 A 
ATOM     65  C   UNL A   1      42.369  28.772  34.405  1.00  0.00     0.049 A 
ATOM     66  C   UNL A   1      42.104  33.629  31.623  1.00  0.00     0.074 A 
ATOM     67  C   UNL A   1      41.848  28.762  35.686  1.00  0.00     0.029 A 
ATOM     68  N   UNL A   1      42.190  30.054  33.908  1.00  0.00    -0.354 N 
ATOM     69  N   UNL A   1      42.100  32.569  32.395  1.00  0.00    -0.248 NA
ATOM     70  C   UNL A   1      41.439  34.803  32.207  1.00  0.00     0.031 C 
ATOM     71  C   UNL A   1      41.315  30.027  35.950  1.00  0.00     0.029 A 
ATOM     72  C   UNL A   1      41.550  30.839  34.852  1.00  0.00     0.049 A 
ATOM     73  H   UNL A   1      42.473  30.360  33.016  1.00  0.00     0.167 HD
ATOM     74  C   UNL A   1      41.467  32.959  33.568  1.00  0.00     0.074 A 
ATOM     75  C   UNL A   1      41.103  34.352  33.407  1.00  0.00     0.031 C 
ATOM     76  C   UNL A   1      41.212  32.228  34.679  1.00  0.00     0.031 A 
BRANCH  63  77
ATOM     77  C   UNL A   1      43.045  26.337  34.322  1.00  0.00    -0.014 A 
ATOM     78  C   UNL A   1      44.268  25.673  34.510  1.00  0.00     0.009 A 
ATOM     79  C   UNL A   1      41.863  25.723  34.763  1.00  0.00     0.009 A 
ATOM     80  C   UNL A   1      44.300  24.403  35.090  1.00  0.00     0.001 A 
ATOM     81  C   UNL A   1      41.902  24.465  35.368  1.00  0.00     0.001 A 
ATOM     82  C   UNL A   1      43.118  23.802  35.521  1.00  0.00     0.000 A 
ENDBRANCH  63  77
BRANCH  64  83
ATOM     83  C   UNL A   1      42.584  35.089  29.529  1.00  0.00    -0.014 A 
ATOM     84  C   UNL A   1      43.528  36.104  29.750  1.00  0.00     0.009 A 
ATOM     85  C   UNL A   1      41.540  35.323  28.621  1.00  0.00     0.009 A 
ATOM     86  C   UNL A   1      43.415  37.334  29.095  1.00  0.00     0.001 A 
ATOM     87  C   UNL A   1      41.444  36.544  27.947  1.00  0.00     0.001 A 
ATOM     88  C   UNL A   1      42.376  37.551  28.191  1.00  0.00     0.000 A 
ENDBRANCH  64  83
BRANCH  76  89
ATOM     89  C   UNL A   1      40.555  32.928  35.833  1.00  0.00    -0.014 A 
ATOM     90  C   UNL A   1      41.312  33.490  36.872  1.00  0.00     0.009 A 
ATOM     91  C   UNL A   1      39.160  33.088  35.839  1.00  0.00     0.009 A 
ATOM     92  C   UNL A   1      40.680  34.184  37.905  1.00  0.00     0.001 A 
ATOM     93  C   UNL A   1      38.534  33.803  36.860  1.00  0.00     0.001 A 
ATOM     94  C   UNL A   1      39.294  34.347  37.895  1.00  0.00     0.000 A 
ENDBRANCH  76  89
ENDBRANCH  50  51
ENDBRANCH  42  45
ENDBRANCH  40  41
ENDBRANCH  39  40
ENDBRANCH  38  39
ENDBRANCH  37  38
ENDBRANCH   3  37
TORSDOF 19
ENDMDL
