MODEL 1
REMARK VINA RESULT:      -9.9      0.000      0.000
REMARK SMILES CC[C@H]1CC[C@](O)([C@H](F)C(=O)NCCCCNC(=O)c2ccc(-c3c4nc(c(-c5ccccc5)c5ccc([nH]5)c(-c5ccccc5)c5nc(c(-c6ccccc6)c6ccc3[nH]6)C=C5)C=C4)cc2)CC1
REMARK SMILES IDX 14 1 13 2 12 3 10 4 11 5 8 7 9 8 6 9 3 10 4 11 69 12 5 13
REMARK SMILES IDX 68 14 2 15 1 16 7 17 15 19 16 20 17 21 18 22 19 24 20 25
REMARK SMILES IDX 21 26 67 27 22 28 66 29 23 30 24 31 25 32 60 33 26 34 65 35
REMARK SMILES IDX 59 36 61 37 27 38 64 39 58 40 57 41 28 43 50 44 35 45 49 46
REMARK SMILES IDX 36 47 39 48 48 49 62 50 37 51 38 52 47 54 63 55 40 56 29 57
REMARK SMILES IDX 30 58 34 59 31 60 33 61 32 62 51 63 52 64 56 65 53 66 55 67
REMARK SMILES IDX 54 68 41 69 42 70 46 71 43 72 45 73 44 74
REMARK H PARENT 12 6 7 18 17 23 61 42 39 53
REMARK Flexibility Score: inf
ROOT
ATOM      1  C   UNL A   1      33.412  35.094  28.716  1.00  0.00     0.023 C 
ENDROOT
BRANCH   1   2
ATOM      2  C   UNL A   1      33.424  36.393  29.503  1.00  0.00     0.116 C 
BRANCH   2   3
ATOM      3  N   UNL A   1      32.509  36.474  30.614  1.00  0.00    -0.353 N 
ATOM      4  C   UNL A   1      32.820  36.337  31.942  1.00  0.00     0.257 C 
ATOM      5  O   UNL A   1      31.985  36.739  32.759  1.00  0.00    -0.272 OA
ATOM      6  H   UNL A   1      31.564  36.647  30.397  1.00  0.00     0.163 HD
BRANCH   4   7
ATOM      7  C   UNL A   1      34.145  35.707  32.400  1.00  0.00     0.286 C 
ATOM      8  F   UNL A   1      34.826  36.496  33.290  1.00  0.00    -0.234 F 
BRANCH   7   9
ATOM      9  C   UNL A   1      34.171  34.222  32.888  1.00  0.00     0.105 C 
ATOM     10  C   UNL A   1      36.976  33.030  32.918  1.00  0.00    -0.011 C 
ATOM     11  C   UNL A   1      36.432  33.885  34.077  1.00  0.00     0.006 C 
ATOM     12  C   UNL A   1      36.117  33.029  31.640  1.00  0.00     0.006 C 
ATOM     13  C   UNL A   1      34.913  33.951  34.202  1.00  0.00     0.039 C 
ATOM     14  C   UNL A   1      34.618  33.202  31.824  1.00  0.00     0.039 C 
BRANCH  10  15
ATOM     15  C   UNL A   1      37.394  31.608  33.347  1.00  0.00    -0.000 C 
ATOM     16  C   UNL A   1      38.788  31.473  33.929  1.00  0.00     0.004 C 
ENDBRANCH  10  15
BRANCH   9  17
ATOM     17  O   UNL A   1      32.775  33.894  33.156  1.00  0.00    -0.386 OA
ATOM     18  H   UNL A   1      32.203  34.397  32.555  1.00  0.00     0.211 HD
ENDBRANCH   9  17
ENDBRANCH   7   9
ENDBRANCH   4   7
ENDBRANCH   2   3
ENDBRANCH   1   2
BRANCH   1  19
ATOM     19  C   UNL A   1      34.715  34.726  28.009  1.00  0.00     0.023 C 
BRANCH  19  20
ATOM     20  C   UNL A   1      35.193  33.280  28.140  1.00  0.00     0.116 C 
BRANCH  20  21
ATOM     21  N   UNL A   1      34.163  32.283  27.886  1.00  0.00    -0.352 N 
ATOM     22  C   UNL A   1      34.244  30.905  27.889  1.00  0.00     0.251 C 
ATOM     23  H   UNL A   1      33.272  32.646  27.679  1.00  0.00     0.163 HD
ATOM     24  O   UNL A   1      33.267  30.231  27.594  1.00  0.00    -0.269 OA
BRANCH  22  25
ATOM     25  C   UNL A   1      35.530  30.238  28.201  1.00  0.00     0.039 A 
ATOM     26  C   UNL A   1      36.491  30.130  27.191  1.00  0.00     0.014 A 
ATOM     27  C   UNL A   1      35.806  29.757  29.482  1.00  0.00     0.014 A 
ATOM     28  C   UNL A   1      37.766  29.644  27.494  1.00  0.00     0.010 A 
ATOM     29  C   UNL A   1      37.099  29.342  29.800  1.00  0.00     0.010 A 
ATOM     30  C   UNL A   1      38.099  29.302  28.815  1.00  0.00    -0.014 A 
BRANCH  30  31
ATOM     31  C   UNL A   1      39.493  28.945  29.193  1.00  0.00     0.031 A 
ATOM     32  C   UNL A   1      40.363  29.930  29.924  1.00  0.00     0.074 A 
ATOM     33  C   UNL A   1      40.004  27.756  28.812  1.00  0.00     0.049 A 
ATOM     34  N   UNL A   1      41.627  29.825  30.257  1.00  0.00    -0.248 NA
ATOM     35  C   UNL A   1      39.743  31.205  30.313  1.00  0.00     0.031 C 
ATOM     36  C   UNL A   1      39.287  26.722  28.062  1.00  0.00     0.029 A 
ATOM     37  N   UNL A   1      41.256  27.221  28.993  1.00  0.00    -0.354 N 
ATOM     38  C   UNL A   1      41.952  31.022  30.883  1.00  0.00     0.074 A 
ATOM     39  C   UNL A   1      40.769  31.855  30.841  1.00  0.00     0.031 C 
ATOM     40  C   UNL A   1      40.102  25.673  27.867  1.00  0.00     0.029 A 
ATOM     41  C   UNL A   1      41.410  25.972  28.439  1.00  0.00     0.049 A 
ATOM     42  H   UNL A   1      41.977  27.688  29.475  1.00  0.00     0.167 HD
ATOM     43  C   UNL A   1      43.121  31.389  31.460  1.00  0.00     0.031 A 
ATOM     44  C   UNL A   1      42.484  25.161  28.387  1.00  0.00     0.031 A 
ATOM     45  C   UNL A   1      44.298  30.564  31.515  1.00  0.00     0.049 A 
ATOM     46  C   UNL A   1      43.775  25.602  29.022  1.00  0.00     0.074 A 
ATOM     47  C   UNL A   1      45.518  30.842  32.109  1.00  0.00     0.029 A 
ATOM     48  N   UNL A   1      44.403  29.300  30.960  1.00  0.00    -0.354 N 
ATOM     49  N   UNL A   1      44.045  26.715  29.655  1.00  0.00    -0.248 NA
ATOM     50  C   UNL A   1      44.904  24.663  28.941  1.00  0.00     0.031 C 
ATOM     51  C   UNL A   1      46.373  29.759  31.882  1.00  0.00     0.029 A 
ATOM     52  C   UNL A   1      45.669  28.788  31.188  1.00  0.00     0.049 A 
ATOM     53  H   UNL A   1      43.684  28.833  30.475  1.00  0.00     0.167 HD
ATOM     54  C   UNL A   1      45.364  26.600  30.075  1.00  0.00     0.074 A 
ATOM     55  C   UNL A   1      45.834  25.302  29.639  1.00  0.00     0.031 C 
ATOM     56  C   UNL A   1      46.120  27.491  30.759  1.00  0.00     0.031 A 
BRANCH  43  57
ATOM     57  C   UNL A   1      43.183  32.750  32.094  1.00  0.00    -0.014 A 
ATOM     58  C   UNL A   1      43.570  33.874  31.348  1.00  0.00     0.009 A 
ATOM     59  C   UNL A   1      42.798  32.920  33.432  1.00  0.00     0.009 A 
ATOM     60  C   UNL A   1      43.597  35.139  31.939  1.00  0.00     0.001 A 
ATOM     61  C   UNL A   1      42.801  34.190  34.013  1.00  0.00     0.001 A 
ATOM     62  C   UNL A   1      43.207  35.296  33.267  1.00  0.00     0.000 A 
ENDBRANCH  43  57
BRANCH  44  63
ATOM     63  C   UNL A   1      42.398  23.840  27.710  1.00  0.00    -0.014 A 
ATOM     64  C   UNL A   1      42.029  22.693  28.430  1.00  0.00     0.009 A 
ATOM     65  C   UNL A   1      42.721  23.712  26.350  1.00  0.00     0.009 A 
ATOM     66  C   UNL A   1      42.024  21.441  27.813  1.00  0.00     0.001 A 
ATOM     67  C   UNL A   1      42.686  22.463  25.728  1.00  0.00     0.001 A 
ATOM     68  C   UNL A   1      42.350  21.326  26.462  1.00  0.00     0.000 A 
ENDBRANCH  44  63
BRANCH  56  69
ATOM     69  C   UNL A   1      47.518  27.076  31.120  1.00  0.00    -0.014 A 
ATOM     70  C   UNL A   1      47.781  26.336  32.283  1.00  0.00     0.009 A 
ATOM     71  C   UNL A   1      48.580  27.400  30.263  1.00  0.00     0.009 A 
ATOM     72  C   UNL A   1      49.088  25.956  32.596  1.00  0.00     0.001 A 
ATOM     73  C   UNL A   1      49.881  26.995  30.564  1.00  0.00     0.001 A 
ATOM     74  C   UNL A   1      50.135  26.281  31.734  1.00  0.00     0.000 A 
ENDBRANCH  56  69
ENDBRANCH  30  31
ENDBRANCH  22  25
ENDBRANCH  20  21
ENDBRANCH  19  20
ENDBRANCH   1  19
TORSDOF 14
ENDMDL
MODEL 2
REMARK VINA RESULT:      -9.9      4.505     11.528
REMARK SMILES CC[C@H]1CC[C@](O)([C@H](F)C(=O)NCCCCNC(=O)c2ccc(-c3c4nc(c(-c5ccccc5)c5ccc([nH]5)c(-c5ccccc5)c5nc(c(-c6ccccc6)c6ccc3[nH]6)C=C5)C=C4)cc2)CC1
REMARK SMILES IDX 14 1 13 2 12 3 10 4 11 5 8 7 9 8 6 9 3 10 4 11 69 12 5 13
REMARK SMILES IDX 68 14 2 15 1 16 7 17 15 19 16 20 17 21 18 22 19 24 20 25
REMARK SMILES IDX 21 26 67 27 22 28 66 29 23 30 24 31 25 32 60 33 26 34 65 35
REMARK SMILES IDX 59 36 61 37 27 38 64 39 58 40 57 41 28 43 50 44 35 45 49 46
REMARK SMILES IDX 36 47 39 48 48 49 62 50 37 51 38 52 47 54 63 55 40 56 29 57
REMARK SMILES IDX 30 58 34 59 31 60 33 61 32 62 51 63 52 64 56 65 53 66 55 67
REMARK SMILES IDX 54 68 41 69 42 70 46 71 43 72 45 73 44 74
REMARK H PARENT 12 6 7 18 17 23 61 42 39 53
REMARK Flexibility Score: inf
ROOT
ATOM      1  C   UNL A   1      41.508  19.175  25.755  1.00  0.00     0.023 C 
ENDROOT
BRANCH   1   2
ATOM      2  C   UNL A   1      42.959  18.849  26.062  1.00  0.00     0.116 C 
BRANCH   2   3
ATOM      3  N   UNL A   1      43.822  18.649  24.926  1.00  0.00    -0.353 N 
ATOM      4  C   UNL A   1      44.902  19.416  24.573  1.00  0.00     0.257 C 
ATOM      5  O   UNL A   1      45.698  18.927  23.765  1.00  0.00    -0.272 OA
ATOM      6  H   UNL A   1      43.616  17.881  24.344  1.00  0.00     0.163 HD
BRANCH   4   7
ATOM      7  C   UNL A   1      45.114  20.825  25.150  1.00  0.00     0.286 C 
ATOM      8  F   UNL A   1      46.366  20.995  25.682  1.00  0.00    -0.234 F 
BRANCH   7   9
ATOM      9  C   UNL A   1      44.730  22.078  24.298  1.00  0.00     0.105 C 
ATOM     10  C   UNL A   1      44.662  24.650  25.933  1.00  0.00    -0.011 C 
ATOM     11  C   UNL A   1      45.967  24.079  25.350  1.00  0.00     0.006 C 
ATOM     12  C   UNL A   1      43.442  23.713  25.860  1.00  0.00     0.006 C 
ATOM     13  C   UNL A   1      45.812  23.154  24.146  1.00  0.00     0.039 C 
ATOM     14  C   UNL A   1      43.396  22.741  24.691  1.00  0.00     0.039 C 
BRANCH  10  15
ATOM     15  C   UNL A   1      44.338  26.075  25.440  1.00  0.00    -0.000 C 
ATOM     16  C   UNL A   1      45.532  26.963  25.146  1.00  0.00     0.004 C 
ENDBRANCH  10  15
BRANCH   9  17
ATOM     17  O   UNL A   1      44.508  21.560  22.952  1.00  0.00    -0.386 OA
ATOM     18  H   UNL A   1      44.383  20.599  22.993  1.00  0.00     0.211 HD
ENDBRANCH   9  17
ENDBRANCH   7   9
ENDBRANCH   4   7
ENDBRANCH   2   3
ENDBRANCH   1   2
BRANCH   1  19
ATOM     19  C   UNL A   1      40.764  19.992  26.810  1.00  0.00     0.023 C 
BRANCH  19  20
ATOM     20  C   UNL A   1      40.656  21.497  26.574  1.00  0.00     0.116 C 
BRANCH  20  21
ATOM     21  N   UNL A   1      39.383  21.926  26.012  1.00  0.00    -0.352 N 
ATOM     22  C   UNL A   1      38.765  23.159  26.059  1.00  0.00     0.251 C 
ATOM     23  H   UNL A   1      38.887  21.231  25.524  1.00  0.00     0.163 HD
ATOM     24  O   UNL A   1      37.656  23.310  25.564  1.00  0.00    -0.269 OA
BRANCH  22  25
ATOM     25  C   UNL A   1      39.419  24.292  26.753  1.00  0.00     0.039 A 
ATOM     26  C   UNL A   1      40.170  25.197  25.997  1.00  0.00     0.014 A 
ATOM     27  C   UNL A   1      39.265  24.489  28.126  1.00  0.00     0.014 A 
ATOM     28  C   UNL A   1      40.671  26.356  26.597  1.00  0.00     0.010 A 
ATOM     29  C   UNL A   1      39.700  25.680  28.707  1.00  0.00     0.010 A 
ATOM     30  C   UNL A   1      40.388  26.637  27.944  1.00  0.00    -0.014 A 
BRANCH  30  31
ATOM     31  C   UNL A   1      40.764  27.938  28.558  1.00  0.00     0.031 A 
ATOM     32  C   UNL A   1      42.160  28.168  29.068  1.00  0.00     0.074 A 
ATOM     33  C   UNL A   1      39.826  28.893  28.727  1.00  0.00     0.049 A 
ATOM     34  N   UNL A   1      42.644  29.204  29.709  1.00  0.00    -0.248 NA
ATOM     35  C   UNL A   1      43.134  27.089  28.848  1.00  0.00     0.031 C 
ATOM     36  C   UNL A   1      38.422  28.790  28.319  1.00  0.00     0.029 A 
ATOM     37  N   UNL A   1      39.909  30.139  29.300  1.00  0.00    -0.354 N 
ATOM     38  C   UNL A   1      43.972  28.895  29.977  1.00  0.00     0.074 A 
ATOM     39  C   UNL A   1      44.204  27.559  29.472  1.00  0.00     0.031 C 
ATOM     40  C   UNL A   1      37.786  29.929  28.635  1.00  0.00     0.029 A 
ATOM     41  C   UNL A   1      38.720  30.827  29.304  1.00  0.00     0.049 A 
ATOM     42  H   UNL A   1      40.744  30.505  29.674  1.00  0.00     0.167 HD
ATOM     43  C   UNL A   1      44.919  29.660  30.569  1.00  0.00     0.031 A 
ATOM     44  C   UNL A   1      38.410  32.041  29.799  1.00  0.00     0.031 A 
ATOM     45  C   UNL A   1      44.699  30.993  31.065  1.00  0.00     0.049 A 
ATOM     46  C   UNL A   1      39.478  32.862  30.468  1.00  0.00     0.074 A 
ATOM     47  C   UNL A   1      45.612  31.855  31.651  1.00  0.00     0.029 A 
ATOM     48  N   UNL A   1      43.486  31.658  31.030  1.00  0.00    -0.354 N 
ATOM     49  N   UNL A   1      40.740  32.573  30.663  1.00  0.00    -0.248 NA
ATOM     50  C   UNL A   1      39.076  34.184  30.973  1.00  0.00     0.031 C 
ATOM     51  C   UNL A   1      44.939  33.030  32.003  1.00  0.00     0.029 A 
ATOM     52  C   UNL A   1      43.621  32.916  31.593  1.00  0.00     0.049 A 
ATOM     53  H   UNL A   1      42.650  31.292  30.659  1.00  0.00     0.167 HD
ATOM     54  C   UNL A   1      41.290  33.686  31.286  1.00  0.00     0.074 A 
ATOM     55  C   UNL A   1      40.230  34.661  31.420  1.00  0.00     0.031 C 
ATOM     56  C   UNL A   1      42.561  33.882  31.710  1.00  0.00     0.031 A 
BRANCH  43  57
ATOM     57  C   UNL A   1      46.296  29.074  30.707  1.00  0.00    -0.014 A 
ATOM     58  C   UNL A   1      46.654  28.337  31.847  1.00  0.00     0.009 A 
ATOM     59  C   UNL A   1      47.225  29.212  29.665  1.00  0.00     0.009 A 
ATOM     60  C   UNL A   1      47.926  27.772  31.953  1.00  0.00     0.001 A 
ATOM     61  C   UNL A   1      48.488  28.624  29.762  1.00  0.00     0.001 A 
ATOM     62  C   UNL A   1      48.839  27.911  30.909  1.00  0.00     0.000 A 
ENDBRANCH  43  57
BRANCH  44  63
ATOM     63  C   UNL A   1      37.024  32.569  29.685  1.00  0.00    -0.014 A 
ATOM     64  C   UNL A   1      36.651  33.362  28.588  1.00  0.00     0.009 A 
ATOM     65  C   UNL A   1      36.079  32.316  30.691  1.00  0.00     0.009 A 
ATOM     66  C   UNL A   1      35.374  33.922  28.521  1.00  0.00     0.001 A 
ATOM     67  C   UNL A   1      34.793  32.852  30.606  1.00  0.00     0.001 A 
ATOM     68  C   UNL A   1      34.445  33.665  29.529  1.00  0.00     0.000 A 
ENDBRANCH  44  63
BRANCH  56  69
ATOM     69  C   UNL A   1      42.888  35.216  32.317  1.00  0.00    -0.014 A 
ATOM     70  C   UNL A   1      43.511  36.225  31.567  1.00  0.00     0.009 A 
ATOM     71  C   UNL A   1      42.531  35.478  33.648  1.00  0.00     0.009 A 
ATOM     72  C   UNL A   1      43.800  37.461  32.151  1.00  0.00     0.001 A 
ATOM     73  C   UNL A   1      42.796  36.723  34.221  1.00  0.00     0.001 A 
ATOM     74  C   UNL A   1      43.438  37.710  33.475  1.00  0.00     0.000 A 
ENDBRANCH  56  69
ENDBRANCH  30  31
ENDBRANCH  22  25
ENDBRANCH  20  21
ENDBRANCH  19  20
ENDBRANCH   1  19
TORSDOF 14
ENDMDL
MODEL 3
REMARK VINA RESULT:      -9.5      1.158      1.805
REMARK SMILES CC[C@H]1CC[C@](O)([C@H](F)C(=O)NCCCCNC(=O)c2ccc(-c3c4nc(c(-c5ccccc5)c5ccc([nH]5)c(-c5ccccc5)c5nc(c(-c6ccccc6)c6ccc3[nH]6)C=C5)C=C4)cc2)CC1
REMARK SMILES IDX 14 1 13 2 12 3 10 4 11 5 8 7 9 8 6 9 3 10 4 11 69 12 5 13
REMARK SMILES IDX 68 14 2 15 1 16 7 17 15 19 16 20 17 21 18 22 19 24 20 25
REMARK SMILES IDX 21 26 67 27 22 28 66 29 23 30 24 31 25 32 60 33 26 34 65 35
REMARK SMILES IDX 59 36 61 37 27 38 64 39 58 40 57 41 28 43 50 44 35 45 49 46
REMARK SMILES IDX 36 47 39 48 48 49 62 50 37 51 38 52 47 54 63 55 40 56 29 57
REMARK SMILES IDX 30 58 34 59 31 60 33 61 32 62 51 63 52 64 56 65 53 66 55 67
REMARK SMILES IDX 54 68 41 69 42 70 46 71 43 72 45 73 44 74
REMARK H PARENT 12 6 7 18 17 23 61 42 39 53
REMARK Flexibility Score: inf
ROOT
ATOM      1  C   UNL A   1      33.296  34.749  29.101  1.00  0.00     0.023 C 
ENDROOT
BRANCH   1   2
ATOM      2  C   UNL A   1      34.179  34.565  30.323  1.00  0.00     0.116 C 
BRANCH   2   3
ATOM      3  N   UNL A   1      34.029  35.541  31.372  1.00  0.00    -0.353 N 
ATOM      4  C   UNL A   1      34.624  35.514  32.607  1.00  0.00     0.257 C 
ATOM      5  O   UNL A   1      34.630  36.568  33.250  1.00  0.00    -0.272 OA
ATOM      6  H   UNL A   1      33.439  36.306  31.182  1.00  0.00     0.163 HD
BRANCH   4   7
ATOM      7  C   UNL A   1      35.252  34.230  33.172  1.00  0.00     0.286 C 
ATOM      8  F   UNL A   1      34.425  33.142  33.059  1.00  0.00    -0.234 F 
BRANCH   7   9
ATOM      9  C   UNL A   1      36.706  33.830  32.757  1.00  0.00     0.105 C 
ATOM     10  C   UNL A   1      37.637  31.232  34.050  1.00  0.00    -0.011 C 
ATOM     11  C   UNL A   1      36.784  31.255  32.769  1.00  0.00     0.006 C 
ATOM     12  C   UNL A   1      37.773  32.583  34.776  1.00  0.00     0.006 C 
ATOM     13  C   UNL A   1      36.850  32.538  31.946  1.00  0.00     0.039 C 
ATOM     14  C   UNL A   1      37.728  33.831  33.910  1.00  0.00     0.039 C 
BRANCH  10  15
ATOM     15  C   UNL A   1      38.995  30.521  33.872  1.00  0.00    -0.000 C 
ATOM     16  C   UNL A   1      40.210  31.274  34.377  1.00  0.00     0.004 C 
ENDBRANCH  10  15
BRANCH   9  17
ATOM     17  O   UNL A   1      37.146  34.898  31.866  1.00  0.00    -0.386 OA
ATOM     18  H   UNL A   1      37.676  35.538  32.366  1.00  0.00     0.211 HD
ENDBRANCH   9  17
ENDBRANCH   7   9
ENDBRANCH   4   7
ENDBRANCH   2   3
ENDBRANCH   1   2
BRANCH   1  19
ATOM     19  C   UNL A   1      33.418  33.679  28.017  1.00  0.00     0.023 C 
BRANCH  19  20
ATOM     20  C   UNL A   1      34.352  32.504  28.302  1.00  0.00     0.116 C 
BRANCH  20  21
ATOM     21  N   UNL A   1      33.822  31.207  27.906  1.00  0.00    -0.352 N 
ATOM     22  C   UNL A   1      34.442  29.975  27.857  1.00  0.00     0.251 C 
ATOM     23  H   UNL A   1      32.877  31.208  27.631  1.00  0.00     0.163 HD
ATOM     24  O   UNL A   1      33.835  28.997  27.439  1.00  0.00    -0.269 OA
BRANCH  22  25
ATOM     25  C   UNL A   1      35.860  29.840  28.261  1.00  0.00     0.039 A 
ATOM     26  C   UNL A   1      36.149  29.392  29.553  1.00  0.00     0.014 A 
ATOM     27  C   UNL A   1      36.899  30.112  27.368  1.00  0.00     0.014 A 
ATOM     28  C   UNL A   1      37.470  29.110  29.912  1.00  0.00     0.010 A 
ATOM     29  C   UNL A   1      38.206  29.761  27.701  1.00  0.00     0.010 A 
ATOM     30  C   UNL A   1      38.504  29.235  28.968  1.00  0.00    -0.014 A 
BRANCH  30  31
ATOM     31  C   UNL A   1      39.888  28.783  29.273  1.00  0.00     0.031 A 
ATOM     32  C   UNL A   1      40.858  29.702  29.962  1.00  0.00     0.074 A 
ATOM     33  C   UNL A   1      40.298  27.566  28.861  1.00  0.00     0.049 A 
ATOM     34  N   UNL A   1      42.127  29.511  30.231  1.00  0.00    -0.248 NA
ATOM     35  C   UNL A   1      40.345  31.012  30.389  1.00  0.00     0.031 C 
ATOM     36  C   UNL A   1      39.477  26.587  28.144  1.00  0.00     0.029 A 
ATOM     37  N   UNL A   1      41.520  26.947  28.975  1.00  0.00    -0.354 N 
ATOM     38  C   UNL A   1      42.562  30.679  30.844  1.00  0.00     0.074 A 
ATOM     39  C   UNL A   1      41.438  31.589  30.867  1.00  0.00     0.031 C 
ATOM     40  C   UNL A   1      40.209  25.488  27.903  1.00  0.00     0.029 A 
ATOM     41  C   UNL A   1      41.561  25.695  28.409  1.00  0.00     0.049 A 
ATOM     42  H   UNL A   1      42.294  27.361  29.422  1.00  0.00     0.167 HD
ATOM     43  C   UNL A   1      43.781  30.962  31.362  1.00  0.00     0.031 A 
ATOM     44  C   UNL A   1      42.575  24.815  28.298  1.00  0.00     0.031 A 
ATOM     45  C   UNL A   1      44.902  30.060  31.353  1.00  0.00     0.049 A 
ATOM     46  C   UNL A   1      43.923  25.164  28.867  1.00  0.00     0.074 A 
ATOM     47  C   UNL A   1      46.166  30.252  31.886  1.00  0.00     0.029 A 
ATOM     48  N   UNL A   1      44.894  28.797  30.788  1.00  0.00    -0.354 N 
ATOM     49  N   UNL A   1      44.298  26.252  29.491  1.00  0.00    -0.248 NA
ATOM     50  C   UNL A   1      44.982  24.153  28.725  1.00  0.00     0.031 C 
ATOM     51  C   UNL A   1      46.934  29.116  31.610  1.00  0.00     0.029 A 
ATOM     52  C   UNL A   1      46.133  28.200  30.948  1.00  0.00     0.049 A 
ATOM     53  H   UNL A   1      44.121  28.382  30.338  1.00  0.00     0.167 HD
ATOM     54  C   UNL A   1      45.627  26.045  29.843  1.00  0.00     0.074 A 
ATOM     55  C   UNL A   1      45.986  24.723  29.377  1.00  0.00     0.031 C 
ATOM     56  C   UNL A   1      46.474  26.879  30.492  1.00  0.00     0.031 A 
BRANCH  43  57
ATOM     57  C   UNL A   1      43.966  32.311  31.999  1.00  0.00    -0.014 A 
ATOM     58  C   UNL A   1      43.586  32.535  33.332  1.00  0.00     0.009 A 
ATOM     59  C   UNL A   1      44.575  33.350  31.280  1.00  0.00     0.009 A 
ATOM     60  C   UNL A   1      43.788  33.784  33.924  1.00  0.00     0.001 A 
ATOM     61  C   UNL A   1      44.800  34.589  31.882  1.00  0.00     0.001 A 
ATOM     62  C   UNL A   1      44.399  34.807  33.201  1.00  0.00     0.000 A 
ENDBRANCH  43  57
BRANCH  44  63
ATOM     63  C   UNL A   1      42.366  23.508  27.620  1.00  0.00    -0.014 A 
ATOM     64  C   UNL A   1      42.657  23.358  26.255  1.00  0.00     0.009 A 
ATOM     65  C   UNL A   1      41.840  22.415  28.325  1.00  0.00     0.009 A 
ATOM     66  C   UNL A   1      42.388  22.154  25.602  1.00  0.00     0.001 A 
ATOM     67  C   UNL A   1      41.600  21.202  27.676  1.00  0.00     0.001 A 
ATOM     68  C   UNL A   1      41.862  21.076  26.313  1.00  0.00     0.000 A 
ENDBRANCH  44  63
BRANCH  56  69
ATOM     69  C   UNL A   1      47.857  26.369  30.779  1.00  0.00    -0.014 A 
ATOM     70  C   UNL A   1      48.169  25.759  32.003  1.00  0.00     0.009 A 
ATOM     71  C   UNL A   1      48.851  26.469  29.793  1.00  0.00     0.009 A 
ATOM     72  C   UNL A   1      49.462  25.287  32.246  1.00  0.00     0.001 A 
ATOM     73  C   UNL A   1      50.134  25.972  30.028  1.00  0.00     0.001 A 
ATOM     74  C   UNL A   1      50.440  25.390  31.257  1.00  0.00     0.000 A 
ENDBRANCH  56  69
ENDBRANCH  30  31
ENDBRANCH  22  25
ENDBRANCH  20  21
ENDBRANCH  19  20
ENDBRANCH   1  19
TORSDOF 14
ENDMDL
