MODEL 1
REMARK VINA RESULT:     -12.3      0.000      0.000
REMARK SMILES O=C(CN1N[C@H](C(=O)NCCCCNC(=O)c2ccc(-c3c4nc(c(-c5ccccc5)c5ccc([nH]5)c(-c5ccccc5)c5nc(c(-c6ccccc6)c6ccc3[nH]6)C=C5)C=C4)cc2)c2ccccc2C1=O)C1=c2ccccc2=N[C@@H]1c1ccccc1
REMARK SMILES IDX 10 1 9 2 7 3 8 4 6 6 4 7 5 8 71 9 70 11 72 12 65 13 69 14
REMARK SMILES IDX 66 15 68 16 67 17 3 18 2 19 1 20 73 21 74 22 81 23 75 24
REMARK SMILES IDX 79 25 80 26 76 27 78 28 77 29 82 30 83 31 87 32 84 33 86 34
REMARK SMILES IDX 85 35 11 36 12 37 13 38 14 39 15 40 16 42 17 43 18 44 64 45
REMARK SMILES IDX 19 46 63 47 20 48 21 49 22 50 57 51 23 52 62 53 56 54 58 55
REMARK SMILES IDX 24 56 61 57 55 58 54 59 25 61 47 62 32 63 46 64 33 65 36 66
REMARK SMILES IDX 45 67 59 68 34 69 35 70 44 72 60 73 37 74 26 75 27 76 31 77
REMARK SMILES IDX 28 78 30 79 29 80 48 81 49 82 53 83 50 84 52 85 51 86 38 87
REMARK SMILES IDX 39 88 43 89 40 90 42 91 41 92
REMARK H PARENT 9 5 5 10 14 41 58 60 36 71
REMARK Flexibility Score: inf
ROOT
ATOM      1  C   UNL A   1      37.861  23.690  25.980  1.00  0.00     0.116 C 
ENDROOT
BRANCH   1   2
ATOM      2  N   UNL A   1      37.771  23.350  24.574  1.00  0.00    -0.354 N 
ATOM      3  C   UNL A   1      36.654  23.197  23.791  1.00  0.00     0.243 C 
ATOM      4  O   UNL A   1      36.835  22.953  22.592  1.00  0.00    -0.273 OA
ATOM      5  H   UNL A   1      38.631  23.211  24.115  1.00  0.00     0.163 HD
BRANCH   3   6
ATOM      6  C   UNL A   1      35.217  23.334  24.363  1.00  0.00     0.195 C 
ATOM      7  N   UNL A   1      33.158  24.320  23.455  1.00  0.00    -0.265 N 
ATOM      8  N   UNL A   1      34.555  24.506  23.721  1.00  0.00    -0.214 NA
ATOM      9  C   UNL A   1      32.773  23.121  22.850  1.00  0.00     0.268 C 
ATOM     10  H   UNL A   1      34.657  25.311  24.341  1.00  0.00     0.149 HD
ATOM     11  C   UNL A   1      33.284  21.931  23.541  1.00  0.00     0.046 A 
ATOM     12  O   UNL A   1      32.012  23.011  21.908  1.00  0.00    -0.268 OA
ATOM     13  C   UNL A   1      34.447  22.031  24.308  1.00  0.00    -0.007 A 
ATOM     14  C   UNL A   1      32.528  20.759  23.482  1.00  0.00     0.014 A 
ATOM     15  C   UNL A   1      34.844  20.906  25.040  1.00  0.00     0.007 A 
ATOM     16  C   UNL A   1      32.928  19.658  24.223  1.00  0.00     0.001 A 
ATOM     17  C   UNL A   1      34.084  19.731  25.001  1.00  0.00     0.000 A 
BRANCH   7  18
ATOM     18  C   UNL A   1      32.317  25.482  23.191  1.00  0.00     0.220 C 
BRANCH  18  19
ATOM     19  C   UNL A   1      32.536  26.513  24.331  1.00  0.00     0.183 C 
ATOM     20  O   UNL A   1      33.656  26.956  24.597  1.00  0.00    -0.292 OA
BRANCH  19  21
ATOM     21  C   UNL A   1      31.346  27.015  25.105  1.00  0.00     0.035 C 
ATOM     22  C   UNL A   1      31.234  28.328  25.290  1.00  0.00     0.009 A 
ATOM     23  C   UNL A   1      31.168  26.407  26.462  1.00  0.00     0.170 C 
ATOM     24  C   UNL A   1      30.847  29.443  24.497  1.00  0.00     0.011 A 
ATOM     25  C   UNL A   1      31.723  28.472  26.679  1.00  0.00     0.066 A 
ATOM     26  N   UNL A   1      31.858  27.373  27.375  1.00  0.00    -0.272 NA
ATOM     27  C   UNL A   1      31.031  30.672  25.001  1.00  0.00     0.001 A 
ATOM     28  C   UNL A   1      32.123  29.851  27.053  1.00  0.00     0.028 A 
ATOM     29  C   UNL A   1      31.778  30.865  26.235  1.00  0.00     0.002 A 
BRANCH  23  30
ATOM     30  C   UNL A   1      31.402  24.923  26.548  1.00  0.00    -0.019 A 
ATOM     31  C   UNL A   1      32.545  24.349  27.097  1.00  0.00     0.006 A 
ATOM     32  C   UNL A   1      30.370  24.072  26.086  1.00  0.00     0.006 A 
ATOM     33  C   UNL A   1      32.665  22.955  27.150  1.00  0.00     0.000 A 
ATOM     34  C   UNL A   1      30.496  22.688  26.126  1.00  0.00     0.000 A 
ATOM     35  C   UNL A   1      31.649  22.129  26.660  1.00  0.00     0.000 A 
ENDBRANCH  23  30
ENDBRANCH  19  21
ENDBRANCH  18  19
ENDBRANCH   7  18
ENDBRANCH   3   6
ENDBRANCH   1   2
BRANCH   1  36
ATOM     36  C   UNL A   1      39.033  23.021  26.690  1.00  0.00     0.023 C 
BRANCH  36  37
ATOM     37  C   UNL A   1      39.442  21.667  26.126  1.00  0.00     0.023 C 
BRANCH  37  38
ATOM     38  C   UNL A   1      40.423  20.877  26.980  1.00  0.00     0.116 C 
BRANCH  38  39
ATOM     39  N   UNL A   1      41.418  20.139  26.212  1.00  0.00    -0.352 N 
ATOM     40  C   UNL A   1      42.639  20.586  25.751  1.00  0.00     0.251 C 
ATOM     41  H   UNL A   1      41.191  19.207  25.995  1.00  0.00     0.163 HD
ATOM     42  O   UNL A   1      43.343  19.882  25.037  1.00  0.00    -0.269 OA
BRANCH  40  43
ATOM     43  C   UNL A   1      43.063  21.960  26.094  1.00  0.00     0.039 A 
ATOM     44  C   UNL A   1      43.395  22.278  27.412  1.00  0.00     0.014 A 
ATOM     45  C   UNL A   1      43.025  22.953  25.112  1.00  0.00     0.014 A 
ATOM     46  C   UNL A   1      43.486  23.611  27.785  1.00  0.00     0.010 A 
ATOM     47  C   UNL A   1      43.219  24.289  25.476  1.00  0.00     0.010 A 
ATOM     48  C   UNL A   1      43.390  24.634  26.825  1.00  0.00    -0.014 A 
BRANCH  48  49
ATOM     49  C   UNL A   1      43.481  26.048  27.273  1.00  0.00     0.031 A 
ATOM     50  C   UNL A   1      42.260  26.818  27.697  1.00  0.00     0.074 A 
ATOM     51  C   UNL A   1      44.700  26.613  27.379  1.00  0.00     0.049 A 
ATOM     52  N   UNL A   1      42.187  28.021  28.210  1.00  0.00    -0.248 NA
ATOM     53  C   UNL A   1      40.953  26.165  27.520  1.00  0.00     0.031 C 
ATOM     54  C   UNL A   1      45.960  25.964  27.009  1.00  0.00     0.029 A 
ATOM     55  N   UNL A   1      45.085  27.833  27.871  1.00  0.00    -0.354 N 
ATOM     56  C   UNL A   1      40.833  28.277  28.394  1.00  0.00     0.074 A 
ATOM     57  C   UNL A   1      40.116  27.115  27.917  1.00  0.00     0.031 C 
ATOM     58  C   UNL A   1      46.980  26.753  27.369  1.00  0.00     0.029 A 
ATOM     59  C   UNL A   1      46.449  27.991  27.927  1.00  0.00     0.049 A 
ATOM     60  H   UNL A   1      44.448  28.527  28.157  1.00  0.00     0.167 HD
ATOM     61  C   UNL A   1      40.244  29.378  28.919  1.00  0.00     0.031 A 
ATOM     62  C   UNL A   1      47.197  29.015  28.377  1.00  0.00     0.031 A 
ATOM     63  C   UNL A   1      40.960  30.527  29.411  1.00  0.00     0.049 A 
ATOM     64  C   UNL A   1      46.519  30.235  28.924  1.00  0.00     0.074 A 
ATOM     65  C   UNL A   1      40.447  31.666  30.008  1.00  0.00     0.029 A 
ATOM     66  N   UNL A   1      42.336  30.686  29.360  1.00  0.00    -0.354 N 
ATOM     67  N   UNL A   1      45.241  30.450  29.111  1.00  0.00    -0.248 NA
ATOM     68  C   UNL A   1      47.386  31.355  29.312  1.00  0.00     0.031 C 
ATOM     69  C   UNL A   1      41.507  32.542  30.259  1.00  0.00     0.029 A 
ATOM     70  C   UNL A   1      42.686  31.923  29.877  1.00  0.00     0.049 A 
ATOM     71  H   UNL A   1      42.969  30.020  29.008  1.00  0.00     0.167 HD
ATOM     72  C   UNL A   1      45.145  31.731  29.634  1.00  0.00     0.074 A 
ATOM     73  C   UNL A   1      46.499  32.234  29.761  1.00  0.00     0.031 C 
ATOM     74  C   UNL A   1      44.033  32.427  29.970  1.00  0.00     0.031 A 
BRANCH  61  75
ATOM     75  C   UNL A   1      38.741  29.417  28.974  1.00  0.00    -0.014 A 
ATOM     76  C   UNL A   1      38.013  29.739  27.816  1.00  0.00     0.009 A 
ATOM     77  C   UNL A   1      38.045  29.222  30.177  1.00  0.00     0.009 A 
ATOM     78  C   UNL A   1      36.624  29.871  27.862  1.00  0.00     0.001 A 
ATOM     79  C   UNL A   1      36.653  29.328  30.214  1.00  0.00     0.001 A 
ATOM     80  C   UNL A   1      35.945  29.660  29.060  1.00  0.00     0.000 A 
ENDBRANCH  61  75
BRANCH  62  81
ATOM     81  C   UNL A   1      48.677  28.898  28.330  1.00  0.00    -0.014 A 
ATOM     82  C   UNL A   1      49.384  28.373  29.425  1.00  0.00     0.009 A 
ATOM     83  C   UNL A   1      49.393  29.394  27.231  1.00  0.00     0.009 A 
ATOM     84  C   UNL A   1      50.780  28.385  29.436  1.00  0.00     0.001 A 
ATOM     85  C   UNL A   1      50.789  29.377  27.235  1.00  0.00     0.001 A 
ATOM     86  C   UNL A   1      51.481  28.886  28.341  1.00  0.00     0.000 A 
ENDBRANCH  62  81
BRANCH  74  87
ATOM     87  C   UNL A   1      44.220  33.823  30.491  1.00  0.00    -0.014 A 
ATOM     88  C   UNL A   1      44.341  34.049  31.871  1.00  0.00     0.009 A 
ATOM     89  C   UNL A   1      44.195  34.924  29.621  1.00  0.00     0.009 A 
ATOM     90  C   UNL A   1      44.422  35.349  32.371  1.00  0.00     0.001 A 
ATOM     91  C   UNL A   1      44.304  36.223  30.122  1.00  0.00     0.001 A 
ATOM     92  C   UNL A   1      44.410  36.434  31.496  1.00  0.00     0.000 A 
ENDBRANCH  74  87
ENDBRANCH  48  49
ENDBRANCH  40  43
ENDBRANCH  38  39
ENDBRANCH  37  38
ENDBRANCH  36  37
ENDBRANCH   1  36
TORSDOF 15
ENDMDL
MODEL 2
REMARK VINA RESULT:     -12.1      3.582      8.810
REMARK SMILES O=C(CN1N[C@H](C(=O)NCCCCNC(=O)c2ccc(-c3c4nc(c(-c5ccccc5)c5ccc([nH]5)c(-c5ccccc5)c5nc(c(-c6ccccc6)c6ccc3[nH]6)C=C5)C=C4)cc2)c2ccccc2C1=O)C1=c2ccccc2=N[C@@H]1c1ccccc1
REMARK SMILES IDX 10 1 9 2 7 3 8 4 6 6 4 7 5 8 71 9 70 11 72 12 65 13 69 14
REMARK SMILES IDX 66 15 68 16 67 17 3 18 2 19 1 20 73 21 74 22 81 23 75 24
REMARK SMILES IDX 79 25 80 26 76 27 78 28 77 29 82 30 83 31 87 32 84 33 86 34
REMARK SMILES IDX 85 35 11 36 12 37 13 38 14 39 15 40 16 42 17 43 18 44 64 45
REMARK SMILES IDX 19 46 63 47 20 48 21 49 22 50 57 51 23 52 62 53 56 54 58 55
REMARK SMILES IDX 24 56 61 57 55 58 54 59 25 61 47 62 32 63 46 64 33 65 36 66
REMARK SMILES IDX 45 67 59 68 34 69 35 70 44 72 60 73 37 74 26 75 27 76 31 77
REMARK SMILES IDX 28 78 30 79 29 80 48 81 49 82 53 83 50 84 52 85 51 86 38 87
REMARK SMILES IDX 39 88 43 89 40 90 42 91 41 92
REMARK H PARENT 9 5 5 10 14 41 58 60 36 71
REMARK Flexibility Score: inf
ROOT
ATOM      1  C   UNL A   1      34.543  29.290  27.300  1.00  0.00     0.116 C 
ENDROOT
BRANCH   1   2
ATOM      2  N   UNL A   1      33.247  29.031  27.895  1.00  0.00    -0.354 N 
ATOM      3  C   UNL A   1      32.232  28.226  27.442  1.00  0.00     0.243 C 
ATOM      4  O   UNL A   1      31.229  28.125  28.159  1.00  0.00    -0.273 OA
ATOM      5  H   UNL A   1      33.070  29.496  28.745  1.00  0.00     0.163 HD
BRANCH   3   6
ATOM      6  C   UNL A   1      32.325  27.455  26.097  1.00  0.00     0.195 C 
ATOM      7  N   UNL A   1      31.661  25.182  25.439  1.00  0.00    -0.265 N 
ATOM      8  N   UNL A   1      32.374  25.993  26.384  1.00  0.00    -0.214 NA
ATOM      9  C   UNL A   1      30.374  25.592  25.083  1.00  0.00     0.268 C 
ATOM     10  H   UNL A   1      33.351  25.698  26.384  1.00  0.00     0.149 HD
ATOM     11  C   UNL A   1      30.307  26.992  24.650  1.00  0.00     0.046 A 
ATOM     12  O   UNL A   1      29.391  24.879  25.023  1.00  0.00    -0.268 OA
ATOM     13  C   UNL A   1      31.270  27.896  25.104  1.00  0.00    -0.007 A 
ATOM     14  C   UNL A   1      29.333  27.348  23.715  1.00  0.00     0.014 A 
ATOM     15  C   UNL A   1      31.242  29.196  24.585  1.00  0.00     0.007 A 
ATOM     16  C   UNL A   1      29.326  28.635  23.201  1.00  0.00     0.001 A 
ATOM     17  C   UNL A   1      30.279  29.558  23.635  1.00  0.00     0.000 A 
BRANCH   7  18
ATOM     18  C   UNL A   1      31.931  23.751  25.373  1.00  0.00     0.220 C 
BRANCH  18  19
ATOM     19  C   UNL A   1      33.461  23.549  25.201  1.00  0.00     0.183 C 
ATOM     20  O   UNL A   1      34.269  23.998  26.018  1.00  0.00    -0.292 OA
BRANCH  19  21
ATOM     21  C   UNL A   1      33.970  22.752  24.030  1.00  0.00     0.035 C 
ATOM     22  C   UNL A   1      34.850  21.784  24.273  1.00  0.00     0.009 A 
ATOM     23  C   UNL A   1      34.567  23.561  22.921  1.00  0.00     0.170 C 
ATOM     24  C   UNL A   1      34.799  20.465  24.802  1.00  0.00     0.011 A 
ATOM     25  C   UNL A   1      36.121  22.440  23.895  1.00  0.00     0.066 A 
ATOM     26  N   UNL A   1      36.031  23.567  23.236  1.00  0.00    -0.272 NA
ATOM     27  C   UNL A   1      35.959  19.841  25.058  1.00  0.00     0.001 A 
ATOM     28  C   UNL A   1      37.337  21.787  24.436  1.00  0.00     0.028 A 
ATOM     29  C   UNL A   1      37.222  20.558  24.978  1.00  0.00     0.002 A 
BRANCH  23  30
ATOM     30  C   UNL A   1      33.825  24.820  22.558  1.00  0.00    -0.019 A 
ATOM     31  C   UNL A   1      34.262  26.099  22.890  1.00  0.00     0.006 A 
ATOM     32  C   UNL A   1      32.642  24.682  21.795  1.00  0.00     0.006 A 
ATOM     33  C   UNL A   1      33.512  27.212  22.492  1.00  0.00     0.000 A 
ATOM     34  C   UNL A   1      31.890  25.788  21.412  1.00  0.00     0.000 A 
ATOM     35  C   UNL A   1      32.328  27.057  21.764  1.00  0.00     0.000 A 
ENDBRANCH  23  30
ENDBRANCH  19  21
ENDBRANCH  18  19
ENDBRANCH   7  18
ENDBRANCH   3   6
ENDBRANCH   1   2
BRANCH   1  36
ATOM     36  C   UNL A   1      35.060  30.699  27.566  1.00  0.00     0.023 C 
BRANCH  36  37
ATOM     37  C   UNL A   1      34.034  31.665  28.143  1.00  0.00     0.023 C 
BRANCH  37  38
ATOM     38  C   UNL A   1      34.344  33.141  27.938  1.00  0.00     0.116 C 
BRANCH  38  39
ATOM     39  N   UNL A   1      33.655  34.027  28.868  1.00  0.00    -0.352 N 
ATOM     40  C   UNL A   1      33.963  34.280  30.189  1.00  0.00     0.251 C 
ATOM     41  H   UNL A   1      32.873  34.505  28.510  1.00  0.00     0.163 HD
ATOM     42  O   UNL A   1      33.242  34.985  30.884  1.00  0.00    -0.269 OA
BRANCH  40  43
ATOM     43  C   UNL A   1      35.161  33.637  30.769  1.00  0.00     0.039 A 
ATOM     44  C   UNL A   1      36.434  34.038  30.360  1.00  0.00     0.014 A 
ATOM     45  C   UNL A   1      35.004  32.559  31.645  1.00  0.00     0.014 A 
ATOM     46  C   UNL A   1      37.526  33.237  30.661  1.00  0.00     0.010 A 
ATOM     47  C   UNL A   1      36.123  31.815  32.029  1.00  0.00     0.010 A 
ATOM     48  C   UNL A   1      37.385  32.111  31.492  1.00  0.00    -0.014 A 
BRANCH  48  49
ATOM     49  C   UNL A   1      38.580  31.277  31.778  1.00  0.00     0.031 A 
ATOM     50  C   UNL A   1      38.994  30.157  30.861  1.00  0.00     0.074 A 
ATOM     51  C   UNL A   1      39.350  31.595  32.837  1.00  0.00     0.049 A 
ATOM     52  N   UNL A   1      40.067  29.407  30.916  1.00  0.00    -0.248 NA
ATOM     53  C   UNL A   1      38.093  29.829  29.745  1.00  0.00     0.031 C 
ATOM     54  C   UNL A   1      39.058  32.666  33.793  1.00  0.00     0.029 A 
ATOM     55  N   UNL A   1      40.551  31.087  33.259  1.00  0.00    -0.354 N 
ATOM     56  C   UNL A   1      39.960  28.507  29.862  1.00  0.00     0.074 A 
ATOM     57  C   UNL A   1      38.706  28.787  29.196  1.00  0.00     0.031 C 
ATOM     58  C   UNL A   1      40.093  32.794  34.634  1.00  0.00     0.029 A 
ATOM     59  C   UNL A   1      41.086  31.772  34.324  1.00  0.00     0.049 A 
ATOM     60  H   UNL A   1      40.988  30.310  32.842  1.00  0.00     0.167 HD
ATOM     61  C   UNL A   1      40.830  27.542  29.482  1.00  0.00     0.031 A 
ATOM     62  C   UNL A   1      42.247  31.603  34.984  1.00  0.00     0.031 A 
ATOM     63  C   UNL A   1      42.086  27.277  30.135  1.00  0.00     0.049 A 
ATOM     64  C   UNL A   1      43.178  30.506  34.563  1.00  0.00     0.074 A 
ATOM     65  C   UNL A   1      43.056  26.352  29.785  1.00  0.00     0.029 A 
ATOM     66  N   UNL A   1      42.544  27.929  31.268  1.00  0.00    -0.354 N 
ATOM     67  N   UNL A   1      43.070  29.681  33.551  1.00  0.00    -0.248 NA
ATOM     68  C   UNL A   1      44.383  30.312  35.379  1.00  0.00     0.031 C 
ATOM     69  C   UNL A   1      44.070  26.400  30.745  1.00  0.00     0.029 A 
ATOM     70  C   UNL A   1      43.764  27.398  31.656  1.00  0.00     0.049 A 
ATOM     71  H   UNL A   1      42.073  28.660  31.729  1.00  0.00     0.167 HD
ATOM     72  C   UNL A   1      44.189  28.864  33.610  1.00  0.00     0.074 A 
ATOM     73  C   UNL A   1      44.978  29.312  34.740  1.00  0.00     0.031 C 
ATOM     74  C   UNL A   1      44.526  27.831  32.800  1.00  0.00     0.031 A 
BRANCH  61  75
ATOM     75  C   UNL A   1      40.453  26.671  28.314  1.00  0.00    -0.014 A 
ATOM     76  C   UNL A   1      39.638  25.546  28.523  1.00  0.00     0.009 A 
ATOM     77  C   UNL A   1      40.965  26.905  27.029  1.00  0.00     0.009 A 
ATOM     78  C   UNL A   1      39.350  24.671  27.474  1.00  0.00     0.001 A 
ATOM     79  C   UNL A   1      40.653  26.044  25.975  1.00  0.00     0.001 A 
ATOM     80  C   UNL A   1      39.853  24.924  26.199  1.00  0.00     0.000 A 
ENDBRANCH  61  75
BRANCH  62  81
ATOM     81  C   UNL A   1      42.577  32.521  36.103  1.00  0.00    -0.014 A 
ATOM     82  C   UNL A   1      42.138  32.240  37.408  1.00  0.00     0.009 A 
ATOM     83  C   UNL A   1      43.252  33.725  35.857  1.00  0.00     0.009 A 
ATOM     84  C   UNL A   1      42.333  33.165  38.435  1.00  0.00     0.001 A 
ATOM     85  C   UNL A   1      43.471  34.634  36.894  1.00  0.00     0.001 A 
ATOM     86  C   UNL A   1      43.000  34.361  38.177  1.00  0.00     0.000 A 
ENDBRANCH  62  81
BRANCH  74  87
ATOM     87  C   UNL A   1      45.794  27.090  33.114  1.00  0.00    -0.014 A 
ATOM     88  C   UNL A   1      47.009  27.504  32.547  1.00  0.00     0.009 A 
ATOM     89  C   UNL A   1      45.773  25.932  33.906  1.00  0.00     0.009 A 
ATOM     90  C   UNL A   1      48.176  26.768  32.757  1.00  0.00     0.001 A 
ATOM     91  C   UNL A   1      46.948  25.213  34.138  1.00  0.00     0.001 A 
ATOM     92  C   UNL A   1      48.146  25.627  33.557  1.00  0.00     0.000 A 
ENDBRANCH  74  87
ENDBRANCH  48  49
ENDBRANCH  40  43
ENDBRANCH  38  39
ENDBRANCH  37  38
ENDBRANCH  36  37
ENDBRANCH   1  36
TORSDOF 15
ENDMDL
MODEL 3
REMARK VINA RESULT:     -12.1      0.522      5.512
REMARK SMILES O=C(CN1N[C@H](C(=O)NCCCCNC(=O)c2ccc(-c3c4nc(c(-c5ccccc5)c5ccc([nH]5)c(-c5ccccc5)c5nc(c(-c6ccccc6)c6ccc3[nH]6)C=C5)C=C4)cc2)c2ccccc2C1=O)C1=c2ccccc2=N[C@@H]1c1ccccc1
REMARK SMILES IDX 10 1 9 2 7 3 8 4 6 6 4 7 5 8 71 9 70 11 72 12 65 13 69 14
REMARK SMILES IDX 66 15 68 16 67 17 3 18 2 19 1 20 73 21 74 22 81 23 75 24
REMARK SMILES IDX 79 25 80 26 76 27 78 28 77 29 82 30 83 31 87 32 84 33 86 34
REMARK SMILES IDX 85 35 11 36 12 37 13 38 14 39 15 40 16 42 17 43 18 44 64 45
REMARK SMILES IDX 19 46 63 47 20 48 21 49 22 50 57 51 23 52 62 53 56 54 58 55
REMARK SMILES IDX 24 56 61 57 55 58 54 59 25 61 47 62 32 63 46 64 33 65 36 66
REMARK SMILES IDX 45 67 59 68 34 69 35 70 44 72 60 73 37 74 26 75 27 76 31 77
REMARK SMILES IDX 28 78 30 79 29 80 48 81 49 82 53 83 50 84 52 85 51 86 38 87
REMARK SMILES IDX 39 88 43 89 40 90 42 91 41 92
REMARK H PARENT 9 5 5 10 14 41 58 60 36 71
REMARK Flexibility Score: inf
ROOT
ATOM      1  C   UNL A   1      37.851  23.690  25.937  1.00  0.00     0.116 C 
ENDROOT
BRANCH   1   2
ATOM      2  N   UNL A   1      37.750  23.354  24.531  1.00  0.00    -0.354 N 
ATOM      3  C   UNL A   1      36.627  23.201  23.757  1.00  0.00     0.243 C 
ATOM      4  O   UNL A   1      36.798  22.960  22.556  1.00  0.00    -0.273 OA
ATOM      5  H   UNL A   1      38.607  23.218  24.064  1.00  0.00     0.163 HD
BRANCH   3   6
ATOM      6  C   UNL A   1      35.194  23.333  24.341  1.00  0.00     0.195 C 
ATOM      7  N   UNL A   1      33.134  24.347  23.467  1.00  0.00    -0.265 N 
ATOM      8  N   UNL A   1      34.534  24.521  23.728  1.00  0.00    -0.214 NA
ATOM      9  C   UNL A   1      32.739  23.162  22.842  1.00  0.00     0.268 C 
ATOM     10  H   UNL A   1      34.644  25.312  24.363  1.00  0.00     0.149 HD
ATOM     11  C   UNL A   1      33.249  21.956  23.505  1.00  0.00     0.046 A 
ATOM     12  O   UNL A   1      31.971  23.073  21.904  1.00  0.00    -0.268 OA
ATOM     13  C   UNL A   1      34.417  22.035  24.267  1.00  0.00    -0.007 A 
ATOM     14  C   UNL A   1      32.487  20.789  23.429  1.00  0.00     0.014 A 
ATOM     15  C   UNL A   1      34.815  20.894  24.974  1.00  0.00     0.007 A 
ATOM     16  C   UNL A   1      32.886  19.671  24.145  1.00  0.00     0.001 A 
ATOM     17  C   UNL A   1      34.048  19.724  24.917  1.00  0.00     0.000 A 
BRANCH   7  18
ATOM     18  C   UNL A   1      32.297  25.517  23.232  1.00  0.00     0.220 C 
BRANCH  18  19
ATOM     19  C   UNL A   1      32.516  26.517  24.400  1.00  0.00     0.183 C 
ATOM     20  O   UNL A   1      33.642  26.917  24.708  1.00  0.00    -0.292 OA
BRANCH  19  21
ATOM     21  C   UNL A   1      31.321  27.044  25.149  1.00  0.00     0.035 C 
ATOM     22  C   UNL A   1      31.260  28.353  25.380  1.00  0.00     0.009 A 
ATOM     23  C   UNL A   1      31.065  26.396  26.474  1.00  0.00     0.170 C 
ATOM     24  C   UNL A   1      30.952  29.512  24.617  1.00  0.00     0.011 A 
ATOM     25  C   UNL A   1      31.702  28.424  26.790  1.00  0.00     0.066 A 
ATOM     26  N   UNL A   1      31.762  27.295  27.448  1.00  0.00    -0.272 NA
ATOM     27  C   UNL A   1      31.171  30.713  25.174  1.00  0.00     0.001 A 
ATOM     28  C   UNL A   1      32.147  29.769  27.230  1.00  0.00     0.028 A 
ATOM     29  C   UNL A   1      31.878  30.827  26.441  1.00  0.00     0.002 A 
BRANCH  23  30
ATOM     30  C   UNL A   1      31.231  24.900  26.513  1.00  0.00    -0.019 A 
ATOM     31  C   UNL A   1      30.314  24.005  25.970  1.00  0.00     0.006 A 
ATOM     32  C   UNL A   1      32.415  24.390  27.095  1.00  0.00     0.006 A 
ATOM     33  C   UNL A   1      30.564  22.629  26.038  1.00  0.00     0.000 A 
ATOM     34  C   UNL A   1      32.657  23.023  27.175  1.00  0.00     0.000 A 
ATOM     35  C   UNL A   1      31.726  22.140  26.645  1.00  0.00     0.000 A 
ENDBRANCH  23  30
ENDBRANCH  19  21
ENDBRANCH  18  19
ENDBRANCH   7  18
ENDBRANCH   3   6
ENDBRANCH   1   2
BRANCH   1  36
ATOM     36  C   UNL A   1      38.998  22.980  26.648  1.00  0.00     0.023 C 
BRANCH  36  37
ATOM     37  C   UNL A   1      39.366  21.617  26.077  1.00  0.00     0.023 C 
BRANCH  37  38
ATOM     38  C   UNL A   1      40.345  20.806  26.913  1.00  0.00     0.116 C 
BRANCH  38  39
ATOM     39  N   UNL A   1      41.384  20.143  26.133  1.00  0.00    -0.352 N 
ATOM     40  C   UNL A   1      42.642  20.613  25.819  1.00  0.00     0.251 C 
ATOM     41  H   UNL A   1      41.160  19.249  25.788  1.00  0.00     0.163 HD
ATOM     42  O   UNL A   1      43.386  19.984  25.077  1.00  0.00    -0.269 OA
BRANCH  40  43
ATOM     43  C   UNL A   1      43.060  21.925  26.356  1.00  0.00     0.039 A 
ATOM     44  C   UNL A   1      43.346  22.062  27.715  1.00  0.00     0.014 A 
ATOM     45  C   UNL A   1      43.060  23.041  25.515  1.00  0.00     0.014 A 
ATOM     46  C   UNL A   1      43.429  23.332  28.266  1.00  0.00     0.010 A 
ATOM     47  C   UNL A   1      43.247  24.315  26.061  1.00  0.00     0.010 A 
ATOM     48  C   UNL A   1      43.372  24.476  27.448  1.00  0.00    -0.014 A 
BRANCH  48  49
ATOM     49  C   UNL A   1      43.453  25.816  28.084  1.00  0.00     0.031 A 
ATOM     50  C   UNL A   1      44.778  26.476  28.359  1.00  0.00     0.074 A 
ATOM     51  C   UNL A   1      42.308  26.479  28.337  1.00  0.00     0.049 A 
ATOM     52  N   UNL A   1      45.014  27.683  28.811  1.00  0.00    -0.248 NA
ATOM     53  C   UNL A   1      45.993  25.687  28.102  1.00  0.00     0.031 C 
ATOM     54  C   UNL A   1      40.963  25.949  28.104  1.00  0.00     0.029 A 
ATOM     55  N   UNL A   1      42.090  27.753  28.795  1.00  0.00    -0.354 N 
ATOM     56  C   UNL A   1      46.395  27.789  28.915  1.00  0.00     0.074 A 
ATOM     57  C   UNL A   1      46.948  26.518  28.501  1.00  0.00     0.031 C 
ATOM     58  C   UNL A   1      40.066  26.916  28.334  1.00  0.00     0.029 A 
ATOM     59  C   UNL A   1      40.763  28.109  28.799  1.00  0.00     0.049 A 
ATOM     60  H   UNL A   1      42.812  28.354  29.091  1.00  0.00     0.167 HD
ATOM     61  C   UNL A   1      47.134  28.852  29.313  1.00  0.00     0.031 A 
ATOM     62  C   UNL A   1      40.165  29.267  29.137  1.00  0.00     0.031 A 
ATOM     63  C   UNL A   1      46.583  30.123  29.708  1.00  0.00     0.049 A 
ATOM     64  C   UNL A   1      41.004  30.418  29.604  1.00  0.00     0.074 A 
ATOM     65  C   UNL A   1      47.260  31.274  30.075  1.00  0.00     0.029 A 
ATOM     66  N   UNL A   1      45.230  30.411  29.790  1.00  0.00    -0.354 N 
ATOM     67  N   UNL A   1      42.309  30.507  29.674  1.00  0.00    -0.248 NA
ATOM     68  C   UNL A   1      40.288  31.621  30.047  1.00  0.00     0.031 C 
ATOM     69  C   UNL A   1      46.316  32.236  30.443  1.00  0.00     0.029 A 
ATOM     70  C   UNL A   1      45.051  31.707  30.243  1.00  0.00     0.049 A 
ATOM     71  H   UNL A   1      44.505  29.786  29.561  1.00  0.00     0.167 HD
ATOM     72  C   UNL A   1      42.574  31.774  30.174  1.00  0.00     0.074 A 
ATOM     73  C   UNL A   1      41.294  32.427  30.363  1.00  0.00     0.031 C 
ATOM     74  C   UNL A   1      43.773  32.338  30.457  1.00  0.00     0.031 A 
BRANCH  61  75
ATOM     75  C   UNL A   1      48.630  28.692  29.370  1.00  0.00    -0.014 A 
ATOM     76  C   UNL A   1      49.393  28.895  28.208  1.00  0.00     0.009 A 
ATOM     77  C   UNL A   1      49.277  28.262  30.538  1.00  0.00     0.009 A 
ATOM     78  C   UNL A   1      50.770  28.663  28.212  1.00  0.00     0.001 A 
ATOM     79  C   UNL A   1      50.659  28.058  30.546  1.00  0.00     0.001 A 
ATOM     80  C   UNL A   1      51.402  28.250  29.383  1.00  0.00     0.000 A 
ENDBRANCH  61  75
BRANCH  62  81
ATOM     81  C   UNL A   1      38.689  29.372  29.022  1.00  0.00    -0.014 A 
ATOM     82  C   UNL A   1      38.095  29.761  27.810  1.00  0.00     0.009 A 
ATOM     83  C   UNL A   1      37.874  29.174  30.146  1.00  0.00     0.009 A 
ATOM     84  C   UNL A   1      36.719  29.988  27.736  1.00  0.00     0.001 A 
ATOM     85  C   UNL A   1      36.495  29.375  30.061  1.00  0.00     0.001 A 
ATOM     86  C   UNL A   1      35.921  29.794  28.862  1.00  0.00     0.000 A 
ENDBRANCH  62  81
BRANCH  74  87
ATOM     87  C   UNL A   1      43.768  33.729  31.024  1.00  0.00    -0.014 A 
ATOM     88  C   UNL A   1      43.721  33.922  32.413  1.00  0.00     0.009 A 
ATOM     89  C   UNL A   1      43.729  34.849  30.179  1.00  0.00     0.009 A 
ATOM     90  C   UNL A   1      43.623  35.207  32.946  1.00  0.00     0.001 A 
ATOM     91  C   UNL A   1      43.659  36.137  30.717  1.00  0.00     0.001 A 
ATOM     92  C   UNL A   1      43.597  36.314  32.099  1.00  0.00     0.000 A 
ENDBRANCH  74  87
ENDBRANCH  48  49
ENDBRANCH  40  43
ENDBRANCH  38  39
ENDBRANCH  37  38
ENDBRANCH  36  37
ENDBRANCH   1  36
TORSDOF 15
ENDMDL
