MODEL 1
REMARK VINA RESULT:     -12.4      0.000      0.000
REMARK SMILES C[C@]1(c2ccccc2C(=O)NCCCCNC(=O)c2ccc(-c3c4nc(c(-c5ccccc5)c5ccc([nH]5)c(-c5ccccc5)c5nc(c(-c6ccccc6)c6ccc3[nH]6)C=C5)C=C4)cc2)NN=C(c2ccccc2)S1
REMARK SMILES IDX 13 1 12 2 11 3 9 4 10 5 8 7 3 8 4 9 5 10 7 11 6 12 2 13 1 14
REMARK SMILES IDX 67 15 76 16 68 17 69 19 70 20 71 21 75 22 72 23 74 24 73 25
REMARK SMILES IDX 14 26 15 27 16 28 17 29 18 31 19 32 20 33 66 34 21 35 65 36
REMARK SMILES IDX 22 37 23 38 24 39 59 40 25 41 64 42 58 43 60 44 26 45 63 46
REMARK SMILES IDX 57 47 56 48 27 50 49 51 34 52 48 53 35 54 38 55 47 56 61 57
REMARK SMILES IDX 36 58 37 59 46 61 62 62 39 63 28 64 29 65 33 66 30 67 32 68
REMARK SMILES IDX 31 69 50 70 51 71 55 72 52 73 54 74 53 75 40 76 41 77 45 78
REMARK SMILES IDX 42 79 44 80 43 81
REMARK H PARENT 11 6 67 18 16 30 60 49 38 60
REMARK Flexibility Score: inf
ROOT
ATOM      1  C   UNL A   1      37.000  21.216  25.207  1.00  0.00     0.023 C 
ENDROOT
BRANCH   1   2
ATOM      2  C   UNL A   1      37.071  22.479  24.341  1.00  0.00     0.116 C 
BRANCH   2   3
ATOM      3  N   UNL A   1      35.932  22.702  23.463  1.00  0.00    -0.352 N 
ATOM      4  C   UNL A   1      34.791  23.481  23.458  1.00  0.00     0.251 C 
ATOM      5  O   UNL A   1      34.292  23.625  22.332  1.00  0.00    -0.269 OA
ATOM      6  H   UNL A   1      35.992  22.147  22.653  1.00  0.00     0.163 HD
BRANCH   4   7
ATOM      7  C   UNL A   1      34.057  24.158  24.613  1.00  0.00     0.046 A 
ATOM      8  C   UNL A   1      32.889  23.726  25.335  1.00  0.00     0.002 A 
ATOM      9  C   UNL A   1      32.286  24.612  26.262  1.00  0.00     0.008 A 
ATOM     10  C   UNL A   1      32.707  25.931  26.386  1.00  0.00     0.000 A 
ATOM     11  C   UNL A   1      34.426  25.515  24.746  1.00  0.00     0.014 A 
ATOM     12  C   UNL A   1      33.753  26.393  25.601  1.00  0.00     0.001 A 
BRANCH   8  13
ATOM     13  C   UNL A   1      32.228  22.364  25.151  1.00  0.00     0.129 C 
ATOM     14  C   UNL A   1      30.763  22.586  25.587  1.00  0.00     0.054 C 
ATOM     15  N   UNL A   1      32.098  21.766  23.788  1.00  0.00    -0.288 NA
ATOM     16  S   UNL A   1      33.387  21.149  25.881  1.00  0.00    -0.070 SA
ATOM     17  N   UNL A   1      32.228  20.370  23.721  1.00  0.00    -0.171 NA
ATOM     18  H   UNL A   1      31.932  22.316  22.988  1.00  0.00     0.185 HD
ATOM     19  C   UNL A   1      32.932  19.959  24.728  1.00  0.00     0.126 C 
BRANCH  19  20
ATOM     20  C   UNL A   1      33.474  18.640  25.072  1.00  0.00     0.009 A 
ATOM     21  C   UNL A   1      32.614  17.803  25.796  1.00  0.00     0.011 A 
ATOM     22  C   UNL A   1      34.487  18.087  24.275  1.00  0.00     0.011 A 
ATOM     23  C   UNL A   1      32.735  16.417  25.682  1.00  0.00     0.001 A 
ATOM     24  C   UNL A   1      34.604  16.697  24.169  1.00  0.00     0.001 A 
ATOM     25  C   UNL A   1      33.716  15.866  24.857  1.00  0.00     0.000 A 
ENDBRANCH  19  20
ENDBRANCH   8  13
ENDBRANCH   4   7
ENDBRANCH   2   3
ENDBRANCH   1   2
BRANCH   1  26
ATOM     26  C   UNL A   1      38.010  20.105  25.004  1.00  0.00     0.023 C 
BRANCH  26  27
ATOM     27  C   UNL A   1      39.229  20.296  25.875  1.00  0.00     0.116 C 
BRANCH  27  28
ATOM     28  N   UNL A   1      40.177  19.177  25.825  1.00  0.00    -0.352 N 
ATOM     29  C   UNL A   1      41.528  19.179  26.076  1.00  0.00     0.251 C 
ATOM     30  H   UNL A   1      39.791  18.305  25.577  1.00  0.00     0.163 HD
ATOM     31  O   UNL A   1      42.195  18.157  25.943  1.00  0.00    -0.269 OA
BRANCH  29  32
ATOM     32  C   UNL A   1      42.170  20.454  26.441  1.00  0.00     0.039 A 
ATOM     33  C   UNL A   1      42.539  21.346  25.435  1.00  0.00     0.014 A 
ATOM     34  C   UNL A   1      42.266  20.815  27.783  1.00  0.00     0.014 A 
ATOM     35  C   UNL A   1      42.924  22.637  25.788  1.00  0.00     0.010 A 
ATOM     36  C   UNL A   1      42.467  22.140  28.113  1.00  0.00     0.010 A 
ATOM     37  C   UNL A   1      42.843  23.058  27.126  1.00  0.00    -0.014 A 
BRANCH  37  38
ATOM     38  C   UNL A   1      43.199  24.437  27.532  1.00  0.00     0.031 A 
ATOM     39  C   UNL A   1      44.641  24.879  27.464  1.00  0.00     0.074 A 
ATOM     40  C   UNL A   1      42.248  25.264  28.008  1.00  0.00     0.049 A 
ATOM     41  N   UNL A   1      45.164  26.032  27.790  1.00  0.00    -0.248 NA
ATOM     42  C   UNL A   1      45.635  23.882  27.022  1.00  0.00     0.031 C 
ATOM     43  C   UNL A   1      40.836  24.921  28.209  1.00  0.00     0.029 A 
ATOM     44  N   UNL A   1      42.325  26.575  28.401  1.00  0.00    -0.354 N 
ATOM     45  C   UNL A   1      46.535  25.879  27.625  1.00  0.00     0.074 A 
ATOM     46  C   UNL A   1      46.777  24.508  27.251  1.00  0.00     0.031 C 
ATOM     47  C   UNL A   1      40.172  26.011  28.628  1.00  0.00     0.029 A 
ATOM     48  C   UNL A   1      41.113  27.116  28.757  1.00  0.00     0.049 A 
ATOM     49  H   UNL A   1      43.169  27.081  28.426  1.00  0.00     0.167 HD
ATOM     50  C   UNL A   1      47.510  26.811  27.730  1.00  0.00     0.031 A 
ATOM     51  C   UNL A   1      40.800  28.372  29.128  1.00  0.00     0.031 A 
ATOM     52  C   UNL A   1      47.258  28.191  28.032  1.00  0.00     0.049 A 
ATOM     53  C   UNL A   1      41.893  29.404  29.167  1.00  0.00     0.074 A 
ATOM     54  C   UNL A   1      48.155  29.241  28.068  1.00  0.00     0.029 A 
ATOM     55  N   UNL A   1      46.010  28.709  28.335  1.00  0.00    -0.354 N 
ATOM     56  N   UNL A   1      43.171  29.267  28.904  1.00  0.00    -0.248 NA
ATOM     57  C   UNL A   1      41.495  30.770  29.530  1.00  0.00     0.031 C 
ATOM     58  C   UNL A   1      47.454  30.394  28.438  1.00  0.00     0.029 A 
ATOM     59  C   UNL A   1      46.115  30.067  28.578  1.00  0.00     0.049 A 
ATOM     60  H   UNL A   1      45.175  28.190  28.372  1.00  0.00     0.167 HD
ATOM     61  C   UNL A   1      43.722  30.534  29.041  1.00  0.00     0.074 A 
ATOM     62  C   UNL A   1      42.635  31.429  29.380  1.00  0.00     0.031 C 
ATOM     63  C   UNL A   1      45.012  30.929  28.906  1.00  0.00     0.031 A 
BRANCH  50  64
ATOM     64  C   UNL A   1      48.926  26.372  27.492  1.00  0.00    -0.014 A 
ATOM     65  C   UNL A   1      49.743  25.935  28.548  1.00  0.00     0.009 A 
ATOM     66  C   UNL A   1      49.438  26.354  26.185  1.00  0.00     0.009 A 
ATOM     67  C   UNL A   1      51.053  25.517  28.303  1.00  0.00     0.001 A 
ATOM     68  C   UNL A   1      50.738  25.907  25.940  1.00  0.00     0.001 A 
ATOM     69  C   UNL A   1      51.545  25.495  26.999  1.00  0.00     0.000 A 
ENDBRANCH  50  64
BRANCH  51  70
ATOM     70  C   UNL A   1      39.396  28.742  29.455  1.00  0.00    -0.014 A 
ATOM     71  C   UNL A   1      38.917  28.637  30.770  1.00  0.00     0.009 A 
ATOM     72  C   UNL A   1      38.516  29.164  28.447  1.00  0.00     0.009 A 
ATOM     73  C   UNL A   1      37.575  28.896  31.060  1.00  0.00     0.001 A 
ATOM     74  C   UNL A   1      37.183  29.454  28.745  1.00  0.00     0.001 A 
ATOM     75  C   UNL A   1      36.709  29.305  30.047  1.00  0.00     0.000 A 
ENDBRANCH  51  70
BRANCH  63  76
ATOM     76  C   UNL A   1      45.298  32.391  29.088  1.00  0.00    -0.014 A 
ATOM     77  C   UNL A   1      45.139  33.301  28.031  1.00  0.00     0.009 A 
ATOM     78  C   UNL A   1      45.714  32.864  30.341  1.00  0.00     0.009 A 
ATOM     79  C   UNL A   1      45.439  34.650  28.215  1.00  0.00     0.001 A 
ATOM     80  C   UNL A   1      45.979  34.219  30.531  1.00  0.00     0.001 A 
ATOM     81  C   UNL A   1      45.855  35.109  29.465  1.00  0.00     0.000 A 
ENDBRANCH  63  76
ENDBRANCH  37  38
ENDBRANCH  29  32
ENDBRANCH  27  28
ENDBRANCH  26  27
ENDBRANCH   1  26
TORSDOF 13
ENDMDL
MODEL 2
REMARK VINA RESULT:     -12.3      3.157      8.083
REMARK SMILES C[C@]1(c2ccccc2C(=O)NCCCCNC(=O)c2ccc(-c3c4nc(c(-c5ccccc5)c5ccc([nH]5)c(-c5ccccc5)c5nc(c(-c6ccccc6)c6ccc3[nH]6)C=C5)C=C4)cc2)NN=C(c2ccccc2)S1
REMARK SMILES IDX 13 1 12 2 11 3 9 4 10 5 8 7 3 8 4 9 5 10 7 11 6 12 2 13 1 14
REMARK SMILES IDX 67 15 76 16 68 17 69 19 70 20 71 21 75 22 72 23 74 24 73 25
REMARK SMILES IDX 14 26 15 27 16 28 17 29 18 31 19 32 20 33 66 34 21 35 65 36
REMARK SMILES IDX 22 37 23 38 24 39 59 40 25 41 64 42 58 43 60 44 26 45 63 46
REMARK SMILES IDX 57 47 56 48 27 50 49 51 34 52 48 53 35 54 38 55 47 56 61 57
REMARK SMILES IDX 36 58 37 59 46 61 62 62 39 63 28 64 29 65 33 66 30 67 32 68
REMARK SMILES IDX 31 69 50 70 51 71 55 72 52 73 54 74 53 75 40 76 41 77 45 78
REMARK SMILES IDX 42 79 44 80 43 81
REMARK H PARENT 11 6 67 18 16 30 60 49 38 60
REMARK Flexibility Score: inf
ROOT
ATOM      1  C   UNL A   1      35.479  22.032  26.396  1.00  0.00     0.023 C 
ENDROOT
BRANCH   1   2
ATOM      2  C   UNL A   1      34.627  21.809  27.651  1.00  0.00     0.116 C 
BRANCH   2   3
ATOM      3  N   UNL A   1      33.304  22.414  27.626  1.00  0.00    -0.352 N 
ATOM      4  C   UNL A   1      32.254  22.524  26.735  1.00  0.00     0.251 C 
ATOM      5  O   UNL A   1      31.173  22.809  27.272  1.00  0.00    -0.269 OA
ATOM      6  H   UNL A   1      33.102  22.867  28.477  1.00  0.00     0.163 HD
BRANCH   4   7
ATOM      7  C   UNL A   1      32.233  22.373  25.216  1.00  0.00     0.046 A 
ATOM      8  C   UNL A   1      31.742  23.279  24.211  1.00  0.00     0.002 A 
ATOM      9  C   UNL A   1      31.674  22.843  22.865  1.00  0.00     0.008 A 
ATOM     10  C   UNL A   1      31.936  21.523  22.515  1.00  0.00     0.000 A 
ATOM     11  C   UNL A   1      32.454  21.035  24.819  1.00  0.00     0.014 A 
ATOM     12  C   UNL A   1      32.290  20.611  23.497  1.00  0.00     0.001 A 
BRANCH   8  13
ATOM     13  C   UNL A   1      31.256  24.695  24.504  1.00  0.00     0.129 C 
ATOM     14  C   UNL A   1      30.481  25.106  23.233  1.00  0.00     0.054 C 
ATOM     15  N   UNL A   1      30.275  24.943  25.604  1.00  0.00    -0.288 NA
ATOM     16  S   UNL A   1      32.697  25.577  25.208  1.00  0.00    -0.070 SA
ATOM     17  N   UNL A   1      30.443  26.147  26.307  1.00  0.00    -0.171 NA
ATOM     18  H   UNL A   1      29.558  24.305  25.821  1.00  0.00     0.185 HD
ATOM     19  C   UNL A   1      31.677  26.526  26.215  1.00  0.00     0.126 C 
BRANCH  19  20
ATOM     20  C   UNL A   1      32.418  27.619  26.853  1.00  0.00     0.009 A 
ATOM     21  C   UNL A   1      33.785  27.683  26.548  1.00  0.00     0.011 A 
ATOM     22  C   UNL A   1      31.730  28.779  27.240  1.00  0.00     0.011 A 
ATOM     23  C   UNL A   1      34.447  28.911  26.580  1.00  0.00     0.001 A 
ATOM     24  C   UNL A   1      32.402  30.006  27.272  1.00  0.00     0.001 A 
ATOM     25  C   UNL A   1      33.753  30.071  26.924  1.00  0.00     0.000 A 
ENDBRANCH  19  20
ENDBRANCH   8  13
ENDBRANCH   4   7
ENDBRANCH   2   3
ENDBRANCH   1   2
BRANCH   1  26
ATOM     26  C   UNL A   1      35.879  23.438  25.997  1.00  0.00     0.023 C 
BRANCH  26  27
ATOM     27  C   UNL A   1      37.072  23.435  25.071  1.00  0.00     0.116 C 
BRANCH  27  28
ATOM     28  N   UNL A   1      38.154  22.540  25.499  1.00  0.00    -0.352 N 
ATOM     29  C   UNL A   1      39.233  22.815  26.305  1.00  0.00     0.251 C 
ATOM     30  H   UNL A   1      38.099  21.617  25.161  1.00  0.00     0.163 HD
ATOM     31  O   UNL A   1      40.084  21.960  26.531  1.00  0.00    -0.269 OA
BRANCH  29  32
ATOM     32  C   UNL A   1      39.380  24.182  26.834  1.00  0.00     0.039 A 
ATOM     33  C   UNL A   1      38.971  24.459  28.138  1.00  0.00     0.014 A 
ATOM     34  C   UNL A   1      40.057  25.140  26.082  1.00  0.00     0.014 A 
ATOM     35  C   UNL A   1      39.324  25.678  28.711  1.00  0.00     0.010 A 
ATOM     36  C   UNL A   1      40.561  26.260  26.713  1.00  0.00     0.010 A 
ATOM     37  C   UNL A   1      40.165  26.567  28.019  1.00  0.00    -0.014 A 
BRANCH  37  38
ATOM     38  C   UNL A   1      40.600  27.851  28.614  1.00  0.00     0.031 A 
ATOM     39  C   UNL A   1      39.589  28.954  28.812  1.00  0.00     0.074 A 
ATOM     40  C   UNL A   1      41.897  28.043  28.922  1.00  0.00     0.049 A 
ATOM     41  N   UNL A   1      39.766  30.156  29.297  1.00  0.00    -0.248 NA
ATOM     42  C   UNL A   1      38.207  28.697  28.361  1.00  0.00     0.031 C 
ATOM     43  C   UNL A   1      42.984  27.086  28.690  1.00  0.00     0.029 A 
ATOM     44  N   UNL A   1      42.522  29.112  29.510  1.00  0.00    -0.354 N 
ATOM     45  C   UNL A   1      38.539  30.794  29.173  1.00  0.00     0.074 A 
ATOM     46  C   UNL A   1      37.645  29.886  28.497  1.00  0.00     0.031 C 
ATOM     47  C   UNL A   1      44.127  27.587  29.188  1.00  0.00     0.029 A 
ATOM     48  C   UNL A   1      43.862  28.909  29.740  1.00  0.00     0.049 A 
ATOM     49  H   UNL A   1      42.056  29.946  29.746  1.00  0.00     0.167 HD
ATOM     50  C   UNL A   1      38.169  32.014  29.622  1.00  0.00     0.031 A 
ATOM     51  C   UNL A   1      44.767  29.700  30.347  1.00  0.00     0.031 A 
ATOM     52  C   UNL A   1      39.040  32.885  30.358  1.00  0.00     0.049 A 
ATOM     53  C   UNL A   1      44.310  31.021  30.902  1.00  0.00     0.074 A 
ATOM     54  C   UNL A   1      38.745  34.101  30.947  1.00  0.00     0.029 A 
ATOM     55  N   UNL A   1      40.375  32.620  30.615  1.00  0.00    -0.354 N 
ATOM     56  N   UNL A   1      43.116  31.565  30.869  1.00  0.00    -0.248 NA
ATOM     57  C   UNL A   1      45.322  31.827  31.598  1.00  0.00     0.031 C 
ATOM     58  C   UNL A   1      39.919  34.594  31.525  1.00  0.00     0.029 A 
ATOM     59  C   UNL A   1      40.926  33.660  31.342  1.00  0.00     0.049 A 
ATOM     60  H   UNL A   1      40.859  31.814  30.325  1.00  0.00     0.167 HD
ATOM     61  C   UNL A   1      43.228  32.761  31.566  1.00  0.00     0.074 A 
ATOM     62  C   UNL A   1      44.596  32.846  32.034  1.00  0.00     0.031 C 
ATOM     63  C   UNL A   1      42.289  33.711  31.797  1.00  0.00     0.031 A 
BRANCH  50  64
ATOM     64  C   UNL A   1      36.761  32.462  29.355  1.00  0.00    -0.014 A 
ATOM     65  C   UNL A   1      35.732  32.230  30.283  1.00  0.00     0.009 A 
ATOM     66  C   UNL A   1      36.466  33.164  28.176  1.00  0.00     0.009 A 
ATOM     67  C   UNL A   1      34.432  32.667  30.021  1.00  0.00     0.001 A 
ATOM     68  C   UNL A   1      35.172  33.627  27.932  1.00  0.00     0.001 A 
ATOM     69  C   UNL A   1      34.156  33.373  28.852  1.00  0.00     0.000 A 
ENDBRANCH  50  64
BRANCH  51  70
ATOM     70  C   UNL A   1      46.180  29.260  30.504  1.00  0.00    -0.014 A 
ATOM     71  C   UNL A   1      47.132  29.549  29.514  1.00  0.00     0.009 A 
ATOM     72  C   UNL A   1      46.575  28.514  31.624  1.00  0.00     0.009 A 
ATOM     73  C   UNL A   1      48.435  29.057  29.616  1.00  0.00     0.001 A 
ATOM     74  C   UNL A   1      47.889  28.051  31.740  1.00  0.00     0.001 A 
ATOM     75  C   UNL A   1      48.813  28.309  30.730  1.00  0.00     0.000 A 
ENDBRANCH  51  70
BRANCH  63  76
ATOM     76  C   UNL A   1      42.707  34.895  32.619  1.00  0.00    -0.014 A 
ATOM     77  C   UNL A   1      43.335  36.004  32.032  1.00  0.00     0.009 A 
ATOM     78  C   UNL A   1      42.449  34.905  33.998  1.00  0.00     0.009 A 
ATOM     79  C   UNL A   1      43.741  37.080  32.820  1.00  0.00     0.001 A 
ATOM     80  C   UNL A   1      42.824  35.998  34.777  1.00  0.00     0.001 A 
ATOM     81  C   UNL A   1      43.482  37.078  34.191  1.00  0.00     0.000 A 
ENDBRANCH  63  76
ENDBRANCH  37  38
ENDBRANCH  29  32
ENDBRANCH  27  28
ENDBRANCH  26  27
ENDBRANCH   1  26
TORSDOF 13
ENDMDL
MODEL 3
REMARK VINA RESULT:     -12.3      5.603     10.603
REMARK SMILES C[C@]1(c2ccccc2C(=O)NCCCCNC(=O)c2ccc(-c3c4nc(c(-c5ccccc5)c5ccc([nH]5)c(-c5ccccc5)c5nc(c(-c6ccccc6)c6ccc3[nH]6)C=C5)C=C4)cc2)NN=C(c2ccccc2)S1
REMARK SMILES IDX 13 1 12 2 11 3 9 4 10 5 8 7 3 8 4 9 5 10 7 11 6 12 2 13 1 14
REMARK SMILES IDX 67 15 76 16 68 17 69 19 70 20 71 21 75 22 72 23 74 24 73 25
REMARK SMILES IDX 14 26 15 27 16 28 17 29 18 31 19 32 20 33 66 34 21 35 65 36
REMARK SMILES IDX 22 37 23 38 24 39 59 40 25 41 64 42 58 43 60 44 26 45 63 46
REMARK SMILES IDX 57 47 56 48 27 50 49 51 34 52 48 53 35 54 38 55 47 56 61 57
REMARK SMILES IDX 36 58 37 59 46 61 62 62 39 63 28 64 29 65 33 66 30 67 32 68
REMARK SMILES IDX 31 69 50 70 51 71 55 72 52 73 54 74 53 75 40 76 41 77 45 78
REMARK SMILES IDX 42 79 44 80 43 81
REMARK H PARENT 11 6 67 18 16 30 60 49 38 60
REMARK Flexibility Score: inf
ROOT
ATOM      1  C   UNL A   1      32.266  30.337  26.226  1.00  0.00     0.023 C 
ENDROOT
BRANCH   1   2
ATOM      2  C   UNL A   1      32.535  29.148  27.157  1.00  0.00     0.116 C 
BRANCH   2   3
ATOM      3  N   UNL A   1      31.682  27.987  26.954  1.00  0.00    -0.352 N 
ATOM      4  C   UNL A   1      31.797  26.725  26.403  1.00  0.00     0.251 C 
ATOM      5  O   UNL A   1      30.921  25.935  26.783  1.00  0.00    -0.269 OA
ATOM      6  H   UNL A   1      30.776  28.144  27.306  1.00  0.00     0.163 HD
BRANCH   4   7
ATOM      7  C   UNL A   1      32.810  26.180  25.400  1.00  0.00     0.046 A 
ATOM      8  C   UNL A   1      32.699  26.035  23.972  1.00  0.00     0.002 A 
ATOM      9  C   UNL A   1      33.713  25.339  23.270  1.00  0.00     0.008 A 
ATOM     10  C   UNL A   1      34.734  24.674  23.938  1.00  0.00     0.000 A 
ATOM     11  C   UNL A   1      33.844  25.458  26.037  1.00  0.00     0.014 A 
ATOM     12  C   UNL A   1      34.779  24.703  25.324  1.00  0.00     0.001 A 
BRANCH   8  13
ATOM     13  C   UNL A   1      31.530  26.568  23.150  1.00  0.00     0.129 C 
ATOM     14  C   UNL A   1      31.462  25.630  21.925  1.00  0.00     0.054 C 
ATOM     15  N   UNL A   1      30.140  26.525  23.697  1.00  0.00    -0.288 NA
ATOM     16  S   UNL A   1      31.753  28.384  23.092  1.00  0.00    -0.070 SA
ATOM     17  N   UNL A   1      29.315  27.606  23.347  1.00  0.00    -0.171 NA
ATOM     18  H   UNL A   1      29.824  25.787  24.267  1.00  0.00     0.185 HD
ATOM     19  C   UNL A   1      30.052  28.635  23.075  1.00  0.00     0.126 C 
BRANCH  19  20
ATOM     20  C   UNL A   1      29.717  30.033  22.786  1.00  0.00     0.009 A 
ATOM     21  C   UNL A   1      29.390  30.314  21.453  1.00  0.00     0.011 A 
ATOM     22  C   UNL A   1      29.222  30.846  23.818  1.00  0.00     0.011 A 
ATOM     23  C   UNL A   1      28.529  31.372  21.157  1.00  0.00     0.001 A 
ATOM     24  C   UNL A   1      28.362  31.906  23.512  1.00  0.00     0.001 A 
ATOM     25  C   UNL A   1      28.003  32.154  22.185  1.00  0.00     0.000 A 
ENDBRANCH  19  20
ENDBRANCH   8  13
ENDBRANCH   4   7
ENDBRANCH   2   3
ENDBRANCH   1   2
BRANCH   1  26
ATOM     26  C   UNL A   1      31.741  31.638  26.798  1.00  0.00     0.023 C 
BRANCH  26  27
ATOM     27  C   UNL A   1      32.863  32.534  27.264  1.00  0.00     0.116 C 
BRANCH  27  28
ATOM     28  N   UNL A   1      32.430  33.887  27.632  1.00  0.00    -0.352 N 
ATOM     29  C   UNL A   1      33.003  34.764  28.522  1.00  0.00     0.251 C 
ATOM     30  H   UNL A   1      31.619  34.211  27.178  1.00  0.00     0.163 HD
ATOM     31  O   UNL A   1      32.485  35.852  28.755  1.00  0.00    -0.269 OA
BRANCH  29  32
ATOM     32  C   UNL A   1      34.214  34.337  29.244  1.00  0.00     0.039 A 
ATOM     33  C   UNL A   1      34.089  33.532  30.376  1.00  0.00     0.014 A 
ATOM     34  C   UNL A   1      35.469  34.617  28.706  1.00  0.00     0.014 A 
ATOM     35  C   UNL A   1      35.229  32.940  30.912  1.00  0.00     0.010 A 
ATOM     36  C   UNL A   1      36.562  33.886  29.125  1.00  0.00     0.010 A 
ATOM     37  C   UNL A   1      36.468  33.073  30.260  1.00  0.00    -0.014 A 
BRANCH  37  38
ATOM     38  C   UNL A   1      37.693  32.420  30.775  1.00  0.00     0.031 A 
ATOM     39  C   UNL A   1      38.316  32.922  32.055  1.00  0.00     0.074 A 
ATOM     40  C   UNL A   1      38.269  31.426  30.073  1.00  0.00     0.049 A 
ATOM     41  N   UNL A   1      39.395  32.503  32.664  1.00  0.00    -0.248 NA
ATOM     42  C   UNL A   1      37.676  34.077  32.714  1.00  0.00     0.031 C 
ATOM     43  C   UNL A   1      37.813  30.917  28.775  1.00  0.00     0.029 A 
ATOM     44  N   UNL A   1      39.365  30.654  30.360  1.00  0.00    -0.354 N 
ATOM     45  C   UNL A   1      39.572  33.362  33.742  1.00  0.00     0.074 A 
ATOM     46  C   UNL A   1      38.547  34.372  33.664  1.00  0.00     0.031 C 
ATOM     47  C   UNL A   1      38.585  29.879  28.411  1.00  0.00     0.029 A 
ATOM     48  C   UNL A   1      39.607  29.672  29.429  1.00  0.00     0.049 A 
ATOM     49  H   UNL A   1      39.925  30.790  31.158  1.00  0.00     0.167 HD
ATOM     50  C   UNL A   1      40.483  33.293  34.739  1.00  0.00     0.031 A 
ATOM     51  C   UNL A   1      40.542  28.704  29.415  1.00  0.00     0.031 A 
ATOM     52  C   UNL A   1      41.456  32.245  34.852  1.00  0.00     0.049 A 
ATOM     53  C   UNL A   1      41.496  28.607  30.573  1.00  0.00     0.074 A 
ATOM     54  C   UNL A   1      42.363  32.019  35.870  1.00  0.00     0.029 A 
ATOM     55  N   UNL A   1      41.635  31.241  33.915  1.00  0.00    -0.354 N 
ATOM     56  N   UNL A   1      41.583  29.365  31.640  1.00  0.00    -0.248 NA
ATOM     57  C   UNL A   1      42.466  27.505  30.536  1.00  0.00     0.031 C 
ATOM     58  C   UNL A   1      43.125  30.897  35.527  1.00  0.00     0.029 A 
ATOM     59  C   UNL A   1      42.653  30.397  34.323  1.00  0.00     0.049 A 
ATOM     60  H   UNL A   1      41.117  31.141  33.085  1.00  0.00     0.167 HD
ATOM     61  C   UNL A   1      42.595  28.813  32.414  1.00  0.00     0.074 A 
ATOM     62  C   UNL A   1      43.069  27.642  31.708  1.00  0.00     0.031 C 
ATOM     63  C   UNL A   1      43.096  29.237  33.600  1.00  0.00     0.031 A 
BRANCH  50  64
ATOM     64  C   UNL A   1      40.448  34.361  35.794  1.00  0.00    -0.014 A 
ATOM     65  C   UNL A   1      41.192  35.544  35.660  1.00  0.00     0.009 A 
ATOM     66  C   UNL A   1      39.625  34.201  36.919  1.00  0.00     0.009 A 
ATOM     67  C   UNL A   1      41.135  36.532  36.646  1.00  0.00     0.001 A 
ATOM     68  C   UNL A   1      39.546  35.203  37.888  1.00  0.00     0.001 A 
ATOM     69  C   UNL A   1      40.305  36.364  37.753  1.00  0.00     0.000 A 
ENDBRANCH  50  64
BRANCH  51  70
ATOM     70  C   UNL A   1      40.606  27.723  28.297  1.00  0.00    -0.014 A 
ATOM     71  C   UNL A   1      41.351  28.005  27.141  1.00  0.00     0.009 A 
ATOM     72  C   UNL A   1      39.890  26.519  28.362  1.00  0.00     0.009 A 
ATOM     73  C   UNL A   1      41.336  27.128  26.055  1.00  0.00     0.001 A 
ATOM     74  C   UNL A   1      39.904  25.627  27.286  1.00  0.00     0.001 A 
ATOM     75  C   UNL A   1      40.613  25.938  26.128  1.00  0.00     0.000 A 
ENDBRANCH  51  70
BRANCH  63  76
ATOM     76  C   UNL A   1      44.182  28.403  34.215  1.00  0.00    -0.014 A 
ATOM     77  C   UNL A   1      45.537  28.666  33.956  1.00  0.00     0.009 A 
ATOM     78  C   UNL A   1      43.843  27.354  35.083  1.00  0.00     0.009 A 
ATOM     79  C   UNL A   1      46.528  27.860  34.515  1.00  0.00     0.001 A 
ATOM     80  C   UNL A   1      44.838  26.573  35.668  1.00  0.00     0.001 A 
ATOM     81  C   UNL A   1      46.179  26.817  35.373  1.00  0.00     0.000 A 
ENDBRANCH  63  76
ENDBRANCH  37  38
ENDBRANCH  29  32
ENDBRANCH  27  28
ENDBRANCH  26  27
ENDBRANCH   1  26
TORSDOF 13
ENDMDL
