MODEL 1
REMARK VINA RESULT:     -12.0      0.000      0.000
REMARK SMILES CCOc1cc2c(cc1/C=C1/C(=O)N(c3cccc(C(=O)NCCCCNC(=O)c4ccc(-c5c6nc(c(-c7ccccc7)c7ccc([nH]7)c(-c7ccccc7)c7nc(c(-c8ccccc8)c8ccc5[nH]8)C=C7)C=C6)cc4)c3)C(=S)N=C1O)OCO2
REMARK SMILES IDX 23 1 22 2 20 3 21 4 19 6 15 7 16 8 78 9 17 10 18 11 14 12
REMARK SMILES IDX 10 13 11 14 12 15 82 16 13 17 81 18 79 19 80 20 9 21 4 22
REMARK SMILES IDX 5 23 6 24 8 25 7 26 86 27 84 28 85 29 3 30 2 31 1 32 83 33
REMARK SMILES IDX 24 35 25 36 26 37 27 38 28 39 29 41 30 42 31 43 77 44 32 45
REMARK SMILES IDX 76 46 33 47 34 48 35 49 70 50 36 51 75 52 69 53 71 54 37 55
REMARK SMILES IDX 74 56 68 57 67 58 38 60 60 61 45 62 59 63 46 64 49 65 58 66
REMARK SMILES IDX 72 67 47 68 48 69 57 71 73 72 50 73 39 74 40 75 44 76 41 77
REMARK SMILES IDX 43 78 42 79 61 80 62 81 66 82 63 83 65 84 64 85 51 86 52 87
REMARK SMILES IDX 56 88 53 89 55 90 54 91
REMARK H PARENT 22 5 83 34 27 40 71 59 49 70
REMARK Flexibility Score: inf
ROOT
ATOM      1  C   UNL A   1      32.923  29.637  25.763  1.00  0.00     0.116 C 
ENDROOT
BRANCH   1   2
ATOM      2  N   UNL A   1      32.380  29.773  24.420  1.00  0.00    -0.352 N 
ATOM      3  C   UNL A   1      31.669  28.887  23.636  1.00  0.00     0.251 C 
ATOM      4  O   UNL A   1      31.317  29.251  22.515  1.00  0.00    -0.269 OA
ATOM      5  H   UNL A   1      32.547  30.647  23.999  1.00  0.00     0.163 HD
BRANCH   3   6
ATOM      6  C   UNL A   1      31.382  27.491  24.070  1.00  0.00     0.041 A 
ATOM      7  C   UNL A   1      32.102  25.182  24.360  1.00  0.00     0.052 A 
ATOM      8  C   UNL A   1      30.766  24.802  24.518  1.00  0.00     0.027 A 
ATOM      9  C   UNL A   1      32.391  26.553  24.293  1.00  0.00     0.040 A 
ATOM     10  C   UNL A   1      29.743  25.753  24.453  1.00  0.00     0.003 A 
ATOM     11  C   UNL A   1      30.047  27.088  24.185  1.00  0.00     0.014 A 
BRANCH   7  12
ATOM     12  N   UNL A   1      33.173  24.251  24.047  1.00  0.00    -0.251 N 
ATOM     13  C   UNL A   1      35.872  22.406  25.726  1.00  0.00     0.031 C 
ATOM     14  C   UNL A   1      35.222  23.092  24.757  1.00  0.00     0.103 C 
ATOM     15  C   UNL A   1      33.982  23.840  25.127  1.00  0.00     0.270 C 
ATOM     16  C   UNL A   1      35.568  23.200  23.350  1.00  0.00     0.226 C 
ATOM     17  O   UNL A   1      33.726  24.058  26.313  1.00  0.00    -0.268 OA
ATOM     18  N   UNL A   1      34.798  23.571  22.406  1.00  0.00    -0.184 NA
ATOM     19  C   UNL A   1      33.517  23.986  22.690  1.00  0.00     0.210 C 
ATOM     20  S   UNL A   1      32.558  24.274  21.315  1.00  0.00    -0.038 S 
BRANCH  13  21
ATOM     21  C   UNL A   1      37.071  21.528  25.654  1.00  0.00     0.021 A 
ATOM     22  C   UNL A   1      36.964  20.171  25.227  1.00  0.00     0.130 A 
ATOM     23  C   UNL A   1      38.096  19.346  25.172  1.00  0.00     0.097 A 
ATOM     24  C   UNL A   1      39.304  19.870  25.568  1.00  0.00     0.169 A 
ATOM     25  C   UNL A   1      38.351  22.039  25.939  1.00  0.00     0.062 A 
ATOM     26  C   UNL A   1      39.430  21.182  25.936  1.00  0.00     0.166 A 
ATOM     27  O   UNL A   1      40.487  19.201  25.614  1.00  0.00    -0.453 OA
ATOM     28  O   UNL A   1      40.707  21.508  26.272  1.00  0.00    -0.454 OA
ATOM     29  C   UNL A   1      41.349  20.221  26.156  1.00  0.00     0.468 C 
BRANCH  22  30
ATOM     30  O   UNL A   1      35.751  19.735  24.746  1.00  0.00    -0.493 OA
BRANCH  30  31
ATOM     31  C   UNL A   1      35.589  18.317  24.622  1.00  0.00     0.226 C 
ATOM     32  C   UNL A   1      34.168  17.911  24.250  1.00  0.00     0.049 C 
ENDBRANCH  30  31
ENDBRANCH  22  30
ENDBRANCH  13  21
BRANCH  16  33
ATOM     33  O   UNL A   1      36.834  22.969  23.005  1.00  0.00    -0.493 OA
ATOM     34  H   UNL A   1      37.378  22.435  23.548  1.00  0.00     0.295 HD
ENDBRANCH  16  33
ENDBRANCH   7  12
ENDBRANCH   3   6
ENDBRANCH   1   2
BRANCH   1  35
ATOM     35  C   UNL A   1      32.016  30.127  26.882  1.00  0.00     0.023 C 
BRANCH  35  36
ATOM     36  C   UNL A   1      31.668  31.609  26.879  1.00  0.00     0.023 C 
BRANCH  36  37
ATOM     37  C   UNL A   1      32.836  32.573  27.040  1.00  0.00     0.116 C 
BRANCH  37  38
ATOM     38  N   UNL A   1      32.472  33.855  27.628  1.00  0.00    -0.352 N 
ATOM     39  C   UNL A   1      33.088  34.573  28.629  1.00  0.00     0.251 C 
ATOM     40  H   UNL A   1      31.662  34.271  27.252  1.00  0.00     0.163 HD
ATOM     41  O   UNL A   1      32.592  35.615  29.035  1.00  0.00    -0.269 OA
BRANCH  39  42
ATOM     42  C   UNL A   1      34.332  34.059  29.244  1.00  0.00     0.039 A 
ATOM     43  C   UNL A   1      34.236  33.253  30.382  1.00  0.00     0.014 A 
ATOM     44  C   UNL A   1      35.581  34.342  28.690  1.00  0.00     0.014 A 
ATOM     45  C   UNL A   1      35.386  32.656  30.907  1.00  0.00     0.010 A 
ATOM     46  C   UNL A   1      36.711  33.681  29.160  1.00  0.00     0.010 A 
ATOM     47  C   UNL A   1      36.626  32.828  30.272  1.00  0.00    -0.014 A 
BRANCH  47  48
ATOM     48  C   UNL A   1      37.847  32.129  30.748  1.00  0.00     0.031 A 
ATOM     49  C   UNL A   1      38.650  32.706  31.882  1.00  0.00     0.074 A 
ATOM     50  C   UNL A   1      38.278  31.019  30.115  1.00  0.00     0.049 A 
ATOM     51  N   UNL A   1      39.789  32.296  32.380  1.00  0.00    -0.248 NA
ATOM     52  C   UNL A   1      38.118  33.920  32.521  1.00  0.00     0.031 C 
ATOM     53  C   UNL A   1      37.617  30.378  28.976  1.00  0.00     0.029 A 
ATOM     54  N   UNL A   1      39.386  30.240  30.336  1.00  0.00    -0.354 N 
ATOM     55  C   UNL A   1      40.118  33.213  33.370  1.00  0.00     0.074 A 
ATOM     56  C   UNL A   1      39.086  34.225  33.371  1.00  0.00     0.031 C 
ATOM     57  C   UNL A   1      38.318  29.289  28.617  1.00  0.00     0.029 A 
ATOM     58  C   UNL A   1      39.495  29.178  29.471  1.00  0.00     0.049 A 
ATOM     59  H   UNL A   1      40.040  30.423  31.049  1.00  0.00     0.167 HD
ATOM     60  C   UNL A   1      41.174  33.204  34.219  1.00  0.00     0.031 A 
ATOM     61  C   UNL A   1      40.441  28.224  29.373  1.00  0.00     0.031 A 
ATOM     62  C   UNL A   1      42.190  32.188  34.237  1.00  0.00     0.049 A 
ATOM     63  C   UNL A   1      41.603  28.237  30.327  1.00  0.00     0.074 A 
ATOM     64  C   UNL A   1      43.269  32.063  35.096  1.00  0.00     0.029 A 
ATOM     65  N   UNL A   1      42.251  31.119  33.359  1.00  0.00    -0.354 N 
ATOM     66  N   UNL A   1      41.866  29.078  31.297  1.00  0.00    -0.248 NA
ATOM     67  C   UNL A   1      42.593  27.161  30.178  1.00  0.00     0.031 C 
ATOM     68  C   UNL A   1      44.005  30.938  34.710  1.00  0.00     0.029 A 
ATOM     69  C   UNL A   1      43.357  30.337  33.644  1.00  0.00     0.049 A 
ATOM     70  H   UNL A   1      41.604  30.942  32.638  1.00  0.00     0.167 HD
ATOM     71  C   UNL A   1      43.032  28.615  31.892  1.00  0.00     0.074 A 
ATOM     72  C   UNL A   1      43.418  27.413  31.184  1.00  0.00     0.031 C 
ATOM     73  C   UNL A   1      43.721  29.139  32.935  1.00  0.00     0.031 A 
BRANCH  60  74
ATOM     74  C   UNL A   1      41.275  34.334  35.204  1.00  0.00    -0.014 A 
ATOM     75  C   UNL A   1      41.978  35.509  34.892  1.00  0.00     0.009 A 
ATOM     76  C   UNL A   1      40.633  34.238  36.448  1.00  0.00     0.009 A 
ATOM     77  C   UNL A   1      42.067  36.548  35.819  1.00  0.00     0.001 A 
ATOM     78  C   UNL A   1      40.702  35.290  37.363  1.00  0.00     0.001 A 
ATOM     79  C   UNL A   1      41.426  36.440  37.051  1.00  0.00     0.000 A 
ENDBRANCH  60  74
BRANCH  61  80
ATOM     80  C   UNL A   1      40.324  27.157  28.344  1.00  0.00    -0.014 A 
ATOM     81  C   UNL A   1      39.695  25.941  28.653  1.00  0.00     0.009 A 
ATOM     82  C   UNL A   1      40.859  27.337  27.059  1.00  0.00     0.009 A 
ATOM     83  C   UNL A   1      39.629  24.916  27.705  1.00  0.00     0.001 A 
ATOM     84  C   UNL A   1      40.768  26.322  26.105  1.00  0.00     0.001 A 
ATOM     85  C   UNL A   1      40.163  25.110  26.431  1.00  0.00     0.000 A 
ENDBRANCH  61  80
BRANCH  73  86
ATOM     86  C   UNL A   1      44.936  28.390  33.401  1.00  0.00    -0.014 A 
ATOM     87  C   UNL A   1      46.221  28.724  32.942  1.00  0.00     0.009 A 
ATOM     88  C   UNL A   1      44.796  27.363  34.348  1.00  0.00     0.009 A 
ATOM     89  C   UNL A   1      47.337  28.022  33.400  1.00  0.00     0.001 A 
ATOM     90  C   UNL A   1      45.917  26.681  34.823  1.00  0.00     0.001 A 
ATOM     91  C   UNL A   1      47.185  27.005  34.343  1.00  0.00     0.000 A 
ENDBRANCH  73  86
ENDBRANCH  47  48
ENDBRANCH  39  42
ENDBRANCH  37  38
ENDBRANCH  36  37
ENDBRANCH  35  36
ENDBRANCH   1  35
TORSDOF 16
ENDMDL
MODEL 2
REMARK VINA RESULT:     -11.8      0.386      5.566
REMARK SMILES CCOc1cc2c(cc1/C=C1/C(=O)N(c3cccc(C(=O)NCCCCNC(=O)c4ccc(-c5c6nc(c(-c7ccccc7)c7ccc([nH]7)c(-c7ccccc7)c7nc(c(-c8ccccc8)c8ccc5[nH]8)C=C7)C=C6)cc4)c3)C(=S)N=C1O)OCO2
REMARK SMILES IDX 23 1 22 2 20 3 21 4 19 6 15 7 16 8 78 9 17 10 18 11 14 12
REMARK SMILES IDX 10 13 11 14 12 15 82 16 13 17 81 18 79 19 80 20 9 21 4 22
REMARK SMILES IDX 5 23 6 24 8 25 7 26 86 27 84 28 85 29 3 30 2 31 1 32 83 33
REMARK SMILES IDX 24 35 25 36 26 37 27 38 28 39 29 41 30 42 31 43 77 44 32 45
REMARK SMILES IDX 76 46 33 47 34 48 35 49 70 50 36 51 75 52 69 53 71 54 37 55
REMARK SMILES IDX 74 56 68 57 67 58 38 60 60 61 45 62 59 63 46 64 49 65 58 66
REMARK SMILES IDX 72 67 47 68 48 69 57 71 73 72 50 73 39 74 40 75 44 76 41 77
REMARK SMILES IDX 43 78 42 79 61 80 62 81 66 82 63 83 65 84 64 85 51 86 52 87
REMARK SMILES IDX 56 88 53 89 55 90 54 91
REMARK H PARENT 22 5 83 34 27 40 71 59 49 70
REMARK Flexibility Score: inf
ROOT
ATOM      1  C   UNL A   1      32.781  29.706  25.820  1.00  0.00     0.116 C 
ENDROOT
BRANCH   1   2
ATOM      2  N   UNL A   1      32.214  29.844  24.488  1.00  0.00    -0.352 N 
ATOM      3  C   UNL A   1      31.510  28.951  23.705  1.00  0.00     0.251 C 
ATOM      4  O   UNL A   1      31.132  29.319  22.594  1.00  0.00    -0.269 OA
ATOM      5  H   UNL A   1      32.356  30.726  24.073  1.00  0.00     0.163 HD
BRANCH   3   6
ATOM      6  C   UNL A   1      31.261  27.544  24.128  1.00  0.00     0.041 A 
ATOM      7  C   UNL A   1      32.041  25.251  24.395  1.00  0.00     0.052 A 
ATOM      8  C   UNL A   1      30.716  24.837  24.556  1.00  0.00     0.027 A 
ATOM      9  C   UNL A   1      32.295  26.630  24.338  1.00  0.00     0.040 A 
ATOM     10  C   UNL A   1      29.669  25.762  24.504  1.00  0.00     0.003 A 
ATOM     11  C   UNL A   1      29.938  27.107  24.246  1.00  0.00     0.014 A 
BRANCH   7  12
ATOM     12  N   UNL A   1      33.134  24.351  24.068  1.00  0.00    -0.251 N 
ATOM     13  C   UNL A   1      35.787  22.432  25.739  1.00  0.00     0.031 C 
ATOM     14  C   UNL A   1      35.167  23.170  24.788  1.00  0.00     0.103 C 
ATOM     15  C   UNL A   1      33.905  23.883  25.153  1.00  0.00     0.270 C 
ATOM     16  C   UNL A   1      35.565  23.366  23.404  1.00  0.00     0.226 C 
ATOM     17  O   UNL A   1      33.601  24.027  26.339  1.00  0.00    -0.268 OA
ATOM     18  N   UNL A   1      34.828  23.786  22.455  1.00  0.00    -0.184 NA
ATOM     19  C   UNL A   1      33.533  24.171  22.712  1.00  0.00     0.210 C 
ATOM     20  S   UNL A   1      32.624  24.533  21.322  1.00  0.00    -0.038 S 
BRANCH  13  21
ATOM     21  C   UNL A   1      36.998  21.571  25.660  1.00  0.00     0.021 A 
ATOM     22  C   UNL A   1      36.914  20.227  25.191  1.00  0.00     0.130 A 
ATOM     23  C   UNL A   1      38.057  19.417  25.130  1.00  0.00     0.097 A 
ATOM     24  C   UNL A   1      39.251  19.942  25.564  1.00  0.00     0.169 A 
ATOM     25  C   UNL A   1      38.266  22.088  25.984  1.00  0.00     0.062 A 
ATOM     26  C   UNL A   1      39.355  21.244  25.974  1.00  0.00     0.166 A 
ATOM     27  O   UNL A   1      40.441  19.286  25.610  1.00  0.00    -0.453 OA
ATOM     28  O   UNL A   1      40.621  21.575  26.343  1.00  0.00    -0.454 OA
ATOM     29  C   UNL A   1      41.282  20.299  26.199  1.00  0.00     0.468 C 
BRANCH  22  30
ATOM     30  O   UNL A   1      35.716  19.791  24.675  1.00  0.00    -0.493 OA
BRANCH  30  31
ATOM     31  C   UNL A   1      35.543  18.372  24.576  1.00  0.00     0.226 C 
ATOM     32  C   UNL A   1      34.105  17.968  24.276  1.00  0.00     0.049 C 
ENDBRANCH  30  31
ENDBRANCH  22  30
ENDBRANCH  13  21
BRANCH  16  33
ATOM     33  O   UNL A   1      36.847  23.167  23.096  1.00  0.00    -0.493 OA
ATOM     34  H   UNL A   1      37.123  22.343  22.749  1.00  0.00     0.295 HD
ENDBRANCH  16  33
ENDBRANCH   7  12
ENDBRANCH   3   6
ENDBRANCH   1   2
BRANCH   1  35
ATOM     35  C   UNL A   1      31.893  30.190  26.956  1.00  0.00     0.023 C 
BRANCH  35  36
ATOM     36  C   UNL A   1      31.408  31.630  26.879  1.00  0.00     0.023 C 
BRANCH  36  37
ATOM     37  C   UNL A   1      32.486  32.693  26.706  1.00  0.00     0.116 C 
BRANCH  37  38
ATOM     38  N   UNL A   1      32.280  33.885  27.517  1.00  0.00    -0.352 N 
ATOM     39  C   UNL A   1      33.060  34.412  28.523  1.00  0.00     0.251 C 
ATOM     40  H   UNL A   1      31.460  34.390  27.315  1.00  0.00     0.163 HD
ATOM     41  O   UNL A   1      32.686  35.401  29.139  1.00  0.00    -0.269 OA
BRANCH  39  42
ATOM     42  C   UNL A   1      34.333  33.753  28.890  1.00  0.00     0.039 A 
ATOM     43  C   UNL A   1      35.533  34.307  28.435  1.00  0.00     0.014 A 
ATOM     44  C   UNL A   1      34.350  32.617  29.701  1.00  0.00     0.014 A 
ATOM     45  C   UNL A   1      36.751  33.776  28.871  1.00  0.00     0.010 A 
ATOM     46  C   UNL A   1      35.559  32.143  30.201  1.00  0.00     0.010 A 
ATOM     47  C   UNL A   1      36.773  32.719  29.794  1.00  0.00    -0.014 A 
BRANCH  47  48
ATOM     48  C   UNL A   1      38.048  32.197  30.349  1.00  0.00     0.031 A 
ATOM     49  C   UNL A   1      38.659  30.946  29.781  1.00  0.00     0.074 A 
ATOM     50  C   UNL A   1      38.617  32.802  31.411  1.00  0.00     0.049 A 
ATOM     51  N   UNL A   1      39.715  30.285  30.185  1.00  0.00    -0.248 NA
ATOM     52  C   UNL A   1      37.980  30.342  28.624  1.00  0.00     0.031 C 
ATOM     53  C   UNL A   1      38.106  33.998  32.086  1.00  0.00     0.029 A 
ATOM     54  N   UNL A   1      39.749  32.482  32.118  1.00  0.00    -0.354 N 
ATOM     55  C   UNL A   1      39.809  29.180  29.350  1.00  0.00     0.074 A 
ATOM     56  C   UNL A   1      38.680  29.232  28.448  1.00  0.00     0.031 C 
ATOM     57  C   UNL A   1      38.936  34.326  33.089  1.00  0.00     0.029 A 
ATOM     58  C   UNL A   1      40.013  33.343  33.156  1.00  0.00     0.049 A 
ATOM     59  H   UNL A   1      40.320  31.710  31.902  1.00  0.00     0.167 HD
ATOM     60  C   UNL A   1      40.761  28.217  29.319  1.00  0.00     0.031 A 
ATOM     61  C   UNL A   1      41.008  33.340  34.064  1.00  0.00     0.031 A 
ATOM     62  C   UNL A   1      41.897  28.172  30.198  1.00  0.00     0.049 A 
ATOM     63  C   UNL A   1      42.052  32.259  34.009  1.00  0.00     0.074 A 
ATOM     64  C   UNL A   1      42.944  27.267  30.209  1.00  0.00     0.029 A 
ATOM     65  N   UNL A   1      42.137  29.075  31.221  1.00  0.00    -0.354 N 
ATOM     66  N   UNL A   1      42.157  31.255  33.174  1.00  0.00    -0.248 NA
ATOM     67  C   UNL A   1      43.119  32.319  35.018  1.00  0.00     0.031 C 
ATOM     68  C   UNL A   1      43.798  27.601  31.265  1.00  0.00     0.029 A 
ATOM     69  C   UNL A   1      43.308  28.742  31.879  1.00  0.00     0.049 A 
ATOM     70  H   UNL A   1      41.560  29.841  31.446  1.00  0.00     0.167 HD
ATOM     71  C   UNL A   1      43.318  30.583  33.536  1.00  0.00     0.074 A 
ATOM     72  C   UNL A   1      43.888  31.301  34.657  1.00  0.00     0.031 C 
ATOM     73  C   UNL A   1      43.865  29.472  32.987  1.00  0.00     0.031 A 
BRANCH  60  74
ATOM     74  C   UNL A   1      40.609  27.130  28.292  1.00  0.00    -0.014 A 
ATOM     75  C   UNL A   1      39.908  25.949  28.582  1.00  0.00     0.009 A 
ATOM     76  C   UNL A   1      41.146  27.303  27.007  1.00  0.00     0.009 A 
ATOM     77  C   UNL A   1      39.781  24.947  27.619  1.00  0.00     0.001 A 
ATOM     78  C   UNL A   1      40.993  26.310  26.037  1.00  0.00     0.001 A 
ATOM     79  C   UNL A   1      40.319  25.131  26.347  1.00  0.00     0.000 A 
ENDBRANCH  60  74
BRANCH  61  80
ATOM     80  C   UNL A   1      41.083  34.406  35.097  1.00  0.00    -0.014 A 
ATOM     81  C   UNL A   1      41.805  35.584  34.848  1.00  0.00     0.009 A 
ATOM     82  C   UNL A   1      40.456  34.246  36.342  1.00  0.00     0.009 A 
ATOM     83  C   UNL A   1      41.921  36.566  35.835  1.00  0.00     0.001 A 
ATOM     84  C   UNL A   1      40.551  35.241  37.317  1.00  0.00     0.001 A 
ATOM     85  C   UNL A   1      41.292  36.394  37.067  1.00  0.00     0.000 A 
ENDBRANCH  61  80
BRANCH  73  86
ATOM     86  C   UNL A   1      45.166  28.990  33.561  1.00  0.00    -0.014 A 
ATOM     87  C   UNL A   1      46.396  29.470  33.084  1.00  0.00     0.009 A 
ATOM     88  C   UNL A   1      45.158  28.075  34.625  1.00  0.00     0.009 A 
ATOM     89  C   UNL A   1      47.593  29.017  33.641  1.00  0.00     0.001 A 
ATOM     90  C   UNL A   1      46.355  27.644  35.198  1.00  0.00     0.001 A 
ATOM     91  C   UNL A   1      47.571  28.109  34.701  1.00  0.00     0.000 A 
ENDBRANCH  73  86
ENDBRANCH  47  48
ENDBRANCH  39  42
ENDBRANCH  37  38
ENDBRANCH  36  37
ENDBRANCH  35  36
ENDBRANCH   1  35
TORSDOF 16
ENDMDL
MODEL 3
REMARK VINA RESULT:     -11.6      3.224      9.867
REMARK SMILES CCOc1cc2c(cc1/C=C1/C(=O)N(c3cccc(C(=O)NCCCCNC(=O)c4ccc(-c5c6nc(c(-c7ccccc7)c7ccc([nH]7)c(-c7ccccc7)c7nc(c(-c8ccccc8)c8ccc5[nH]8)C=C7)C=C6)cc4)c3)C(=S)N=C1O)OCO2
REMARK SMILES IDX 23 1 22 2 20 3 21 4 19 6 15 7 16 8 78 9 17 10 18 11 14 12
REMARK SMILES IDX 10 13 11 14 12 15 82 16 13 17 81 18 79 19 80 20 9 21 4 22
REMARK SMILES IDX 5 23 6 24 8 25 7 26 86 27 84 28 85 29 3 30 2 31 1 32 83 33
REMARK SMILES IDX 24 35 25 36 26 37 27 38 28 39 29 41 30 42 31 43 77 44 32 45
REMARK SMILES IDX 76 46 33 47 34 48 35 49 70 50 36 51 75 52 69 53 71 54 37 55
REMARK SMILES IDX 74 56 68 57 67 58 38 60 60 61 45 62 59 63 46 64 49 65 58 66
REMARK SMILES IDX 72 67 47 68 48 69 57 71 73 72 50 73 39 74 40 75 44 76 41 77
REMARK SMILES IDX 43 78 42 79 61 80 62 81 66 82 63 83 65 84 64 85 51 86 52 87
REMARK SMILES IDX 56 88 53 89 55 90 54 91
REMARK H PARENT 22 5 83 34 27 40 71 59 49 70
REMARK Flexibility Score: inf
ROOT
ATOM      1  C   UNL A   1      36.219  20.992  24.988  1.00  0.00     0.116 C 
ENDROOT
BRANCH   1   2
ATOM      2  N   UNL A   1      35.161  20.104  25.443  1.00  0.00    -0.352 N 
ATOM      3  C   UNL A   1      33.812  20.077  25.153  1.00  0.00     0.251 C 
ATOM      4  O   UNL A   1      33.118  19.207  25.677  1.00  0.00    -0.269 OA
ATOM      5  H   UNL A   1      35.459  19.401  26.065  1.00  0.00     0.163 HD
BRANCH   3   6
ATOM      6  C   UNL A   1      33.162  21.104  24.291  1.00  0.00     0.041 A 
ATOM      7  C   UNL A   1      32.203  23.327  24.017  1.00  0.00     0.052 A 
ATOM      8  C   UNL A   1      31.613  22.907  22.821  1.00  0.00     0.027 A 
ATOM      9  C   UNL A   1      33.099  22.451  24.649  1.00  0.00     0.040 A 
ATOM     10  C   UNL A   1      31.791  21.598  22.360  1.00  0.00     0.003 A 
ATOM     11  C   UNL A   1      32.527  20.686  23.117  1.00  0.00     0.014 A 
BRANCH   7  12
ATOM     12  N   UNL A   1      31.787  24.511  24.749  1.00  0.00    -0.251 N 
ATOM     13  C   UNL A   1      32.309  28.149  24.736  1.00  0.00     0.031 C 
ATOM     14  C   UNL A   1      32.098  26.904  25.223  1.00  0.00     0.103 C 
ATOM     15  C   UNL A   1      32.330  25.739  24.315  1.00  0.00     0.270 C 
ATOM     16  C   UNL A   1      31.651  26.524  26.552  1.00  0.00     0.226 C 
ATOM     17  O   UNL A   1      32.959  25.892  23.266  1.00  0.00    -0.268 OA
ATOM     18  N   UNL A   1      31.159  25.401  26.895  1.00  0.00    -0.184 NA
ATOM     19  C   UNL A   1      31.076  24.380  25.977  1.00  0.00     0.210 C 
ATOM     20  S   UNL A   1      30.235  23.011  26.532  1.00  0.00    -0.038 S 
BRANCH  13  21
ATOM     21  C   UNL A   1      32.102  29.482  25.365  1.00  0.00     0.021 A 
ATOM     22  C   UNL A   1      30.972  30.285  25.030  1.00  0.00     0.130 A 
ATOM     23  C   UNL A   1      30.789  31.546  25.618  1.00  0.00     0.097 A 
ATOM     24  C   UNL A   1      31.743  31.998  26.499  1.00  0.00     0.169 A 
ATOM     25  C   UNL A   1      32.985  29.950  26.356  1.00  0.00     0.062 A 
ATOM     26  C   UNL A   1      32.808  31.220  26.863  1.00  0.00     0.166 A 
ATOM     27  O   UNL A   1      31.742  33.205  27.124  1.00  0.00    -0.453 OA
ATOM     28  O   UNL A   1      33.624  31.839  27.758  1.00  0.00    -0.454 OA
ATOM     29  C   UNL A   1      32.990  33.133  27.843  1.00  0.00     0.468 C 
BRANCH  22  30
ATOM     30  O   UNL A   1      30.001  29.738  24.224  1.00  0.00    -0.493 OA
BRANCH  30  31
ATOM     31  C   UNL A   1      29.382  30.623  23.282  1.00  0.00     0.226 C 
ATOM     32  C   UNL A   1      27.885  30.784  23.513  1.00  0.00     0.049 C 
ENDBRANCH  30  31
ENDBRANCH  22  30
ENDBRANCH  13  21
BRANCH  16  33
ATOM     33  O   UNL A   1      31.840  27.398  27.541  1.00  0.00    -0.493 OA
ATOM     34  H   UNL A   1      31.386  27.292  28.353  1.00  0.00     0.295 HD
ENDBRANCH  16  33
ENDBRANCH   7  12
ENDBRANCH   3   6
ENDBRANCH   1   2
BRANCH   1  35
ATOM     35  C   UNL A   1      37.566  20.327  24.745  1.00  0.00     0.023 C 
BRANCH  35  36
ATOM     36  C   UNL A   1      38.777  20.977  25.399  1.00  0.00     0.023 C 
BRANCH  36  37
ATOM     37  C   UNL A   1      39.458  20.173  26.499  1.00  0.00     0.116 C 
BRANCH  37  38
ATOM     38  N   UNL A   1      40.594  19.385  26.041  1.00  0.00    -0.352 N 
ATOM     39  C   UNL A   1      41.930  19.714  25.987  1.00  0.00     0.251 C 
ATOM     40  H   UNL A   1      40.372  18.479  25.725  1.00  0.00     0.163 HD
ATOM     41  O   UNL A   1      42.738  18.930  25.508  1.00  0.00    -0.269 OA
BRANCH  39  42
ATOM     42  C   UNL A   1      42.383  21.037  26.469  1.00  0.00     0.039 A 
ATOM     43  C   UNL A   1      42.644  22.042  25.533  1.00  0.00     0.014 A 
ATOM     44  C   UNL A   1      42.520  21.299  27.833  1.00  0.00     0.014 A 
ATOM     45  C   UNL A   1      42.951  23.334  25.969  1.00  0.00     0.010 A 
ATOM     46  C   UNL A   1      42.743  22.603  28.267  1.00  0.00     0.010 A 
ATOM     47  C   UNL A   1      42.958  23.635  27.340  1.00  0.00    -0.014 A 
BRANCH  47  48
ATOM     48  C   UNL A   1      43.185  25.018  27.831  1.00  0.00     0.031 A 
ATOM     49  C   UNL A   1      44.578  25.477  28.168  1.00  0.00     0.074 A 
ATOM     50  C   UNL A   1      42.136  25.837  28.048  1.00  0.00     0.049 A 
ATOM     51  N   UNL A   1      44.970  26.611  28.693  1.00  0.00    -0.248 NA
ATOM     52  C   UNL A   1      45.671  24.527  27.907  1.00  0.00     0.031 C 
ATOM     53  C   UNL A   1      40.731  25.504  27.803  1.00  0.00     0.029 A 
ATOM     54  N   UNL A   1      42.092  27.119  28.536  1.00  0.00    -0.354 N 
ATOM     55  C   UNL A   1      46.346  26.498  28.846  1.00  0.00     0.074 A 
ATOM     56  C   UNL A   1      46.715  25.171  28.404  1.00  0.00     0.031 C 
ATOM     57  C   UNL A   1      39.967  26.563  28.116  1.00  0.00     0.029 A 
ATOM     58  C   UNL A   1      40.821  27.634  28.620  1.00  0.00     0.049 A 
ATOM     59  H   UNL A   1      42.895  27.624  28.799  1.00  0.00     0.167 HD
ATOM     60  C   UNL A   1      47.229  27.422  29.294  1.00  0.00     0.031 A 
ATOM     61  C   UNL A   1      40.390  28.831  29.060  1.00  0.00     0.031 A 
ATOM     62  C   UNL A   1      46.870  28.749  29.713  1.00  0.00     0.049 A 
ATOM     63  C   UNL A   1      41.390  29.839  29.553  1.00  0.00     0.074 A 
ATOM     64  C   UNL A   1      47.701  29.775  30.131  1.00  0.00     0.029 A 
ATOM     65  N   UNL A   1      45.575  29.236  29.763  1.00  0.00    -0.354 N 
ATOM     66  N   UNL A   1      42.694  29.737  29.634  1.00  0.00    -0.248 NA
ATOM     67  C   UNL A   1      40.858  31.133  30.006  1.00  0.00     0.031 C 
ATOM     68  C   UNL A   1      46.901  30.871  30.472  1.00  0.00     0.029 A 
ATOM     69  C   UNL A   1      45.579  30.543  30.218  1.00  0.00     0.049 A 
ATOM     70  H   UNL A   1      44.769  28.728  29.511  1.00  0.00     0.167 HD
ATOM     71  C   UNL A   1      43.140  30.961  30.116  1.00  0.00     0.074 A 
ATOM     72  C   UNL A   1      41.969  31.794  30.296  1.00  0.00     0.031 C 
ATOM     73  C   UNL A   1      44.407  31.360  30.383  1.00  0.00     0.031 A 
BRANCH  60  74
ATOM     74  C   UNL A   1      48.676  27.021  29.348  1.00  0.00    -0.014 A 
ATOM     75  C   UNL A   1      49.207  26.365  30.470  1.00  0.00     0.009 A 
ATOM     76  C   UNL A   1      49.514  27.275  28.251  1.00  0.00     0.009 A 
ATOM     77  C   UNL A   1      50.555  26.005  30.508  1.00  0.00     0.001 A 
ATOM     78  C   UNL A   1      50.856  26.889  28.281  1.00  0.00     0.001 A 
ATOM     79  C   UNL A   1      51.376  26.262  29.412  1.00  0.00     0.000 A 
ENDBRANCH  60  74
BRANCH  61  80
ATOM     80  C   UNL A   1      38.940  29.160  29.038  1.00  0.00    -0.014 A 
ATOM     81  C   UNL A   1      38.360  29.731  27.895  1.00  0.00     0.009 A 
ATOM     82  C   UNL A   1      38.133  28.926  30.163  1.00  0.00     0.009 A 
ATOM     83  C   UNL A   1      37.009  30.089  27.888  1.00  0.00     0.001 A 
ATOM     84  C   UNL A   1      36.777  29.259  30.144  1.00  0.00     0.001 A 
ATOM     85  C   UNL A   1      36.219  29.850  29.012  1.00  0.00     0.000 A 
ENDBRANCH  61  80
BRANCH  73  86
ATOM     86  C   UNL A   1      44.597  32.773  30.855  1.00  0.00    -0.014 A 
ATOM     87  C   UNL A   1      44.594  33.093  32.222  1.00  0.00     0.009 A 
ATOM     88  C   UNL A   1      44.826  33.792  29.917  1.00  0.00     0.009 A 
ATOM     89  C   UNL A   1      44.785  34.412  32.637  1.00  0.00     0.001 A 
ATOM     90  C   UNL A   1      45.045  35.105  30.337  1.00  0.00     0.001 A 
ATOM     91  C   UNL A   1      45.016  35.415  31.695  1.00  0.00     0.000 A 
ENDBRANCH  73  86
ENDBRANCH  47  48
ENDBRANCH  39  42
ENDBRANCH  37  38
ENDBRANCH  36  37
ENDBRANCH  35  36
ENDBRANCH   1  35
TORSDOF 16
ENDMDL
