MODEL 1
REMARK VINA RESULT:     -10.4      0.000      0.000
REMARK SMILES CN(CC(C)(C)O)S(=O)(=O)c1ccc(C(=O)NCCCCNC(=O)c2ccc(-c3c4nc(c(-c5ccccc5)c5ccc([nH]5)c(-c5ccccc5)c5nc(c(-c6ccccc6)c6ccc3[nH]6)C=C5)C=C4)cc2)s1
REMARK SMILES IDX 18 1 17 2 15 3 16 4 14 6 11 7 12 8 73 9 13 10 8 11 9 12
REMARK SMILES IDX 10 13 2 14 1 15 3 16 4 17 5 18 6 19 7 20 19 22 20 23 21 24
REMARK SMILES IDX 22 25 23 26 24 28 25 29 26 30 72 31 27 32 71 33 28 34 29 35
REMARK SMILES IDX 30 36 65 37 31 38 70 39 64 40 66 41 32 42 69 43 63 44 62 45
REMARK SMILES IDX 33 47 55 48 40 49 54 50 41 51 44 52 53 53 67 54 42 55 43 56
REMARK SMILES IDX 52 58 68 59 45 60 34 61 35 62 39 63 36 64 38 65 37 66 56 67
REMARK SMILES IDX 57 68 61 69 58 70 60 71 59 72 46 73 47 74 51 75 48 76 50 77
REMARK SMILES IDX 49 78
REMARK H PARENT 17 5 7 21 22 27 66 46 44 57
REMARK Flexibility Score: inf
ROOT
ATOM      1  C   UNL A   1      35.455  20.698  24.932  1.00  0.00     0.116 C 
ENDROOT
BRANCH   1   2
ATOM      2  N   UNL A   1      34.240  19.946  25.155  1.00  0.00    -0.351 N 
ATOM      3  C   UNL A   1      32.906  20.267  25.069  1.00  0.00     0.261 C 
ATOM      4  O   UNL A   1      32.148  19.334  25.353  1.00  0.00    -0.268 OA
ATOM      5  H   UNL A   1      34.402  19.012  25.423  1.00  0.00     0.163 HD
BRANCH   3   6
ATOM      6  C   UNL A   1      32.424  21.586  24.659  1.00  0.00     0.093 A 
ATOM      7  C   UNL A   1      31.557  23.926  24.851  1.00  0.00     0.135 A 
ATOM      8  C   UNL A   1      31.580  23.474  23.550  1.00  0.00     0.034 A 
ATOM      9  S   UNL A   1      32.196  22.763  25.918  1.00  0.00    -0.117 S 
ATOM     10  C   UNL A   1      32.095  22.150  23.438  1.00  0.00     0.027 A 
BRANCH   7  11
ATOM     11  S   UNL A   1      31.042  25.487  25.530  1.00  0.00     0.252 S 
ATOM     12  O   UNL A   1      31.401  25.386  26.930  1.00  0.00    -0.206 OA
ATOM     13  O   UNL A   1      29.651  25.618  25.151  1.00  0.00    -0.206 OA
BRANCH  11  14
ATOM     14  N   UNL A   1      31.890  26.781  24.861  1.00  0.00    -0.197 NA
ATOM     15  C   UNL A   1      31.811  28.025  25.651  1.00  0.00     0.124 C 
BRANCH  14  16
ATOM     16  C   UNL A   1      33.148  26.613  24.090  1.00  0.00     0.136 C 
BRANCH  16  17
ATOM     17  C   UNL A   1      33.121  26.821  22.554  1.00  0.00     0.073 C 
ATOM     18  C   UNL A   1      31.711  26.843  21.966  1.00  0.00     0.043 C 
ATOM     19  C   UNL A   1      33.800  28.169  22.249  1.00  0.00     0.043 C 
BRANCH  17  20
ATOM     20  O   UNL A   1      33.899  25.819  21.891  1.00  0.00    -0.389 OA
ATOM     21  H   UNL A   1      34.180  26.150  21.025  1.00  0.00     0.211 HD
ENDBRANCH  17  20
ENDBRANCH  16  17
ENDBRANCH  14  16
ENDBRANCH  11  14
ENDBRANCH   7  11
ENDBRANCH   3   6
ENDBRANCH   1   2
BRANCH   1  22
ATOM     22  C   UNL A   1      35.802  21.585  26.128  1.00  0.00     0.023 C 
BRANCH  22  23
ATOM     23  C   UNL A   1      35.917  23.079  25.791  1.00  0.00     0.023 C 
BRANCH  23  24
ATOM     24  C   UNL A   1      37.237  23.511  25.151  1.00  0.00     0.116 C 
BRANCH  24  25
ATOM     25  N   UNL A   1      38.353  22.631  25.461  1.00  0.00    -0.352 N 
ATOM     26  C   UNL A   1      39.483  22.905  26.192  1.00  0.00     0.251 C 
ATOM     27  H   UNL A   1      38.289  21.718  25.101  1.00  0.00     0.163 HD
ATOM     28  O   UNL A   1      40.374  22.068  26.292  1.00  0.00    -0.269 OA
BRANCH  26  29
ATOM     29  C   UNL A   1      39.646  24.234  26.818  1.00  0.00     0.039 A 
ATOM     30  C   UNL A   1      39.102  24.446  28.088  1.00  0.00     0.014 A 
ATOM     31  C   UNL A   1      40.345  25.256  26.170  1.00  0.00     0.014 A 
ATOM     32  C   UNL A   1      39.320  25.661  28.740  1.00  0.00     0.010 A 
ATOM     33  C   UNL A   1      40.607  26.447  26.843  1.00  0.00     0.010 A 
ATOM     34  C   UNL A   1      40.105  26.655  28.137  1.00  0.00    -0.014 A 
BRANCH  34  35
ATOM     35  C   UNL A   1      40.435  27.911  28.854  1.00  0.00     0.031 A 
ATOM     36  C   UNL A   1      41.747  28.055  29.570  1.00  0.00     0.074 A 
ATOM     37  C   UNL A   1      39.516  28.893  28.925  1.00  0.00     0.049 A 
ATOM     38  N   UNL A   1      42.179  29.045  30.309  1.00  0.00    -0.248 NA
ATOM     39  C   UNL A   1      42.688  26.930  29.460  1.00  0.00     0.031 C 
ATOM     40  C   UNL A   1      38.186  28.858  28.311  1.00  0.00     0.029 A 
ATOM     41  N   UNL A   1      39.559  30.110  29.557  1.00  0.00    -0.354 N 
ATOM     42  C   UNL A   1      43.428  28.655  30.771  1.00  0.00     0.074 A 
ATOM     43  C   UNL A   1      43.671  27.323  30.258  1.00  0.00     0.031 C 
ATOM     44  C   UNL A   1      37.548  30.009  28.583  1.00  0.00     0.029 A 
ATOM     45  C   UNL A   1      38.408  30.846  29.413  1.00  0.00     0.049 A 
ATOM     46  H   UNL A   1      40.340  30.426  30.067  1.00  0.00     0.167 HD
ATOM     47  C   UNL A   1      44.299  29.344  31.544  1.00  0.00     0.031 A 
ATOM     48  C   UNL A   1      38.080  32.057  29.897  1.00  0.00     0.031 A 
ATOM     49  C   UNL A   1      44.070  30.675  32.039  1.00  0.00     0.049 A 
ATOM     50  C   UNL A   1      39.071  32.810  30.738  1.00  0.00     0.074 A 
ATOM     51  C   UNL A   1      44.922  31.480  32.775  1.00  0.00     0.029 A 
ATOM     52  N   UNL A   1      42.903  31.397  31.845  1.00  0.00    -0.354 N 
ATOM     53  N   UNL A   1      40.274  32.451  31.112  1.00  0.00    -0.248 NA
ATOM     54  C   UNL A   1      38.662  34.140  31.210  1.00  0.00     0.031 C 
ATOM     55  C   UNL A   1      44.255  32.679  33.056  1.00  0.00     0.029 A 
ATOM     56  C   UNL A   1      43.005  32.633  32.462  1.00  0.00     0.049 A 
ATOM     57  H   UNL A   1      42.118  31.078  31.345  1.00  0.00     0.167 HD
ATOM     58  C   UNL A   1      40.775  33.518  31.846  1.00  0.00     0.074 A 
ATOM     59  C   UNL A   1      39.751  34.542  31.852  1.00  0.00     0.031 C 
ATOM     60  C   UNL A   1      41.977  33.639  32.458  1.00  0.00     0.031 A 
BRANCH  47  61
ATOM     61  C   UNL A   1      45.588  28.663  31.903  1.00  0.00    -0.014 A 
ATOM     62  C   UNL A   1      46.738  28.824  31.115  1.00  0.00     0.009 A 
ATOM     63  C   UNL A   1      45.661  27.871  33.060  1.00  0.00     0.009 A 
ATOM     64  C   UNL A   1      47.927  28.178  31.461  1.00  0.00     0.001 A 
ATOM     65  C   UNL A   1      46.856  27.246  33.416  1.00  0.00     0.001 A 
ATOM     66  C   UNL A   1      47.985  27.392  32.611  1.00  0.00     0.000 A 
ENDBRANCH  47  61
BRANCH  48  67
ATOM     67  C   UNL A   1      36.755  32.648  29.582  1.00  0.00    -0.014 A 
ATOM     68  C   UNL A   1      35.699  32.546  30.501  1.00  0.00     0.009 A 
ATOM     69  C   UNL A   1      36.539  33.311  28.366  1.00  0.00     0.009 A 
ATOM     70  C   UNL A   1      34.445  33.080  30.197  1.00  0.00     0.001 A 
ATOM     71  C   UNL A   1      35.290  33.863  28.074  1.00  0.00     0.001 A 
ATOM     72  C   UNL A   1      34.242  33.740  28.986  1.00  0.00     0.000 A 
ENDBRANCH  48  67
BRANCH  60  73
ATOM     73  C   UNL A   1      42.260  34.935  33.159  1.00  0.00    -0.014 A 
ATOM     74  C   UNL A   1      41.756  35.188  34.445  1.00  0.00     0.009 A 
ATOM     75  C   UNL A   1      43.070  35.898  32.541  1.00  0.00     0.009 A 
ATOM     76  C   UNL A   1      42.039  36.396  35.085  1.00  0.00     0.001 A 
ATOM     77  C   UNL A   1      43.369  37.095  33.193  1.00  0.00     0.001 A 
ATOM     78  C   UNL A   1      42.847  37.346  34.461  1.00  0.00     0.000 A 
ENDBRANCH  60  73
ENDBRANCH  34  35
ENDBRANCH  26  29
ENDBRANCH  24  25
ENDBRANCH  23  24
ENDBRANCH  22  23
ENDBRANCH   1  22
TORSDOF 16
ENDMDL
MODEL 2
REMARK VINA RESULT:     -10.3      2.639      7.974
REMARK SMILES CN(CC(C)(C)O)S(=O)(=O)c1ccc(C(=O)NCCCCNC(=O)c2ccc(-c3c4nc(c(-c5ccccc5)c5ccc([nH]5)c(-c5ccccc5)c5nc(c(-c6ccccc6)c6ccc3[nH]6)C=C5)C=C4)cc2)s1
REMARK SMILES IDX 18 1 17 2 15 3 16 4 14 6 11 7 12 8 73 9 13 10 8 11 9 12
REMARK SMILES IDX 10 13 2 14 1 15 3 16 4 17 5 18 6 19 7 20 19 22 20 23 21 24
REMARK SMILES IDX 22 25 23 26 24 28 25 29 26 30 72 31 27 32 71 33 28 34 29 35
REMARK SMILES IDX 30 36 65 37 31 38 70 39 64 40 66 41 32 42 69 43 63 44 62 45
REMARK SMILES IDX 33 47 55 48 40 49 54 50 41 51 44 52 53 53 67 54 42 55 43 56
REMARK SMILES IDX 52 58 68 59 45 60 34 61 35 62 39 63 36 64 38 65 37 66 56 67
REMARK SMILES IDX 57 68 61 69 58 70 60 71 59 72 46 73 47 74 51 75 48 76 50 77
REMARK SMILES IDX 49 78
REMARK H PARENT 17 5 7 21 22 27 66 46 44 57
REMARK Flexibility Score: inf
ROOT
ATOM      1  C   UNL A   1      31.195  29.783  24.992  1.00  0.00     0.116 C 
ENDROOT
BRANCH   1   2
ATOM      2  N   UNL A   1      30.699  29.742  23.634  1.00  0.00    -0.351 N 
ATOM      3  C   UNL A   1      30.494  28.719  22.737  1.00  0.00     0.261 C 
ATOM      4  O   UNL A   1      30.057  29.093  21.644  1.00  0.00    -0.268 OA
ATOM      5  H   UNL A   1      30.459  30.629  23.278  1.00  0.00     0.163 HD
BRANCH   3   6
ATOM      6  C   UNL A   1      30.751  27.314  23.053  1.00  0.00     0.093 A 
ATOM      7  C   UNL A   1      31.933  25.109  23.130  1.00  0.00     0.135 A 
ATOM      8  C   UNL A   1      30.660  25.047  23.653  1.00  0.00     0.034 A 
ATOM      9  S   UNL A   1      32.326  26.696  22.655  1.00  0.00    -0.117 S 
ATOM     10  C   UNL A   1      29.995  26.308  23.630  1.00  0.00     0.027 A 
BRANCH   7  11
ATOM     11  S   UNL A   1      33.176  23.851  22.948  1.00  0.00     0.252 S 
ATOM     12  O   UNL A   1      34.349  24.437  23.565  1.00  0.00    -0.206 OA
ATOM     13  O   UNL A   1      33.186  23.538  21.535  1.00  0.00    -0.206 OA
BRANCH  11  14
ATOM     14  N   UNL A   1      32.784  22.445  23.792  1.00  0.00    -0.197 NA
ATOM     15  C   UNL A   1      32.327  21.335  22.932  1.00  0.00     0.124 C 
BRANCH  14  16
ATOM     16  C   UNL A   1      33.485  22.024  25.032  1.00  0.00     0.136 C 
BRANCH  16  17
ATOM     17  C   UNL A   1      33.168  22.760  26.359  1.00  0.00     0.073 C 
ATOM     18  C   UNL A   1      31.672  22.904  26.635  1.00  0.00     0.043 C 
ATOM     19  C   UNL A   1      33.802  21.955  27.508  1.00  0.00     0.043 C 
BRANCH  17  20
ATOM     20  O   UNL A   1      33.784  24.051  26.384  1.00  0.00    -0.389 OA
ATOM     21  H   UNL A   1      34.281  24.187  25.563  1.00  0.00     0.211 HD
ENDBRANCH  17  20
ENDBRANCH  16  17
ENDBRANCH  14  16
ENDBRANCH  11  14
ENDBRANCH   7  11
ENDBRANCH   3   6
ENDBRANCH   1   2
BRANCH   1  22
ATOM     22  C   UNL A   1      32.720  29.692  25.043  1.00  0.00     0.023 C 
BRANCH  22  23
ATOM     23  C   UNL A   1      33.253  28.469  25.804  1.00  0.00     0.023 C 
BRANCH  23  24
ATOM     24  C   UNL A   1      33.532  28.689  27.292  1.00  0.00     0.116 C 
BRANCH  24  25
ATOM     25  N   UNL A   1      33.535  30.090  27.685  1.00  0.00    -0.352 N 
ATOM     26  C   UNL A   1      34.559  30.825  28.233  1.00  0.00     0.251 C 
ATOM     27  H   UNL A   1      32.692  30.576  27.539  1.00  0.00     0.163 HD
ATOM     28  O   UNL A   1      34.369  31.984  28.585  1.00  0.00    -0.269 OA
BRANCH  26  29
ATOM     29  C   UNL A   1      35.880  30.196  28.443  1.00  0.00     0.039 A 
ATOM     30  C   UNL A   1      36.791  30.186  27.383  1.00  0.00     0.014 A 
ATOM     31  C   UNL A   1      36.226  29.639  29.677  1.00  0.00     0.014 A 
ATOM     32  C   UNL A   1      38.078  29.682  27.582  1.00  0.00     0.010 A 
ATOM     33  C   UNL A   1      37.526  29.186  29.889  1.00  0.00     0.010 A 
ATOM     34  C   UNL A   1      38.465  29.212  28.847  1.00  0.00    -0.014 A 
BRANCH  34  35
ATOM     35  C   UNL A   1      39.856  28.768  29.107  1.00  0.00     0.031 A 
ATOM     36  C   UNL A   1      40.852  29.711  29.720  1.00  0.00     0.074 A 
ATOM     37  C   UNL A   1      40.242  27.539  28.716  1.00  0.00     0.049 A 
ATOM     38  N   UNL A   1      42.127  29.526  29.952  1.00  0.00    -0.248 NA
ATOM     39  C   UNL A   1      40.357  31.042  30.100  1.00  0.00     0.031 C 
ATOM     40  C   UNL A   1      39.383  26.545  28.068  1.00  0.00     0.029 A 
ATOM     41  N   UNL A   1      41.464  26.920  28.798  1.00  0.00    -0.354 N 
ATOM     42  C   UNL A   1      42.591  30.722  30.482  1.00  0.00     0.074 A 
ATOM     43  C   UNL A   1      41.469  31.637  30.506  1.00  0.00     0.031 C 
ATOM     44  C   UNL A   1      40.101  25.435  27.828  1.00  0.00     0.029 A 
ATOM     45  C   UNL A   1      41.473  25.650  28.276  1.00  0.00     0.049 A 
ATOM     46  H   UNL A   1      42.259  27.346  29.194  1.00  0.00     0.167 HD
ATOM     47  C   UNL A   1      43.834  31.028  30.921  1.00  0.00     0.031 A 
ATOM     48  C   UNL A   1      42.475  24.759  28.165  1.00  0.00     0.031 A 
ATOM     49  C   UNL A   1      44.946  30.115  30.918  1.00  0.00     0.049 A 
ATOM     50  C   UNL A   1      43.842  25.117  28.675  1.00  0.00     0.074 A 
ATOM     51  C   UNL A   1      46.227  30.314  31.402  1.00  0.00     0.029 A 
ATOM     52  N   UNL A   1      44.906  28.828  30.407  1.00  0.00    -0.354 N 
ATOM     53  N   UNL A   1      44.247  26.231  29.232  1.00  0.00    -0.248 NA
ATOM     54  C   UNL A   1      44.884  24.088  28.551  1.00  0.00     0.031 C 
ATOM     55  C   UNL A   1      46.973  29.157  31.152  1.00  0.00     0.029 A 
ATOM     56  C   UNL A   1      46.145  28.226  30.549  1.00  0.00     0.049 A 
ATOM     57  H   UNL A   1      44.114  28.405  30.003  1.00  0.00     0.167 HD
ATOM     58  C   UNL A   1      45.585  26.030  29.546  1.00  0.00     0.074 A 
ATOM     59  C   UNL A   1      45.918  24.684  29.128  1.00  0.00     0.031 C 
ATOM     60  C   UNL A   1      46.458  26.886  30.129  1.00  0.00     0.031 A 
BRANCH  47  61
ATOM     61  C   UNL A   1      44.057  32.419  31.441  1.00  0.00    -0.014 A 
ATOM     62  C   UNL A   1      44.455  33.458  30.586  1.00  0.00     0.009 A 
ATOM     63  C   UNL A   1      43.839  32.701  32.799  1.00  0.00     0.009 A 
ATOM     64  C   UNL A   1      44.663  34.745  31.086  1.00  0.00     0.001 A 
ATOM     65  C   UNL A   1      44.026  33.993  33.292  1.00  0.00     0.001 A 
ATOM     66  C   UNL A   1      44.446  35.011  32.437  1.00  0.00     0.000 A 
ENDBRANCH  47  61
BRANCH  48  67
ATOM     67  C   UNL A   1      42.219  23.427  27.561  1.00  0.00    -0.014 A 
ATOM     68  C   UNL A   1      42.544  23.185  26.217  1.00  0.00     0.009 A 
ATOM     69  C   UNL A   1      41.651  22.394  28.322  1.00  0.00     0.009 A 
ATOM     70  C   UNL A   1      42.282  21.941  25.641  1.00  0.00     0.001 A 
ATOM     71  C   UNL A   1      41.411  21.144  27.748  1.00  0.00     0.001 A 
ATOM     72  C   UNL A   1      41.720  20.921  26.406  1.00  0.00     0.000 A 
ENDBRANCH  48  67
BRANCH  60  73
ATOM     73  C   UNL A   1      47.849  26.380  30.376  1.00  0.00    -0.014 A 
ATOM     74  C   UNL A   1      48.206  25.818  31.612  1.00  0.00     0.009 A 
ATOM     75  C   UNL A   1      48.802  26.432  29.348  1.00  0.00     0.009 A 
ATOM     76  C   UNL A   1      49.502  25.342  31.819  1.00  0.00     0.001 A 
ATOM     77  C   UNL A   1      50.089  25.935  29.551  1.00  0.00     0.001 A 
ATOM     78  C   UNL A   1      50.440  25.398  30.789  1.00  0.00     0.000 A 
ENDBRANCH  60  73
ENDBRANCH  34  35
ENDBRANCH  26  29
ENDBRANCH  24  25
ENDBRANCH  23  24
ENDBRANCH  22  23
ENDBRANCH   1  22
TORSDOF 16
ENDMDL
MODEL 3
REMARK VINA RESULT:     -10.2      2.278      3.516
REMARK SMILES CN(CC(C)(C)O)S(=O)(=O)c1ccc(C(=O)NCCCCNC(=O)c2ccc(-c3c4nc(c(-c5ccccc5)c5ccc([nH]5)c(-c5ccccc5)c5nc(c(-c6ccccc6)c6ccc3[nH]6)C=C5)C=C4)cc2)s1
REMARK SMILES IDX 18 1 17 2 15 3 16 4 14 6 11 7 12 8 73 9 13 10 8 11 9 12
REMARK SMILES IDX 10 13 2 14 1 15 3 16 4 17 5 18 6 19 7 20 19 22 20 23 21 24
REMARK SMILES IDX 22 25 23 26 24 28 25 29 26 30 72 31 27 32 71 33 28 34 29 35
REMARK SMILES IDX 30 36 65 37 31 38 70 39 64 40 66 41 32 42 69 43 63 44 62 45
REMARK SMILES IDX 33 47 55 48 40 49 54 50 41 51 44 52 53 53 67 54 42 55 43 56
REMARK SMILES IDX 52 58 68 59 45 60 34 61 35 62 39 63 36 64 38 65 37 66 56 67
REMARK SMILES IDX 57 68 61 69 58 70 60 71 59 72 46 73 47 74 51 75 48 76 50 77
REMARK SMILES IDX 49 78
REMARK H PARENT 17 5 7 21 22 27 66 46 44 57
REMARK Flexibility Score: inf
ROOT
ATOM      1  C   UNL A   1      35.318  20.443  25.190  1.00  0.00     0.116 C 
ENDROOT
BRANCH   1   2
ATOM      2  N   UNL A   1      34.101  19.661  25.232  1.00  0.00    -0.351 N 
ATOM      3  C   UNL A   1      32.790  19.946  24.931  1.00  0.00     0.261 C 
ATOM      4  O   UNL A   1      32.019  18.998  25.109  1.00  0.00    -0.268 OA
ATOM      5  H   UNL A   1      34.241  18.736  25.539  1.00  0.00     0.163 HD
BRANCH   3   6
ATOM      6  C   UNL A   1      32.347  21.247  24.428  1.00  0.00     0.093 A 
ATOM      7  C   UNL A   1      31.431  23.575  24.443  1.00  0.00     0.135 A 
ATOM      8  C   UNL A   1      31.629  23.092  23.169  1.00  0.00     0.034 A 
ATOM      9  S   UNL A   1      31.942  22.451  25.614  1.00  0.00    -0.117 S 
ATOM     10  C   UNL A   1      32.172  21.774  23.160  1.00  0.00     0.027 A 
BRANCH   7  11
ATOM     11  S   UNL A   1      30.811  25.143  25.007  1.00  0.00     0.252 S 
ATOM     12  O   UNL A   1      30.407  24.880  26.374  1.00  0.00    -0.206 OA
ATOM     13  O   UNL A   1      29.820  25.529  24.025  1.00  0.00    -0.206 OA
BRANCH  11  14
ATOM     14  N   UNL A   1      32.010  26.329  25.032  1.00  0.00    -0.197 NA
ATOM     15  C   UNL A   1      32.376  26.786  26.387  1.00  0.00     0.124 C 
BRANCH  14  16
ATOM     16  C   UNL A   1      33.111  26.387  24.037  1.00  0.00     0.136 C 
BRANCH  16  17
ATOM     17  C   UNL A   1      32.875  27.138  22.701  1.00  0.00     0.073 C 
ATOM     18  C   UNL A   1      33.858  28.283  22.462  1.00  0.00     0.043 C 
ATOM     19  C   UNL A   1      33.023  26.119  21.556  1.00  0.00     0.043 C 
BRANCH  17  20
ATOM     20  O   UNL A   1      31.536  27.635  22.627  1.00  0.00    -0.389 OA
ATOM     21  H   UNL A   1      30.942  26.923  22.344  1.00  0.00     0.211 HD
ENDBRANCH  17  20
ENDBRANCH  16  17
ENDBRANCH  14  16
ENDBRANCH  11  14
ENDBRANCH   7  11
ENDBRANCH   3   6
ENDBRANCH   1   2
BRANCH   1  22
ATOM     22  C   UNL A   1      36.546  19.568  24.935  1.00  0.00     0.023 C 
BRANCH  22  23
ATOM     23  C   UNL A   1      37.831  20.357  24.645  1.00  0.00     0.023 C 
BRANCH  23  24
ATOM     24  C   UNL A   1      38.821  20.457  25.807  1.00  0.00     0.116 C 
BRANCH  24  25
ATOM     25  N   UNL A   1      39.883  19.464  25.756  1.00  0.00    -0.352 N 
ATOM     26  C   UNL A   1      41.207  19.606  26.095  1.00  0.00     0.251 C 
ATOM     27  H   UNL A   1      39.618  18.571  25.437  1.00  0.00     0.163 HD
ATOM     28  O   UNL A   1      41.995  18.683  25.914  1.00  0.00    -0.269 OA
BRANCH  26  29
ATOM     29  C   UNL A   1      41.690  20.894  26.633  1.00  0.00     0.039 A 
ATOM     30  C   UNL A   1      42.207  21.839  25.743  1.00  0.00     0.014 A 
ATOM     31  C   UNL A   1      41.620  21.177  28.000  1.00  0.00     0.014 A 
ATOM     32  C   UNL A   1      42.585  23.099  26.212  1.00  0.00     0.010 A 
ATOM     33  C   UNL A   1      41.947  22.451  28.459  1.00  0.00     0.010 A 
ATOM     34  C   UNL A   1      42.423  23.425  27.568  1.00  0.00    -0.014 A 
BRANCH  34  35
ATOM     35  C   UNL A   1      42.722  24.788  28.068  1.00  0.00     0.031 A 
ATOM     36  C   UNL A   1      44.117  25.155  28.487  1.00  0.00     0.074 A 
ATOM     37  C   UNL A   1      41.718  25.673  28.220  1.00  0.00     0.049 A 
ATOM     38  N   UNL A   1      44.553  26.270  29.017  1.00  0.00    -0.248 NA
ATOM     39  C   UNL A   1      45.154  24.127  28.309  1.00  0.00     0.031 C 
ATOM     40  C   UNL A   1      40.311  25.425  27.894  1.00  0.00     0.029 A 
ATOM     41  N   UNL A   1      41.726  26.958  28.701  1.00  0.00    -0.354 N 
ATOM     42  C   UNL A   1      45.905  26.070  29.257  1.00  0.00     0.074 A 
ATOM     43  C   UNL A   1      46.212  24.716  28.846  1.00  0.00     0.031 C 
ATOM     44  C   UNL A   1      39.597  26.529  28.167  1.00  0.00     0.029 A 
ATOM     45  C   UNL A   1      40.486  27.548  28.715  1.00  0.00     0.049 A 
ATOM     46  H   UNL A   1      42.543  27.413  29.007  1.00  0.00     0.167 HD
ATOM     47  C   UNL A   1      46.813  26.937  29.762  1.00  0.00     0.031 A 
ATOM     48  C   UNL A   1      40.106  28.771  29.126  1.00  0.00     0.031 A 
ATOM     49  C   UNL A   1      46.517  28.290  30.152  1.00  0.00     0.049 A 
ATOM     50  C   UNL A   1      41.136  29.722  29.667  1.00  0.00     0.074 A 
ATOM     51  C   UNL A   1      47.384  29.264  30.613  1.00  0.00     0.029 A 
ATOM     52  N   UNL A   1      45.253  28.858  30.123  1.00  0.00    -0.354 N 
ATOM     53  N   UNL A   1      42.423  29.537  29.828  1.00  0.00    -0.248 NA
ATOM     54  C   UNL A   1      40.660  31.052  30.071  1.00  0.00     0.031 C 
ATOM     55  C   UNL A   1      46.638  30.414  30.897  1.00  0.00     0.029 A 
ATOM     56  C   UNL A   1      45.315  30.166  30.574  1.00  0.00     0.049 A 
ATOM     57  H   UNL A   1      44.434  28.400  29.826  1.00  0.00     0.167 HD
ATOM     58  C   UNL A   1      42.915  30.735  30.330  1.00  0.00     0.074 A 
ATOM     59  C   UNL A   1      41.791  31.641  30.435  1.00  0.00     0.031 C 
ATOM     60  C   UNL A   1      44.187  31.053  30.672  1.00  0.00     0.031 A 
BRANCH  47  61
ATOM     61  C   UNL A   1      48.221  26.442  29.924  1.00  0.00    -0.014 A 
ATOM     62  C   UNL A   1      48.647  25.847  31.122  1.00  0.00     0.009 A 
ATOM     63  C   UNL A   1      49.126  26.547  28.856  1.00  0.00     0.009 A 
ATOM     64  C   UNL A   1      49.962  25.397  31.258  1.00  0.00     0.001 A 
ATOM     65  C   UNL A   1      50.433  26.075  28.987  1.00  0.00     0.001 A 
ATOM     66  C   UNL A   1      50.852  25.510  30.191  1.00  0.00     0.000 A 
ENDBRANCH  47  61
BRANCH  48  67
ATOM     67  C   UNL A   1      38.682  29.179  29.024  1.00  0.00    -0.014 A 
ATOM     68  C   UNL A   1      37.824  29.033  30.126  1.00  0.00     0.009 A 
ATOM     69  C   UNL A   1      38.175  29.712  27.830  1.00  0.00     0.009 A 
ATOM     70  C   UNL A   1      36.479  29.393  30.024  1.00  0.00     0.001 A 
ATOM     71  C   UNL A   1      36.835  30.092  27.740  1.00  0.00     0.001 A 
ATOM     72  C   UNL A   1      35.986  29.925  28.834  1.00  0.00     0.000 A 
ENDBRANCH  48  67
BRANCH  60  73
ATOM     73  C   UNL A   1      44.432  32.450  31.163  1.00  0.00    -0.014 A 
ATOM     74  C   UNL A   1      44.377  32.756  32.532  1.00  0.00     0.009 A 
ATOM     75  C   UNL A   1      44.758  33.462  30.248  1.00  0.00     0.009 A 
ATOM     76  C   UNL A   1      44.619  34.060  32.970  1.00  0.00     0.001 A 
ATOM     77  C   UNL A   1      45.020  34.758  30.691  1.00  0.00     0.001 A 
ATOM     78  C   UNL A   1      44.943  35.058  32.051  1.00  0.00     0.000 A 
ENDBRANCH  60  73
ENDBRANCH  34  35
ENDBRANCH  26  29
ENDBRANCH  24  25
ENDBRANCH  23  24
ENDBRANCH  22  23
ENDBRANCH   1  22
TORSDOF 16
ENDMDL
