MODEL 1
REMARK VINA RESULT:     -12.6      0.000      0.000
REMARK SMILES C[C@H]1[C@H](C(=O)NCCCCNC(=O)c2ccc(-c3c4nc(c(-c5ccccc5)c5ccc([nH]5)c(-c5ccccc5)c5nc(c(-c6ccccc6)c6ccc3[nH]6)C=C5)C=C4)cc2)CCN1C(=O)c1ccc2ccccc2c1
REMARK SMILES IDX 8 1 7 2 6 3 4 4 5 5 3 7 1 8 2 9 64 10 62 11 63 12 65 13
REMARK SMILES IDX 66 14 67 15 68 16 76 17 69 18 75 19 70 20 74 21 71 22 73 23
REMARK SMILES IDX 72 24 9 25 10 26 11 27 12 28 13 30 14 31 15 32 61 33 16 34
REMARK SMILES IDX 60 35 17 36 18 37 19 38 54 39 20 40 59 41 53 42 55 43 21 44
REMARK SMILES IDX 58 45 52 46 51 47 22 49 44 50 29 51 43 52 30 53 33 54 42 55
REMARK SMILES IDX 56 56 31 57 32 58 41 60 57 61 34 62 23 63 24 64 28 65 25 66
REMARK SMILES IDX 27 67 26 68 45 69 46 70 50 71 47 72 49 73 48 74 35 75 36 76
REMARK SMILES IDX 40 77 37 78 39 79 38 80
REMARK H PARENT 6 6 11 29 55 48 33 59
REMARK Flexibility Score: inf
ROOT
ATOM      1  C   UNL A   1      36.867  20.754  24.993  1.00  0.00     0.023 C 
ENDROOT
BRANCH   1   2
ATOM      2  C   UNL A   1      37.356  22.188  24.830  1.00  0.00     0.116 C 
BRANCH   2   3
ATOM      3  N   UNL A   1      36.545  22.925  23.881  1.00  0.00    -0.356 N 
ATOM      4  C   UNL A   1      35.199  22.955  23.697  1.00  0.00     0.225 C 
ATOM      5  O   UNL A   1      34.771  23.645  22.768  1.00  0.00    -0.275 OA
ATOM      6  H   UNL A   1      37.055  23.501  23.266  1.00  0.00     0.163 HD
BRANCH   4   7
ATOM      7  C   UNL A   1      34.229  22.192  24.587  1.00  0.00     0.102 C 
ATOM      8  C   UNL A   1      34.213  22.315  27.099  1.00  0.00     0.032 C 
ATOM      9  C   UNL A   1      33.760  23.002  25.810  1.00  0.00     0.094 C 
ATOM     10  N   UNL A   1      32.301  23.063  25.680  1.00  0.00    -0.335 N 
ATOM     11  C   UNL A   1      32.977  21.708  23.851  1.00  0.00     0.037 C 
ATOM     12  C   UNL A   1      31.808  22.065  24.751  1.00  0.00     0.121 C 
BRANCH  10  13
ATOM     13  C   UNL A   1      31.414  23.955  26.262  1.00  0.00     0.254 C 
ATOM     14  O   UNL A   1      30.742  23.690  27.253  1.00  0.00    -0.269 OA
BRANCH  13  15
ATOM     15  C   UNL A   1      31.317  25.320  25.718  1.00  0.00     0.040 A 
ATOM     16  C   UNL A   1      32.208  26.277  26.204  1.00  0.00     0.014 A 
ATOM     17  C   UNL A   1      30.296  25.682  24.836  1.00  0.00     0.022 A 
ATOM     18  C   UNL A   1      32.124  27.592  25.752  1.00  0.00     0.009 A 
ATOM     19  C   UNL A   1      30.197  27.008  24.380  1.00  0.00    -0.018 A 
ATOM     20  C   UNL A   1      31.131  27.970  24.837  1.00  0.00    -0.018 A 
ATOM     21  C   UNL A   1      29.187  27.410  23.490  1.00  0.00     0.009 A 
ATOM     22  C   UNL A   1      31.037  29.295  24.382  1.00  0.00     0.009 A 
ATOM     23  C   UNL A   1      29.103  28.734  23.054  1.00  0.00     0.001 A 
ATOM     24  C   UNL A   1      30.029  29.674  23.496  1.00  0.00     0.001 A 
ENDBRANCH  13  15
ENDBRANCH  10  13
ENDBRANCH   4   7
ENDBRANCH   2   3
ENDBRANCH   1   2
BRANCH   1  25
ATOM     25  C   UNL A   1      37.971  19.702  25.000  1.00  0.00     0.023 C 
BRANCH  25  26
ATOM     26  C   UNL A   1      39.237  20.112  25.741  1.00  0.00     0.116 C 
BRANCH  26  27
ATOM     27  N   UNL A   1      40.225  19.046  25.826  1.00  0.00    -0.352 N 
ATOM     28  C   UNL A   1      41.574  19.141  26.082  1.00  0.00     0.251 C 
ATOM     29  H   UNL A   1      39.882  18.135  25.681  1.00  0.00     0.163 HD
ATOM     30  O   UNL A   1      42.297  18.159  26.003  1.00  0.00    -0.269 OA
BRANCH  28  31
ATOM     31  C   UNL A   1      42.146  20.461  26.416  1.00  0.00     0.039 A 
ATOM     32  C   UNL A   1      42.529  21.312  25.377  1.00  0.00     0.014 A 
ATOM     33  C   UNL A   1      42.249  20.874  27.747  1.00  0.00     0.014 A 
ATOM     34  C   UNL A   1      42.942  22.612  25.673  1.00  0.00     0.010 A 
ATOM     35  C   UNL A   1      42.576  22.193  28.032  1.00  0.00     0.010 A 
ATOM     36  C   UNL A   1      42.926  23.075  26.998  1.00  0.00    -0.014 A 
BRANCH  36  37
ATOM     37  C   UNL A   1      43.268  24.480  27.328  1.00  0.00     0.031 A 
ATOM     38  C   UNL A   1      44.698  24.938  27.280  1.00  0.00     0.074 A 
ATOM     39  C   UNL A   1      42.300  25.324  27.738  1.00  0.00     0.049 A 
ATOM     40  N   UNL A   1      45.202  26.106  27.592  1.00  0.00    -0.248 NA
ATOM     41  C   UNL A   1      45.699  23.947  26.853  1.00  0.00     0.031 C 
ATOM     42  C   UNL A   1      40.880  24.989  27.875  1.00  0.00     0.029 A 
ATOM     43  N   UNL A   1      42.368  26.639  28.125  1.00  0.00    -0.354 N 
ATOM     44  C   UNL A   1      46.574  25.981  27.418  1.00  0.00     0.074 A 
ATOM     45  C   UNL A   1      46.830  24.612  27.027  1.00  0.00     0.031 C 
ATOM     46  C   UNL A   1      40.208  26.077  28.282  1.00  0.00     0.029 A 
ATOM     47  C   UNL A   1      41.152  27.174  28.475  1.00  0.00     0.049 A 
ATOM     48  H   UNL A   1      43.209  27.151  28.147  1.00  0.00     0.167 HD
ATOM     49  C   UNL A   1      47.534  26.926  27.549  1.00  0.00     0.031 A 
ATOM     50  C   UNL A   1      40.833  28.408  28.906  1.00  0.00     0.031 A 
ATOM     51  C   UNL A   1      47.278  28.291  27.922  1.00  0.00     0.049 A 
ATOM     52  C   UNL A   1      41.918  29.439  29.049  1.00  0.00     0.074 A 
ATOM     53  C   UNL A   1      48.175  29.339  28.023  1.00  0.00     0.029 A 
ATOM     54  N   UNL A   1      46.031  28.795  28.258  1.00  0.00    -0.354 N 
ATOM     55  N   UNL A   1      43.202  29.324  28.811  1.00  0.00    -0.248 NA
ATOM     56  C   UNL A   1      41.506  30.772  29.513  1.00  0.00     0.031 C 
ATOM     57  C   UNL A   1      47.478  30.467  28.468  1.00  0.00     0.029 A 
ATOM     58  C   UNL A   1      46.139  30.135  28.590  1.00  0.00     0.049 A 
ATOM     59  H   UNL A   1      45.195  28.278  28.260  1.00  0.00     0.167 HD
ATOM     60  C   UNL A   1      43.747  30.575  29.068  1.00  0.00     0.074 A 
ATOM     61  C   UNL A   1      42.652  31.437  29.464  1.00  0.00     0.031 C 
ATOM     62  C   UNL A   1      45.038  30.976  28.983  1.00  0.00     0.031 A 
BRANCH  49  63
ATOM     63  C   UNL A   1      48.955  26.508  27.289  1.00  0.00    -0.014 A 
ATOM     64  C   UNL A   1      49.512  26.585  26.002  1.00  0.00     0.009 A 
ATOM     65  C   UNL A   1      49.756  26.056  28.349  1.00  0.00     0.009 A 
ATOM     66  C   UNL A   1      50.828  26.180  25.775  1.00  0.00     0.001 A 
ATOM     67  C   UNL A   1      51.082  25.682  28.125  1.00  0.00     0.001 A 
ATOM     68  C   UNL A   1      51.614  25.734  26.837  1.00  0.00     0.000 A 
ENDBRANCH  49  63
BRANCH  50  69
ATOM     69  C   UNL A   1      39.420  28.748  29.216  1.00  0.00    -0.014 A 
ATOM     70  C   UNL A   1      38.576  29.260  28.217  1.00  0.00     0.009 A 
ATOM     71  C   UNL A   1      38.907  28.571  30.510  1.00  0.00     0.009 A 
ATOM     72  C   UNL A   1      37.259  29.615  28.516  1.00  0.00     0.001 A 
ATOM     73  C   UNL A   1      37.581  28.899  30.799  1.00  0.00     0.001 A 
ATOM     74  C   UNL A   1      36.760  29.429  29.804  1.00  0.00     0.000 A 
ENDBRANCH  50  69
BRANCH  62  75
ATOM     75  C   UNL A   1      45.332  32.417  29.291  1.00  0.00    -0.014 A 
ATOM     76  C   UNL A   1      45.633  32.837  30.595  1.00  0.00     0.009 A 
ATOM     77  C   UNL A   1      45.347  33.360  28.250  1.00  0.00     0.009 A 
ATOM     78  C   UNL A   1      45.911  34.181  30.856  1.00  0.00     0.001 A 
ATOM     79  C   UNL A   1      45.655  34.696  28.510  1.00  0.00     0.001 A 
ATOM     80  C   UNL A   1      45.927  35.106  29.813  1.00  0.00     0.000 A 
ENDBRANCH  62  75
ENDBRANCH  36  37
ENDBRANCH  28  31
ENDBRANCH  26  27
ENDBRANCH  25  26
ENDBRANCH   1  25
TORSDOF 13
ENDMDL
MODEL 2
REMARK VINA RESULT:     -12.5      1.895      2.494
REMARK SMILES C[C@H]1[C@H](C(=O)NCCCCNC(=O)c2ccc(-c3c4nc(c(-c5ccccc5)c5ccc([nH]5)c(-c5ccccc5)c5nc(c(-c6ccccc6)c6ccc3[nH]6)C=C5)C=C4)cc2)CCN1C(=O)c1ccc2ccccc2c1
REMARK SMILES IDX 8 1 7 2 6 3 4 4 5 5 3 7 1 8 2 9 64 10 62 11 63 12 65 13
REMARK SMILES IDX 66 14 67 15 68 16 76 17 69 18 75 19 70 20 74 21 71 22 73 23
REMARK SMILES IDX 72 24 9 25 10 26 11 27 12 28 13 30 14 31 15 32 61 33 16 34
REMARK SMILES IDX 60 35 17 36 18 37 19 38 54 39 20 40 59 41 53 42 55 43 21 44
REMARK SMILES IDX 58 45 52 46 51 47 22 49 44 50 29 51 43 52 30 53 33 54 42 55
REMARK SMILES IDX 56 56 31 57 32 58 41 60 57 61 34 62 23 63 24 64 28 65 25 66
REMARK SMILES IDX 27 67 26 68 45 69 46 70 50 71 47 72 49 73 48 74 35 75 36 76
REMARK SMILES IDX 40 77 37 78 39 79 38 80
REMARK H PARENT 6 6 11 29 55 48 33 59
REMARK Flexibility Score: inf
ROOT
ATOM      1  C   UNL A   1      36.577  19.586  24.901  1.00  0.00     0.023 C 
ENDROOT
BRANCH   1   2
ATOM      2  C   UNL A   1      35.260  20.347  24.986  1.00  0.00     0.116 C 
BRANCH   2   3
ATOM      3  N   UNL A   1      34.135  19.451  25.169  1.00  0.00    -0.356 N 
ATOM      4  C   UNL A   1      32.797  19.672  25.072  1.00  0.00     0.225 C 
ATOM      5  O   UNL A   1      32.048  18.727  25.333  1.00  0.00    -0.275 OA
ATOM      6  H   UNL A   1      34.381  18.527  25.405  1.00  0.00     0.163 HD
BRANCH   4   7
ATOM      7  C   UNL A   1      32.212  21.012  24.650  1.00  0.00     0.102 C 
ATOM      8  C   UNL A   1      31.590  22.853  26.246  1.00  0.00     0.032 C 
ATOM      9  C   UNL A   1      32.740  22.195  25.483  1.00  0.00     0.094 C 
ATOM     10  N   UNL A   1      33.360  23.092  24.504  1.00  0.00    -0.335 N 
ATOM     11  C   UNL A   1      32.453  21.346  23.176  1.00  0.00     0.037 C 
ATOM     12  C   UNL A   1      32.929  22.787  23.154  1.00  0.00     0.121 C 
BRANCH  10  13
ATOM     13  C   UNL A   1      34.300  24.089  24.713  1.00  0.00     0.254 C 
ATOM     14  O   UNL A   1      35.505  23.878  24.788  1.00  0.00    -0.269 OA
BRANCH  13  15
ATOM     15  C   UNL A   1      33.849  25.490  24.779  1.00  0.00     0.040 A 
ATOM     16  C   UNL A   1      33.847  26.227  23.595  1.00  0.00     0.014 A 
ATOM     17  C   UNL A   1      33.546  26.102  25.998  1.00  0.00     0.022 A 
ATOM     18  C   UNL A   1      33.472  27.569  23.616  1.00  0.00     0.009 A 
ATOM     19  C   UNL A   1      33.174  27.457  26.032  1.00  0.00    -0.018 A 
ATOM     20  C   UNL A   1      33.127  28.194  24.823  1.00  0.00    -0.018 A 
ATOM     21  C   UNL A   1      32.860  28.106  27.238  1.00  0.00     0.009 A 
ATOM     22  C   UNL A   1      32.754  29.546  24.853  1.00  0.00     0.009 A 
ATOM     23  C   UNL A   1      32.499  29.456  27.250  1.00  0.00     0.001 A 
ATOM     24  C   UNL A   1      32.442  30.173  26.059  1.00  0.00     0.001 A 
ENDBRANCH  13  15
ENDBRANCH  10  13
ENDBRANCH   4   7
ENDBRANCH   2   3
ENDBRANCH   1   2
BRANCH   1  25
ATOM     25  C   UNL A   1      37.805  20.463  24.686  1.00  0.00     0.023 C 
BRANCH  25  26
ATOM     26  C   UNL A   1      38.774  20.501  25.860  1.00  0.00     0.116 C 
BRANCH  26  27
ATOM     27  N   UNL A   1      39.813  19.483  25.784  1.00  0.00    -0.352 N 
ATOM     28  C   UNL A   1      41.156  19.601  26.056  1.00  0.00     0.251 C 
ATOM     29  H   UNL A   1      39.513  18.590  25.501  1.00  0.00     0.163 HD
ATOM     30  O   UNL A   1      41.924  18.679  25.830  1.00  0.00    -0.269 OA
BRANCH  28  31
ATOM     31  C   UNL A   1      41.667  20.881  26.590  1.00  0.00     0.039 A 
ATOM     32  C   UNL A   1      42.131  21.847  25.695  1.00  0.00     0.014 A 
ATOM     33  C   UNL A   1      41.631  21.142  27.961  1.00  0.00     0.014 A 
ATOM     34  C   UNL A   1      42.487  23.109  26.172  1.00  0.00     0.010 A 
ATOM     35  C   UNL A   1      41.903  22.424  28.423  1.00  0.00     0.010 A 
ATOM     36  C   UNL A   1      42.334  23.419  27.533  1.00  0.00    -0.014 A 
BRANCH  36  37
ATOM     37  C   UNL A   1      42.613  24.782  28.050  1.00  0.00     0.031 A 
ATOM     38  C   UNL A   1      44.004  25.152  28.481  1.00  0.00     0.074 A 
ATOM     39  C   UNL A   1      41.603  25.661  28.195  1.00  0.00     0.049 A 
ATOM     40  N   UNL A   1      44.433  26.268  29.015  1.00  0.00    -0.248 NA
ATOM     41  C   UNL A   1      45.045  24.124  28.321  1.00  0.00     0.031 C 
ATOM     42  C   UNL A   1      40.199  25.408  27.858  1.00  0.00     0.029 A 
ATOM     43  N   UNL A   1      41.601  26.947  28.673  1.00  0.00    -0.354 N 
ATOM     44  C   UNL A   1      45.784  26.068  29.269  1.00  0.00     0.074 A 
ATOM     45  C   UNL A   1      46.091  24.708  28.885  1.00  0.00     0.031 C 
ATOM     46  C   UNL A   1      39.480  26.513  28.110  1.00  0.00     0.029 A 
ATOM     47  C   UNL A   1      40.361  27.537  28.663  1.00  0.00     0.049 A 
ATOM     48  H   UNL A   1      42.413  27.405  28.992  1.00  0.00     0.167 HD
ATOM     49  C   UNL A   1      46.693  26.943  29.759  1.00  0.00     0.031 A 
ATOM     50  C   UNL A   1      39.975  28.765  29.057  1.00  0.00     0.031 A 
ATOM     51  C   UNL A   1      46.390  28.300  30.127  1.00  0.00     0.049 A 
ATOM     52  C   UNL A   1      41.002  29.717  29.603  1.00  0.00     0.074 A 
ATOM     53  C   UNL A   1      47.254  29.283  30.575  1.00  0.00     0.029 A 
ATOM     54  N   UNL A   1      45.124  28.862  30.091  1.00  0.00    -0.354 N 
ATOM     55  N   UNL A   1      42.290  29.536  29.769  1.00  0.00    -0.248 NA
ATOM     56  C   UNL A   1      40.522  31.047  30.006  1.00  0.00     0.031 C 
ATOM     57  C   UNL A   1      46.501  30.428  30.857  1.00  0.00     0.029 A 
ATOM     58  C   UNL A   1      45.178  30.173  30.531  1.00  0.00     0.049 A 
ATOM     59  H   UNL A   1      44.308  28.398  29.796  1.00  0.00     0.167 HD
ATOM     60  C   UNL A   1      42.778  30.736  30.269  1.00  0.00     0.074 A 
ATOM     61  C   UNL A   1      41.652  31.642  30.363  1.00  0.00     0.031 C 
ATOM     62  C   UNL A   1      44.047  31.060  30.619  1.00  0.00     0.031 A 
BRANCH  49  63
ATOM     63  C   UNL A   1      48.104  26.452  29.927  1.00  0.00    -0.014 A 
ATOM     64  C   UNL A   1      49.052  26.598  28.900  1.00  0.00     0.009 A 
ATOM     65  C   UNL A   1      48.499  25.858  31.135  1.00  0.00     0.009 A 
ATOM     66  C   UNL A   1      50.354  26.125  29.068  1.00  0.00     0.001 A 
ATOM     67  C   UNL A   1      49.810  25.414  31.311  1.00  0.00     0.001 A 
ATOM     68  C   UNL A   1      50.734  25.538  30.274  1.00  0.00     0.000 A 
ENDBRANCH  49  63
BRANCH  50  69
ATOM     69  C   UNL A   1      38.552  29.176  28.933  1.00  0.00    -0.014 A 
ATOM     70  C   UNL A   1      38.053  29.656  27.712  1.00  0.00     0.009 A 
ATOM     71  C   UNL A   1      37.685  29.097  30.035  1.00  0.00     0.009 A 
ATOM     72  C   UNL A   1      36.726  30.077  27.605  1.00  0.00     0.001 A 
ATOM     73  C   UNL A   1      36.350  29.491  29.916  1.00  0.00     0.001 A 
ATOM     74  C   UNL A   1      35.874  29.989  28.704  1.00  0.00     0.000 A 
ENDBRANCH  50  69
BRANCH  62  75
ATOM     75  C   UNL A   1      44.290  32.461  31.102  1.00  0.00    -0.014 A 
ATOM     76  C   UNL A   1      44.589  33.500  30.208  1.00  0.00     0.009 A 
ATOM     77  C   UNL A   1      44.176  32.752  32.472  1.00  0.00     0.009 A 
ATOM     78  C   UNL A   1      44.802  34.796  30.680  1.00  0.00     0.001 A 
ATOM     79  C   UNL A   1      44.361  34.054  32.937  1.00  0.00     0.001 A 
ATOM     80  C   UNL A   1      44.683  35.073  32.042  1.00  0.00     0.000 A 
ENDBRANCH  62  75
ENDBRANCH  36  37
ENDBRANCH  28  31
ENDBRANCH  26  27
ENDBRANCH  25  26
ENDBRANCH   1  25
TORSDOF 13
ENDMDL
MODEL 3
REMARK VINA RESULT:     -12.5      3.172      4.774
REMARK SMILES C[C@H]1[C@H](C(=O)NCCCCNC(=O)c2ccc(-c3c4nc(c(-c5ccccc5)c5ccc([nH]5)c(-c5ccccc5)c5nc(c(-c6ccccc6)c6ccc3[nH]6)C=C5)C=C4)cc2)CCN1C(=O)c1ccc2ccccc2c1
REMARK SMILES IDX 8 1 7 2 6 3 4 4 5 5 3 7 1 8 2 9 64 10 62 11 63 12 65 13
REMARK SMILES IDX 66 14 67 15 68 16 76 17 69 18 75 19 70 20 74 21 71 22 73 23
REMARK SMILES IDX 72 24 9 25 10 26 11 27 12 28 13 30 14 31 15 32 61 33 16 34
REMARK SMILES IDX 60 35 17 36 18 37 19 38 54 39 20 40 59 41 53 42 55 43 21 44
REMARK SMILES IDX 58 45 52 46 51 47 22 49 44 50 29 51 43 52 30 53 33 54 42 55
REMARK SMILES IDX 56 56 31 57 32 58 41 60 57 61 34 62 23 63 24 64 28 65 25 66
REMARK SMILES IDX 27 67 26 68 45 69 46 70 50 71 47 72 49 73 48 74 35 75 36 76
REMARK SMILES IDX 40 77 37 78 39 79 38 80
REMARK H PARENT 6 6 11 29 55 48 33 59
REMARK Flexibility Score: inf
ROOT
ATOM      1  C   UNL A   1      36.059  21.224  24.681  1.00  0.00     0.023 C 
ENDROOT
BRANCH   1   2
ATOM      2  C   UNL A   1      34.780  20.665  25.291  1.00  0.00     0.116 C 
BRANCH   2   3
ATOM      3  N   UNL A   1      34.476  21.291  26.563  1.00  0.00    -0.356 N 
ATOM      4  C   UNL A   1      33.366  21.950  26.987  1.00  0.00     0.225 C 
ATOM      5  O   UNL A   1      33.395  22.434  28.121  1.00  0.00    -0.275 OA
ATOM      6  H   UNL A   1      35.196  21.228  27.232  1.00  0.00     0.163 HD
BRANCH   4   7
ATOM      7  C   UNL A   1      32.117  22.094  26.130  1.00  0.00     0.102 C 
ATOM      8  C   UNL A   1      29.843  22.685  27.026  1.00  0.00     0.032 C 
ATOM      9  C   UNL A   1      31.197  23.242  26.585  1.00  0.00     0.094 C 
ATOM     10  N   UNL A   1      31.096  24.124  25.418  1.00  0.00    -0.335 N 
ATOM     11  C   UNL A   1      32.417  22.309  24.645  1.00  0.00     0.037 C 
ATOM     12  C   UNL A   1      31.520  23.451  24.205  1.00  0.00     0.121 C 
BRANCH  10  13
ATOM     13  C   UNL A   1      30.726  25.458  25.368  1.00  0.00     0.254 C 
ATOM     14  O   UNL A   1      29.591  25.835  25.097  1.00  0.00    -0.269 OA
BRANCH  13  15
ATOM     15  C   UNL A   1      31.717  26.487  25.727  1.00  0.00     0.040 A 
ATOM     16  C   UNL A   1      33.061  26.113  25.749  1.00  0.00     0.014 A 
ATOM     17  C   UNL A   1      31.326  27.760  26.148  1.00  0.00     0.022 A 
ATOM     18  C   UNL A   1      34.030  27.040  26.127  1.00  0.00     0.009 A 
ATOM     19  C   UNL A   1      32.294  28.701  26.539  1.00  0.00    -0.018 A 
ATOM     20  C   UNL A   1      33.663  28.337  26.517  1.00  0.00    -0.018 A 
ATOM     21  C   UNL A   1      31.941  29.992  26.965  1.00  0.00     0.009 A 
ATOM     22  C   UNL A   1      34.634  29.274  26.904  1.00  0.00     0.009 A 
ATOM     23  C   UNL A   1      32.919  30.909  27.356  1.00  0.00     0.001 A 
ATOM     24  C   UNL A   1      34.263  30.552  27.321  1.00  0.00     0.001 A 
ENDBRANCH  13  15
ENDBRANCH  10  13
ENDBRANCH   4   7
ENDBRANCH   2   3
ENDBRANCH   1   2
BRANCH   1  25
ATOM     25  C   UNL A   1      36.069  22.738  24.499  1.00  0.00     0.023 C 
BRANCH  25  26
ATOM     26  C   UNL A   1      37.192  23.461  25.230  1.00  0.00     0.116 C 
BRANCH  26  27
ATOM     27  N   UNL A   1      38.339  22.609  25.510  1.00  0.00    -0.352 N 
ATOM     28  C   UNL A   1      39.498  22.918  26.184  1.00  0.00     0.251 C 
ATOM     29  H   UNL A   1      38.276  21.687  25.172  1.00  0.00     0.163 HD
ATOM     30  O   UNL A   1      40.424  22.124  26.235  1.00  0.00    -0.269 OA
BRANCH  28  31
ATOM     31  C   UNL A   1      39.623  24.248  26.815  1.00  0.00     0.039 A 
ATOM     32  C   UNL A   1      39.116  24.434  28.103  1.00  0.00     0.014 A 
ATOM     33  C   UNL A   1      40.289  25.286  26.158  1.00  0.00     0.014 A 
ATOM     34  C   UNL A   1      39.348  25.640  28.764  1.00  0.00     0.010 A 
ATOM     35  C   UNL A   1      40.594  26.452  26.849  1.00  0.00     0.010 A 
ATOM     36  C   UNL A   1      40.126  26.641  28.158  1.00  0.00    -0.014 A 
BRANCH  36  37
ATOM     37  C   UNL A   1      40.467  27.893  28.877  1.00  0.00     0.031 A 
ATOM     38  C   UNL A   1      41.801  28.031  29.555  1.00  0.00     0.074 A 
ATOM     39  C   UNL A   1      39.552  28.876  28.978  1.00  0.00     0.049 A 
ATOM     40  N   UNL A   1      42.259  29.019  30.282  1.00  0.00    -0.248 NA
ATOM     41  C   UNL A   1      42.733  26.899  29.426  1.00  0.00     0.031 C 
ATOM     42  C   UNL A   1      38.203  28.844  28.405  1.00  0.00     0.029 A 
ATOM     43  N   UNL A   1      39.615  30.094  29.606  1.00  0.00    -0.354 N 
ATOM     44  C   UNL A   1      43.518  28.619  30.710  1.00  0.00     0.074 A 
ATOM     45  C   UNL A   1      43.731  27.279  30.209  1.00  0.00     0.031 C 
ATOM     46  C   UNL A   1      37.581  30.001  28.681  1.00  0.00     0.029 A 
ATOM     47  C   UNL A   1      38.467  30.838  29.483  1.00  0.00     0.049 A 
ATOM     48  H   UNL A   1      40.409  30.405  30.098  1.00  0.00     0.167 HD
ATOM     49  C   UNL A   1      44.426  29.312  31.435  1.00  0.00     0.031 A 
ATOM     50  C   UNL A   1      38.161  32.057  29.965  1.00  0.00     0.031 A 
ATOM     51  C   UNL A   1      44.221  30.651  31.920  1.00  0.00     0.049 A 
ATOM     52  C   UNL A   1      39.185  32.804  30.774  1.00  0.00     0.074 A 
ATOM     53  C   UNL A   1      45.103  31.461  32.612  1.00  0.00     0.029 A 
ATOM     54  N   UNL A   1      43.049  31.373  31.765  1.00  0.00    -0.354 N 
ATOM     55  N   UNL A   1      40.399  32.440  31.108  1.00  0.00    -0.248 NA
ATOM     56  C   UNL A   1      38.797  34.135  31.263  1.00  0.00     0.031 C 
ATOM     57  C   UNL A   1      44.447  32.657  32.918  1.00  0.00     0.029 A 
ATOM     58  C   UNL A   1      43.176  32.612  32.369  1.00  0.00     0.049 A 
ATOM     59  H   UNL A   1      42.245  31.053  31.296  1.00  0.00     0.167 HD
ATOM     60  C   UNL A   1      40.930  33.507  31.821  1.00  0.00     0.074 A 
ATOM     61  C   UNL A   1      39.912  34.537  31.857  1.00  0.00     0.031 C 
ATOM     62  C   UNL A   1      42.152  33.624  32.395  1.00  0.00     0.031 A 
BRANCH  49  63
ATOM     63  C   UNL A   1      45.727  28.627  31.751  1.00  0.00    -0.014 A 
ATOM     64  C   UNL A   1      45.889  27.881  32.930  1.00  0.00     0.009 A 
ATOM     65  C   UNL A   1      46.796  28.706  30.845  1.00  0.00     0.009 A 
ATOM     66  C   UNL A   1      47.107  27.262  33.213  1.00  0.00     0.001 A 
ATOM     67  C   UNL A   1      48.003  28.059  31.117  1.00  0.00     0.001 A 
ATOM     68  C   UNL A   1      48.161  27.347  32.305  1.00  0.00     0.000 A 
ENDBRANCH  49  63
BRANCH  50  69
ATOM     69  C   UNL A   1      36.833  32.660  29.682  1.00  0.00    -0.014 A 
ATOM     70  C   UNL A   1      36.625  33.405  28.511  1.00  0.00     0.009 A 
ATOM     71  C   UNL A   1      35.767  32.501  30.581  1.00  0.00     0.009 A 
ATOM     72  C   UNL A   1      35.388  34.003  28.261  1.00  0.00     0.001 A 
ATOM     73  C   UNL A   1      34.522  33.075  30.314  1.00  0.00     0.001 A 
ATOM     74  C   UNL A   1      34.337  33.834  29.160  1.00  0.00     0.000 A 
ENDBRANCH  50  69
BRANCH  62  75
ATOM     75  C   UNL A   1      42.467  34.924  33.081  1.00  0.00    -0.014 A 
ATOM     76  C   UNL A   1      43.209  35.926  32.438  1.00  0.00     0.009 A 
ATOM     77  C   UNL A   1      41.977  35.161  34.376  1.00  0.00     0.009 A 
ATOM     78  C   UNL A   1      43.482  37.129  33.093  1.00  0.00     0.001 A 
ATOM     79  C   UNL A   1      42.227  36.376  35.015  1.00  0.00     0.001 A 
ATOM     80  C   UNL A   1      42.987  37.354  34.377  1.00  0.00     0.000 A 
ENDBRANCH  62  75
ENDBRANCH  36  37
ENDBRANCH  28  31
ENDBRANCH  26  27
ENDBRANCH  25  26
ENDBRANCH   1  25
TORSDOF 13
ENDMDL
