MODEL 1
REMARK VINA RESULT:     -10.1      0.000      0.000
REMARK SMILES [NH3+][C@H](CCC(=O)NCCCCNC(=O)c1ccc(-c2c3nc(c(-c4ccccc4)c4ccc([nH]4)c(-c4ccccc4)c4nc(c(-c5ccccc5)c5ccc2[nH]5)C=C4)C=C3)cc1)c1nccc2[nH]ccc12
REMARK SMILES IDX 9 1 8 2 7 3 5 4 6 5 4 7 3 8 2 9 1 10 63 14 64 15 71 16 65 17
REMARK SMILES IDX 67 18 70 19 66 20 68 21 69 22 10 24 11 25 12 26 13 27 14 29
REMARK SMILES IDX 15 30 16 31 62 32 17 33 61 34 18 35 19 36 20 37 55 38 21 39
REMARK SMILES IDX 60 40 54 41 56 42 22 43 59 44 53 45 52 46 23 48 45 49 30 50
REMARK SMILES IDX 44 51 31 52 34 53 43 54 57 55 32 56 33 57 42 59 58 60 35 61
REMARK SMILES IDX 24 62 25 63 29 64 26 65 28 66 27 67 46 68 47 69 51 70 48 71
REMARK SMILES IDX 50 72 49 73 36 74 37 75 41 76 38 77 40 78 39 79
REMARK H PARENT 7 6 1 11 1 12 1 13 68 23 12 28 56 47 34 58
REMARK Flexibility Score: inf
ROOT
ATOM      1  C   UNL A   1      41.989  19.947  27.475  1.00  0.00     0.023 C 
ENDROOT
BRANCH   1   2
ATOM      2  C   UNL A   1      42.216  19.337  26.091  1.00  0.00     0.116 C 
BRANCH   2   3
ATOM      3  N   UNL A   1      43.467  18.616  26.063  1.00  0.00    -0.356 N 
ATOM      4  C   UNL A   1      44.578  18.867  25.316  1.00  0.00     0.220 C 
ATOM      5  O   UNL A   1      45.428  17.977  25.235  1.00  0.00    -0.275 OA
ATOM      6  H   UNL A   1      43.524  17.838  26.663  1.00  0.00     0.163 HD
BRANCH   4   7
ATOM      7  C   UNL A   1      44.806  20.226  24.670  1.00  0.00     0.106 C 
BRANCH   7   8
ATOM      8  C   UNL A   1      45.825  21.137  25.366  1.00  0.00     0.082 C 
BRANCH   8   9
ATOM      9  C   UNL A   1      46.126  22.547  24.795  1.00  0.00     0.232 C 
BRANCH   9  10
ATOM     10  N   UNL A   1      45.328  22.777  23.565  1.00  0.00    -0.350 N 
ATOM     11  H   UNL A   1      44.609  22.059  23.487  1.00  0.00     0.345 HD
ATOM     12  H   UNL A   1      45.941  22.734  22.751  1.00  0.00     0.345 HD
ATOM     13  H   UNL A   1      44.888  23.696  23.613  1.00  0.00     0.345 HD
ENDBRANCH   9  10
BRANCH   9  14
ATOM     14  C   UNL A   1      45.936  23.773  25.713  1.00  0.00     0.107 A 
ATOM     15  N   UNL A   1      44.830  23.682  26.526  1.00  0.00    -0.254 NA
ATOM     16  C   UNL A   1      46.292  25.088  25.308  1.00  0.00     0.027 A 
ATOM     17  C   UNL A   1      43.941  24.693  26.583  1.00  0.00     0.114 A 
ATOM     18  C   UNL A   1      45.273  26.044  25.260  1.00  0.00     0.049 A 
ATOM     19  C   UNL A   1      47.485  25.772  24.929  1.00  0.00     0.030 A 
ATOM     20  C   UNL A   1      44.020  25.836  25.821  1.00  0.00     0.047 A 
ATOM     21  N   UNL A   1      45.768  27.129  24.580  1.00  0.00    -0.361 N 
ATOM     22  C   UNL A   1      47.135  27.055  24.558  1.00  0.00     0.083 A 
ATOM     23  H   UNL A   1      45.228  27.844  24.172  1.00  0.00     0.166 HD
ENDBRANCH   9  14
ENDBRANCH   8   9
ENDBRANCH   7   8
ENDBRANCH   4   7
ENDBRANCH   2   3
ENDBRANCH   1   2
BRANCH   1  24
ATOM     24  C   UNL A   1      40.938  21.052  27.498  1.00  0.00     0.023 C 
BRANCH  24  25
ATOM     25  C   UNL A   1      40.908  21.912  26.241  1.00  0.00     0.116 C 
BRANCH  25  26
ATOM     26  N   UNL A   1      39.564  22.193  25.750  1.00  0.00    -0.352 N 
ATOM     27  C   UNL A   1      38.797  23.314  25.960  1.00  0.00     0.251 C 
ATOM     28  H   UNL A   1      39.153  21.489  25.198  1.00  0.00     0.163 HD
ATOM     29  O   UNL A   1      37.645  23.375  25.537  1.00  0.00    -0.269 OA
BRANCH  27  30
ATOM     30  C   UNL A   1      39.366  24.425  26.744  1.00  0.00     0.039 A 
ATOM     31  C   UNL A   1      40.106  25.410  26.088  1.00  0.00     0.014 A 
ATOM     32  C   UNL A   1      39.091  24.533  28.110  1.00  0.00     0.014 A 
ATOM     33  C   UNL A   1      40.503  26.549  26.789  1.00  0.00     0.010 A 
ATOM     34  C   UNL A   1      39.406  25.707  28.780  1.00  0.00     0.010 A 
ATOM     35  C   UNL A   1      40.119  26.725  28.128  1.00  0.00    -0.014 A 
BRANCH  35  36
ATOM     36  C   UNL A   1      40.459  27.960  28.875  1.00  0.00     0.031 A 
ATOM     37  C   UNL A   1      41.792  28.076  29.559  1.00  0.00     0.074 A 
ATOM     38  C   UNL A   1      39.544  28.942  29.000  1.00  0.00     0.049 A 
ATOM     39  N   UNL A   1      42.251  29.039  30.316  1.00  0.00    -0.248 NA
ATOM     40  C   UNL A   1      42.722  26.945  29.398  1.00  0.00     0.031 C 
ATOM     41  C   UNL A   1      38.195  28.926  28.428  1.00  0.00     0.029 A 
ATOM     42  N   UNL A   1      39.610  30.145  29.656  1.00  0.00    -0.354 N 
ATOM     43  C   UNL A   1      43.508  28.621  30.734  1.00  0.00     0.074 A 
ATOM     44  C   UNL A   1      43.714  27.294  30.200  1.00  0.00     0.031 C 
ATOM     45  C   UNL A   1      37.575  30.077  28.733  1.00  0.00     0.029 A 
ATOM     46  C   UNL A   1      38.462  30.894  29.554  1.00  0.00     0.049 A 
ATOM     47  H   UNL A   1      40.405  30.443  30.155  1.00  0.00     0.167 HD
ATOM     48  C   UNL A   1      44.423  29.291  31.472  1.00  0.00     0.031 A 
ATOM     49  C   UNL A   1      38.160  32.101  30.065  1.00  0.00     0.031 A 
ATOM     50  C   UNL A   1      44.223  30.617  31.991  1.00  0.00     0.049 A 
ATOM     51  C   UNL A   1      39.192  32.826  30.886  1.00  0.00     0.074 A 
ATOM     52  C   UNL A   1      45.106  31.407  32.704  1.00  0.00     0.029 A 
ATOM     53  N   UNL A   1      43.054  31.348  31.847  1.00  0.00    -0.354 N 
ATOM     54  N   UNL A   1      40.404  32.447  31.212  1.00  0.00    -0.248 NA
ATOM     55  C   UNL A   1      38.818  34.152  31.396  1.00  0.00     0.031 C 
ATOM     56  C   UNL A   1      44.454  32.599  33.035  1.00  0.00     0.029 A 
ATOM     57  C   UNL A   1      43.186  32.574  32.477  1.00  0.00     0.049 A 
ATOM     58  H   UNL A   1      42.251  31.042  31.369  1.00  0.00     0.167 HD
ATOM     59  C   UNL A   1      40.947  33.497  31.941  1.00  0.00     0.074 A 
ATOM     60  C   UNL A   1      39.938  34.535  31.993  1.00  0.00     0.031 C 
ATOM     61  C   UNL A   1      42.170  33.594  32.517  1.00  0.00     0.031 A 
BRANCH  48  62
ATOM     62  C   UNL A   1      45.723  28.592  31.760  1.00  0.00    -0.014 A 
ATOM     63  C   UNL A   1      46.825  28.726  30.899  1.00  0.00     0.009 A 
ATOM     64  C   UNL A   1      45.856  27.805  32.914  1.00  0.00     0.009 A 
ATOM     65  C   UNL A   1      48.019  28.052  31.165  1.00  0.00     0.001 A 
ATOM     66  C   UNL A   1      47.062  27.159  33.195  1.00  0.00     0.001 A 
ATOM     67  C   UNL A   1      48.137  27.273  32.315  1.00  0.00     0.000 A 
ENDBRANCH  48  62
BRANCH  49  68
ATOM     68  C   UNL A   1      36.830  32.713  29.803  1.00  0.00    -0.014 A 
ATOM     69  C   UNL A   1      35.791  32.587  30.739  1.00  0.00     0.009 A 
ATOM     70  C   UNL A   1      36.589  33.417  28.613  1.00  0.00     0.009 A 
ATOM     71  C   UNL A   1      34.531  33.130  30.475  1.00  0.00     0.001 A 
ATOM     72  C   UNL A   1      35.336  33.984  28.366  1.00  0.00     0.001 A 
ATOM     73  C   UNL A   1      34.306  33.831  29.293  1.00  0.00     0.000 A 
ENDBRANCH  49  68
BRANCH  61  74
ATOM     74  C   UNL A   1      42.498  34.881  33.220  1.00  0.00    -0.014 A 
ATOM     75  C   UNL A   1      43.170  35.921  32.561  1.00  0.00     0.009 A 
ATOM     76  C   UNL A   1      42.086  35.068  34.548  1.00  0.00     0.009 A 
ATOM     77  C   UNL A   1      43.453  37.113  33.231  1.00  0.00     0.001 A 
ATOM     78  C   UNL A   1      42.343  36.271  35.206  1.00  0.00     0.001 A 
ATOM     79  C   UNL A   1      43.034  37.289  34.550  1.00  0.00     0.000 A 
ENDBRANCH  61  74
ENDBRANCH  35  36
ENDBRANCH  27  30
ENDBRANCH  25  26
ENDBRANCH  24  25
ENDBRANCH   1  24
TORSDOF 15
ENDMDL
MODEL 2
REMARK VINA RESULT:     -10.0      4.661     10.108
REMARK SMILES [NH3+][C@H](CCC(=O)NCCCCNC(=O)c1ccc(-c2c3nc(c(-c4ccccc4)c4ccc([nH]4)c(-c4ccccc4)c4nc(c(-c5ccccc5)c5ccc2[nH]5)C=C4)C=C3)cc1)c1nccc2[nH]ccc12
REMARK SMILES IDX 9 1 8 2 7 3 5 4 6 5 4 7 3 8 2 9 1 10 63 14 64 15 71 16 65 17
REMARK SMILES IDX 67 18 70 19 66 20 68 21 69 22 10 24 11 25 12 26 13 27 14 29
REMARK SMILES IDX 15 30 16 31 62 32 17 33 61 34 18 35 19 36 20 37 55 38 21 39
REMARK SMILES IDX 60 40 54 41 56 42 22 43 59 44 53 45 52 46 23 48 45 49 30 50
REMARK SMILES IDX 44 51 31 52 34 53 43 54 57 55 32 56 33 57 42 59 58 60 35 61
REMARK SMILES IDX 24 62 25 63 29 64 26 65 28 66 27 67 46 68 47 69 51 70 48 71
REMARK SMILES IDX 50 72 49 73 36 74 37 75 41 76 38 77 40 78 39 79
REMARK H PARENT 7 6 1 11 1 12 1 13 68 23 12 28 56 47 34 58
REMARK Flexibility Score: inf
ROOT
ATOM      1  C   UNL A   1      32.031  29.210  27.274  1.00  0.00     0.023 C 
ENDROOT
BRANCH   1   2
ATOM      2  C   UNL A   1      31.523  28.140  26.307  1.00  0.00     0.116 C 
BRANCH   2   3
ATOM      3  N   UNL A   1      32.592  27.236  25.954  1.00  0.00    -0.356 N 
ATOM      4  C   UNL A   1      33.494  27.339  24.938  1.00  0.00     0.220 C 
ATOM      5  O   UNL A   1      34.142  26.332  24.642  1.00  0.00    -0.275 OA
ATOM      6  H   UNL A   1      32.681  26.438  26.523  1.00  0.00     0.163 HD
BRANCH   4   7
ATOM      7  C   UNL A   1      33.757  28.668  24.246  1.00  0.00     0.106 C 
BRANCH   7   8
ATOM      8  C   UNL A   1      33.111  28.847  22.867  1.00  0.00     0.082 C 
BRANCH   8   9
ATOM      9  C   UNL A   1      31.567  28.874  22.728  1.00  0.00     0.232 C 
BRANCH   9  10
ATOM     10  N   UNL A   1      31.171  29.832  21.665  1.00  0.00    -0.350 N 
ATOM     11  H   UNL A   1      31.652  29.596  20.798  1.00  0.00     0.345 HD
ATOM     12  H   UNL A   1      31.425  30.778  21.949  1.00  0.00     0.345 HD
ATOM     13  H   UNL A   1      30.163  29.779  21.520  1.00  0.00     0.345 HD
ENDBRANCH   9  10
BRANCH   9  14
ATOM     14  C   UNL A   1      30.823  27.548  22.465  1.00  0.00     0.107 A 
ATOM     15  N   UNL A   1      29.632  27.446  23.146  1.00  0.00    -0.254 NA
ATOM     16  C   UNL A   1      31.508  26.324  22.238  1.00  0.00     0.027 A 
ATOM     17  C   UNL A   1      29.361  26.350  23.882  1.00  0.00     0.114 A 
ATOM     18  C   UNL A   1      31.273  25.280  23.139  1.00  0.00     0.049 A 
ATOM     19  C   UNL A   1      32.418  25.805  21.271  1.00  0.00     0.030 A 
ATOM     20  C   UNL A   1      30.237  25.304  24.063  1.00  0.00     0.047 A 
ATOM     21  N   UNL A   1      32.233  24.325  22.911  1.00  0.00    -0.361 N 
ATOM     22  C   UNL A   1      32.787  24.538  21.677  1.00  0.00     0.083 A 
ATOM     23  H   UNL A   1      32.482  23.605  23.533  1.00  0.00     0.166 HD
ENDBRANCH   9  14
ENDBRANCH   8   9
ENDBRANCH   7   8
ENDBRANCH   4   7
ENDBRANCH   2   3
ENDBRANCH   1   2
BRANCH   1  24
ATOM     24  C   UNL A   1      31.869  30.636  26.759  1.00  0.00     0.023 C 
BRANCH  24  25
ATOM     25  C   UNL A   1      32.981  31.585  27.186  1.00  0.00     0.116 C 
BRANCH  25  26
ATOM     26  N   UNL A   1      32.519  32.931  27.502  1.00  0.00    -0.352 N 
ATOM     27  C   UNL A   1      33.141  33.888  28.267  1.00  0.00     0.251 C 
ATOM     28  H   UNL A   1      31.649  33.187  27.119  1.00  0.00     0.163 HD
ATOM     29  O   UNL A   1      32.590  34.960  28.505  1.00  0.00    -0.269 OA
BRANCH  27  30
ATOM     30  C   UNL A   1      34.466  33.586  28.839  1.00  0.00     0.039 A 
ATOM     31  C   UNL A   1      34.542  32.925  30.066  1.00  0.00     0.014 A 
ATOM     32  C   UNL A   1      35.626  33.879  28.116  1.00  0.00     0.014 A 
ATOM     33  C   UNL A   1      35.781  32.485  30.532  1.00  0.00     0.010 A 
ATOM     34  C   UNL A   1      36.842  33.359  28.535  1.00  0.00     0.010 A 
ATOM     35  C   UNL A   1      36.934  32.661  29.749  1.00  0.00    -0.014 A 
BRANCH  35  36
ATOM     36  C   UNL A   1      38.251  32.135  30.182  1.00  0.00     0.031 A 
ATOM     37  C   UNL A   1      38.739  30.816  29.651  1.00  0.00     0.074 A 
ATOM     38  C   UNL A   1      38.971  32.804  31.105  1.00  0.00     0.049 A 
ATOM     39  N   UNL A   1      39.824  30.153  29.957  1.00  0.00    -0.248 NA
ATOM     40  C   UNL A   1      37.876  30.136  28.669  1.00  0.00     0.031 C 
ATOM     41  C   UNL A   1      38.581  34.067  31.736  1.00  0.00     0.029 A 
ATOM     42  N   UNL A   1      40.182  32.508  31.677  1.00  0.00    -0.354 N 
ATOM     43  C   UNL A   1      39.763  28.975  29.223  1.00  0.00     0.074 A 
ATOM     44  C   UNL A   1      38.508  28.984  28.507  1.00  0.00     0.031 C 
ATOM     45  C   UNL A   1      39.549  34.451  32.584  1.00  0.00     0.029 A 
ATOM     46  C   UNL A   1      40.606  33.446  32.588  1.00  0.00     0.049 A 
ATOM     47  H   UNL A   1      40.698  31.699  31.457  1.00  0.00     0.167 HD
ATOM     48  C   UNL A   1      40.681  27.986  29.130  1.00  0.00     0.031 A 
ATOM     49  C   UNL A   1      41.720  33.489  33.341  1.00  0.00     0.031 A 
ATOM     50  C   UNL A   1      41.937  27.985  29.831  1.00  0.00     0.049 A 
ATOM     51  C   UNL A   1      42.725  32.376  33.223  1.00  0.00     0.074 A 
ATOM     52  C   UNL A   1      42.961  27.058  29.765  1.00  0.00     0.029 A 
ATOM     53  N   UNL A   1      42.336  28.963  30.729  1.00  0.00    -0.354 N 
ATOM     54  N   UNL A   1      42.685  31.303  32.470  1.00  0.00    -0.248 NA
ATOM     55  C   UNL A   1      43.935  32.488  34.049  1.00  0.00     0.031 C 
ATOM     56  C   UNL A   1      43.962  27.451  30.659  1.00  0.00     0.029 A 
ATOM     57  C   UNL A   1      43.585  28.652  31.238  1.00  0.00     0.049 A 
ATOM     58  H   UNL A   1      41.810  29.760  30.966  1.00  0.00     0.167 HD
ATOM     59  C   UNL A   1      43.875  30.628  32.709  1.00  0.00     0.074 A 
ATOM     60  C   UNL A   1      44.622  31.421  33.665  1.00  0.00     0.031 C 
ATOM     61  C   UNL A   1      44.311  29.456  32.187  1.00  0.00     0.031 A 
BRANCH  48  62
ATOM     62  C   UNL A   1      40.354  26.824  28.233  1.00  0.00    -0.014 A 
ATOM     63  C   UNL A   1      39.577  25.748  28.693  1.00  0.00     0.009 A 
ATOM     64  C   UNL A   1      40.812  26.812  26.906  1.00  0.00     0.009 A 
ATOM     65  C   UNL A   1      39.302  24.663  27.856  1.00  0.00     0.001 A 
ATOM     66  C   UNL A   1      40.507  25.742  26.062  1.00  0.00     0.001 A 
ATOM     67  C   UNL A   1      39.763  24.664  26.541  1.00  0.00     0.000 A 
ENDBRANCH  48  62
BRANCH  49  68
ATOM     68  C   UNL A   1      41.956  34.633  34.262  1.00  0.00    -0.014 A 
ATOM     69  C   UNL A   1      42.555  35.813  33.793  1.00  0.00     0.009 A 
ATOM     70  C   UNL A   1      41.593  34.549  35.615  1.00  0.00     0.009 A 
ATOM     71  C   UNL A   1      42.809  36.873  34.666  1.00  0.00     0.001 A 
ATOM     72  C   UNL A   1      41.823  35.622  36.479  1.00  0.00     0.001 A 
ATOM     73  C   UNL A   1      42.439  36.779  36.006  1.00  0.00     0.000 A 
ENDBRANCH  49  68
BRANCH  61  74
ATOM     74  C   UNL A   1      45.673  28.979  32.609  1.00  0.00    -0.014 A 
ATOM     75  C   UNL A   1      45.832  28.068  33.664  1.00  0.00     0.009 A 
ATOM     76  C   UNL A   1      46.807  29.417  31.908  1.00  0.00     0.009 A 
ATOM     77  C   UNL A   1      47.107  27.630  34.030  1.00  0.00     0.001 A 
ATOM     78  C   UNL A   1      48.076  28.953  32.255  1.00  0.00     0.001 A 
ATOM     79  C   UNL A   1      48.226  28.068  33.322  1.00  0.00     0.000 A 
ENDBRANCH  61  74
ENDBRANCH  35  36
ENDBRANCH  27  30
ENDBRANCH  25  26
ENDBRANCH  24  25
ENDBRANCH   1  24
TORSDOF 15
ENDMDL
MODEL 3
REMARK VINA RESULT:     -10.0      0.509      6.107
REMARK SMILES [NH3+][C@H](CCC(=O)NCCCCNC(=O)c1ccc(-c2c3nc(c(-c4ccccc4)c4ccc([nH]4)c(-c4ccccc4)c4nc(c(-c5ccccc5)c5ccc2[nH]5)C=C4)C=C3)cc1)c1nccc2[nH]ccc12
REMARK SMILES IDX 9 1 8 2 7 3 5 4 6 5 4 7 3 8 2 9 1 10 63 14 64 15 71 16 65 17
REMARK SMILES IDX 67 18 70 19 66 20 68 21 69 22 10 24 11 25 12 26 13 27 14 29
REMARK SMILES IDX 15 30 16 31 62 32 17 33 61 34 18 35 19 36 20 37 55 38 21 39
REMARK SMILES IDX 60 40 54 41 56 42 22 43 59 44 53 45 52 46 23 48 45 49 30 50
REMARK SMILES IDX 44 51 31 52 34 53 43 54 57 55 32 56 33 57 42 59 58 60 35 61
REMARK SMILES IDX 24 62 25 63 29 64 26 65 28 66 27 67 46 68 47 69 51 70 48 71
REMARK SMILES IDX 50 72 49 73 36 74 37 75 41 76 38 77 40 78 39 79
REMARK H PARENT 7 6 1 11 1 12 1 13 68 23 12 28 56 47 34 58
REMARK Flexibility Score: inf
ROOT
ATOM      1  C   UNL A   1      41.884  19.766  27.560  1.00  0.00     0.023 C 
ENDROOT
BRANCH   1   2
ATOM      2  C   UNL A   1      42.169  19.259  26.146  1.00  0.00     0.116 C 
BRANCH   2   3
ATOM      3  N   UNL A   1      43.435  18.566  26.109  1.00  0.00    -0.356 N 
ATOM      4  C   UNL A   1      44.538  18.844  25.358  1.00  0.00     0.220 C 
ATOM      5  O   UNL A   1      45.407  17.973  25.271  1.00  0.00    -0.275 OA
ATOM      6  H   UNL A   1      43.513  17.787  26.707  1.00  0.00     0.163 HD
BRANCH   4   7
ATOM      7  C   UNL A   1      44.732  20.210  24.716  1.00  0.00     0.106 C 
BRANCH   7   8
ATOM      8  C   UNL A   1      46.028  20.945  25.082  1.00  0.00     0.082 C 
BRANCH   8   9
ATOM      9  C   UNL A   1      46.257  22.402  24.606  1.00  0.00     0.232 C 
BRANCH   9  10
ATOM     10  N   UNL A   1      45.365  22.707  23.460  1.00  0.00    -0.350 N 
ATOM     11  H   UNL A   1      44.421  22.885  23.802  1.00  0.00     0.345 HD
ATOM     12  H   UNL A   1      45.351  21.914  22.820  1.00  0.00     0.345 HD
ATOM     13  H   UNL A   1      45.711  23.533  22.971  1.00  0.00     0.345 HD
ENDBRANCH   9  10
BRANCH   9  14
ATOM     14  C   UNL A   1      46.114  23.548  25.630  1.00  0.00     0.107 A 
ATOM     15  N   UNL A   1      45.164  23.303  26.594  1.00  0.00    -0.254 NA
ATOM     16  C   UNL A   1      46.290  24.912  25.274  1.00  0.00     0.027 A 
ATOM     17  C   UNL A   1      44.214  24.221  26.861  1.00  0.00     0.114 A 
ATOM     18  C   UNL A   1      45.200  25.769  25.454  1.00  0.00     0.049 A 
ATOM     19  C   UNL A   1      47.346  25.727  24.769  1.00  0.00     0.030 A 
ATOM     20  C   UNL A   1      44.075  25.410  26.183  1.00  0.00     0.047 A 
ATOM     21  N   UNL A   1      45.488  26.935  24.788  1.00  0.00    -0.361 N 
ATOM     22  C   UNL A   1      46.835  26.991  24.551  1.00  0.00     0.083 A 
ATOM     23  H   UNL A   1      44.831  27.619  24.522  1.00  0.00     0.166 HD
ENDBRANCH   9  14
ENDBRANCH   8   9
ENDBRANCH   7   8
ENDBRANCH   4   7
ENDBRANCH   2   3
ENDBRANCH   1   2
BRANCH   1  24
ATOM     24  C   UNL A   1      40.965  20.982  27.607  1.00  0.00     0.023 C 
BRANCH  24  25
ATOM     25  C   UNL A   1      40.955  21.808  26.328  1.00  0.00     0.116 C 
BRANCH  25  26
ATOM     26  N   UNL A   1      39.618  22.111  25.831  1.00  0.00    -0.352 N 
ATOM     27  C   UNL A   1      38.880  23.255  26.017  1.00  0.00     0.251 C 
ATOM     28  H   UNL A   1      39.190  21.406  25.294  1.00  0.00     0.163 HD
ATOM     29  O   UNL A   1      37.729  23.336  25.593  1.00  0.00    -0.269 OA
BRANCH  27  30
ATOM     30  C   UNL A   1      39.477  24.368  26.777  1.00  0.00     0.039 A 
ATOM     31  C   UNL A   1      40.245  25.317  26.100  1.00  0.00     0.014 A 
ATOM     32  C   UNL A   1      39.201  24.516  28.139  1.00  0.00     0.014 A 
ATOM     33  C   UNL A   1      40.671  26.461  26.776  1.00  0.00     0.010 A 
ATOM     34  C   UNL A   1      39.546  25.696  28.782  1.00  0.00     0.010 A 
ATOM     35  C   UNL A   1      40.288  26.679  28.110  1.00  0.00    -0.014 A 
BRANCH  35  36
ATOM     36  C   UNL A   1      40.659  27.921  28.829  1.00  0.00     0.031 A 
ATOM     37  C   UNL A   1      39.652  29.027  28.978  1.00  0.00     0.074 A 
ATOM     38  C   UNL A   1      41.918  28.085  29.280  1.00  0.00     0.049 A 
ATOM     39  N   UNL A   1      39.800  30.213  29.508  1.00  0.00    -0.248 NA
ATOM     40  C   UNL A   1      38.307  28.778  28.428  1.00  0.00     0.031 C 
ATOM     41  C   UNL A   1      43.002  27.108  29.150  1.00  0.00     0.029 A 
ATOM     42  N   UNL A   1      42.501  29.139  29.936  1.00  0.00    -0.354 N 
ATOM     43  C   UNL A   1      38.580  30.855  29.338  1.00  0.00     0.074 A 
ATOM     44  C   UNL A   1      37.723  29.953  28.602  1.00  0.00     0.031 C 
ATOM     45  C   UNL A   1      44.107  27.597  29.736  1.00  0.00     0.029 A 
ATOM     46  C   UNL A   1      43.824  28.934  30.245  1.00  0.00     0.049 A 
ATOM     47  H   UNL A   1      42.016  29.965  30.164  1.00  0.00     0.167 HD
ATOM     48  C   UNL A   1      38.194  32.075  29.780  1.00  0.00     0.031 A 
ATOM     49  C   UNL A   1      44.709  29.735  30.868  1.00  0.00     0.031 A 
ATOM     50  C   UNL A   1      39.042  32.965  30.525  1.00  0.00     0.049 A 
ATOM     51  C   UNL A   1      44.259  31.088  31.347  1.00  0.00     0.074 A 
ATOM     52  C   UNL A   1      38.733  34.200  31.067  1.00  0.00     0.029 A 
ATOM     53  N   UNL A   1      40.370  32.711  30.834  1.00  0.00    -0.354 N 
ATOM     54  N   UNL A   1      43.079  31.651  31.242  1.00  0.00    -0.248 NA
ATOM     55  C   UNL A   1      45.259  31.908  32.043  1.00  0.00     0.031 C 
ATOM     56  C   UNL A   1      39.888  34.715  31.663  1.00  0.00     0.029 A 
ATOM     57  C   UNL A   1      40.900  33.775  31.543  1.00  0.00     0.049 A 
ATOM     58  H   UNL A   1      40.861  31.895  30.588  1.00  0.00     0.167 HD
ATOM     59  C   UNL A   1      43.187  32.879  31.882  1.00  0.00     0.074 A 
ATOM     60  C   UNL A   1      44.542  32.970  32.388  1.00  0.00     0.031 C 
ATOM     61  C   UNL A   1      42.250  33.845  32.037  1.00  0.00     0.031 A 
BRANCH  48  62
ATOM     62  C   UNL A   1      36.790  32.511  29.464  1.00  0.00    -0.014 A 
ATOM     63  C   UNL A   1      35.748  32.327  30.387  1.00  0.00     0.009 A 
ATOM     64  C   UNL A   1      36.508  33.130  28.237  1.00  0.00     0.009 A 
ATOM     65  C   UNL A   1      34.443  32.715  30.070  1.00  0.00     0.001 A 
ATOM     66  C   UNL A   1      35.209  33.546  27.936  1.00  0.00     0.001 A 
ATOM     67  C   UNL A   1      34.177  33.328  28.847  1.00  0.00     0.000 A 
ENDBRANCH  48  62
BRANCH  49  68
ATOM     68  C   UNL A   1      46.105  29.274  31.092  1.00  0.00    -0.014 A 
ATOM     69  C   UNL A   1      46.444  28.567  32.256  1.00  0.00     0.009 A 
ATOM     70  C   UNL A   1      47.108  29.546  30.148  1.00  0.00     0.009 A 
ATOM     71  C   UNL A   1      47.763  28.167  32.483  1.00  0.00     0.001 A 
ATOM     72  C   UNL A   1      48.420  29.119  30.364  1.00  0.00     0.001 A 
ATOM     73  C   UNL A   1      48.749  28.438  31.536  1.00  0.00     0.000 A 
ENDBRANCH  49  68
BRANCH  61  74
ATOM     74  C   UNL A   1      42.647  35.068  32.817  1.00  0.00    -0.014 A 
ATOM     75  C   UNL A   1      42.314  35.208  34.173  1.00  0.00     0.009 A 
ATOM     76  C   UNL A   1      43.404  36.071  32.193  1.00  0.00     0.009 A 
ATOM     77  C   UNL A   1      42.704  36.347  34.880  1.00  0.00     0.001 A 
ATOM     78  C   UNL A   1      43.819  37.194  32.910  1.00  0.00     0.001 A 
ATOM     79  C   UNL A   1      43.461  37.335  34.250  1.00  0.00     0.000 A 
ENDBRANCH  61  74
ENDBRANCH  35  36
ENDBRANCH  27  30
ENDBRANCH  25  26
ENDBRANCH  24  25
ENDBRANCH   1  24
TORSDOF 15
ENDMDL
