MODEL 1
REMARK VINA RESULT:     -11.8      0.000      0.000
REMARK SMILES COc1ccc(NS(=O)(=O)c2ccc(Cl)c(C(=O)NCCCCNC(=O)c3ccc(-c4c5nc(c(-c6ccccc6)c6ccc([nH]6)c(-c6ccccc6)c6nc(c(-c7ccccc7)c7ccc4[nH]7)C=C6)C=C5)cc3)c2)cc1Cl
REMARK SMILES IDX 20 1 19 2 17 3 18 4 16 6 11 7 12 8 75 9 13 10 14 11 15 12
REMARK SMILES IDX 8 13 9 14 10 15 7 16 6 18 3 19 4 20 77 21 5 22 76 23 78 24
REMARK SMILES IDX 2 25 1 26 21 27 22 28 23 29 24 30 25 31 26 33 27 34 28 35
REMARK SMILES IDX 74 36 29 37 73 38 30 39 31 40 32 41 67 42 33 43 72 44 66 45
REMARK SMILES IDX 68 46 34 47 71 48 65 49 64 50 35 52 57 53 42 54 56 55 43 56
REMARK SMILES IDX 46 57 55 58 69 59 44 60 45 61 54 63 70 64 47 65 36 66 37 67
REMARK SMILES IDX 41 68 38 69 40 70 39 71 58 72 59 73 63 74 60 75 62 76 61 77
REMARK SMILES IDX 48 78 49 79 53 80 50 81 52 82 51 83
REMARK H PARENT 19 5 7 17 24 32 68 51 46 62
REMARK Flexibility Score: inf
ROOT
ATOM      1  C   UNL A   1      32.904  30.036  26.324  1.00  0.00     0.116 C 
ENDROOT
BRANCH   1   2
ATOM      2  N   UNL A   1      33.579  29.709  25.082  1.00  0.00    -0.352 N 
ATOM      3  C   UNL A   1      33.145  29.003  23.982  1.00  0.00     0.252 C 
ATOM      4  O   UNL A   1      33.890  28.952  23.003  1.00  0.00    -0.269 OA
ATOM      5  H   UNL A   1      34.501  30.049  25.014  1.00  0.00     0.163 HD
BRANCH   3   6
ATOM      6  C   UNL A   1      31.903  28.179  23.966  1.00  0.00     0.059 A 
ATOM      7  C   UNL A   1      30.844  26.155  24.845  1.00  0.00     0.088 A 
ATOM      8  C   UNL A   1      29.623  26.538  24.292  1.00  0.00     0.024 A 
ATOM      9  C   UNL A   1      31.982  26.959  24.672  1.00  0.00     0.037 A 
ATOM     10  C   UNL A   1      29.561  27.694  23.517  1.00  0.00     0.023 A 
ATOM     11  C   UNL A   1      30.706  28.481  23.303  1.00  0.00     0.053 A 
ATOM     12  Cl  UNL A   1      30.566  29.682  22.070  1.00  0.00    -0.083 Cl
BRANCH   7  13
ATOM     13  S   UNL A   1      30.979  24.588  25.662  1.00  0.00     0.261 S 
ATOM     14  O   UNL A   1      31.030  23.563  24.640  1.00  0.00    -0.201 OA
ATOM     15  O   UNL A   1      29.948  24.543  26.676  1.00  0.00    -0.201 OA
BRANCH  13  16
ATOM     16  N   UNL A   1      32.449  24.503  26.507  1.00  0.00    -0.280 N 
ATOM     17  H   UNL A   1      32.495  24.916  27.398  1.00  0.00     0.180 HD
BRANCH  16  18
ATOM     18  C   UNL A   1      33.630  23.861  25.997  1.00  0.00     0.051 A 
ATOM     19  C   UNL A   1      35.737  22.550  24.669  1.00  0.00     0.137 A 
ATOM     20  C   UNL A   1      35.761  23.932  24.829  1.00  0.00     0.050 A 
ATOM     21  C   UNL A   1      34.651  21.817  25.150  1.00  0.00     0.085 A 
ATOM     22  C   UNL A   1      34.684  24.580  25.437  1.00  0.00     0.030 A 
ATOM     23  C   UNL A   1      33.599  22.473  25.807  1.00  0.00     0.051 A 
ATOM     24  Cl  UNL A   1      34.544  20.109  24.935  1.00  0.00    -0.080 Cl
BRANCH  19  25
ATOM     25  O   UNL A   1      36.828  21.971  24.083  1.00  0.00    -0.495 OA
ATOM     26  C   UNL A   1      37.834  21.661  25.049  1.00  0.00     0.278 C 
ENDBRANCH  19  25
ENDBRANCH  16  18
ENDBRANCH  13  16
ENDBRANCH   7  13
ENDBRANCH   3   6
ENDBRANCH   1   2
BRANCH   1  27
ATOM     27  C   UNL A   1      31.508  30.632  26.174  1.00  0.00     0.023 C 
BRANCH  27  28
ATOM     28  C   UNL A   1      31.352  32.116  26.503  1.00  0.00     0.023 C 
BRANCH  28  29
ATOM     29  C   UNL A   1      32.496  32.773  27.270  1.00  0.00     0.116 C 
BRANCH  29  30
ATOM     30  N   UNL A   1      32.260  34.170  27.609  1.00  0.00    -0.352 N 
ATOM     31  C   UNL A   1      32.934  34.991  28.486  1.00  0.00     0.251 C 
ATOM     32  H   UNL A   1      31.505  34.593  27.140  1.00  0.00     0.163 HD
ATOM     33  O   UNL A   1      32.532  36.130  28.701  1.00  0.00    -0.269 OA
BRANCH  31  34
ATOM     34  C   UNL A   1      34.122  34.483  29.208  1.00  0.00     0.039 A 
ATOM     35  C   UNL A   1      33.948  33.852  30.443  1.00  0.00     0.014 A 
ATOM     36  C   UNL A   1      35.396  34.592  28.649  1.00  0.00     0.014 A 
ATOM     37  C   UNL A   1      35.040  33.242  31.067  1.00  0.00     0.010 A 
ATOM     38  C   UNL A   1      36.459  33.903  29.222  1.00  0.00     0.010 A 
ATOM     39  C   UNL A   1      36.294  33.217  30.437  1.00  0.00    -0.014 A 
BRANCH  39  40
ATOM     40  C   UNL A   1      37.446  32.482  31.020  1.00  0.00     0.031 A 
ATOM     41  C   UNL A   1      38.076  32.963  32.299  1.00  0.00     0.074 A 
ATOM     42  C   UNL A   1      37.978  31.432  30.364  1.00  0.00     0.049 A 
ATOM     43  N   UNL A   1      39.136  32.509  32.921  1.00  0.00    -0.248 NA
ATOM     44  C   UNL A   1      37.451  34.127  32.949  1.00  0.00     0.031 C 
ATOM     45  C   UNL A   1      37.491  30.885  29.095  1.00  0.00     0.029 A 
ATOM     46  N   UNL A   1      39.056  30.638  30.672  1.00  0.00    -0.354 N 
ATOM     47  C   UNL A   1      39.313  33.343  34.019  1.00  0.00     0.074 A 
ATOM     48  C   UNL A   1      38.292  34.365  33.943  1.00  0.00     0.031 C 
ATOM     49  C   UNL A   1      38.245  29.829  28.752  1.00  0.00     0.029 A 
ATOM     50  C   UNL A   1      39.299  29.651  29.746  1.00  0.00     0.049 A 
ATOM     51  H   UNL A   1      39.604  30.764  31.480  1.00  0.00     0.167 HD
ATOM     52  C   UNL A   1      40.228  33.257  35.014  1.00  0.00     0.031 A 
ATOM     53  C   UNL A   1      40.264  28.714  29.697  1.00  0.00     0.031 A 
ATOM     54  C   UNL A   1      41.240  32.239  35.092  1.00  0.00     0.049 A 
ATOM     55  C   UNL A   1      41.287  28.655  30.798  1.00  0.00     0.074 A 
ATOM     56  C   UNL A   1      42.180  32.033  36.088  1.00  0.00     0.029 A 
ATOM     57  N   UNL A   1      41.450  31.259  34.134  1.00  0.00    -0.354 N 
ATOM     58  N   UNL A   1      41.400  29.409  31.864  1.00  0.00    -0.248 NA
ATOM     59  C   UNL A   1      42.313  27.607  30.692  1.00  0.00     0.031 C 
ATOM     60  C   UNL A   1      42.997  30.966  35.702  1.00  0.00     0.029 A 
ATOM     61  C   UNL A   1      42.522  30.462  34.501  1.00  0.00     0.049 A 
ATOM     62  H   UNL A   1      40.915  31.145  33.315  1.00  0.00     0.167 HD
ATOM     63  C   UNL A   1      42.483  28.905  32.573  1.00  0.00     0.074 A 
ATOM     64  C   UNL A   1      42.986  27.774  31.822  1.00  0.00     0.031 C 
ATOM     65  C   UNL A   1      43.012  29.339  33.744  1.00  0.00     0.031 A 
BRANCH  52  66
ATOM     66  C   UNL A   1      40.177  34.307  36.090  1.00  0.00    -0.014 A 
ATOM     67  C   UNL A   1      39.419  34.119  37.259  1.00  0.00     0.009 A 
ATOM     68  C   UNL A   1      40.910  35.494  35.945  1.00  0.00     0.009 A 
ATOM     69  C   UNL A   1      39.359  35.118  38.233  1.00  0.00     0.001 A 
ATOM     70  C   UNL A   1      40.877  36.476  36.936  1.00  0.00     0.001 A 
ATOM     71  C   UNL A   1      40.092  36.293  38.073  1.00  0.00     0.000 A 
ENDBRANCH  52  66
BRANCH  53  72
ATOM     72  C   UNL A   1      40.303  27.739  28.574  1.00  0.00    -0.014 A 
ATOM     73  C   UNL A   1      40.994  28.042  27.391  1.00  0.00     0.009 A 
ATOM     74  C   UNL A   1      39.646  26.502  28.675  1.00  0.00     0.009 A 
ATOM     75  C   UNL A   1      41.002  27.142  26.323  1.00  0.00     0.001 A 
ATOM     76  C   UNL A   1      39.682  25.590  27.617  1.00  0.00     0.001 A 
ATOM     77  C   UNL A   1      40.352  25.914  26.439  1.00  0.00     0.000 A 
ENDBRANCH  53  72
BRANCH  65  78
ATOM     78  C   UNL A   1      44.167  28.562  34.312  1.00  0.00    -0.014 A 
ATOM     79  C   UNL A   1      45.497  28.905  34.025  1.00  0.00     0.009 A 
ATOM     80  C   UNL A   1      43.916  27.495  35.191  1.00  0.00     0.009 A 
ATOM     81  C   UNL A   1      46.550  28.174  34.580  1.00  0.00     0.001 A 
ATOM     82  C   UNL A   1      44.970  26.788  35.770  1.00  0.00     0.001 A 
ATOM     83  C   UNL A   1      46.286  27.122  35.457  1.00  0.00     0.000 A 
ENDBRANCH  65  78
ENDBRANCH  39  40
ENDBRANCH  31  34
ENDBRANCH  29  30
ENDBRANCH  28  29
ENDBRANCH  27  28
ENDBRANCH   1  27
TORSDOF 15
ENDMDL
MODEL 2
REMARK VINA RESULT:     -11.7      4.459      9.428
REMARK SMILES COc1ccc(NS(=O)(=O)c2ccc(Cl)c(C(=O)NCCCCNC(=O)c3ccc(-c4c5nc(c(-c6ccccc6)c6ccc([nH]6)c(-c6ccccc6)c6nc(c(-c7ccccc7)c7ccc4[nH]7)C=C6)C=C5)cc3)c2)cc1Cl
REMARK SMILES IDX 20 1 19 2 17 3 18 4 16 6 11 7 12 8 75 9 13 10 14 11 15 12
REMARK SMILES IDX 8 13 9 14 10 15 7 16 6 18 3 19 4 20 77 21 5 22 76 23 78 24
REMARK SMILES IDX 2 25 1 26 21 27 22 28 23 29 24 30 25 31 26 33 27 34 28 35
REMARK SMILES IDX 74 36 29 37 73 38 30 39 31 40 32 41 67 42 33 43 72 44 66 45
REMARK SMILES IDX 68 46 34 47 71 48 65 49 64 50 35 52 57 53 42 54 56 55 43 56
REMARK SMILES IDX 46 57 55 58 69 59 44 60 45 61 54 63 70 64 47 65 36 66 37 67
REMARK SMILES IDX 41 68 38 69 40 70 39 71 58 72 59 73 63 74 60 75 62 76 61 77
REMARK SMILES IDX 48 78 49 79 53 80 50 81 52 82 51 83
REMARK H PARENT 19 5 7 17 24 32 68 51 46 62
REMARK Flexibility Score: inf
ROOT
ATOM      1  C   UNL A   1      37.561  23.692  26.035  1.00  0.00     0.116 C 
ENDROOT
BRANCH   1   2
ATOM      2  N   UNL A   1      37.219  23.586  24.630  1.00  0.00    -0.352 N 
ATOM      3  C   UNL A   1      36.048  23.196  24.017  1.00  0.00     0.252 C 
ATOM      4  O   UNL A   1      35.985  23.290  22.790  1.00  0.00    -0.269 OA
ATOM      5  H   UNL A   1      37.943  23.834  24.011  1.00  0.00     0.163 HD
BRANCH   3   6
ATOM      6  C   UNL A   1      34.922  22.533  24.732  1.00  0.00     0.059 A 
ATOM      7  C   UNL A   1      32.707  22.879  25.714  1.00  0.00     0.088 A 
ATOM      8  C   UNL A   1      32.561  21.505  25.901  1.00  0.00     0.024 A 
ATOM      9  C   UNL A   1      33.883  23.394  25.148  1.00  0.00     0.037 A 
ATOM     10  C   UNL A   1      33.620  20.659  25.578  1.00  0.00     0.023 A 
ATOM     11  C   UNL A   1      34.818  21.173  25.051  1.00  0.00     0.053 A 
ATOM     12  Cl  UNL A   1      36.146  20.070  25.008  1.00  0.00    -0.083 Cl
BRANCH   7  13
ATOM     13  S   UNL A   1      31.449  23.978  26.306  1.00  0.00     0.261 S 
ATOM     14  O   UNL A   1      32.096  25.213  26.700  1.00  0.00    -0.201 OA
ATOM     15  O   UNL A   1      30.654  23.242  27.266  1.00  0.00    -0.201 OA
BRANCH  13  16
ATOM     16  N   UNL A   1      30.385  24.370  25.043  1.00  0.00    -0.280 N 
ATOM     17  H   UNL A   1      29.717  23.699  24.775  1.00  0.00     0.180 HD
BRANCH  16  18
ATOM     18  C   UNL A   1      30.401  25.625  24.342  1.00  0.00     0.051 A 
ATOM     19  C   UNL A   1      30.415  27.869  22.642  1.00  0.00     0.137 A 
ATOM     20  C   UNL A   1      29.259  27.520  23.334  1.00  0.00     0.050 A 
ATOM     21  C   UNL A   1      31.563  27.087  22.777  1.00  0.00     0.085 A 
ATOM     22  C   UNL A   1      29.244  26.372  24.129  1.00  0.00     0.030 A 
ATOM     23  C   UNL A   1      31.553  25.966  23.621  1.00  0.00     0.051 A 
ATOM     24  Cl  UNL A   1      33.008  27.442  21.906  1.00  0.00    -0.080 Cl
BRANCH  19  25
ATOM     25  O   UNL A   1      30.374  29.012  21.895  1.00  0.00    -0.495 OA
ATOM     26  C   UNL A   1      29.546  30.004  22.506  1.00  0.00     0.278 C 
ENDBRANCH  19  25
ENDBRANCH  16  18
ENDBRANCH  13  16
ENDBRANCH   7  13
ENDBRANCH   3   6
ENDBRANCH   1   2
BRANCH   1  27
ATOM     27  C   UNL A   1      38.841  22.976  26.455  1.00  0.00     0.023 C 
BRANCH  27  28
ATOM     28  C   UNL A   1      39.177  21.679  25.723  1.00  0.00     0.023 C 
BRANCH  28  29
ATOM     29  C   UNL A   1      39.444  20.450  26.589  1.00  0.00     0.116 C 
BRANCH  29  30
ATOM     30  N   UNL A   1      40.480  19.569  26.070  1.00  0.00    -0.352 N 
ATOM     31  C   UNL A   1      41.839  19.770  25.969  1.00  0.00     0.251 C 
ATOM     32  H   UNL A   1      40.162  18.698  25.741  1.00  0.00     0.163 HD
ATOM     33  O   UNL A   1      42.549  18.932  25.422  1.00  0.00    -0.269 OA
BRANCH  31  34
ATOM     34  C   UNL A   1      42.441  21.020  26.482  1.00  0.00     0.039 A 
ATOM     35  C   UNL A   1      42.840  22.005  25.574  1.00  0.00     0.014 A 
ATOM     36  C   UNL A   1      42.573  21.237  27.854  1.00  0.00     0.014 A 
ATOM     37  C   UNL A   1      43.276  23.246  26.047  1.00  0.00     0.010 A 
ATOM     38  C   UNL A   1      42.914  22.502  28.321  1.00  0.00     0.010 A 
ATOM     39  C   UNL A   1      43.267  23.523  27.423  1.00  0.00    -0.014 A 
BRANCH  39  40
ATOM     40  C   UNL A   1      43.618  24.867  27.951  1.00  0.00     0.031 A 
ATOM     41  C   UNL A   1      42.533  25.873  28.229  1.00  0.00     0.074 A 
ATOM     42  C   UNL A   1      44.911  25.214  28.106  1.00  0.00     0.049 A 
ATOM     43  N   UNL A   1      42.641  27.120  28.612  1.00  0.00    -0.248 NA
ATOM     44  C   UNL A   1      41.146  25.427  28.018  1.00  0.00     0.031 C 
ATOM     45  C   UNL A   1      46.062  24.350  27.836  1.00  0.00     0.029 A 
ATOM     46  N   UNL A   1      45.475  26.395  28.523  1.00  0.00    -0.354 N 
ATOM     47  C   UNL A   1      41.342  27.610  28.668  1.00  0.00     0.074 A 
ATOM     48  C   UNL A   1      40.470  26.547  28.220  1.00  0.00     0.031 C 
ATOM     49  C   UNL A   1      47.191  25.018  28.125  1.00  0.00     0.029 A 
ATOM     50  C   UNL A   1      46.850  26.370  28.553  1.00  0.00     0.049 A 
ATOM     51  H   UNL A   1      44.946  27.185  28.777  1.00  0.00     0.167 HD
ATOM     52  C   UNL A   1      40.908  28.826  29.076  1.00  0.00     0.031 A 
ATOM     53  C   UNL A   1      47.736  27.330  28.879  1.00  0.00     0.031 A 
ATOM     54  C   UNL A   1      41.774  29.883  29.525  1.00  0.00     0.049 A 
ATOM     55  C   UNL A   1      47.232  28.683  29.301  1.00  0.00     0.074 A 
ATOM     56  C   UNL A   1      41.429  31.133  30.009  1.00  0.00     0.029 A 
ATOM     57  N   UNL A   1      43.158  29.815  29.540  1.00  0.00    -0.354 N 
ATOM     58  N   UNL A   1      45.998  29.107  29.413  1.00  0.00    -0.248 NA
ATOM     59  C   UNL A   1      48.248  29.687  29.650  1.00  0.00     0.031 C 
ATOM     60  C   UNL A   1      42.606  31.844  30.259  1.00  0.00     0.029 A 
ATOM     61  C   UNL A   1      43.684  31.012  29.998  1.00  0.00     0.049 A 
ATOM     62  H   UNL A   1      43.690  29.032  29.266  1.00  0.00     0.167 HD
ATOM     63  C   UNL A   1      46.086  30.413  29.879  1.00  0.00     0.074 A 
ATOM     64  C   UNL A   1      47.495  30.706  30.040  1.00  0.00     0.031 C 
ATOM     65  C   UNL A   1      45.088  31.290  30.154  1.00  0.00     0.031 A 
BRANCH  52  66
ATOM     66  C   UNL A   1      39.425  29.078  29.037  1.00  0.00    -0.014 A 
ATOM     67  C   UNL A   1      38.797  29.574  27.882  1.00  0.00     0.009 A 
ATOM     68  C   UNL A   1      38.638  28.798  30.166  1.00  0.00     0.009 A 
ATOM     69  C   UNL A   1      37.424  29.830  27.875  1.00  0.00     0.001 A 
ATOM     70  C   UNL A   1      37.261  29.021  30.144  1.00  0.00     0.001 A 
ATOM     71  C   UNL A   1      36.657  29.549  29.005  1.00  0.00     0.000 A 
ENDBRANCH  52  66
BRANCH  53  72
ATOM     72  C   UNL A   1      49.195  27.043  28.839  1.00  0.00    -0.014 A 
ATOM     73  C   UNL A   1      49.934  27.271  27.667  1.00  0.00     0.009 A 
ATOM     74  C   UNL A   1      49.859  26.537  29.968  1.00  0.00     0.009 A 
ATOM     75  C   UNL A   1      51.297  26.970  27.617  1.00  0.00     0.001 A 
ATOM     76  C   UNL A   1      51.229  26.267  29.926  1.00  0.00     0.001 A 
ATOM     77  C   UNL A   1      51.945  26.474  28.748  1.00  0.00     0.000 A 
ENDBRANCH  53  72
BRANCH  65  78
ATOM     78  C   UNL A   1      45.480  32.635  30.701  1.00  0.00    -0.014 A 
ATOM     79  C   UNL A   1      45.714  33.732  29.858  1.00  0.00     0.009 A 
ATOM     80  C   UNL A   1      45.569  32.816  32.091  1.00  0.00     0.009 A 
ATOM     81  C   UNL A   1      46.061  34.974  30.396  1.00  0.00     0.001 A 
ATOM     82  C   UNL A   1      45.882  34.065  32.626  1.00  0.00     0.001 A 
ATOM     83  C   UNL A   1      46.137  35.141  31.779  1.00  0.00     0.000 A 
ENDBRANCH  65  78
ENDBRANCH  39  40
ENDBRANCH  31  34
ENDBRANCH  29  30
ENDBRANCH  28  29
ENDBRANCH  27  28
ENDBRANCH   1  27
TORSDOF 15
ENDMDL
MODEL 3
REMARK VINA RESULT:     -11.6      1.644      2.011
REMARK SMILES COc1ccc(NS(=O)(=O)c2ccc(Cl)c(C(=O)NCCCCNC(=O)c3ccc(-c4c5nc(c(-c6ccccc6)c6ccc([nH]6)c(-c6ccccc6)c6nc(c(-c7ccccc7)c7ccc4[nH]7)C=C6)C=C5)cc3)c2)cc1Cl
REMARK SMILES IDX 20 1 19 2 17 3 18 4 16 6 11 7 12 8 75 9 13 10 14 11 15 12
REMARK SMILES IDX 8 13 9 14 10 15 7 16 6 18 3 19 4 20 77 21 5 22 76 23 78 24
REMARK SMILES IDX 2 25 1 26 21 27 22 28 23 29 24 30 25 31 26 33 27 34 28 35
REMARK SMILES IDX 74 36 29 37 73 38 30 39 31 40 32 41 67 42 33 43 72 44 66 45
REMARK SMILES IDX 68 46 34 47 71 48 65 49 64 50 35 52 57 53 42 54 56 55 43 56
REMARK SMILES IDX 46 57 55 58 69 59 44 60 45 61 54 63 70 64 47 65 36 66 37 67
REMARK SMILES IDX 41 68 38 69 40 70 39 71 58 72 59 73 63 74 60 75 62 76 61 77
REMARK SMILES IDX 48 78 49 79 53 80 50 81 52 82 51 83
REMARK H PARENT 19 5 7 17 24 32 68 51 46 62
REMARK Flexibility Score: inf
ROOT
ATOM      1  C   UNL A   1      33.016  29.560  26.154  1.00  0.00     0.116 C 
ENDROOT
BRANCH   1   2
ATOM      2  N   UNL A   1      33.674  28.983  24.998  1.00  0.00    -0.352 N 
ATOM      3  C   UNL A   1      33.236  28.042  24.090  1.00  0.00     0.252 C 
ATOM      4  O   UNL A   1      33.963  27.793  23.128  1.00  0.00    -0.269 OA
ATOM      5  H   UNL A   1      34.585  29.318  24.833  1.00  0.00     0.163 HD
BRANCH   3   6
ATOM      6  C   UNL A   1      32.016  27.209  24.287  1.00  0.00     0.059 A 
ATOM      7  C   UNL A   1      31.119  25.222  25.399  1.00  0.00     0.088 A 
ATOM      8  C   UNL A   1      29.827  25.569  25.004  1.00  0.00     0.024 A 
ATOM      9  C   UNL A   1      32.210  26.026  25.031  1.00  0.00     0.037 A 
ATOM     10  C   UNL A   1      29.641  26.685  24.191  1.00  0.00     0.023 A 
ATOM     11  C   UNL A   1      30.734  27.470  23.784  1.00  0.00     0.053 A 
ATOM     12  Cl  UNL A   1      30.407  28.609  22.527  1.00  0.00    -0.083 Cl
BRANCH   7  13
ATOM     13  S   UNL A   1      31.388  23.698  26.262  1.00  0.00     0.261 S 
ATOM     14  O   UNL A   1      30.204  22.882  26.090  1.00  0.00    -0.201 OA
ATOM     15  O   UNL A   1      31.845  24.034  27.594  1.00  0.00    -0.201 OA
BRANCH  13  16
ATOM     16  N   UNL A   1      32.670  22.848  25.544  1.00  0.00    -0.280 N 
ATOM     17  H   UNL A   1      33.567  23.252  25.574  1.00  0.00     0.180 HD
BRANCH  16  18
ATOM     18  C   UNL A   1      32.524  21.573  24.898  1.00  0.00     0.051 A 
ATOM     19  C   UNL A   1      32.573  19.161  23.448  1.00  0.00     0.137 A 
ATOM     20  C   UNL A   1      32.917  19.176  24.796  1.00  0.00     0.050 A 
ATOM     21  C   UNL A   1      32.225  20.353  22.810  1.00  0.00     0.085 A 
ATOM     22  C   UNL A   1      32.946  20.385  25.492  1.00  0.00     0.030 A 
ATOM     23  C   UNL A   1      32.207  21.554  23.533  1.00  0.00     0.051 A 
ATOM     24  Cl  UNL A   1      31.839  20.402  21.130  1.00  0.00    -0.080 Cl
BRANCH  19  25
ATOM     25  O   UNL A   1      32.544  17.945  22.824  1.00  0.00    -0.495 OA
ATOM     26  C   UNL A   1      33.555  17.074  23.336  1.00  0.00     0.278 C 
ENDBRANCH  19  25
ENDBRANCH  16  18
ENDBRANCH  13  16
ENDBRANCH   7  13
ENDBRANCH   3   6
ENDBRANCH   1   2
BRANCH   1  27
ATOM     27  C   UNL A   1      31.807  30.438  25.850  1.00  0.00     0.023 C 
BRANCH  27  28
ATOM     28  C   UNL A   1      31.571  31.632  26.773  1.00  0.00     0.023 C 
BRANCH  28  29
ATOM     29  C   UNL A   1      32.795  32.462  27.149  1.00  0.00     0.116 C 
BRANCH  29  30
ATOM     30  N   UNL A   1      32.483  33.807  27.613  1.00  0.00    -0.352 N 
ATOM     31  C   UNL A   1      33.139  34.597  28.532  1.00  0.00     0.251 C 
ATOM     32  H   UNL A   1      31.683  34.213  27.211  1.00  0.00     0.163 HD
ATOM     33  O   UNL A   1      32.673  35.684  28.857  1.00  0.00    -0.269 OA
BRANCH  31  34
ATOM     34  C   UNL A   1      34.387  34.115  29.163  1.00  0.00     0.039 A 
ATOM     35  C   UNL A   1      34.310  33.386  30.353  1.00  0.00     0.014 A 
ATOM     36  C   UNL A   1      35.625  34.344  28.561  1.00  0.00     0.014 A 
ATOM     37  C   UNL A   1      35.464  32.804  30.884  1.00  0.00     0.010 A 
ATOM     38  C   UNL A   1      36.754  33.684  29.036  1.00  0.00     0.010 A 
ATOM     39  C   UNL A   1      36.687  32.904  30.201  1.00  0.00    -0.014 A 
BRANCH  39  40
ATOM     40  C   UNL A   1      37.907  32.203  30.679  1.00  0.00     0.031 A 
ATOM     41  C   UNL A   1      38.729  32.797  31.791  1.00  0.00     0.074 A 
ATOM     42  C   UNL A   1      38.322  31.077  30.065  1.00  0.00     0.049 A 
ATOM     43  N   UNL A   1      39.866  32.382  32.291  1.00  0.00    -0.248 NA
ATOM     44  C   UNL A   1      38.221  34.037  32.400  1.00  0.00     0.031 C 
ATOM     45  C   UNL A   1      37.642  30.417  28.948  1.00  0.00     0.029 A 
ATOM     46  N   UNL A   1      39.427  30.293  30.290  1.00  0.00    -0.354 N 
ATOM     47  C   UNL A   1      40.216  33.319  33.255  1.00  0.00     0.074 A 
ATOM     48  C   UNL A   1      39.206  34.354  33.227  1.00  0.00     0.031 C 
ATOM     49  C   UNL A   1      38.325  29.311  28.610  1.00  0.00     0.029 A 
ATOM     50  C   UNL A   1      39.516  29.209  29.447  1.00  0.00     0.049 A 
ATOM     51  H   UNL A   1      40.093  30.486  30.988  1.00  0.00     0.167 HD
ATOM     52  C   UNL A   1      41.271  33.312  34.105  1.00  0.00     0.031 A 
ATOM     53  C   UNL A   1      40.453  28.248  29.353  1.00  0.00     0.031 A 
ATOM     54  C   UNL A   1      42.274  32.282  34.137  1.00  0.00     0.049 A 
ATOM     55  C   UNL A   1      41.631  28.276  30.287  1.00  0.00     0.074 A 
ATOM     56  C   UNL A   1      43.352  32.155  34.996  1.00  0.00     0.029 A 
ATOM     57  N   UNL A   1      42.325  31.204  33.268  1.00  0.00    -0.354 N 
ATOM     58  N   UNL A   1      41.912  29.132  31.239  1.00  0.00    -0.248 NA
ATOM     59  C   UNL A   1      42.618  27.196  30.139  1.00  0.00     0.031 C 
ATOM     60  C   UNL A   1      44.090  31.033  34.607  1.00  0.00     0.029 A 
ATOM     61  C   UNL A   1      43.432  30.421  33.551  1.00  0.00     0.049 A 
ATOM     62  H   UNL A   1      41.671  31.020  32.555  1.00  0.00     0.167 HD
ATOM     63  C   UNL A   1      43.085  28.676  31.826  1.00  0.00     0.074 A 
ATOM     64  C   UNL A   1      43.457  27.461  31.131  1.00  0.00     0.031 C 
ATOM     65  C   UNL A   1      43.790  29.214  32.852  1.00  0.00     0.031 A 
BRANCH  52  66
ATOM     66  C   UNL A   1      41.395  34.468  35.060  1.00  0.00    -0.014 A 
ATOM     67  C   UNL A   1      40.809  34.427  36.338  1.00  0.00     0.009 A 
ATOM     68  C   UNL A   1      42.122  35.609  34.687  1.00  0.00     0.009 A 
ATOM     69  C   UNL A   1      40.909  35.522  37.198  1.00  0.00     0.001 A 
ATOM     70  C   UNL A   1      42.250  36.688  35.563  1.00  0.00     0.001 A 
ATOM     71  C   UNL A   1      41.633  36.649  36.812  1.00  0.00     0.000 A 
ENDBRANCH  52  66
BRANCH  53  72
ATOM     72  C   UNL A   1      40.311  27.162  28.346  1.00  0.00    -0.014 A 
ATOM     73  C   UNL A   1      39.629  25.978  28.667  1.00  0.00     0.009 A 
ATOM     74  C   UNL A   1      40.858  27.298  27.060  1.00  0.00     0.009 A 
ATOM     75  C   UNL A   1      39.524  24.943  27.734  1.00  0.00     0.001 A 
ATOM     76  C   UNL A   1      40.725  26.275  26.118  1.00  0.00     0.001 A 
ATOM     77  C   UNL A   1      40.067  25.095  26.458  1.00  0.00     0.000 A 
ENDBRANCH  53  72
BRANCH  65  78
ATOM     78  C   UNL A   1      45.011  28.470  33.318  1.00  0.00    -0.014 A 
ATOM     79  C   UNL A   1      46.286  28.753  32.807  1.00  0.00     0.009 A 
ATOM     80  C   UNL A   1      44.884  27.499  34.326  1.00  0.00     0.009 A 
ATOM     81  C   UNL A   1      47.404  28.056  33.271  1.00  0.00     0.001 A 
ATOM     82  C   UNL A   1      46.007  26.829  34.812  1.00  0.00     0.001 A 
ATOM     83  C   UNL A   1      47.264  27.101  34.278  1.00  0.00     0.000 A 
ENDBRANCH  65  78
ENDBRANCH  39  40
ENDBRANCH  31  34
ENDBRANCH  29  30
ENDBRANCH  28  29
ENDBRANCH  27  28
ENDBRANCH   1  27
TORSDOF 15
ENDMDL
