MODEL 1
REMARK VINA RESULT:     -11.7      0.000      0.000
REMARK SMILES O=C(NCCCCNC(=O)c1cccc(Nc2ccc([N+](=O)[O-])cc2)c1)c1ccc(-c2c3nc(c(-c4ccccc4)c4ccc([nH]4)c(-c4ccccc4)c4nc(c(-c5ccccc5)c5ccc2[nH]5)C=C4)C=C3)cc1
REMARK SMILES IDX 6 1 5 2 4 3 3 4 1 5 2 6 27 8 28 9 74 10 29 11 73 12 30 13
REMARK SMILES IDX 31 14 32 15 67 16 33 17 72 18 66 19 68 20 34 21 71 22 65 23
REMARK SMILES IDX 64 24 35 26 57 27 42 28 56 29 43 30 46 31 55 32 69 33 44 34
REMARK SMILES IDX 45 35 54 37 70 38 47 39 36 40 37 41 41 42 38 43 40 44 39 45
REMARK SMILES IDX 58 46 59 47 63 48 60 49 62 50 61 51 48 52 49 53 53 54 50 55
REMARK SMILES IDX 52 56 51 57 7 58 8 59 9 60 10 62 11 63 12 64 26 65 13 66
REMARK SMILES IDX 15 67 14 68 16 69 17 71 18 72 25 73 19 74 24 75 20 76 21 77
REMARK SMILES IDX 22 78 23 79
REMARK H PARENT 3 7 68 25 46 36 8 61 16 70
REMARK Flexibility Score: inf
ROOT
ATOM      1  C   UNL A   1      36.666  20.719  24.817  1.00  0.00     0.023 C 
ENDROOT
BRANCH   1   2
ATOM      2  C   UNL A   1      37.806  19.718  24.978  1.00  0.00     0.023 C 
BRANCH   2   3
ATOM      3  C   UNL A   1      39.022  20.235  25.734  1.00  0.00     0.116 C 
BRANCH   3   4
ATOM      4  N   UNL A   1      40.109  19.269  25.798  1.00  0.00    -0.352 N 
ATOM      5  O   UNL A   1      42.239  18.553  26.015  1.00  0.00    -0.269 OA
ATOM      6  C   UNL A   1      41.425  19.465  26.142  1.00  0.00     0.251 C 
ATOM      7  H   UNL A   1      39.867  18.346  25.562  1.00  0.00     0.163 HD
BRANCH   6   8
ATOM      8  C   UNL A   1      41.869  20.787  26.633  1.00  0.00     0.039 A 
ATOM      9  C   UNL A   1      41.866  21.075  27.999  1.00  0.00     0.014 A 
ATOM     10  C   UNL A   1      42.283  21.753  25.712  1.00  0.00     0.014 A 
ATOM     11  C   UNL A   1      42.126  22.371  28.430  1.00  0.00     0.010 A 
ATOM     12  C   UNL A   1      42.630  23.033  26.157  1.00  0.00     0.010 A 
ATOM     13  C   UNL A   1      42.520  23.362  27.516  1.00  0.00    -0.014 A 
BRANCH  13  14
ATOM     14  C   UNL A   1      42.865  24.715  28.021  1.00  0.00     0.031 A 
ATOM     15  C   UNL A   1      44.294  25.130  28.235  1.00  0.00     0.074 A 
ATOM     16  C   UNL A   1      41.867  25.591  28.243  1.00  0.00     0.049 A 
ATOM     17  N   UNL A   1      44.762  26.288  28.629  1.00  0.00    -0.248 NA
ATOM     18  C   UNL A   1      45.332  24.119  27.979  1.00  0.00     0.031 C 
ATOM     19  C   UNL A   1      40.439  25.306  28.074  1.00  0.00     0.029 A 
ATOM     20  N   UNL A   1      41.899  26.906  28.631  1.00  0.00    -0.354 N 
ATOM     21  C   UNL A   1      46.144  26.145  28.679  1.00  0.00     0.074 A 
ATOM     22  C   UNL A   1      46.438  24.778  28.303  1.00  0.00     0.031 C 
ATOM     23  C   UNL A   1      39.737  26.424  28.304  1.00  0.00     0.029 A 
ATOM     24  C   UNL A   1      40.656  27.487  28.695  1.00  0.00     0.049 A 
ATOM     25  H   UNL A   1      42.731  27.387  28.844  1.00  0.00     0.167 HD
ATOM     26  C   UNL A   1      47.080  27.069  29.002  1.00  0.00     0.031 A 
ATOM     27  C   UNL A   1      40.290  28.733  29.042  1.00  0.00     0.031 A 
ATOM     28  C   UNL A   1      46.788  28.426  29.382  1.00  0.00     0.049 A 
ATOM     29  C   UNL A   1      41.346  29.724  29.429  1.00  0.00     0.074 A 
ATOM     30  C   UNL A   1      47.671  29.439  29.719  1.00  0.00     0.029 A 
ATOM     31  N   UNL A   1      45.512  28.963  29.475  1.00  0.00    -0.354 N 
ATOM     32  N   UNL A   1      42.649  29.574  29.452  1.00  0.00    -0.248 NA
ATOM     33  C   UNL A   1      40.882  31.056  29.836  1.00  0.00     0.031 C 
ATOM     34  C   UNL A   1      46.929  30.576  30.056  1.00  0.00     0.029 A 
ATOM     35  C   UNL A   1      45.586  30.286  29.881  1.00  0.00     0.049 A 
ATOM     36  H   UNL A   1      44.679  28.476  29.281  1.00  0.00     0.167 HD
ATOM     37  C   UNL A   1      43.160  30.795  29.864  1.00  0.00     0.074 A 
ATOM     38  C   UNL A   1      42.030  31.682  30.054  1.00  0.00     0.031 C 
ATOM     39  C   UNL A   1      44.450  31.150  30.072  1.00  0.00     0.031 A 
BRANCH  26  40
ATOM     40  C   UNL A   1      48.521  26.636  28.979  1.00  0.00    -0.014 A 
ATOM     41  C   UNL A   1      49.305  26.788  27.824  1.00  0.00     0.009 A 
ATOM     42  C   UNL A   1      49.115  26.120  30.141  1.00  0.00     0.009 A 
ATOM     43  C   UNL A   1      50.649  26.406  27.827  1.00  0.00     0.001 A 
ATOM     44  C   UNL A   1      50.466  25.762  30.147  1.00  0.00     0.001 A 
ATOM     45  C   UNL A   1      51.229  25.899  28.990  1.00  0.00     0.000 A 
ENDBRANCH  26  40
BRANCH  27  46
ATOM     46  C   UNL A   1      38.851  29.104  29.055  1.00  0.00    -0.014 A 
ATOM     47  C   UNL A   1      38.087  28.970  30.223  1.00  0.00     0.009 A 
ATOM     48  C   UNL A   1      38.240  29.601  27.893  1.00  0.00     0.009 A 
ATOM     49  C   UNL A   1      36.732  29.308  30.222  1.00  0.00     0.001 A 
ATOM     50  C   UNL A   1      36.892  29.966  27.903  1.00  0.00     0.001 A 
ATOM     51  C   UNL A   1      36.137  29.810  29.064  1.00  0.00     0.000 A 
ENDBRANCH  27  46
BRANCH  39  52
ATOM     52  C   UNL A   1      44.702  32.566  30.507  1.00  0.00    -0.014 A 
ATOM     53  C   UNL A   1      44.885  33.591  29.566  1.00  0.00     0.009 A 
ATOM     54  C   UNL A   1      44.744  32.877  31.875  1.00  0.00     0.009 A 
ATOM     55  C   UNL A   1      45.142  34.897  29.989  1.00  0.00     0.001 A 
ATOM     56  C   UNL A   1      44.976  34.188  32.293  1.00  0.00     0.001 A 
ATOM     57  C   UNL A   1      45.185  35.194  31.351  1.00  0.00     0.000 A 
ENDBRANCH  39  52
ENDBRANCH  13  14
ENDBRANCH   6   8
ENDBRANCH   3   4
ENDBRANCH   2   3
ENDBRANCH   1   2
BRANCH   1  58
ATOM     58  C   UNL A   1      37.092  22.146  24.485  1.00  0.00     0.116 C 
BRANCH  58  59
ATOM     59  N   UNL A   1      36.472  23.131  25.356  1.00  0.00    -0.352 N 
ATOM     60  C   UNL A   1      35.240  23.726  25.251  1.00  0.00     0.251 C 
ATOM     61  H   UNL A   1      37.011  23.410  26.130  1.00  0.00     0.163 HD
ATOM     62  O   UNL A   1      34.932  24.651  25.995  1.00  0.00    -0.269 OA
BRANCH  60  63
ATOM     63  C   UNL A   1      34.290  23.260  24.224  1.00  0.00     0.041 A 
ATOM     64  C   UNL A   1      34.097  24.039  23.085  1.00  0.00     0.014 A 
ATOM     65  C   UNL A   1      33.588  22.059  24.398  1.00  0.00     0.039 A 
ATOM     66  C   UNL A   1      33.242  23.583  22.088  1.00  0.00     0.003 A 
ATOM     67  C   UNL A   1      32.733  21.586  23.400  1.00  0.00     0.039 A 
ATOM     68  C   UNL A   1      32.581  22.359  22.240  1.00  0.00     0.026 A 
BRANCH  67  69
ATOM     69  N   UNL A   1      32.101  20.342  23.583  1.00  0.00    -0.356 N 
ATOM     70  H   UNL A   1      31.128  20.343  23.429  1.00  0.00     0.167 HD
BRANCH  69  71
ATOM     71  C   UNL A   1      32.642  19.100  23.950  1.00  0.00     0.039 A 
ATOM     72  C   UNL A   1      32.642  18.737  25.304  1.00  0.00     0.033 A 
ATOM     73  C   UNL A   1      33.080  18.167  23.000  1.00  0.00     0.033 A 
ATOM     74  C   UNL A   1      33.034  17.456  25.703  1.00  0.00     0.088 A 
ATOM     75  C   UNL A   1      33.485  16.885  23.385  1.00  0.00     0.088 A 
ATOM     76  C   UNL A   1      33.442  16.529  24.737  1.00  0.00     0.269 A 
BRANCH  76  77
ATOM     77  N   UNL A   1      33.798  15.165  25.144  1.00  0.00     0.062 N 
ATOM     78  O   UNL A   1      35.000  14.903  25.291  1.00  0.00    -0.258 OA
ATOM     79  O   UNL A   1      32.875  14.359  25.327  1.00  0.00    -0.258 OA
ENDBRANCH  76  77
ENDBRANCH  69  71
ENDBRANCH  67  69
ENDBRANCH  60  63
ENDBRANCH  58  59
ENDBRANCH   1  58
TORSDOF 14
ENDMDL
MODEL 2
REMARK VINA RESULT:     -11.6      0.423      6.043
REMARK SMILES O=C(NCCCCNC(=O)c1cccc(Nc2ccc([N+](=O)[O-])cc2)c1)c1ccc(-c2c3nc(c(-c4ccccc4)c4ccc([nH]4)c(-c4ccccc4)c4nc(c(-c5ccccc5)c5ccc2[nH]5)C=C4)C=C3)cc1
REMARK SMILES IDX 6 1 5 2 4 3 3 4 1 5 2 6 27 8 28 9 74 10 29 11 73 12 30 13
REMARK SMILES IDX 31 14 32 15 67 16 33 17 72 18 66 19 68 20 34 21 71 22 65 23
REMARK SMILES IDX 64 24 35 26 57 27 42 28 56 29 43 30 46 31 55 32 69 33 44 34
REMARK SMILES IDX 45 35 54 37 70 38 47 39 36 40 37 41 41 42 38 43 40 44 39 45
REMARK SMILES IDX 58 46 59 47 63 48 60 49 62 50 61 51 48 52 49 53 53 54 50 55
REMARK SMILES IDX 52 56 51 57 7 58 8 59 9 60 10 62 11 63 12 64 26 65 13 66
REMARK SMILES IDX 15 67 14 68 16 69 17 71 18 72 25 73 19 74 24 75 20 76 21 77
REMARK SMILES IDX 22 78 23 79
REMARK H PARENT 3 7 68 25 46 36 8 61 16 70
REMARK Flexibility Score: inf
ROOT
ATOM      1  C   UNL A   1      36.988  20.236  24.847  1.00  0.00     0.023 C 
ENDROOT
BRANCH   1   2
ATOM      2  C   UNL A   1      38.250  19.387  24.959  1.00  0.00     0.023 C 
BRANCH   2   3
ATOM      3  C   UNL A   1      39.278  19.881  25.969  1.00  0.00     0.116 C 
BRANCH   3   4
ATOM      4  N   UNL A   1      40.519  19.122  25.940  1.00  0.00    -0.352 N 
ATOM      5  O   UNL A   1      42.753  18.796  25.970  1.00  0.00    -0.269 OA
ATOM      6  C   UNL A   1      41.805  19.552  26.165  1.00  0.00     0.251 C 
ATOM      7  H   UNL A   1      40.424  18.167  25.727  1.00  0.00     0.163 HD
BRANCH   6   8
ATOM      8  C   UNL A   1      42.048  20.940  26.613  1.00  0.00     0.039 A 
ATOM      9  C   UNL A   1      42.338  21.945  25.688  1.00  0.00     0.014 A 
ATOM     10  C   UNL A   1      41.995  21.237  27.977  1.00  0.00     0.014 A 
ATOM     11  C   UNL A   1      42.727  23.202  26.135  1.00  0.00     0.010 A 
ATOM     12  C   UNL A   1      42.300  22.527  28.421  1.00  0.00     0.010 A 
ATOM     13  C   UNL A   1      42.703  23.511  27.505  1.00  0.00    -0.014 A 
BRANCH  13  14
ATOM     14  C   UNL A   1      43.050  24.887  27.942  1.00  0.00     0.031 A 
ATOM     15  C   UNL A   1      41.987  25.923  28.184  1.00  0.00     0.074 A 
ATOM     16  C   UNL A   1      44.344  25.183  28.166  1.00  0.00     0.049 A 
ATOM     17  N   UNL A   1      42.123  27.155  28.608  1.00  0.00    -0.248 NA
ATOM     18  C   UNL A   1      40.594  25.532  27.912  1.00  0.00     0.031 C 
ATOM     19  C   UNL A   1      45.467  24.263  27.966  1.00  0.00     0.029 A 
ATOM     20  N   UNL A   1      44.933  26.328  28.637  1.00  0.00    -0.354 N 
ATOM     21  C   UNL A   1      40.841  27.690  28.645  1.00  0.00     0.074 A 
ATOM     22  C   UNL A   1      39.941  26.658  28.172  1.00  0.00     0.031 C 
ATOM     23  C   UNL A   1      46.601  24.860  28.361  1.00  0.00     0.029 A 
ATOM     24  C   UNL A   1      46.295  26.222  28.783  1.00  0.00     0.049 A 
ATOM     25  H   UNL A   1      44.429  27.147  28.848  1.00  0.00     0.167 HD
ATOM     26  C   UNL A   1      40.449  28.924  29.042  1.00  0.00     0.031 A 
ATOM     27  C   UNL A   1      47.202  27.122  29.200  1.00  0.00     0.031 A 
ATOM     28  C   UNL A   1      41.343  29.952  29.507  1.00  0.00     0.049 A 
ATOM     29  C   UNL A   1      46.742  28.491  29.601  1.00  0.00     0.074 A 
ATOM     30  C   UNL A   1      41.038  31.232  29.940  1.00  0.00     0.029 A 
ATOM     31  N   UNL A   1      42.720  29.818  29.601  1.00  0.00    -0.354 N 
ATOM     32  N   UNL A   1      45.523  28.971  29.645  1.00  0.00    -0.248 NA
ATOM     33  C   UNL A   1      47.784  29.443  30.009  1.00  0.00     0.031 C 
ATOM     34  C   UNL A   1      42.234  31.886  30.255  1.00  0.00     0.029 A 
ATOM     35  C   UNL A   1      43.279  30.997  30.067  1.00  0.00     0.049 A 
ATOM     36  H   UNL A   1      43.225  29.005  29.371  1.00  0.00     0.167 HD
ATOM     37  C   UNL A   1      45.651  30.276  30.098  1.00  0.00     0.074 A 
ATOM     38  C   UNL A   1      47.061  30.503  30.338  1.00  0.00     0.031 C 
ATOM     39  C   UNL A   1      44.685  31.207  30.293  1.00  0.00     0.031 A 
BRANCH  26  40
ATOM     40  C   UNL A   1      38.980  29.243  28.974  1.00  0.00    -0.014 A 
ATOM     41  C   UNL A   1      38.402  29.747  27.798  1.00  0.00     0.009 A 
ATOM     42  C   UNL A   1      38.156  28.984  30.080  1.00  0.00     0.009 A 
ATOM     43  C   UNL A   1      37.031  30.012  27.742  1.00  0.00     0.001 A 
ATOM     44  C   UNL A   1      36.782  29.228  30.013  1.00  0.00     0.001 A 
ATOM     45  C   UNL A   1      36.222  29.747  28.848  1.00  0.00     0.000 A 
ENDBRANCH  26  40
BRANCH  27  46
ATOM     46  C   UNL A   1      48.641  26.755  29.242  1.00  0.00    -0.014 A 
ATOM     47  C   UNL A   1      49.439  26.854  28.092  1.00  0.00     0.009 A 
ATOM     48  C   UNL A   1      49.223  26.309  30.439  1.00  0.00     0.009 A 
ATOM     49  C   UNL A   1      50.788  26.494  28.137  1.00  0.00     0.001 A 
ATOM     50  C   UNL A   1      50.578  25.978  30.487  1.00  0.00     0.001 A 
ATOM     51  C   UNL A   1      51.356  26.061  29.334  1.00  0.00     0.000 A 
ENDBRANCH  27  46
BRANCH  39  52
ATOM     52  C   UNL A   1      45.129  32.544  30.812  1.00  0.00    -0.014 A 
ATOM     53  C   UNL A   1      45.223  32.792  32.190  1.00  0.00     0.009 A 
ATOM     54  C   UNL A   1      45.467  33.564  29.908  1.00  0.00     0.009 A 
ATOM     55  C   UNL A   1      45.613  34.050  32.654  1.00  0.00     0.001 A 
ATOM     56  C   UNL A   1      45.881  34.812  30.376  1.00  0.00     0.001 A 
ATOM     57  C   UNL A   1      45.944  35.056  31.747  1.00  0.00     0.000 A 
ENDBRANCH  39  52
ENDBRANCH  13  14
ENDBRANCH   6   8
ENDBRANCH   3   4
ENDBRANCH   2   3
ENDBRANCH   1   2
BRANCH   1  58
ATOM     58  C   UNL A   1      37.221  21.740  24.739  1.00  0.00     0.116 C 
BRANCH  58  59
ATOM     59  N   UNL A   1      36.550  22.486  25.793  1.00  0.00    -0.352 N 
ATOM     60  C   UNL A   1      35.300  23.051  25.792  1.00  0.00     0.251 C 
ATOM     61  H   UNL A   1      37.066  22.601  26.623  1.00  0.00     0.163 HD
ATOM     62  O   UNL A   1      34.947  23.776  26.717  1.00  0.00    -0.269 OA
BRANCH  60  63
ATOM     63  C   UNL A   1      34.385  22.798  24.664  1.00  0.00     0.041 A 
ATOM     64  C   UNL A   1      34.297  23.745  23.646  1.00  0.00     0.014 A 
ATOM     65  C   UNL A   1      33.613  21.629  24.625  1.00  0.00     0.039 A 
ATOM     66  C   UNL A   1      33.475  23.491  22.553  1.00  0.00     0.003 A 
ATOM     67  C   UNL A   1      32.790  21.359  23.528  1.00  0.00     0.039 A 
ATOM     68  C   UNL A   1      32.744  22.301  22.491  1.00  0.00     0.026 A 
BRANCH  67  69
ATOM     69  N   UNL A   1      32.085  20.141  23.494  1.00  0.00    -0.356 N 
ATOM     70  H   UNL A   1      31.177  20.197  23.116  1.00  0.00     0.167 HD
BRANCH  69  71
ATOM     71  C   UNL A   1      32.474  18.860  23.914  1.00  0.00     0.039 A 
ATOM     72  C   UNL A   1      33.075  17.998  22.987  1.00  0.00     0.033 A 
ATOM     73  C   UNL A   1      32.383  18.455  25.253  1.00  0.00     0.033 A 
ATOM     74  C   UNL A   1      33.612  16.772  23.390  1.00  0.00     0.088 A 
ATOM     75  C   UNL A   1      32.905  17.227  25.670  1.00  0.00     0.088 A 
ATOM     76  C   UNL A   1      33.536  16.397  24.736  1.00  0.00     0.269 A 
BRANCH  76  77
ATOM     77  N   UNL A   1      34.149  15.139  25.175  1.00  0.00     0.062 N 
ATOM     78  O   UNL A   1      33.396  14.186  25.423  1.00  0.00    -0.258 OA
ATOM     79  O   UNL A   1      35.385  15.098  25.261  1.00  0.00    -0.258 OA
ENDBRANCH  76  77
ENDBRANCH  69  71
ENDBRANCH  67  69
ENDBRANCH  60  63
ENDBRANCH  58  59
ENDBRANCH   1  58
TORSDOF 14
ENDMDL
MODEL 3
REMARK VINA RESULT:     -11.4      2.308      6.962
REMARK SMILES O=C(NCCCCNC(=O)c1cccc(Nc2ccc([N+](=O)[O-])cc2)c1)c1ccc(-c2c3nc(c(-c4ccccc4)c4ccc([nH]4)c(-c4ccccc4)c4nc(c(-c5ccccc5)c5ccc2[nH]5)C=C4)C=C3)cc1
REMARK SMILES IDX 6 1 5 2 4 3 3 4 1 5 2 6 27 8 28 9 74 10 29 11 73 12 30 13
REMARK SMILES IDX 31 14 32 15 67 16 33 17 72 18 66 19 68 20 34 21 71 22 65 23
REMARK SMILES IDX 64 24 35 26 57 27 42 28 56 29 43 30 46 31 55 32 69 33 44 34
REMARK SMILES IDX 45 35 54 37 70 38 47 39 36 40 37 41 41 42 38 43 40 44 39 45
REMARK SMILES IDX 58 46 59 47 63 48 60 49 62 50 61 51 48 52 49 53 53 54 50 55
REMARK SMILES IDX 52 56 51 57 7 58 8 59 9 60 10 62 11 63 12 64 26 65 13 66
REMARK SMILES IDX 15 67 14 68 16 69 17 71 18 72 25 73 19 74 24 75 20 76 21 77
REMARK SMILES IDX 22 78 23 79
REMARK H PARENT 3 7 68 25 46 36 8 61 16 70
REMARK Flexibility Score: inf
ROOT
ATOM      1  C   UNL A   1      34.881  22.664  27.345  1.00  0.00     0.023 C 
ENDROOT
BRANCH   1   2
ATOM      2  C   UNL A   1      35.442  22.667  25.926  1.00  0.00     0.023 C 
BRANCH   2   3
ATOM      3  C   UNL A   1      36.772  23.388  25.756  1.00  0.00     0.116 C 
BRANCH   3   4
ATOM      4  N   UNL A   1      37.922  22.508  25.898  1.00  0.00    -0.352 N 
ATOM      5  O   UNL A   1      40.076  21.954  26.287  1.00  0.00    -0.269 OA
ATOM      6  C   UNL A   1      39.185  22.797  26.357  1.00  0.00     0.251 C 
ATOM      7  H   UNL A   1      37.775  21.574  25.626  1.00  0.00     0.163 HD
BRANCH   6   8
ATOM      8  C   UNL A   1      39.479  24.138  26.906  1.00  0.00     0.039 A 
ATOM      9  C   UNL A   1      40.091  25.111  26.114  1.00  0.00     0.014 A 
ATOM     10  C   UNL A   1      39.147  24.420  28.234  1.00  0.00     0.014 A 
ATOM     11  C   UNL A   1      40.510  26.305  26.690  1.00  0.00     0.010 A 
ATOM     12  C   UNL A   1      39.490  25.656  28.788  1.00  0.00     0.010 A 
ATOM     13  C   UNL A   1      40.206  26.596  28.031  1.00  0.00    -0.014 A 
BRANCH  13  14
ATOM     14  C   UNL A   1      40.601  27.912  28.592  1.00  0.00     0.031 A 
ATOM     15  C   UNL A   1      39.600  29.020  28.768  1.00  0.00     0.074 A 
ATOM     16  C   UNL A   1      41.876  28.084  28.990  1.00  0.00     0.049 A 
ATOM     17  N   UNL A   1      39.777  30.211  29.283  1.00  0.00    -0.248 NA
ATOM     18  C   UNL A   1      38.226  28.764  28.306  1.00  0.00     0.031 C 
ATOM     19  C   UNL A   1      42.940  27.084  28.869  1.00  0.00     0.029 A 
ATOM     20  N   UNL A   1      42.488  29.149  29.600  1.00  0.00    -0.354 N 
ATOM     21  C   UNL A   1      38.546  30.851  29.198  1.00  0.00     0.074 A 
ATOM     22  C   UNL A   1      37.635  29.926  28.555  1.00  0.00     0.031 C 
ATOM     23  C   UNL A   1      44.058  27.561  29.436  1.00  0.00     0.029 A 
ATOM     24  C   UNL A   1      43.808  28.919  29.903  1.00  0.00     0.049 A 
ATOM     25  H   UNL A   1      42.027  29.995  29.800  1.00  0.00     0.167 HD
ATOM     26  C   UNL A   1      38.204  32.091  29.622  1.00  0.00     0.031 A 
ATOM     27  C   UNL A   1      44.723  29.716  30.483  1.00  0.00     0.031 A 
ATOM     28  C   UNL A   1      39.110  33.014  30.256  1.00  0.00     0.049 A 
ATOM     29  C   UNL A   1      44.324  31.096  30.910  1.00  0.00     0.074 A 
ATOM     30  C   UNL A   1      38.853  34.290  30.728  1.00  0.00     0.029 A 
ATOM     31  N   UNL A   1      40.450  32.758  30.507  1.00  0.00    -0.354 N 
ATOM     32  N   UNL A   1      43.150  31.675  30.837  1.00  0.00    -0.248 NA
ATOM     33  C   UNL A   1      45.377  31.933  31.501  1.00  0.00     0.031 C 
ATOM     34  C   UNL A   1      40.047  34.823  31.227  1.00  0.00     0.029 A 
ATOM     35  C   UNL A   1      41.035  33.859  31.111  1.00  0.00     0.049 A 
ATOM     36  H   UNL A   1      40.915  31.919  30.289  1.00  0.00     0.167 HD
ATOM     37  C   UNL A   1      43.321  32.939  31.383  1.00  0.00     0.074 A 
ATOM     38  C   UNL A   1      44.703  33.032  31.806  1.00  0.00     0.031 C 
ATOM     39  C   UNL A   1      42.414  33.936  31.518  1.00  0.00     0.031 A 
BRANCH  26  40
ATOM     40  C   UNL A   1      36.785  32.537  29.396  1.00  0.00    -0.014 A 
ATOM     41  C   UNL A   1      35.811  32.389  30.396  1.00  0.00     0.009 A 
ATOM     42  C   UNL A   1      36.431  33.160  28.189  1.00  0.00     0.009 A 
ATOM     43  C   UNL A   1      34.504  32.833  30.181  1.00  0.00     0.001 A 
ATOM     44  C   UNL A   1      35.129  33.625  27.986  1.00  0.00     0.001 A 
ATOM     45  C   UNL A   1      34.166  33.455  28.979  1.00  0.00     0.000 A 
ENDBRANCH  26  40
BRANCH  27  46
ATOM     46  C   UNL A   1      46.112  29.227  30.675  1.00  0.00    -0.014 A 
ATOM     47  C   UNL A   1      47.077  29.398  29.672  1.00  0.00     0.009 A 
ATOM     48  C   UNL A   1      46.478  28.589  31.871  1.00  0.00     0.009 A 
ATOM     49  C   UNL A   1      48.378  28.922  29.855  1.00  0.00     0.001 A 
ATOM     50  C   UNL A   1      47.787  28.141  32.063  1.00  0.00     0.001 A 
ATOM     51  C   UNL A   1      48.732  28.299  31.052  1.00  0.00     0.000 A 
ENDBRANCH  27  46
BRANCH  39  52
ATOM     52  C   UNL A   1      42.891  35.202  32.170  1.00  0.00    -0.014 A 
ATOM     53  C   UNL A   1      43.566  36.187  31.434  1.00  0.00     0.009 A 
ATOM     54  C   UNL A   1      42.651  35.413  33.537  1.00  0.00     0.009 A 
ATOM     55  C   UNL A   1      44.024  37.346  32.063  1.00  0.00     0.001 A 
ATOM     56  C   UNL A   1      43.089  36.585  34.157  1.00  0.00     0.001 A 
ATOM     57  C   UNL A   1      43.783  37.545  33.422  1.00  0.00     0.000 A 
ENDBRANCH  39  52
ENDBRANCH  13  14
ENDBRANCH   6   8
ENDBRANCH   3   4
ENDBRANCH   2   3
ENDBRANCH   1   2
BRANCH   1  58
ATOM     58  C   UNL A   1      33.695  21.732  27.576  1.00  0.00     0.116 C 
BRANCH  58  59
ATOM     59  N   UNL A   1      32.448  22.454  27.778  1.00  0.00    -0.352 N 
ATOM     60  C   UNL A   1      31.639  23.060  26.851  1.00  0.00     0.251 C 
ATOM     61  H   UNL A   1      32.143  22.516  28.711  1.00  0.00     0.163 HD
ATOM     62  O   UNL A   1      30.696  23.756  27.212  1.00  0.00    -0.269 OA
BRANCH  60  63
ATOM     63  C   UNL A   1      31.918  22.885  25.414  1.00  0.00     0.041 A 
ATOM     64  C   UNL A   1      32.232  24.008  24.650  1.00  0.00     0.014 A 
ATOM     65  C   UNL A   1      31.857  21.614  24.828  1.00  0.00     0.039 A 
ATOM     66  C   UNL A   1      32.547  23.847  23.305  1.00  0.00     0.003 A 
ATOM     67  C   UNL A   1      32.179  21.438  23.480  1.00  0.00     0.039 A 
ATOM     68  C   UNL A   1      32.535  22.570  22.733  1.00  0.00     0.026 A 
BRANCH  67  69
ATOM     69  N   UNL A   1      32.174  20.135  22.946  1.00  0.00    -0.356 N 
ATOM     70  H   UNL A   1      31.857  20.068  22.016  1.00  0.00     0.167 HD
BRANCH  69  71
ATOM     71  C   UNL A   1      32.551  18.917  23.534  1.00  0.00     0.039 A 
ATOM     72  C   UNL A   1      32.972  17.868  22.705  1.00  0.00     0.033 A 
ATOM     73  C   UNL A   1      32.627  18.752  24.924  1.00  0.00     0.033 A 
ATOM     74  C   UNL A   1      33.494  16.691  23.247  1.00  0.00     0.088 A 
ATOM     75  C   UNL A   1      33.137  17.576  25.481  1.00  0.00     0.088 A 
ATOM     76  C   UNL A   1      33.587  16.556  24.637  1.00  0.00     0.269 A 
BRANCH  76  77
ATOM     77  N   UNL A   1      34.189  15.347  25.210  1.00  0.00     0.062 N 
ATOM     78  O   UNL A   1      33.440  14.391  25.456  1.00  0.00    -0.258 OA
ATOM     79  O   UNL A   1      35.413  15.349  25.404  1.00  0.00    -0.258 OA
ENDBRANCH  76  77
ENDBRANCH  69  71
ENDBRANCH  67  69
ENDBRANCH  60  63
ENDBRANCH  58  59
ENDBRANCH   1  58
TORSDOF 14
ENDMDL
