MODEL 1
REMARK VINA RESULT:     -11.0      0.000      0.000
REMARK SMILES Cc1csc(C[C@@H](Cc2ccc(Br)cc2)C(=O)NCCCCNC(=O)c2ccc(-c3c4nc(c(-c5ccccc5)c5ccc([nH]5)c(-c5ccccc5)c5nc(c(-c6ccccc6)c6ccc3[nH]6)C=C5)C=C4)cc2)n1
REMARK SMILES IDX 20 1 19 2 18 3 16 4 17 5 7 7 6 8 5 9 1 10 2 11 3 12 74 13
REMARK SMILES IDX 4 14 8 15 9 16 10 17 15 18 11 19 14 20 12 21 13 22 21 23
REMARK SMILES IDX 22 24 23 25 24 26 25 28 26 29 27 30 73 31 28 32 72 33 29 34
REMARK SMILES IDX 30 35 31 36 66 37 32 38 71 39 65 40 67 41 33 42 70 43 64 44
REMARK SMILES IDX 63 45 34 47 56 48 41 49 55 50 42 51 45 52 54 53 68 54 43 55
REMARK SMILES IDX 44 56 53 58 69 59 46 60 35 61 36 62 40 63 37 64 39 65 38 66
REMARK SMILES IDX 57 67 58 68 62 69 59 70 61 71 60 72 47 73 48 74 52 75 49 76
REMARK SMILES IDX 51 77 50 78
REMARK H PARENT 18 6 23 27 67 46 45 57
REMARK Flexibility Score: inf
ROOT
ATOM      1  C   UNL A   1      32.168  29.682  25.216  1.00  0.00     0.023 C 
ENDROOT
BRANCH   1   2
ATOM      2  C   UNL A   1      32.380  28.178  25.315  1.00  0.00     0.116 C 
BRANCH   2   3
ATOM      3  N   UNL A   1      31.368  27.493  26.092  1.00  0.00    -0.356 N 
ATOM      4  C   UNL A   1      30.550  26.457  25.757  1.00  0.00     0.223 C 
ATOM      5  O   UNL A   1      29.934  25.915  26.682  1.00  0.00    -0.275 OA
ATOM      6  H   UNL A   1      31.253  27.830  27.010  1.00  0.00     0.163 HD
BRANCH   4   7
ATOM      7  C   UNL A   1      30.354  25.964  24.322  1.00  0.00     0.089 C 
BRANCH   7   8
ATOM      8  C   UNL A   1      30.834  24.514  24.163  1.00  0.00     0.081 C 
BRANCH   8   9
ATOM      9  C   UNL A   1      32.265  24.278  24.535  1.00  0.00     0.094 A 
ATOM     10  C   UNL A   1      34.605  22.998  26.942  1.00  0.00     0.067 C 
ATOM     11  C   UNL A   1      34.011  23.687  25.770  1.00  0.00     0.048 A 
ATOM     12  C   UNL A   1      34.663  24.440  24.816  1.00  0.00     0.090 A 
ATOM     13  N   UNL A   1      32.644  23.602  25.595  1.00  0.00    -0.247 NA
ATOM     14  S   UNL A   1      33.540  25.038  23.667  1.00  0.00    -0.127 S 
ENDBRANCH   8   9
ENDBRANCH   7   8
BRANCH   7  15
ATOM     15  C   UNL A   1      29.014  26.428  23.703  1.00  0.00     0.049 C 
BRANCH  15  16
ATOM     16  C   UNL A   1      28.850  27.851  23.224  1.00  0.00    -0.047 A 
ATOM     17  C   UNL A   1      27.633  28.534  23.367  1.00  0.00     0.005 A 
ATOM     18  C   UNL A   1      29.922  28.516  22.607  1.00  0.00     0.005 A 
ATOM     19  C   UNL A   1      27.507  29.866  22.962  1.00  0.00     0.016 A 
ATOM     20  C   UNL A   1      29.796  29.843  22.190  1.00  0.00     0.016 A 
ATOM     21  C   UNL A   1      28.591  30.516  22.381  1.00  0.00     0.017 A 
ATOM     22  Br  UNL A   1      28.429  32.321  21.850  1.00  0.00    -0.051 Br
ENDBRANCH  15  16
ENDBRANCH   7  15
ENDBRANCH   4   7
ENDBRANCH   2   3
ENDBRANCH   1   2
BRANCH   1  23
ATOM     23  C   UNL A   1      31.821  30.363  26.537  1.00  0.00     0.023 C 
BRANCH  23  24
ATOM     24  C   UNL A   1      32.885  31.299  27.106  1.00  0.00     0.116 C 
BRANCH  24  25
ATOM     25  N   UNL A   1      32.411  32.648  27.385  1.00  0.00    -0.352 N 
ATOM     26  C   UNL A   1      33.016  33.640  28.122  1.00  0.00     0.251 C 
ATOM     27  H   UNL A   1      31.539  32.882  26.991  1.00  0.00     0.163 HD
ATOM     28  O   UNL A   1      32.435  34.697  28.346  1.00  0.00    -0.269 OA
BRANCH  26  29
ATOM     29  C   UNL A   1      34.354  33.396  28.700  1.00  0.00     0.039 A 
ATOM     30  C   UNL A   1      34.440  32.761  29.940  1.00  0.00     0.014 A 
ATOM     31  C   UNL A   1      35.511  33.722  27.988  1.00  0.00     0.014 A 
ATOM     32  C   UNL A   1      35.686  32.351  30.417  1.00  0.00     0.010 A 
ATOM     33  C   UNL A   1      36.744  33.250  28.430  1.00  0.00     0.010 A 
ATOM     34  C   UNL A   1      36.839  32.539  29.636  1.00  0.00    -0.014 A 
BRANCH  34  35
ATOM     35  C   UNL A   1      38.138  31.947  30.037  1.00  0.00     0.031 A 
ATOM     36  C   UNL A   1      39.069  32.693  30.947  1.00  0.00     0.074 A 
ATOM     37  C   UNL A   1      38.510  30.761  29.515  1.00  0.00     0.049 A 
ATOM     38  N   UNL A   1      40.262  32.353  31.364  1.00  0.00    -0.248 NA
ATOM     39  C   UNL A   1      38.610  34.003  31.436  1.00  0.00     0.031 C 
ATOM     40  C   UNL A   1      37.719  29.959  28.577  1.00  0.00     0.029 A 
ATOM     41  N   UNL A   1      39.654  30.024  29.695  1.00  0.00    -0.354 N 
ATOM     42  C   UNL A   1      40.701  33.408  32.150  1.00  0.00     0.074 A 
ATOM     43  C   UNL A   1      39.668  34.420  32.117  1.00  0.00     0.031 C 
ATOM     44  C   UNL A   1      38.387  28.829  28.291  1.00  0.00     0.029 A 
ATOM     45  C   UNL A   1      39.665  28.843  28.994  1.00  0.00     0.049 A 
ATOM     46  H   UNL A   1      40.396  30.315  30.272  1.00  0.00     0.167 HD
ATOM     47  C   UNL A   1      41.854  33.519  32.853  1.00  0.00     0.031 A 
ATOM     48  C   UNL A   1      40.600  27.877  28.924  1.00  0.00     0.031 A 
ATOM     49  C   UNL A   1      42.879  32.512  32.896  1.00  0.00     0.049 A 
ATOM     50  C   UNL A   1      41.869  28.025  29.711  1.00  0.00     0.074 A 
ATOM     51  C   UNL A   1      44.058  32.509  33.620  1.00  0.00     0.029 A 
ATOM     52  N   UNL A   1      42.846  31.324  32.181  1.00  0.00    -0.354 N 
ATOM     53  N   UNL A   1      42.239  29.001  30.503  1.00  0.00    -0.248 NA
ATOM     54  C   UNL A   1      42.846  26.932  29.601  1.00  0.00     0.031 C 
ATOM     55  C   UNL A   1      44.757  31.336  33.314  1.00  0.00     0.029 A 
ATOM     56  C   UNL A   1      43.993  30.590  32.433  1.00  0.00     0.049 A 
ATOM     57  H   UNL A   1      42.115  31.045  31.582  1.00  0.00     0.167 HD
ATOM     58  C   UNL A   1      43.480  28.630  31.006  1.00  0.00     0.074 A 
ATOM     59  C   UNL A   1      43.792  27.333  30.439  1.00  0.00     0.031 C 
ATOM     60  C   UNL A   1      44.288  29.303  31.860  1.00  0.00     0.031 A 
BRANCH  47  61
ATOM     61  C   UNL A   1      42.062  34.785  33.635  1.00  0.00    -0.014 A 
ATOM     62  C   UNL A   1      42.810  35.848  33.105  1.00  0.00     0.009 A 
ATOM     63  C   UNL A   1      41.482  34.926  34.905  1.00  0.00     0.009 A 
ATOM     64  C   UNL A   1      43.005  37.014  33.847  1.00  0.00     0.001 A 
ATOM     65  C   UNL A   1      41.658  36.105  35.634  1.00  0.00     0.001 A 
ATOM     66  C   UNL A   1      42.426  37.143  35.109  1.00  0.00     0.000 A 
ENDBRANCH  47  61
BRANCH  48  67
ATOM     67  C   UNL A   1      40.360  26.668  28.095  1.00  0.00    -0.014 A 
ATOM     68  C   UNL A   1      40.890  26.583  26.798  1.00  0.00     0.009 A 
ATOM     69  C   UNL A   1      39.598  25.599  28.590  1.00  0.00     0.009 A 
ATOM     70  C   UNL A   1      40.639  25.461  26.004  1.00  0.00     0.001 A 
ATOM     71  C   UNL A   1      39.370  24.468  27.803  1.00  0.00     0.001 A 
ATOM     72  C   UNL A   1      39.883  24.404  26.508  1.00  0.00     0.000 A 
ENDBRANCH  48  67
BRANCH  60  73
ATOM     73  C   UNL A   1      45.572  28.635  32.255  1.00  0.00    -0.014 A 
ATOM     74  C   UNL A   1      45.630  27.770  33.358  1.00  0.00     0.009 A 
ATOM     75  C   UNL A   1      46.730  28.848  31.491  1.00  0.00     0.009 A 
ATOM     76  C   UNL A   1      46.834  27.153  33.706  1.00  0.00     0.001 A 
ATOM     77  C   UNL A   1      47.925  28.211  31.827  1.00  0.00     0.001 A 
ATOM     78  C   UNL A   1      47.978  27.371  32.938  1.00  0.00     0.000 A 
ENDBRANCH  60  73
ENDBRANCH  34  35
ENDBRANCH  26  29
ENDBRANCH  24  25
ENDBRANCH  23  24
ENDBRANCH   1  23
TORSDOF 15
ENDMDL
MODEL 2
REMARK VINA RESULT:     -10.9      2.261      3.454
REMARK SMILES Cc1csc(C[C@@H](Cc2ccc(Br)cc2)C(=O)NCCCCNC(=O)c2ccc(-c3c4nc(c(-c5ccccc5)c5ccc([nH]5)c(-c5ccccc5)c5nc(c(-c6ccccc6)c6ccc3[nH]6)C=C5)C=C4)cc2)n1
REMARK SMILES IDX 20 1 19 2 18 3 16 4 17 5 7 7 6 8 5 9 1 10 2 11 3 12 74 13
REMARK SMILES IDX 4 14 8 15 9 16 10 17 15 18 11 19 14 20 12 21 13 22 21 23
REMARK SMILES IDX 22 24 23 25 24 26 25 28 26 29 27 30 73 31 28 32 72 33 29 34
REMARK SMILES IDX 30 35 31 36 66 37 32 38 71 39 65 40 67 41 33 42 70 43 64 44
REMARK SMILES IDX 63 45 34 47 56 48 41 49 55 50 42 51 45 52 54 53 68 54 43 55
REMARK SMILES IDX 44 56 53 58 69 59 46 60 35 61 36 62 40 63 37 64 39 65 38 66
REMARK SMILES IDX 57 67 58 68 62 69 59 70 61 71 60 72 47 73 48 74 52 75 49 76
REMARK SMILES IDX 51 77 50 78
REMARK H PARENT 18 6 23 27 67 46 45 57
REMARK Flexibility Score: inf
ROOT
ATOM      1  C   UNL A   1      31.406  27.495  26.441  1.00  0.00     0.023 C 
ENDROOT
BRANCH   1   2
ATOM      2  C   UNL A   1      32.041  26.119  26.577  1.00  0.00     0.116 C 
BRANCH   2   3
ATOM      3  N   UNL A   1      31.096  25.064  26.882  1.00  0.00    -0.356 N 
ATOM      4  C   UNL A   1      30.914  23.848  26.297  1.00  0.00     0.223 C 
ATOM      5  O   UNL A   1      30.187  23.047  26.896  1.00  0.00    -0.275 OA
ATOM      6  H   UNL A   1      30.490  25.257  27.633  1.00  0.00     0.163 HD
BRANCH   4   7
ATOM      7  C   UNL A   1      31.536  23.452  24.957  1.00  0.00     0.089 C 
BRANCH   7   8
ATOM      8  C   UNL A   1      32.215  22.077  25.045  1.00  0.00     0.081 C 
BRANCH   8   9
ATOM      9  C   UNL A   1      33.712  22.109  25.040  1.00  0.00     0.094 A 
ATOM     10  C   UNL A   1      36.727  22.773  23.203  1.00  0.00     0.067 C 
ATOM     11  C   UNL A   1      35.773  22.330  24.249  1.00  0.00     0.048 A 
ATOM     12  C   UNL A   1      36.060  21.665  25.423  1.00  0.00     0.090 A 
ATOM     13  N   UNL A   1      34.430  22.578  24.045  1.00  0.00    -0.247 NA
ATOM     14  S   UNL A   1      34.616  21.362  26.297  1.00  0.00    -0.127 S 
ENDBRANCH   8   9
ENDBRANCH   7   8
BRANCH   7  15
ATOM     15  C   UNL A   1      30.648  23.821  23.745  1.00  0.00     0.049 C 
BRANCH  15  16
ATOM     16  C   UNL A   1      30.404  25.269  23.394  1.00  0.00    -0.047 A 
ATOM     17  C   UNL A   1      29.240  25.935  23.806  1.00  0.00     0.005 A 
ATOM     18  C   UNL A   1      31.345  25.977  22.628  1.00  0.00     0.005 A 
ATOM     19  C   UNL A   1      29.048  27.288  23.514  1.00  0.00     0.016 A 
ATOM     20  C   UNL A   1      31.149  27.327  22.323  1.00  0.00     0.016 A 
ATOM     21  C   UNL A   1      30.006  27.979  22.779  1.00  0.00     0.017 A 
ATOM     22  Br  UNL A   1      29.758  29.812  22.400  1.00  0.00    -0.051 Br
ENDBRANCH  15  16
ENDBRANCH   7  15
ENDBRANCH   4   7
ENDBRANCH   2   3
ENDBRANCH   1   2
BRANCH   1  23
ATOM     23  C   UNL A   1      31.865  28.512  27.482  1.00  0.00     0.023 C 
BRANCH  23  24
ATOM     24  C   UNL A   1      33.269  29.083  27.285  1.00  0.00     0.116 C 
BRANCH  24  25
ATOM     25  N   UNL A   1      33.423  30.462  27.728  1.00  0.00    -0.352 N 
ATOM     26  C   UNL A   1      34.520  31.067  28.296  1.00  0.00     0.251 C 
ATOM     27  H   UNL A   1      32.635  31.039  27.603  1.00  0.00     0.163 HD
ATOM     28  O   UNL A   1      34.456  32.222  28.708  1.00  0.00    -0.269 OA
BRANCH  26  29
ATOM     29  C   UNL A   1      35.766  30.292  28.466  1.00  0.00     0.039 A 
ATOM     30  C   UNL A   1      36.686  30.266  27.416  1.00  0.00     0.014 A 
ATOM     31  C   UNL A   1      36.057  29.660  29.678  1.00  0.00     0.014 A 
ATOM     32  C   UNL A   1      37.947  29.703  27.619  1.00  0.00     0.010 A 
ATOM     33  C   UNL A   1      37.337  29.163  29.902  1.00  0.00     0.010 A 
ATOM     34  C   UNL A   1      38.301  29.202  28.883  1.00  0.00    -0.014 A 
BRANCH  34  35
ATOM     35  C   UNL A   1      39.691  28.772  29.171  1.00  0.00     0.031 A 
ATOM     36  C   UNL A   1      40.652  29.699  29.854  1.00  0.00     0.074 A 
ATOM     37  C   UNL A   1      40.107  27.562  28.745  1.00  0.00     0.049 A 
ATOM     38  N   UNL A   1      41.915  29.511  30.143  1.00  0.00    -0.248 NA
ATOM     39  C   UNL A   1      40.135  31.021  30.244  1.00  0.00     0.031 C 
ATOM     40  C   UNL A   1      39.285  26.587  28.022  1.00  0.00     0.029 A 
ATOM     41  N   UNL A   1      41.328  26.947  28.854  1.00  0.00    -0.354 N 
ATOM     42  C   UNL A   1      42.345  30.690  30.734  1.00  0.00     0.074 A 
ATOM     43  C   UNL A   1      41.225  31.604  30.723  1.00  0.00     0.031 C 
ATOM     44  C   UNL A   1      40.016  25.486  27.782  1.00  0.00     0.029 A 
ATOM     45  C   UNL A   1      41.365  25.691  28.300  1.00  0.00     0.049 A 
ATOM     46  H   UNL A   1      42.106  27.367  29.288  1.00  0.00     0.167 HD
ATOM     47  C   UNL A   1      43.561  30.980  31.257  1.00  0.00     0.031 A 
ATOM     48  C   UNL A   1      42.371  24.801  28.217  1.00  0.00     0.031 A 
ATOM     49  C   UNL A   1      44.674  30.071  31.279  1.00  0.00     0.049 A 
ATOM     50  C   UNL A   1      43.709  25.148  28.804  1.00  0.00     0.074 A 
ATOM     51  C   UNL A   1      45.929  30.255  31.833  1.00  0.00     0.029 A 
ATOM     52  N   UNL A   1      44.666  28.803  30.717  1.00  0.00    -0.354 N 
ATOM     53  N   UNL A   1      44.080  26.244  29.419  1.00  0.00    -0.248 NA
ATOM     54  C   UNL A   1      44.765  24.131  28.690  1.00  0.00     0.031 C 
ATOM     55  C   UNL A   1      46.693  29.112  31.574  1.00  0.00     0.029 A 
ATOM     56  C   UNL A   1      45.900  28.200  30.897  1.00  0.00     0.049 A 
ATOM     57  H   UNL A   1      43.897  28.392  30.260  1.00  0.00     0.167 HD
ATOM     58  C   UNL A   1      45.403  26.040  29.790  1.00  0.00     0.074 A 
ATOM     59  C   UNL A   1      45.764  24.710  29.340  1.00  0.00     0.031 C 
ATOM     60  C   UNL A   1      46.243  26.878  30.442  1.00  0.00     0.031 A 
BRANCH  47  61
ATOM     61  C   UNL A   1      43.742  32.348  31.851  1.00  0.00    -0.014 A 
ATOM     62  C   UNL A   1      44.245  33.410  31.083  1.00  0.00     0.009 A 
ATOM     63  C   UNL A   1      43.384  32.585  33.187  1.00  0.00     0.009 A 
ATOM     64  C   UNL A   1      44.420  34.673  31.651  1.00  0.00     0.001 A 
ATOM     65  C   UNL A   1      43.536  33.856  33.745  1.00  0.00     0.001 A 
ATOM     66  C   UNL A   1      44.062  34.896  32.979  1.00  0.00     0.000 A 
ENDBRANCH  47  61
BRANCH  48  67
ATOM     67  C   UNL A   1      42.147  23.480  27.575  1.00  0.00    -0.014 A 
ATOM     68  C   UNL A   1      41.551  22.434  28.297  1.00  0.00     0.009 A 
ATOM     69  C   UNL A   1      42.532  23.255  26.244  1.00  0.00     0.009 A 
ATOM     70  C   UNL A   1      41.368  21.182  27.706  1.00  0.00     0.001 A 
ATOM     71  C   UNL A   1      42.326  22.009  25.649  1.00  0.00     0.001 A 
ATOM     72  C   UNL A   1      41.752  20.972  26.383  1.00  0.00     0.000 A 
ENDBRANCH  48  67
BRANCH  60  73
ATOM     73  C   UNL A   1      47.624  26.370  30.736  1.00  0.00    -0.014 A 
ATOM     74  C   UNL A   1      47.938  25.799  31.978  1.00  0.00     0.009 A 
ATOM     75  C   UNL A   1      48.613  26.432  29.742  1.00  0.00     0.009 A 
ATOM     76  C   UNL A   1      49.228  25.327  32.230  1.00  0.00     0.001 A 
ATOM     77  C   UNL A   1      49.894  25.937  29.988  1.00  0.00     0.001 A 
ATOM     78  C   UNL A   1      50.202  25.392  31.234  1.00  0.00     0.000 A 
ENDBRANCH  60  73
ENDBRANCH  34  35
ENDBRANCH  26  29
ENDBRANCH  24  25
ENDBRANCH  23  24
ENDBRANCH   1  23
TORSDOF 15
ENDMDL
MODEL 3
REMARK VINA RESULT:     -10.7      0.726      5.985
REMARK SMILES Cc1csc(C[C@@H](Cc2ccc(Br)cc2)C(=O)NCCCCNC(=O)c2ccc(-c3c4nc(c(-c5ccccc5)c5ccc([nH]5)c(-c5ccccc5)c5nc(c(-c6ccccc6)c6ccc3[nH]6)C=C5)C=C4)cc2)n1
REMARK SMILES IDX 20 1 19 2 18 3 16 4 17 5 7 7 6 8 5 9 1 10 2 11 3 12 74 13
REMARK SMILES IDX 4 14 8 15 9 16 10 17 15 18 11 19 14 20 12 21 13 22 21 23
REMARK SMILES IDX 22 24 23 25 24 26 25 28 26 29 27 30 73 31 28 32 72 33 29 34
REMARK SMILES IDX 30 35 31 36 66 37 32 38 71 39 65 40 67 41 33 42 70 43 64 44
REMARK SMILES IDX 63 45 34 47 56 48 41 49 55 50 42 51 45 52 54 53 68 54 43 55
REMARK SMILES IDX 44 56 53 58 69 59 46 60 35 61 36 62 40 63 37 64 39 65 38 66
REMARK SMILES IDX 57 67 58 68 62 69 59 70 61 71 60 72 47 73 48 74 52 75 49 76
REMARK SMILES IDX 51 77 50 78
REMARK H PARENT 18 6 23 27 67 46 45 57
REMARK Flexibility Score: inf
ROOT
ATOM      1  C   UNL A   1      32.237  28.713  27.487  1.00  0.00     0.023 C 
ENDROOT
BRANCH   1   2
ATOM      2  C   UNL A   1      32.044  27.542  26.535  1.00  0.00     0.116 C 
BRANCH   2   3
ATOM      3  N   UNL A   1      30.816  26.805  26.754  1.00  0.00    -0.356 N 
ATOM      4  C   UNL A   1      30.294  25.743  26.080  1.00  0.00     0.223 C 
ATOM      5  O   UNL A   1      29.342  25.162  26.613  1.00  0.00    -0.275 OA
ATOM      6  H   UNL A   1      30.273  27.121  27.512  1.00  0.00     0.163 HD
BRANCH   4   7
ATOM      7  C   UNL A   1      30.809  25.268  24.721  1.00  0.00     0.089 C 
BRANCH   7   8
ATOM      8  C   UNL A   1      31.361  23.837  24.806  1.00  0.00     0.081 C 
BRANCH   8   9
ATOM      9  C   UNL A   1      32.821  23.704  24.501  1.00  0.00     0.094 A 
ATOM     10  C   UNL A   1      36.203  23.899  25.699  1.00  0.00     0.067 C 
ATOM     11  C   UNL A   1      35.016  23.787  24.816  1.00  0.00     0.048 A 
ATOM     12  C   UNL A   1      34.996  23.703  23.439  1.00  0.00     0.090 A 
ATOM     13  N   UNL A   1      33.768  23.784  25.408  1.00  0.00    -0.247 NA
ATOM     14  S   UNL A   1      33.379  23.600  22.878  1.00  0.00    -0.127 S 
ENDBRANCH   8   9
ENDBRANCH   7   8
BRANCH   7  15
ATOM     15  C   UNL A   1      29.898  25.697  23.546  1.00  0.00     0.049 C 
BRANCH  15  16
ATOM     16  C   UNL A   1      29.442  27.131  23.422  1.00  0.00    -0.047 A 
ATOM     17  C   UNL A   1      28.080  27.467  23.423  1.00  0.00     0.005 A 
ATOM     18  C   UNL A   1      30.386  28.162  23.288  1.00  0.00     0.005 A 
ATOM     19  C   UNL A   1      27.672  28.802  23.354  1.00  0.00     0.016 A 
ATOM     20  C   UNL A   1      29.980  29.497  23.207  1.00  0.00     0.016 A 
ATOM     21  C   UNL A   1      28.624  29.811  23.253  1.00  0.00     0.017 A 
ATOM     22  Br  UNL A   1      28.075  31.617  23.180  1.00  0.00    -0.051 Br
ENDBRANCH  15  16
ENDBRANCH   7  15
ENDBRANCH   4   7
ENDBRANCH   2   3
ENDBRANCH   1   2
BRANCH   1  23
ATOM     23  C   UNL A   1      31.936  30.081  26.881  1.00  0.00     0.023 C 
BRANCH  23  24
ATOM     24  C   UNL A   1      33.010  31.151  27.079  1.00  0.00     0.116 C 
BRANCH  24  25
ATOM     25  N   UNL A   1      32.486  32.489  27.319  1.00  0.00    -0.352 N 
ATOM     26  C   UNL A   1      33.045  33.517  28.042  1.00  0.00     0.251 C 
ATOM     27  H   UNL A   1      31.613  32.684  26.906  1.00  0.00     0.163 HD
ATOM     28  O   UNL A   1      32.426  34.559  28.231  1.00  0.00    -0.269 OA
BRANCH  26  29
ATOM     29  C   UNL A   1      34.381  33.332  28.646  1.00  0.00     0.039 A 
ATOM     30  C   UNL A   1      34.468  32.734  29.905  1.00  0.00     0.014 A 
ATOM     31  C   UNL A   1      35.539  33.675  27.943  1.00  0.00     0.014 A 
ATOM     32  C   UNL A   1      35.718  32.377  30.412  1.00  0.00     0.010 A 
ATOM     33  C   UNL A   1      36.778  33.254  28.416  1.00  0.00     0.010 A 
ATOM     34  C   UNL A   1      36.876  32.580  29.643  1.00  0.00    -0.014 A 
BRANCH  34  35
ATOM     35  C   UNL A   1      38.187  32.041  30.080  1.00  0.00     0.031 A 
ATOM     36  C   UNL A   1      38.683  30.724  29.559  1.00  0.00     0.074 A 
ATOM     37  C   UNL A   1      38.898  32.711  31.009  1.00  0.00     0.049 A 
ATOM     38  N   UNL A   1      39.779  30.077  29.866  1.00  0.00    -0.248 NA
ATOM     39  C   UNL A   1      37.827  30.031  28.584  1.00  0.00     0.031 C 
ATOM     40  C   UNL A   1      38.500  33.976  31.634  1.00  0.00     0.029 A 
ATOM     41  N   UNL A   1      40.103  32.418  31.596  1.00  0.00    -0.354 N 
ATOM     42  C   UNL A   1      39.738  28.899  29.135  1.00  0.00     0.074 A 
ATOM     43  C   UNL A   1      38.489  28.897  28.404  1.00  0.00     0.031 C 
ATOM     44  C   UNL A   1      39.459  34.365  32.490  1.00  0.00     0.029 A 
ATOM     45  C   UNL A   1      40.518  33.362  32.503  1.00  0.00     0.049 A 
ATOM     46  H   UNL A   1      40.621  31.608  31.387  1.00  0.00     0.167 HD
ATOM     47  C   UNL A   1      40.665  27.914  29.063  1.00  0.00     0.031 A 
ATOM     48  C   UNL A   1      41.629  33.416  33.262  1.00  0.00     0.031 A 
ATOM     49  C   UNL A   1      41.911  27.916  29.780  1.00  0.00     0.049 A 
ATOM     50  C   UNL A   1      42.640  32.310  33.164  1.00  0.00     0.074 A 
ATOM     51  C   UNL A   1      42.937  26.989  29.732  1.00  0.00     0.029 A 
ATOM     52  N   UNL A   1      42.299  28.897  30.680  1.00  0.00    -0.354 N 
ATOM     53  N   UNL A   1      42.615  31.234  32.416  1.00  0.00    -0.248 NA
ATOM     54  C   UNL A   1      43.835  32.431  34.011  1.00  0.00     0.031 C 
ATOM     55  C   UNL A   1      43.931  27.390  30.632  1.00  0.00     0.029 A 
ATOM     56  C   UNL A   1      43.542  28.589  31.207  1.00  0.00     0.049 A 
ATOM     57  H   UNL A   1      41.769  29.695  30.909  1.00  0.00     0.167 HD
ATOM     58  C   UNL A   1      43.802  30.563  32.681  1.00  0.00     0.074 A 
ATOM     59  C   UNL A   1      44.528  31.360  33.649  1.00  0.00     0.031 C 
ATOM     60  C   UNL A   1      44.249  29.391  32.169  1.00  0.00     0.031 A 
BRANCH  47  61
ATOM     61  C   UNL A   1      40.356  26.746  28.169  1.00  0.00    -0.014 A 
ATOM     62  C   UNL A   1      40.844  26.692  26.853  1.00  0.00     0.009 A 
ATOM     63  C   UNL A   1      39.590  25.675  28.654  1.00  0.00     0.009 A 
ATOM     64  C   UNL A   1      40.540  25.607  26.030  1.00  0.00     0.001 A 
ATOM     65  C   UNL A   1      39.310  24.579  27.836  1.00  0.00     0.001 A 
ATOM     66  C   UNL A   1      39.777  24.550  26.522  1.00  0.00     0.000 A 
ENDBRANCH  47  61
BRANCH  48  67
ATOM     67  C   UNL A   1      41.859  34.573  34.165  1.00  0.00    -0.014 A 
ATOM     68  C   UNL A   1      42.456  35.745  33.675  1.00  0.00     0.009 A 
ATOM     69  C   UNL A   1      41.491  34.511  35.517  1.00  0.00     0.009 A 
ATOM     70  C   UNL A   1      42.703  36.823  34.528  1.00  0.00     0.001 A 
ATOM     71  C   UNL A   1      41.717  35.600  36.362  1.00  0.00     0.001 A 
ATOM     72  C   UNL A   1      42.330  36.751  35.869  1.00  0.00     0.000 A 
ENDBRANCH  48  67
BRANCH  60  73
ATOM     73  C   UNL A   1      45.598  28.918  32.624  1.00  0.00    -0.014 A 
ATOM     74  C   UNL A   1      46.767  29.308  31.954  1.00  0.00     0.009 A 
ATOM     75  C   UNL A   1      45.701  28.100  33.760  1.00  0.00     0.009 A 
ATOM     76  C   UNL A   1      48.014  28.861  32.397  1.00  0.00     0.001 A 
ATOM     77  C   UNL A   1      46.950  27.675  34.214  1.00  0.00     0.001 A 
ATOM     78  C   UNL A   1      48.104  28.049  33.528  1.00  0.00     0.000 A 
ENDBRANCH  60  73
ENDBRANCH  34  35
ENDBRANCH  26  29
ENDBRANCH  24  25
ENDBRANCH  23  24
ENDBRANCH   1  23
TORSDOF 15
ENDMDL
