MODEL 1
REMARK VINA RESULT:     -10.2      0.000      0.000
REMARK SMILES Cc1nsc(N(C)C(=O)[C@@H](C)CCC[C@H](C)[NH3+])c1C(=O)NCCCCNC(=O)c1ccc(-c2c3nc(c(-c4ccccc4)c4ccc([nH]4)c(-c4ccccc4)c4nc(c(-c5ccccc5)c5ccc2[nH]5)C=C4)C=C3)cc1
REMARK SMILES IDX 1 1 2 2 3 3 4 4 5 5 18 6 19 7 20 8 21 9 22 11 23 12 24 13
REMARK SMILES IDX 25 14 26 15 27 16 28 18 29 19 30 20 76 21 31 22 75 23 32 24
REMARK SMILES IDX 33 25 34 26 69 27 35 28 74 29 68 30 70 31 36 32 73 33 67 34
REMARK SMILES IDX 66 35 37 37 59 38 44 39 58 40 45 41 48 42 57 43 71 44 46 45
REMARK SMILES IDX 47 46 56 48 72 49 49 50 38 51 39 52 43 53 40 54 42 55 41 56
REMARK SMILES IDX 60 57 61 58 65 59 62 60 64 61 63 62 50 63 51 64 55 65 52 66
REMARK SMILES IDX 54 67 53 68 6 69 7 70 8 71 9 72 10 73 11 74 12 75 13 76
REMARK SMILES IDX 14 77 15 78 16 79 17 80
REMARK H PARENT 21 10 26 17 70 36 48 47 17 81 17 82 17 83
REMARK Flexibility Score: inf
ROOT
ATOM      1  C   UNL A   1      32.853  20.000  23.992  1.00  0.00     0.069 C 
ATOM      2  C   UNL A   1      32.406  21.329  24.500  1.00  0.00     0.066 A 
ATOM      3  N   UNL A   1      31.412  21.273  25.382  1.00  0.00    -0.195 NA
ATOM      4  S   UNL A   1      31.158  22.758  25.996  1.00  0.00    -0.017 S 
ATOM      5  C   UNL A   1      32.319  23.601  25.042  1.00  0.00     0.131 A 
ATOM      6  C   UNL A   1      32.926  22.663  24.183  1.00  0.00     0.097 A 
ENDROOT
BRANCH   6   7
ATOM      7  C   UNL A   1      34.028  22.967  23.262  1.00  0.00     0.256 C 
ATOM      8  O   UNL A   1      33.813  23.473  22.158  1.00  0.00    -0.269 OA
ATOM      9  N   UNL A   1      35.351  22.715  23.607  1.00  0.00    -0.352 N 
ATOM     10  H   UNL A   1      35.986  22.682  22.855  1.00  0.00     0.163 HD
BRANCH   9  11
ATOM     11  C   UNL A   1      35.924  22.494  24.919  1.00  0.00     0.116 C 
BRANCH  11  12
ATOM     12  C   UNL A   1      36.179  21.059  25.390  1.00  0.00     0.023 C 
BRANCH  12  13
ATOM     13  C   UNL A   1      37.413  20.301  24.899  1.00  0.00     0.023 C 
BRANCH  13  14
ATOM     14  C   UNL A   1      38.716  20.615  25.609  1.00  0.00     0.116 C 
BRANCH  14  15
ATOM     15  N   UNL A   1      39.670  19.506  25.706  1.00  0.00    -0.352 N 
ATOM     16  C   UNL A   1      41.035  19.598  25.947  1.00  0.00     0.251 C 
ATOM     17  H   UNL A   1      39.304  18.600  25.587  1.00  0.00     0.163 HD
ATOM     18  O   UNL A   1      41.791  18.656  25.701  1.00  0.00    -0.269 OA
BRANCH  16  19
ATOM     19  C   UNL A   1      41.573  20.847  26.520  1.00  0.00     0.039 A 
ATOM     20  C   UNL A   1      42.123  21.872  25.743  1.00  0.00     0.014 A 
ATOM     21  C   UNL A   1      41.465  20.995  27.899  1.00  0.00     0.014 A 
ATOM     22  C   UNL A   1      42.485  23.066  26.371  1.00  0.00     0.010 A 
ATOM     23  C   UNL A   1      41.595  22.229  28.465  1.00  0.00     0.010 A 
ATOM     24  C   UNL A   1      42.197  23.240  27.735  1.00  0.00    -0.014 A 
BRANCH  24  25
ATOM     25  C   UNL A   1      42.388  24.509  28.424  1.00  0.00     0.031 A 
ATOM     26  C   UNL A   1      41.321  25.494  28.130  1.00  0.00     0.074 A 
ATOM     27  C   UNL A   1      43.294  24.677  29.417  1.00  0.00     0.049 A 
ATOM     28  N   UNL A   1      41.417  26.536  27.376  1.00  0.00    -0.248 NA
ATOM     29  C   UNL A   1      39.944  25.194  28.560  1.00  0.00     0.031 C 
ATOM     30  C   UNL A   1      44.181  23.661  30.008  1.00  0.00     0.029 A 
ATOM     31  N   UNL A   1      43.542  25.767  30.198  1.00  0.00    -0.354 N 
ATOM     32  C   UNL A   1      40.181  27.166  27.454  1.00  0.00     0.074 A 
ATOM     33  C   UNL A   1      39.266  26.191  27.985  1.00  0.00     0.031 C 
ATOM     34  C   UNL A   1      44.683  24.112  31.180  1.00  0.00     0.029 A 
ATOM     35  C   UNL A   1      44.306  25.504  31.335  1.00  0.00     0.049 A 
ATOM     36  H   UNL A   1      43.209  26.667  29.977  1.00  0.00     0.167 HD
ATOM     37  C   UNL A   1      40.104  28.526  27.409  1.00  0.00     0.031 A 
ATOM     38  C   UNL A   1      44.618  26.371  32.330  1.00  0.00     0.031 A 
ATOM     39  C   UNL A   1      41.375  29.093  27.025  1.00  0.00     0.049 A 
ATOM     40  C   UNL A   1      44.462  27.731  31.779  1.00  0.00     0.074 A 
ATOM     41  C   UNL A   1      42.145  29.148  25.885  1.00  0.00     0.029 A 
ATOM     42  N   UNL A   1      42.202  29.341  28.093  1.00  0.00    -0.354 N 
ATOM     43  N   UNL A   1      45.234  28.206  30.845  1.00  0.00    -0.248 NA
ATOM     44  C   UNL A   1      43.211  28.446  31.981  1.00  0.00     0.031 C 
ATOM     45  C   UNL A   1      43.499  29.196  26.334  1.00  0.00     0.029 A 
ATOM     46  C   UNL A   1      43.516  29.240  27.728  1.00  0.00     0.049 A 
ATOM     47  H   UNL A   1      41.891  29.563  29.000  1.00  0.00     0.167 HD
ATOM     48  C   UNL A   1      44.381  28.949  30.050  1.00  0.00     0.074 A 
ATOM     49  C   UNL A   1      43.217  29.215  30.889  1.00  0.00     0.031 C 
ATOM     50  C   UNL A   1      44.563  28.997  28.698  1.00  0.00     0.031 A 
BRANCH  37  51
ATOM     51  C   UNL A   1      39.124  29.347  28.222  1.00  0.00    -0.014 A 
ATOM     52  C   UNL A   1      37.900  29.703  27.622  1.00  0.00     0.009 A 
ATOM     53  C   UNL A   1      39.464  30.032  29.404  1.00  0.00     0.009 A 
ATOM     54  C   UNL A   1      37.104  30.735  28.134  1.00  0.00     0.001 A 
ATOM     55  C   UNL A   1      38.655  31.040  29.937  1.00  0.00     0.001 A 
ATOM     56  C   UNL A   1      37.488  31.410  29.287  1.00  0.00     0.000 A 
ENDBRANCH  37  51
BRANCH  38  57
ATOM     57  C   UNL A   1      44.880  26.149  33.767  1.00  0.00    -0.014 A 
ATOM     58  C   UNL A   1      45.867  26.883  34.447  1.00  0.00     0.009 A 
ATOM     59  C   UNL A   1      43.945  25.439  34.541  1.00  0.00     0.009 A 
ATOM     60  C   UNL A   1      45.885  26.947  35.848  1.00  0.00     0.001 A 
ATOM     61  C   UNL A   1      43.961  25.506  35.939  1.00  0.00     0.001 A 
ATOM     62  C   UNL A   1      44.920  26.275  36.592  1.00  0.00     0.000 A 
ENDBRANCH  38  57
BRANCH  50  63
ATOM     63  C   UNL A   1      45.917  28.602  28.172  1.00  0.00    -0.014 A 
ATOM     64  C   UNL A   1      46.295  27.277  27.891  1.00  0.00     0.009 A 
ATOM     65  C   UNL A   1      46.817  29.633  27.870  1.00  0.00     0.009 A 
ATOM     66  C   UNL A   1      47.555  26.998  27.348  1.00  0.00     0.001 A 
ATOM     67  C   UNL A   1      48.063  29.355  27.310  1.00  0.00     0.001 A 
ATOM     68  C   UNL A   1      48.436  28.038  27.056  1.00  0.00     0.000 A 
ENDBRANCH  50  63
ENDBRANCH  24  25
ENDBRANCH  16  19
ENDBRANCH  14  15
ENDBRANCH  13  14
ENDBRANCH  12  13
ENDBRANCH  11  12
ENDBRANCH   9  11
ENDBRANCH   6   7
BRANCH   5  69
ATOM     69  N   UNL A   1      32.446  25.000  25.301  1.00  0.00    -0.305 N 
ATOM     70  C   UNL A   1      33.754  25.609  25.580  1.00  0.00     0.154 C 
BRANCH  69  71
ATOM     71  C   UNL A   1      31.278  25.763  25.388  1.00  0.00     0.230 C 
ATOM     72  O   UNL A   1      30.807  26.108  26.481  1.00  0.00    -0.274 OA
BRANCH  71  73
ATOM     73  C   UNL A   1      30.591  26.316  24.112  1.00  0.00     0.076 C 
ATOM     74  C   UNL A   1      29.066  26.368  24.265  1.00  0.00     0.018 C 
BRANCH  73  75
ATOM     75  C   UNL A   1      31.152  27.608  23.477  1.00  0.00     0.013 C 
BRANCH  75  76
ATOM     76  C   UNL A   1      31.266  28.817  24.416  1.00  0.00     0.007 C 
BRANCH  76  77
ATOM     77  C   UNL A   1      32.667  29.236  24.888  1.00  0.00     0.064 C 
BRANCH  77  78
ATOM     78  C   UNL A   1      32.863  29.515  26.393  1.00  0.00     0.177 C 
ATOM     79  C   UNL A   1      34.137  28.949  27.018  1.00  0.00     0.075 C 
BRANCH  78  80
ATOM     80  N   UNL A   1      31.722  28.942  27.122  1.00  0.00    -0.355 N 
ATOM     81  H   UNL A   1      30.858  29.148  26.619  1.00  0.00     0.344 HD
ATOM     82  H   UNL A   1      31.677  29.348  28.057  1.00  0.00     0.344 HD
ATOM     83  H   UNL A   1      31.839  27.932  27.197  1.00  0.00     0.344 HD
ENDBRANCH  78  80
ENDBRANCH  77  78
ENDBRANCH  76  77
ENDBRANCH  75  76
ENDBRANCH  73  75
ENDBRANCH  71  73
ENDBRANCH  69  71
ENDBRANCH   5  69
TORSDOF 19
ENDMDL
MODEL 2
REMARK VINA RESULT:     -10.2      2.666      7.008
REMARK SMILES Cc1nsc(N(C)C(=O)[C@@H](C)CCC[C@H](C)[NH3+])c1C(=O)NCCCCNC(=O)c1ccc(-c2c3nc(c(-c4ccccc4)c4ccc([nH]4)c(-c4ccccc4)c4nc(c(-c5ccccc5)c5ccc2[nH]5)C=C4)C=C3)cc1
REMARK SMILES IDX 1 1 2 2 3 3 4 4 5 5 18 6 19 7 20 8 21 9 22 11 23 12 24 13
REMARK SMILES IDX 25 14 26 15 27 16 28 18 29 19 30 20 76 21 31 22 75 23 32 24
REMARK SMILES IDX 33 25 34 26 69 27 35 28 74 29 68 30 70 31 36 32 73 33 67 34
REMARK SMILES IDX 66 35 37 37 59 38 44 39 58 40 45 41 48 42 57 43 71 44 46 45
REMARK SMILES IDX 47 46 56 48 72 49 49 50 38 51 39 52 43 53 40 54 42 55 41 56
REMARK SMILES IDX 60 57 61 58 65 59 62 60 64 61 63 62 50 63 51 64 55 65 52 66
REMARK SMILES IDX 54 67 53 68 6 69 7 70 8 71 9 72 10 73 11 74 12 75 13 76
REMARK SMILES IDX 14 77 15 78 16 79 17 80
REMARK H PARENT 21 10 26 17 70 36 48 47 17 81 17 82 17 83
REMARK Flexibility Score: inf
ROOT
ATOM      1  C   UNL A   1      33.903  22.667  27.430  1.00  0.00     0.069 C 
ATOM      2  C   UNL A   1      33.767  23.245  26.062  1.00  0.00     0.066 A 
ATOM      3  N   UNL A   1      34.575  22.704  25.155  1.00  0.00    -0.195 NA
ATOM      4  S   UNL A   1      34.190  23.281  23.684  1.00  0.00    -0.017 S 
ATOM      5  C   UNL A   1      32.957  24.376  24.184  1.00  0.00     0.131 A 
ATOM      6  C   UNL A   1      32.858  24.292  25.587  1.00  0.00     0.097 A 
ENDROOT
BRANCH   6   7
ATOM      7  C   UNL A   1      31.866  25.012  26.397  1.00  0.00     0.256 C 
ATOM      8  O   UNL A   1      30.957  24.409  26.971  1.00  0.00    -0.269 OA
ATOM      9  N   UNL A   1      31.928  26.390  26.561  1.00  0.00    -0.352 N 
ATOM     10  H   UNL A   1      31.097  26.818  26.871  1.00  0.00     0.163 HD
BRANCH   9  11
ATOM     11  C   UNL A   1      33.045  27.286  26.339  1.00  0.00     0.116 C 
BRANCH  11  12
ATOM     12  C   UNL A   1      33.355  28.365  27.381  1.00  0.00     0.023 C 
BRANCH  12  13
ATOM     13  C   UNL A   1      32.962  29.818  27.116  1.00  0.00     0.023 C 
BRANCH  13  14
ATOM     14  C   UNL A   1      34.076  30.842  27.225  1.00  0.00     0.116 C 
BRANCH  14  15
ATOM     15  N   UNL A   1      34.010  31.731  28.389  1.00  0.00    -0.352 N 
ATOM     16  C   UNL A   1      34.897  31.775  29.457  1.00  0.00     0.251 C 
ATOM     17  H   UNL A   1      33.256  32.363  28.417  1.00  0.00     0.163 HD
ATOM     18  O   UNL A   1      34.592  32.323  30.518  1.00  0.00    -0.269 OA
BRANCH  16  19
ATOM     19  C   UNL A   1      36.231  31.163  29.298  1.00  0.00     0.039 A 
ATOM     20  C   UNL A   1      37.409  31.910  29.196  1.00  0.00     0.014 A 
ATOM     21  C   UNL A   1      36.281  29.774  29.304  1.00  0.00     0.014 A 
ATOM     22  C   UNL A   1      38.631  31.233  29.179  1.00  0.00     0.010 A 
ATOM     23  C   UNL A   1      37.466  29.134  29.523  1.00  0.00     0.010 A 
ATOM     24  C   UNL A   1      38.646  29.840  29.363  1.00  0.00    -0.014 A 
BRANCH  24  25
ATOM     25  C   UNL A   1      39.880  29.082  29.525  1.00  0.00     0.031 A 
ATOM     26  C   UNL A   1      40.197  28.787  30.942  1.00  0.00     0.074 A 
ATOM     27  C   UNL A   1      40.522  28.493  28.488  1.00  0.00     0.049 A 
ATOM     28  N   UNL A   1      41.111  29.344  31.661  1.00  0.00    -0.248 NA
ATOM     29  C   UNL A   1      39.282  27.921  31.707  1.00  0.00     0.031 C 
ATOM     30  C   UNL A   1      40.105  28.455  27.076  1.00  0.00     0.029 A 
ATOM     31  N   UNL A   1      41.632  27.702  28.483  1.00  0.00    -0.354 N 
ATOM     32  C   UNL A   1      41.056  28.703  32.893  1.00  0.00     0.074 A 
ATOM     33  C   UNL A   1      39.786  28.028  32.938  1.00  0.00     0.031 C 
ATOM     34  C   UNL A   1      40.805  27.505  26.415  1.00  0.00     0.029 A 
ATOM     35  C   UNL A   1      41.838  26.998  27.297  1.00  0.00     0.049 A 
ATOM     36  H   UNL A   1      42.239  27.633  29.255  1.00  0.00     0.167 HD
ATOM     37  C   UNL A   1      42.198  28.498  33.607  1.00  0.00     0.031 A 
ATOM     38  C   UNL A   1      42.797  26.071  27.051  1.00  0.00     0.031 A 
ATOM     39  C   UNL A   1      43.296  29.239  33.033  1.00  0.00     0.049 A 
ATOM     40  C   UNL A   1      43.874  26.297  28.033  1.00  0.00     0.074 A 
ATOM     41  C   UNL A   1      43.662  30.561  32.921  1.00  0.00     0.029 A 
ATOM     42  N   UNL A   1      43.973  28.540  32.064  1.00  0.00    -0.354 N 
ATOM     43  N   UNL A   1      44.618  27.365  28.033  1.00  0.00    -0.248 NA
ATOM     44  C   UNL A   1      43.892  25.523  29.267  1.00  0.00     0.031 C 
ATOM     45  C   UNL A   1      44.392  30.658  31.698  1.00  0.00     0.029 A 
ATOM     46  C   UNL A   1      44.512  29.387  31.135  1.00  0.00     0.049 A 
ATOM     47  H   UNL A   1      44.060  27.560  32.041  1.00  0.00     0.167 HD
ATOM     48  C   UNL A   1      44.804  27.647  29.373  1.00  0.00     0.074 A 
ATOM     49  C   UNL A   1      44.507  26.398  30.067  1.00  0.00     0.031 C 
ATOM     50  C   UNL A   1      44.864  28.940  29.805  1.00  0.00     0.031 A 
BRANCH  37  51
ATOM     51  C   UNL A   1      42.473  27.254  34.427  1.00  0.00    -0.014 A 
ATOM     52  C   UNL A   1      43.416  26.330  33.934  1.00  0.00     0.009 A 
ATOM     53  C   UNL A   1      41.648  26.805  35.476  1.00  0.00     0.009 A 
ATOM     54  C   UNL A   1      43.474  25.015  34.411  1.00  0.00     0.001 A 
ATOM     55  C   UNL A   1      41.725  25.503  35.978  1.00  0.00     0.001 A 
ATOM     56  C   UNL A   1      42.621  24.599  35.427  1.00  0.00     0.000 A 
ENDBRANCH  37  51
BRANCH  38  57
ATOM     57  C   UNL A   1      42.807  24.896  26.155  1.00  0.00    -0.014 A 
ATOM     58  C   UNL A   1      43.783  24.756  25.153  1.00  0.00     0.009 A 
ATOM     59  C   UNL A   1      42.046  23.763  26.489  1.00  0.00     0.009 A 
ATOM     60  C   UNL A   1      44.025  23.514  24.547  1.00  0.00     0.001 A 
ATOM     61  C   UNL A   1      42.290  22.522  25.887  1.00  0.00     0.001 A 
ATOM     62  C   UNL A   1      43.291  22.394  24.929  1.00  0.00     0.000 A 
ENDBRANCH  38  57
BRANCH  50  63
ATOM     63  C   UNL A   1      45.158  29.997  28.774  1.00  0.00    -0.014 A 
ATOM     64  C   UNL A   1      44.171  30.668  28.032  1.00  0.00     0.009 A 
ATOM     65  C   UNL A   1      46.496  30.384  28.611  1.00  0.00     0.009 A 
ATOM     66  C   UNL A   1      44.523  31.680  27.132  1.00  0.00     0.001 A 
ATOM     67  C   UNL A   1      46.843  31.407  27.731  1.00  0.00     0.001 A 
ATOM     68  C   UNL A   1      45.859  32.050  26.985  1.00  0.00     0.000 A 
ENDBRANCH  50  63
ENDBRANCH  24  25
ENDBRANCH  16  19
ENDBRANCH  14  15
ENDBRANCH  13  14
ENDBRANCH  12  13
ENDBRANCH  11  12
ENDBRANCH   9  11
ENDBRANCH   6   7
BRANCH   5  69
ATOM     69  N   UNL A   1      32.302  25.101  23.141  1.00  0.00    -0.305 N 
ATOM     70  C   UNL A   1      33.065  25.895  22.168  1.00  0.00     0.154 C 
BRANCH  69  71
ATOM     71  C   UNL A   1      30.905  25.123  23.132  1.00  0.00     0.230 C 
ATOM     72  O   UNL A   1      30.238  24.079  23.129  1.00  0.00    -0.274 OA
BRANCH  71  73
ATOM     73  C   UNL A   1      30.128  26.462  23.251  1.00  0.00     0.076 C 
ATOM     74  C   UNL A   1      29.036  26.390  24.324  1.00  0.00     0.018 C 
BRANCH  73  75
ATOM     75  C   UNL A   1      30.937  27.775  23.336  1.00  0.00     0.013 C 
BRANCH  75  76
ATOM     76  C   UNL A   1      30.124  29.039  23.647  1.00  0.00     0.007 C 
BRANCH  76  77
ATOM     77  C   UNL A   1      29.554  29.840  22.466  1.00  0.00     0.064 C 
BRANCH  77  78
ATOM     78  C   UNL A   1      28.058  30.216  22.510  1.00  0.00     0.177 C 
ATOM     79  C   UNL A   1      27.658  31.250  23.561  1.00  0.00     0.075 C 
BRANCH  78  80
ATOM     80  N   UNL A   1      27.282  28.995  22.775  1.00  0.00    -0.355 N 
ATOM     81  H   UNL A   1      27.198  28.452  21.916  1.00  0.00     0.344 HD
ATOM     82  H   UNL A   1      26.352  29.249  23.109  1.00  0.00     0.344 HD
ATOM     83  H   UNL A   1      27.757  28.438  23.485  1.00  0.00     0.344 HD
ENDBRANCH  78  80
ENDBRANCH  77  78
ENDBRANCH  76  77
ENDBRANCH  75  76
ENDBRANCH  73  75
ENDBRANCH  71  73
ENDBRANCH  69  71
ENDBRANCH   5  69
TORSDOF 19
ENDMDL
MODEL 3
REMARK VINA RESULT:     -10.1      2.162      7.403
REMARK SMILES Cc1nsc(N(C)C(=O)[C@@H](C)CCC[C@H](C)[NH3+])c1C(=O)NCCCCNC(=O)c1ccc(-c2c3nc(c(-c4ccccc4)c4ccc([nH]4)c(-c4ccccc4)c4nc(c(-c5ccccc5)c5ccc2[nH]5)C=C4)C=C3)cc1
REMARK SMILES IDX 1 1 2 2 3 3 4 4 5 5 18 6 19 7 20 8 21 9 22 11 23 12 24 13
REMARK SMILES IDX 25 14 26 15 27 16 28 18 29 19 30 20 76 21 31 22 75 23 32 24
REMARK SMILES IDX 33 25 34 26 69 27 35 28 74 29 68 30 70 31 36 32 73 33 67 34
REMARK SMILES IDX 66 35 37 37 59 38 44 39 58 40 45 41 48 42 57 43 71 44 46 45
REMARK SMILES IDX 47 46 56 48 72 49 49 50 38 51 39 52 43 53 40 54 42 55 41 56
REMARK SMILES IDX 60 57 61 58 65 59 62 60 64 61 63 62 50 63 51 64 55 65 52 66
REMARK SMILES IDX 54 67 53 68 6 69 7 70 8 71 9 72 10 73 11 74 12 75 13 76
REMARK SMILES IDX 14 77 15 78 16 79 17 80
REMARK H PARENT 21 10 26 17 70 36 48 47 17 81 17 82 17 83
REMARK Flexibility Score: inf
ROOT
ATOM      1  C   UNL A   1      30.031  25.911  25.685  1.00  0.00     0.069 C 
ATOM      2  C   UNL A   1      31.174  25.035  26.072  1.00  0.00     0.066 A 
ATOM      3  N   UNL A   1      30.843  24.019  26.862  1.00  0.00    -0.195 NA
ATOM      4  S   UNL A   1      32.131  23.043  27.046  1.00  0.00    -0.017 S 
ATOM      5  C   UNL A   1      33.257  23.978  26.138  1.00  0.00     0.131 A 
ATOM      6  C   UNL A   1      32.584  25.129  25.682  1.00  0.00     0.097 A 
ENDROOT
BRANCH   6   7
ATOM      7  C   UNL A   1      33.174  26.146  24.802  1.00  0.00     0.256 C 
ATOM      8  O   UNL A   1      33.193  25.995  23.579  1.00  0.00    -0.269 OA
ATOM      9  N   UNL A   1      33.713  27.321  25.313  1.00  0.00    -0.352 N 
ATOM     10  H   UNL A   1      34.322  27.806  24.711  1.00  0.00     0.163 HD
BRANCH   9  11
ATOM     11  C   UNL A   1      33.502  27.932  26.610  1.00  0.00     0.116 C 
BRANCH  11  12
ATOM     12  C   UNL A   1      34.348  29.145  27.010  1.00  0.00     0.023 C 
BRANCH  12  13
ATOM     13  C   UNL A   1      33.665  30.456  27.402  1.00  0.00     0.023 C 
BRANCH  13  14
ATOM     14  C   UNL A   1      34.579  31.646  27.623  1.00  0.00     0.116 C 
BRANCH  14  15
ATOM     15  N   UNL A   1      34.514  32.260  28.952  1.00  0.00    -0.352 N 
ATOM     16  C   UNL A   1      35.265  31.916  30.069  1.00  0.00     0.251 C 
ATOM     17  H   UNL A   1      33.868  32.994  29.066  1.00  0.00     0.163 HD
ATOM     18  O   UNL A   1      34.925  32.266  31.200  1.00  0.00    -0.269 OA
BRANCH  16  19
ATOM     19  C   UNL A   1      36.499  31.128  29.879  1.00  0.00     0.039 A 
ATOM     20  C   UNL A   1      37.743  31.706  29.608  1.00  0.00     0.014 A 
ATOM     21  C   UNL A   1      36.385  29.750  30.035  1.00  0.00     0.014 A 
ATOM     22  C   UNL A   1      38.870  30.881  29.574  1.00  0.00     0.010 A 
ATOM     23  C   UNL A   1      37.501  28.992  30.235  1.00  0.00     0.010 A 
ATOM     24  C   UNL A   1      38.738  29.523  29.910  1.00  0.00    -0.014 A 
BRANCH  24  25
ATOM     25  C   UNL A   1      39.883  28.635  30.062  1.00  0.00     0.031 A 
ATOM     26  C   UNL A   1      40.298  28.463  31.473  1.00  0.00     0.074 A 
ATOM     27  C   UNL A   1      40.348  27.857  29.056  1.00  0.00     0.049 A 
ATOM     28  N   UNL A   1      41.337  28.974  32.041  1.00  0.00    -0.248 NA
ATOM     29  C   UNL A   1      39.366  27.812  32.411  1.00  0.00     0.031 C 
ATOM     30  C   UNL A   1      39.795  27.714  27.699  1.00  0.00     0.029 A 
ATOM     31  N   UNL A   1      41.351  26.933  29.057  1.00  0.00    -0.354 N 
ATOM     32  C   UNL A   1      41.326  28.487  33.343  1.00  0.00     0.074 A 
ATOM     33  C   UNL A   1      39.996  27.991  33.575  1.00  0.00     0.031 C 
ATOM     34  C   UNL A   1      40.309  26.614  27.104  1.00  0.00     0.029 A 
ATOM     35  C   UNL A   1      41.356  26.081  27.954  1.00  0.00     0.049 A 
ATOM     36  H   UNL A   1      42.018  26.874  29.780  1.00  0.00     0.167 HD
ATOM     37  C   UNL A   1      42.500  28.218  33.981  1.00  0.00     0.031 A 
ATOM     38  C   UNL A   1      42.170  25.016  27.746  1.00  0.00     0.031 A 
ATOM     39  C   UNL A   1      43.617  28.742  33.231  1.00  0.00     0.049 A 
ATOM     40  C   UNL A   1      43.357  25.210  28.601  1.00  0.00     0.074 A 
ATOM     41  C   UNL A   1      44.124  29.986  32.928  1.00  0.00     0.029 A 
ATOM     42  N   UNL A   1      44.109  27.858  32.303  1.00  0.00    -0.354 N 
ATOM     43  N   UNL A   1      44.218  26.166  28.408  1.00  0.00    -0.248 NA
ATOM     44  C   UNL A   1      43.402  24.583  29.915  1.00  0.00     0.031 C 
ATOM     45  C   UNL A   1      44.739  29.851  31.646  1.00  0.00     0.029 A 
ATOM     46  C   UNL A   1      44.652  28.520  31.236  1.00  0.00     0.049 A 
ATOM     47  H   UNL A   1      44.078  26.879  32.394  1.00  0.00     0.167 HD
ATOM     48  C   UNL A   1      44.565  26.570  29.683  1.00  0.00     0.074 A 
ATOM     49  C   UNL A   1      44.191  25.455  30.548  1.00  0.00     0.031 C 
ATOM     50  C   UNL A   1      44.819  27.885  29.947  1.00  0.00     0.031 A 
BRANCH  37  51
ATOM     51  C   UNL A   1      42.704  27.048  34.922  1.00  0.00    -0.014 A 
ATOM     52  C   UNL A   1      43.070  25.806  34.366  1.00  0.00     0.009 A 
ATOM     53  C   UNL A   1      42.263  27.029  36.259  1.00  0.00     0.009 A 
ATOM     54  C   UNL A   1      42.930  24.612  35.083  1.00  0.00     0.001 A 
ATOM     55  C   UNL A   1      42.154  25.842  36.989  1.00  0.00     0.001 A 
ATOM     56  C   UNL A   1      42.463  24.629  36.392  1.00  0.00     0.000 A 
ENDBRANCH  37  51
BRANCH  38  57
ATOM     57  C   UNL A   1      41.955  23.757  27.003  1.00  0.00    -0.014 A 
ATOM     58  C   UNL A   1      42.959  23.219  26.180  1.00  0.00     0.009 A 
ATOM     59  C   UNL A   1      40.878  22.923  27.351  1.00  0.00     0.009 A 
ATOM     60  C   UNL A   1      42.914  21.879  25.765  1.00  0.00     0.001 A 
ATOM     61  C   UNL A   1      40.835  21.585  26.939  1.00  0.00     0.001 A 
ATOM     62  C   UNL A   1      41.862  21.058  26.161  1.00  0.00     0.000 A 
ENDBRANCH  38  57
BRANCH  50  63
ATOM     63  C   UNL A   1      45.135  28.773  28.773  1.00  0.00    -0.014 A 
ATOM     64  C   UNL A   1      46.414  28.899  28.204  1.00  0.00     0.009 A 
ATOM     65  C   UNL A   1      44.064  29.446  28.168  1.00  0.00     0.009 A 
ATOM     66  C   UNL A   1      46.615  29.702  27.076  1.00  0.00     0.001 A 
ATOM     67  C   UNL A   1      44.262  30.228  27.031  1.00  0.00     0.001 A 
ATOM     68  C   UNL A   1      45.537  30.363  26.489  1.00  0.00     0.000 A 
ENDBRANCH  50  63
ENDBRANCH  24  25
ENDBRANCH  16  19
ENDBRANCH  14  15
ENDBRANCH  13  14
ENDBRANCH  12  13
ENDBRANCH  11  12
ENDBRANCH   9  11
ENDBRANCH   6   7
BRANCH   5  69
ATOM     69  N   UNL A   1      34.572  23.432  26.017  1.00  0.00    -0.305 N 
ATOM     70  C   UNL A   1      35.697  24.248  25.539  1.00  0.00     0.154 C 
BRANCH  69  71
ATOM     71  C   UNL A   1      34.744  22.067  26.265  1.00  0.00     0.230 C 
ATOM     72  O   UNL A   1      34.670  21.600  27.409  1.00  0.00    -0.274 OA
BRANCH  71  73
ATOM     73  C   UNL A   1      34.911  21.060  25.095  1.00  0.00     0.076 C 
ATOM     74  C   UNL A   1      36.348  20.533  25.001  1.00  0.00     0.018 C 
BRANCH  73  75
ATOM     75  C   UNL A   1      33.870  19.929  24.947  1.00  0.00     0.013 C 
BRANCH  75  76
ATOM     76  C   UNL A   1      32.802  20.145  23.865  1.00  0.00     0.007 C 
BRANCH  76  77
ATOM     77  C   UNL A   1      32.047  21.484  23.851  1.00  0.00     0.064 C 
BRANCH  77  78
ATOM     78  C   UNL A   1      32.244  22.404  22.628  1.00  0.00     0.177 C 
ATOM     79  C   UNL A   1      33.650  22.969  22.435  1.00  0.00     0.075 C 
BRANCH  78  80
ATOM     80  N   UNL A   1      31.324  23.544  22.754  1.00  0.00    -0.355 N 
ATOM     81  H   UNL A   1      31.823  24.342  23.148  1.00  0.00     0.344 HD
ATOM     82  H   UNL A   1      30.550  23.290  23.369  1.00  0.00     0.344 HD
ATOM     83  H   UNL A   1      30.959  23.790  21.835  1.00  0.00     0.344 HD
ENDBRANCH  78  80
ENDBRANCH  77  78
ENDBRANCH  76  77
ENDBRANCH  75  76
ENDBRANCH  73  75
ENDBRANCH  71  73
ENDBRANCH  69  71
ENDBRANCH   5  69
TORSDOF 19
ENDMDL
