MODEL 1
REMARK VINA RESULT:     -13.2      0.000      0.000
REMARK SMILES O=C(NCCCCNC(=O)c1ccc(-n2cc(CSc3nc4ccccc4c(=O)n3-c3ccc(Br)cc3)nn2)cc1)c1ccc(-c2c3nc(c(-c4ccccc4)c4ccc([nH]4)c(-c4ccccc4)c4nc(c(-c5ccccc5)c5ccc2[nH]5)C=C4)C=C3)cc1
REMARK SMILES IDX 7 1 6 2 5 3 4 4 3 5 1 6 2 7 42 9 43 10 89 11 44 12 88 13
REMARK SMILES IDX 45 14 46 15 47 16 82 17 48 18 87 19 81 20 83 21 49 22 86 23
REMARK SMILES IDX 80 24 79 25 50 27 72 28 57 29 71 30 58 31 61 32 70 33 84 34
REMARK SMILES IDX 59 35 60 36 69 38 85 39 62 40 51 41 52 42 56 43 53 44 55 45
REMARK SMILES IDX 54 46 73 47 74 48 78 49 75 50 77 51 76 52 63 53 64 54 68 55
REMARK SMILES IDX 65 56 67 57 66 58 8 59 9 60 10 62 11 63 12 64 41 65 13 66
REMARK SMILES IDX 40 67 14 68 15 69 16 70 39 71 17 72 38 73 18 74 19 75 20 76
REMARK SMILES IDX 21 77 30 78 22 79 28 80 23 81 27 82 29 83 24 84 26 85 25 86
REMARK SMILES IDX 31 87 32 88 37 89 33 90 36 91 34 92 35 93
REMARK H PARENT 3 8 83 26 61 37 8 61
REMARK Flexibility Score: inf
ROOT
ATOM      1  C   UNL A   1      34.651  30.951  27.651  1.00  0.00     0.116 C 
ENDROOT
BRANCH   1   2
ATOM      2  C   UNL A   1      35.550  31.243  28.848  1.00  0.00     0.023 C 
BRANCH   2   3
ATOM      3  C   UNL A   1      35.412  32.642  29.452  1.00  0.00     0.023 C 
BRANCH   3   4
ATOM      4  C   UNL A   1      36.545  33.617  29.126  1.00  0.00     0.116 C 
BRANCH   4   5
ATOM      5  N   UNL A   1      37.319  34.048  30.272  1.00  0.00    -0.352 N 
ATOM      6  O   UNL A   1      38.912  34.324  31.774  1.00  0.00    -0.269 OA
ATOM      7  C   UNL A   1      38.438  33.585  30.907  1.00  0.00     0.251 C 
ATOM      8  H   UNL A   1      36.955  34.861  30.691  1.00  0.00     0.163 HD
BRANCH   7   9
ATOM      9  C   UNL A   1      39.081  32.263  30.669  1.00  0.00     0.039 A 
ATOM     10  C   UNL A   1      38.456  31.020  30.781  1.00  0.00     0.014 A 
ATOM     11  C   UNL A   1      40.451  32.292  30.345  1.00  0.00     0.014 A 
ATOM     12  C   UNL A   1      39.186  29.842  30.658  1.00  0.00     0.010 A 
ATOM     13  C   UNL A   1      41.183  31.118  30.199  1.00  0.00     0.010 A 
ATOM     14  C   UNL A   1      40.554  29.890  30.391  1.00  0.00    -0.014 A 
BRANCH  14  15
ATOM     15  C   UNL A   1      41.264  28.625  30.222  1.00  0.00     0.031 A 
ATOM     16  C   UNL A   1      42.062  28.156  31.394  1.00  0.00     0.074 A 
ATOM     17  C   UNL A   1      41.097  27.824  29.152  1.00  0.00     0.049 A 
ATOM     18  N   UNL A   1      43.307  27.801  31.436  1.00  0.00    -0.248 NA
ATOM     19  C   UNL A   1      41.383  28.115  32.699  1.00  0.00     0.031 C 
ATOM     20  C   UNL A   1      40.122  27.971  28.070  1.00  0.00     0.029 A 
ATOM     21  N   UNL A   1      41.690  26.624  28.880  1.00  0.00    -0.354 N 
ATOM     22  C   UNL A   1      43.536  27.343  32.735  1.00  0.00     0.074 A 
ATOM     23  C   UNL A   1      42.347  27.649  33.491  1.00  0.00     0.031 C 
ATOM     24  C   UNL A   1      40.025  26.801  27.402  1.00  0.00     0.029 A 
ATOM     25  C   UNL A   1      41.017  25.876  27.926  1.00  0.00     0.049 A 
ATOM     26  H   UNL A   1      42.517  26.320  29.320  1.00  0.00     0.167 HD
ATOM     27  C   UNL A   1      44.609  26.572  33.065  1.00  0.00     0.031 A 
ATOM     28  C   UNL A   1      41.205  24.567  27.636  1.00  0.00     0.031 A 
ATOM     29  C   UNL A   1      45.673  26.668  32.105  1.00  0.00     0.049 A 
ATOM     30  C   UNL A   1      42.519  24.152  28.169  1.00  0.00     0.074 A 
ATOM     31  C   UNL A   1      46.468  27.685  31.618  1.00  0.00     0.029 A 
ATOM     32  N   UNL A   1      45.866  25.609  31.254  1.00  0.00    -0.354 N 
ATOM     33  N   UNL A   1      43.659  24.545  27.679  1.00  0.00    -0.248 NA
ATOM     34  C   UNL A   1      42.578  23.570  29.499  1.00  0.00     0.031 C 
ATOM     35  C   UNL A   1      46.707  27.348  30.254  1.00  0.00     0.029 A 
ATOM     36  C   UNL A   1      46.062  26.135  30.006  1.00  0.00     0.049 A 
ATOM     37  H   UNL A   1      45.865  24.654  31.495  1.00  0.00     0.167 HD
ATOM     38  C   UNL A   1      44.496  24.654  28.779  1.00  0.00     0.074 A 
ATOM     39  C   UNL A   1      43.819  23.921  29.844  1.00  0.00     0.031 C 
ATOM     40  C   UNL A   1      45.517  25.561  28.797  1.00  0.00     0.031 A 
BRANCH  27  41
ATOM     41  C   UNL A   1      44.539  25.438  34.063  1.00  0.00    -0.014 A 
ATOM     42  C   UNL A   1      44.925  25.680  35.396  1.00  0.00     0.009 A 
ATOM     43  C   UNL A   1      44.400  24.089  33.683  1.00  0.00     0.009 A 
ATOM     44  C   UNL A   1      45.243  24.630  36.267  1.00  0.00     0.001 A 
ATOM     45  C   UNL A   1      44.671  23.039  34.565  1.00  0.00     0.001 A 
ATOM     46  C   UNL A   1      45.125  23.309  35.847  1.00  0.00     0.000 A 
ENDBRANCH  27  41
BRANCH  28  47
ATOM     47  C   UNL A   1      40.209  23.588  27.153  1.00  0.00    -0.014 A 
ATOM     48  C   UNL A   1      38.947  24.005  26.704  1.00  0.00     0.009 A 
ATOM     49  C   UNL A   1      40.590  22.258  26.902  1.00  0.00     0.009 A 
ATOM     50  C   UNL A   1      38.110  23.127  26.002  1.00  0.00     0.001 A 
ATOM     51  C   UNL A   1      39.753  21.380  26.208  1.00  0.00     0.001 A 
ATOM     52  C   UNL A   1      38.517  21.819  25.747  1.00  0.00     0.000 A 
ENDBRANCH  28  47
BRANCH  40  53
ATOM     53  C   UNL A   1      45.879  26.248  27.506  1.00  0.00    -0.014 A 
ATOM     54  C   UNL A   1      46.585  25.599  26.477  1.00  0.00     0.009 A 
ATOM     55  C   UNL A   1      45.365  27.528  27.256  1.00  0.00     0.009 A 
ATOM     56  C   UNL A   1      46.804  26.230  25.250  1.00  0.00     0.001 A 
ATOM     57  C   UNL A   1      45.563  28.150  26.020  1.00  0.00     0.001 A 
ATOM     58  C   UNL A   1      46.288  27.504  25.021  1.00  0.00     0.000 A 
ENDBRANCH  40  53
ENDBRANCH  14  15
ENDBRANCH   7   9
ENDBRANCH   4   5
ENDBRANCH   3   4
ENDBRANCH   2   3
ENDBRANCH   1   2
BRANCH   1  59
ATOM     59  N   UNL A   1      33.586  31.925  27.495  1.00  0.00    -0.352 N 
ATOM     60  C   UNL A   1      32.306  31.748  27.013  1.00  0.00     0.251 C 
ATOM     61  H   UNL A   1      33.809  32.843  27.772  1.00  0.00     0.163 HD
ATOM     62  O   UNL A   1      31.552  32.694  26.880  1.00  0.00    -0.269 OA
BRANCH  60  63
ATOM     63  C   UNL A   1      31.873  30.393  26.623  1.00  0.00     0.039 A 
ATOM     64  C   UNL A   1      31.526  30.165  25.287  1.00  0.00     0.016 A 
ATOM     65  C   UNL A   1      31.832  29.358  27.563  1.00  0.00     0.016 A 
ATOM     66  C   UNL A   1      31.230  28.870  24.858  1.00  0.00     0.029 A 
ATOM     67  C   UNL A   1      31.493  28.072  27.147  1.00  0.00     0.029 A 
ATOM     68  C   UNL A   1      31.213  27.831  25.790  1.00  0.00     0.066 A 
BRANCH  68  69
ATOM     69  N   UNL A   1      30.856  26.533  25.378  1.00  0.00    -0.220 N 
ATOM     70  C   UNL A   1      30.693  25.449  26.195  1.00  0.00     0.141 A 
ATOM     71  N   UNL A   1      30.679  26.161  24.093  1.00  0.00    -0.062 NA
ATOM     72  C   UNL A   1      30.441  24.384  25.367  1.00  0.00     0.093 A 
ATOM     73  N   UNL A   1      30.493  24.841  24.071  1.00  0.00    -0.134 NA
BRANCH  72  74
ATOM     74  C   UNL A   1      30.408  22.942  25.696  1.00  0.00     0.138 C 
BRANCH  74  75
ATOM     75  S   UNL A   1      31.690  22.105  26.629  1.00  0.00    -0.081 SA
BRANCH  75  76
ATOM     76  C   UNL A   1      32.635  21.009  25.658  1.00  0.00     0.176 A 
ATOM     77  N   UNL A   1      32.234  19.778  25.804  1.00  0.00    -0.223 NA
ATOM     78  N   UNL A   1      33.669  21.347  24.794  1.00  0.00    -0.255 N 
ATOM     79  C   UNL A   1      32.924  18.761  25.140  1.00  0.00     0.079 A 
ATOM     80  C   UNL A   1      34.676  20.372  24.710  1.00  0.00     0.266 A 
ATOM     81  C   UNL A   1      32.367  17.492  24.989  1.00  0.00     0.029 A 
ATOM     82  C   UNL A   1      34.219  18.977  24.696  1.00  0.00     0.066 A 
ATOM     83  O   UNL A   1      35.887  20.580  24.674  1.00  0.00    -0.268 OA
ATOM     84  C   UNL A   1      33.126  16.446  24.449  1.00  0.00     0.002 A 
ATOM     85  C   UNL A   1      35.009  17.935  24.201  1.00  0.00     0.016 A 
ATOM     86  C   UNL A   1      34.458  16.661  24.084  1.00  0.00     0.001 A 
BRANCH  78  87
ATOM     87  C   UNL A   1      33.850  22.586  24.054  1.00  0.00     0.051 A 
ATOM     88  C   UNL A   1      34.434  23.709  24.683  1.00  0.00     0.028 A 
ATOM     89  C   UNL A   1      33.473  22.778  22.718  1.00  0.00     0.028 A 
ATOM     90  C   UNL A   1      34.402  24.989  24.118  1.00  0.00     0.018 A 
ATOM     91  C   UNL A   1      33.388  24.064  22.157  1.00  0.00     0.018 A 
ATOM     92  C   UNL A   1      33.811  25.170  22.880  1.00  0.00     0.018 A 
ATOM     93  Br  UNL A   1      33.565  26.910  22.196  1.00  0.00    -0.051 Br
ENDBRANCH  78  87
ENDBRANCH  75  76
ENDBRANCH  74  75
ENDBRANCH  72  74
ENDBRANCH  68  69
ENDBRANCH  60  63
ENDBRANCH   1  59
TORSDOF 16
ENDMDL
MODEL 2
REMARK VINA RESULT:     -13.0      3.444      9.880
REMARK SMILES O=C(NCCCCNC(=O)c1ccc(-n2cc(CSc3nc4ccccc4c(=O)n3-c3ccc(Br)cc3)nn2)cc1)c1ccc(-c2c3nc(c(-c4ccccc4)c4ccc([nH]4)c(-c4ccccc4)c4nc(c(-c5ccccc5)c5ccc2[nH]5)C=C4)C=C3)cc1
REMARK SMILES IDX 7 1 6 2 5 3 4 4 3 5 1 6 2 7 42 9 43 10 89 11 44 12 88 13
REMARK SMILES IDX 45 14 46 15 47 16 82 17 48 18 87 19 81 20 83 21 49 22 86 23
REMARK SMILES IDX 80 24 79 25 50 27 72 28 57 29 71 30 58 31 61 32 70 33 84 34
REMARK SMILES IDX 59 35 60 36 69 38 85 39 62 40 51 41 52 42 56 43 53 44 55 45
REMARK SMILES IDX 54 46 73 47 74 48 78 49 75 50 77 51 76 52 63 53 64 54 68 55
REMARK SMILES IDX 65 56 67 57 66 58 8 59 9 60 10 62 11 63 12 64 41 65 13 66
REMARK SMILES IDX 40 67 14 68 15 69 16 70 39 71 17 72 38 73 18 74 19 75 20 76
REMARK SMILES IDX 21 77 30 78 22 79 28 80 23 81 27 82 29 83 24 84 26 85 25 86
REMARK SMILES IDX 31 87 32 88 37 89 33 90 36 91 34 92 35 93
REMARK H PARENT 3 8 83 26 61 37 8 61
REMARK Flexibility Score: inf
ROOT
ATOM      1  C   UNL A   1      45.048  20.568  24.682  1.00  0.00     0.116 C 
ENDROOT
BRANCH   1   2
ATOM      2  C   UNL A   1      45.816  21.588  25.513  1.00  0.00     0.023 C 
BRANCH   2   3
ATOM      3  C   UNL A   1      45.674  23.045  25.068  1.00  0.00     0.023 C 
BRANCH   3   4
ATOM      4  C   UNL A   1      44.980  23.976  26.064  1.00  0.00     0.116 C 
BRANCH   4   5
ATOM      5  N   UNL A   1      44.991  23.507  27.436  1.00  0.00    -0.352 N 
ATOM      6  O   UNL A   1      44.486  23.117  29.548  1.00  0.00    -0.269 OA
ATOM      7  C   UNL A   1      44.338  23.869  28.581  1.00  0.00     0.251 C 
ATOM      8  H   UNL A   1      45.610  22.755  27.574  1.00  0.00     0.163 HD
BRANCH   7   9
ATOM      9  C   UNL A   1      43.524  25.104  28.757  1.00  0.00     0.039 A 
ATOM     10  C   UNL A   1      42.560  25.579  27.867  1.00  0.00     0.014 A 
ATOM     11  C   UNL A   1      43.798  25.864  29.910  1.00  0.00     0.014 A 
ATOM     12  C   UNL A   1      41.948  26.812  28.073  1.00  0.00     0.010 A 
ATOM     13  C   UNL A   1      43.173  27.087  30.134  1.00  0.00     0.010 A 
ATOM     14  C   UNL A   1      42.272  27.577  29.193  1.00  0.00    -0.014 A 
BRANCH  14  15
ATOM     15  C   UNL A   1      41.564  28.840  29.387  1.00  0.00     0.031 A 
ATOM     16  C   UNL A   1      42.382  30.082  29.250  1.00  0.00     0.074 A 
ATOM     17  C   UNL A   1      40.225  28.922  29.516  1.00  0.00     0.049 A 
ATOM     18  N   UNL A   1      42.499  31.070  30.080  1.00  0.00    -0.248 NA
ATOM     19  C   UNL A   1      43.208  30.216  28.039  1.00  0.00     0.031 C 
ATOM     20  C   UNL A   1      39.245  27.847  29.353  1.00  0.00     0.029 A 
ATOM     21  N   UNL A   1      39.449  30.031  29.694  1.00  0.00    -0.354 N 
ATOM     22  C   UNL A   1      43.288  32.025  29.437  1.00  0.00     0.074 A 
ATOM     23  C   UNL A   1      43.774  31.407  28.228  1.00  0.00     0.031 C 
ATOM     24  C   UNL A   1      38.017  28.389  29.202  1.00  0.00     0.029 A 
ATOM     25  C   UNL A   1      38.112  29.828  29.386  1.00  0.00     0.049 A 
ATOM     26  H   UNL A   1      39.805  30.893  30.011  1.00  0.00     0.167 HD
ATOM     27  C   UNL A   1      43.343  33.325  29.838  1.00  0.00     0.031 A 
ATOM     28  C   UNL A   1      37.162  30.778  29.216  1.00  0.00     0.031 A 
ATOM     29  C   UNL A   1      42.907  33.503  31.195  1.00  0.00     0.049 A 
ATOM     30  C   UNL A   1      37.640  32.035  29.830  1.00  0.00     0.074 A 
ATOM     31  C   UNL A   1      43.317  33.035  32.428  1.00  0.00     0.029 A 
ATOM     32  N   UNL A   1      41.672  34.062  31.404  1.00  0.00    -0.354 N 
ATOM     33  N   UNL A   1      37.760  32.217  31.112  1.00  0.00    -0.248 NA
ATOM     34  C   UNL A   1      38.340  32.994  28.993  1.00  0.00     0.031 C 
ATOM     35  C   UNL A   1      42.119  32.902  33.190  1.00  0.00     0.029 A 
ATOM     36  C   UNL A   1      41.061  33.320  32.379  1.00  0.00     0.049 A 
ATOM     37  H   UNL A   1      41.296  34.846  30.942  1.00  0.00     0.167 HD
ATOM     38  C   UNL A   1      38.872  33.034  31.249  1.00  0.00     0.074 A 
ATOM     39  C   UNL A   1      39.106  33.581  29.917  1.00  0.00     0.031 C 
ATOM     40  C   UNL A   1      39.661  32.967  32.363  1.00  0.00     0.031 A 
BRANCH  27  41
ATOM     41  C   UNL A   1      43.432  34.487  28.874  1.00  0.00    -0.014 A 
ATOM     42  C   UNL A   1      42.253  34.957  28.263  1.00  0.00     0.009 A 
ATOM     43  C   UNL A   1      44.648  34.934  28.323  1.00  0.00     0.009 A 
ATOM     44  C   UNL A   1      42.294  35.751  27.109  1.00  0.00     0.001 A 
ATOM     45  C   UNL A   1      44.691  35.765  27.200  1.00  0.00     0.001 A 
ATOM     46  C   UNL A   1      43.514  36.147  26.573  1.00  0.00     0.000 A 
ENDBRANCH  27  41
BRANCH  28  47
ATOM     47  C   UNL A   1      35.978  30.736  28.334  1.00  0.00    -0.014 A 
ATOM     48  C   UNL A   1      35.706  29.607  27.546  1.00  0.00     0.009 A 
ATOM     49  C   UNL A   1      34.974  31.714  28.450  1.00  0.00     0.009 A 
ATOM     50  C   UNL A   1      34.460  29.453  26.922  1.00  0.00     0.001 A 
ATOM     51  C   UNL A   1      33.735  31.564  27.822  1.00  0.00     0.001 A 
ATOM     52  C   UNL A   1      33.474  30.425  27.068  1.00  0.00     0.000 A 
ENDBRANCH  28  47
BRANCH  40  53
ATOM     53  C   UNL A   1      39.150  32.187  33.547  1.00  0.00    -0.014 A 
ATOM     54  C   UNL A   1      39.478  30.837  33.761  1.00  0.00     0.009 A 
ATOM     55  C   UNL A   1      38.448  32.870  34.551  1.00  0.00     0.009 A 
ATOM     56  C   UNL A   1      39.080  30.179  34.928  1.00  0.00     0.001 A 
ATOM     57  C   UNL A   1      38.071  32.218  35.728  1.00  0.00     0.001 A 
ATOM     58  C   UNL A   1      38.381  30.872  35.912  1.00  0.00     0.000 A 
ENDBRANCH  40  53
ENDBRANCH  14  15
ENDBRANCH   7   9
ENDBRANCH   4   5
ENDBRANCH   3   4
ENDBRANCH   2   3
ENDBRANCH   1   2
BRANCH   1  59
ATOM     59  N   UNL A   1      44.778  19.339  25.405  1.00  0.00    -0.352 N 
ATOM     60  C   UNL A   1      43.634  18.952  26.072  1.00  0.00     0.251 C 
ATOM     61  H   UNL A   1      45.516  18.688  25.423  1.00  0.00     0.163 HD
ATOM     62  O   UNL A   1      43.596  17.907  26.693  1.00  0.00    -0.269 OA
BRANCH  60  63
ATOM     63  C   UNL A   1      42.461  19.846  26.051  1.00  0.00     0.039 A 
ATOM     64  C   UNL A   1      41.192  19.274  25.916  1.00  0.00     0.016 A 
ATOM     65  C   UNL A   1      42.615  21.230  26.184  1.00  0.00     0.016 A 
ATOM     66  C   UNL A   1      40.053  20.077  26.016  1.00  0.00     0.029 A 
ATOM     67  C   UNL A   1      41.483  22.040  26.239  1.00  0.00     0.029 A 
ATOM     68  C   UNL A   1      40.205  21.456  26.174  1.00  0.00     0.066 A 
BRANCH  68  69
ATOM     69  N   UNL A   1      39.065  22.280  26.214  1.00  0.00    -0.220 N 
ATOM     70  C   UNL A   1      37.848  21.990  25.663  1.00  0.00     0.141 A 
ATOM     71  N   UNL A   1      39.032  23.514  26.758  1.00  0.00    -0.062 NA
ATOM     72  C   UNL A   1      37.068  23.103  25.858  1.00  0.00     0.093 A 
ATOM     73  N   UNL A   1      37.842  24.049  26.487  1.00  0.00    -0.134 NA
BRANCH  72  74
ATOM     74  C   UNL A   1      35.747  23.422  25.273  1.00  0.00     0.138 C 
BRANCH  74  75
ATOM     75  S   UNL A   1      34.506  24.415  26.103  1.00  0.00    -0.081 SA
BRANCH  75  76
ATOM     76  C   UNL A   1      33.346  25.113  25.006  1.00  0.00     0.176 A 
ATOM     77  N   UNL A   1      33.641  26.350  24.726  1.00  0.00    -0.223 NA
ATOM     78  N   UNL A   1      32.250  24.473  24.441  1.00  0.00    -0.255 N 
ATOM     79  C   UNL A   1      32.777  27.080  23.905  1.00  0.00     0.079 A 
ATOM     80  C   UNL A   1      31.151  25.320  24.227  1.00  0.00     0.266 A 
ATOM     81  C   UNL A   1      33.186  28.273  23.310  1.00  0.00     0.029 A 
ATOM     82  C   UNL A   1      31.465  26.669  23.740  1.00  0.00     0.066 A 
ATOM     83  O   UNL A   1      29.970  25.044  24.433  1.00  0.00    -0.268 OA
ATOM     84  C   UNL A   1      32.268  29.063  22.608  1.00  0.00     0.002 A 
ATOM     85  C   UNL A   1      30.522  27.467  23.086  1.00  0.00     0.016 A 
ATOM     86  C   UNL A   1      30.928  28.675  22.523  1.00  0.00     0.001 A 
BRANCH  78  87
ATOM     87  C   UNL A   1      32.099  23.061  24.129  1.00  0.00     0.051 A 
ATOM     88  C   UNL A   1      32.012  22.110  25.171  1.00  0.00     0.028 A 
ATOM     89  C   UNL A   1      32.038  22.533  22.832  1.00  0.00     0.028 A 
ATOM     90  C   UNL A   1      32.124  20.733  24.945  1.00  0.00     0.018 A 
ATOM     91  C   UNL A   1      32.200  21.158  22.591  1.00  0.00     0.018 A 
ATOM     92  C   UNL A   1      32.290  20.269  23.652  1.00  0.00     0.018 A 
ATOM     93  Br  UNL A   1      32.656  18.445  23.343  1.00  0.00    -0.051 Br
ENDBRANCH  78  87
ENDBRANCH  75  76
ENDBRANCH  74  75
ENDBRANCH  72  74
ENDBRANCH  68  69
ENDBRANCH  60  63
ENDBRANCH   1  59
TORSDOF 16
ENDMDL
MODEL 3
REMARK VINA RESULT:     -12.5      6.740     13.307
REMARK SMILES O=C(NCCCCNC(=O)c1ccc(-n2cc(CSc3nc4ccccc4c(=O)n3-c3ccc(Br)cc3)nn2)cc1)c1ccc(-c2c3nc(c(-c4ccccc4)c4ccc([nH]4)c(-c4ccccc4)c4nc(c(-c5ccccc5)c5ccc2[nH]5)C=C4)C=C3)cc1
REMARK SMILES IDX 7 1 6 2 5 3 4 4 3 5 1 6 2 7 42 9 43 10 89 11 44 12 88 13
REMARK SMILES IDX 45 14 46 15 47 16 82 17 48 18 87 19 81 20 83 21 49 22 86 23
REMARK SMILES IDX 80 24 79 25 50 27 72 28 57 29 71 30 58 31 61 32 70 33 84 34
REMARK SMILES IDX 59 35 60 36 69 38 85 39 62 40 51 41 52 42 56 43 53 44 55 45
REMARK SMILES IDX 54 46 73 47 74 48 78 49 75 50 77 51 76 52 63 53 64 54 68 55
REMARK SMILES IDX 65 56 67 57 66 58 8 59 9 60 10 62 11 63 12 64 41 65 13 66
REMARK SMILES IDX 40 67 14 68 15 69 16 70 39 71 17 72 38 73 18 74 19 75 20 76
REMARK SMILES IDX 21 77 30 78 22 79 28 80 23 81 27 82 29 83 24 84 26 85 25 86
REMARK SMILES IDX 31 87 32 88 37 89 33 90 36 91 34 92 35 93
REMARK H PARENT 3 8 83 26 61 37 8 61
REMARK Flexibility Score: inf
ROOT
ATOM      1  C   UNL A   1      34.914  34.799  34.354  1.00  0.00     0.116 C 
ENDROOT
BRANCH   1   2
ATOM      2  C   UNL A   1      34.941  35.768  33.177  1.00  0.00     0.023 C 
BRANCH   2   3
ATOM      3  C   UNL A   1      33.629  36.504  32.896  1.00  0.00     0.023 C 
BRANCH   3   4
ATOM      4  C   UNL A   1      32.511  35.653  32.291  1.00  0.00     0.116 C 
BRANCH   4   5
ATOM      5  N   UNL A   1      32.352  35.794  30.858  1.00  0.00    -0.352 N 
ATOM      6  O   UNL A   1      32.433  35.490  28.674  1.00  0.00    -0.269 OA
ATOM      7  C   UNL A   1      32.957  35.243  29.763  1.00  0.00     0.251 C 
ATOM      8  H   UNL A   1      31.645  36.436  30.617  1.00  0.00     0.163 HD
BRANCH   7   9
ATOM      9  C   UNL A   1      34.204  34.428  29.785  1.00  0.00     0.039 A 
ATOM     10  C   UNL A   1      34.420  33.288  30.560  1.00  0.00     0.014 A 
ATOM     11  C   UNL A   1      35.259  34.893  28.976  1.00  0.00     0.014 A 
ATOM     12  C   UNL A   1      35.670  32.678  30.595  1.00  0.00     0.010 A 
ATOM     13  C   UNL A   1      36.504  34.274  28.989  1.00  0.00     0.010 A 
ATOM     14  C   UNL A   1      36.719  33.184  29.829  1.00  0.00    -0.014 A 
BRANCH  14  15
ATOM     15  C   UNL A   1      37.996  32.476  29.864  1.00  0.00     0.031 A 
ATOM     16  C   UNL A   1      37.967  31.042  29.448  1.00  0.00     0.074 A 
ATOM     17  C   UNL A   1      39.173  33.091  30.090  1.00  0.00     0.049 A 
ATOM     18  N   UNL A   1      38.413  30.006  30.084  1.00  0.00    -0.248 NA
ATOM     19  C   UNL A   1      37.317  30.724  28.166  1.00  0.00     0.031 C 
ATOM     20  C   UNL A   1      39.422  34.530  30.197  1.00  0.00     0.029 A 
ATOM     21  N   UNL A   1      40.426  32.550  30.142  1.00  0.00    -0.354 N 
ATOM     22  C   UNL A   1      38.244  28.920  29.223  1.00  0.00     0.074 A 
ATOM     23  C   UNL A   1      37.480  29.404  28.101  1.00  0.00     0.031 C 
ATOM     24  C   UNL A   1      40.747  34.759  30.060  1.00  0.00     0.029 A 
ATOM     25  C   UNL A   1      41.440  33.483  29.987  1.00  0.00     0.049 A 
ATOM     26  H   UNL A   1      40.592  31.589  30.276  1.00  0.00     0.167 HD
ATOM     27  C   UNL A   1      38.902  27.739  29.390  1.00  0.00     0.031 A 
ATOM     28  C   UNL A   1      42.747  33.232  29.739  1.00  0.00     0.031 A 
ATOM     29  C   UNL A   1      39.392  27.565  30.729  1.00  0.00     0.049 A 
ATOM     30  C   UNL A   1      43.028  31.823  30.086  1.00  0.00     0.074 A 
ATOM     31  C   UNL A   1      38.821  27.502  31.983  1.00  0.00     0.029 A 
ATOM     32  N   UNL A   1      40.739  27.716  30.944  1.00  0.00    -0.354 N 
ATOM     33  N   UNL A   1      43.050  31.365  31.304  1.00  0.00    -0.248 NA
ATOM     34  C   UNL A   1      42.933  30.817  29.042  1.00  0.00     0.031 C 
ATOM     35  C   UNL A   1      39.776  28.101  32.856  1.00  0.00     0.029 A 
ATOM     36  C   UNL A   1      40.877  28.468  32.079  1.00  0.00     0.049 A 
ATOM     37  H   UNL A   1      41.466  27.354  30.388  1.00  0.00     0.167 HD
ATOM     38  C   UNL A   1      42.551  30.076  31.204  1.00  0.00     0.074 A 
ATOM     39  C   UNL A   1      42.619  29.752  29.783  1.00  0.00     0.031 C 
ATOM     40  C   UNL A   1      41.871  29.504  32.242  1.00  0.00     0.031 A 
BRANCH  27  41
ATOM     41  C   UNL A   1      39.429  26.914  28.238  1.00  0.00    -0.014 A 
ATOM     42  C   UNL A   1      39.376  25.509  28.326  1.00  0.00     0.009 A 
ATOM     43  C   UNL A   1      40.238  27.450  27.217  1.00  0.00     0.009 A 
ATOM     44  C   UNL A   1      40.161  24.694  27.500  1.00  0.00     0.001 A 
ATOM     45  C   UNL A   1      40.986  26.637  26.360  1.00  0.00     0.001 A 
ATOM     46  C   UNL A   1      40.974  25.260  26.523  1.00  0.00     0.000 A 
ENDBRANCH  27  41
BRANCH  28  47
ATOM     47  C   UNL A   1      43.707  34.060  28.980  1.00  0.00    -0.014 A 
ATOM     48  C   UNL A   1      43.300  34.780  27.847  1.00  0.00     0.009 A 
ATOM     49  C   UNL A   1      44.977  34.341  29.517  1.00  0.00     0.009 A 
ATOM     50  C   UNL A   1      44.126  35.765  27.289  1.00  0.00     0.001 A 
ATOM     51  C   UNL A   1      45.803  35.318  28.956  1.00  0.00     0.001 A 
ATOM     52  C   UNL A   1      45.371  36.041  27.849  1.00  0.00     0.000 A 
ENDBRANCH  28  47
BRANCH  40  53
ATOM     53  C   UNL A   1      41.909  30.194  33.581  1.00  0.00    -0.014 A 
ATOM     54  C   UNL A   1      41.225  31.397  33.831  1.00  0.00     0.009 A 
ATOM     55  C   UNL A   1      42.521  29.539  34.660  1.00  0.00     0.009 A 
ATOM     56  C   UNL A   1      41.190  31.948  35.114  1.00  0.00     0.001 A 
ATOM     57  C   UNL A   1      42.466  30.078  35.947  1.00  0.00     0.001 A 
ATOM     58  C   UNL A   1      41.806  31.285  36.172  1.00  0.00     0.000 A 
ENDBRANCH  40  53
ENDBRANCH  14  15
ENDBRANCH   7   9
ENDBRANCH   4   5
ENDBRANCH   3   4
ENDBRANCH   2   3
ENDBRANCH   1   2
BRANCH   1  59
ATOM     59  N   UNL A   1      35.314  33.454  33.986  1.00  0.00    -0.352 N 
ATOM     60  C   UNL A   1      36.536  32.834  34.140  1.00  0.00     0.251 C 
ATOM     61  H   UNL A   1      34.612  32.904  33.568  1.00  0.00     0.163 HD
ATOM     62  O   UNL A   1      36.727  31.712  33.710  1.00  0.00    -0.269 OA
BRANCH  60  63
ATOM     63  C   UNL A   1      37.628  33.569  34.804  1.00  0.00     0.039 A 
ATOM     64  C   UNL A   1      38.506  34.316  34.011  1.00  0.00     0.016 A 
ATOM     65  C   UNL A   1      37.768  33.537  36.196  1.00  0.00     0.016 A 
ATOM     66  C   UNL A   1      39.474  35.121  34.614  1.00  0.00     0.029 A 
ATOM     67  C   UNL A   1      38.762  34.304  36.799  1.00  0.00     0.029 A 
ATOM     68  C   UNL A   1      39.598  35.109  36.005  1.00  0.00     0.066 A 
BRANCH  68  69
ATOM     69  N   UNL A   1      40.612  35.870  36.618  1.00  0.00    -0.220 N 
ATOM     70  C   UNL A   1      41.879  36.051  36.138  1.00  0.00     0.141 A 
ATOM     71  N   UNL A   1      40.488  36.488  37.811  1.00  0.00    -0.062 NA
ATOM     72  C   UNL A   1      42.547  36.776  37.094  1.00  0.00     0.093 A 
ATOM     73  N   UNL A   1      41.680  36.985  38.140  1.00  0.00    -0.134 NA
BRANCH  72  74
ATOM     74  C   UNL A   1      43.995  37.061  37.196  1.00  0.00     0.138 C 
BRANCH  74  75
ATOM     75  S   UNL A   1      45.011  37.563  35.807  1.00  0.00    -0.081 SA
BRANCH  75  76
ATOM     76  C   UNL A   1      45.279  36.280  34.659  1.00  0.00     0.176 A 
ATOM     77  N   UNL A   1      45.179  35.110  35.222  1.00  0.00    -0.223 NA
ATOM     78  N   UNL A   1      45.533  36.422  33.301  1.00  0.00    -0.255 N 
ATOM     79  C   UNL A   1      45.427  33.969  34.454  1.00  0.00     0.079 A 
ATOM     80  C   UNL A   1      46.377  35.430  32.778  1.00  0.00     0.266 A 
ATOM     81  C   UNL A   1      45.028  32.706  34.891  1.00  0.00     0.029 A 
ATOM     82  C   UNL A   1      46.154  34.068  33.279  1.00  0.00     0.066 A 
ATOM     83  O   UNL A   1      47.287  35.602  31.969  1.00  0.00    -0.268 OA
ATOM     84  C   UNL A   1      45.407  31.561  34.181  1.00  0.00     0.002 A 
ATOM     85  C   UNL A   1      46.584  32.934  32.583  1.00  0.00     0.016 A 
ATOM     86  C   UNL A   1      46.212  31.673  33.044  1.00  0.00     0.001 A 
BRANCH  78  87
ATOM     87  C   UNL A   1      45.098  37.490  32.414  1.00  0.00     0.051 A 
ATOM     88  C   UNL A   1      44.073  37.254  31.470  1.00  0.00     0.028 A 
ATOM     89  C   UNL A   1      45.632  38.786  32.405  1.00  0.00     0.028 A 
ATOM     90  C   UNL A   1      43.789  38.145  30.429  1.00  0.00     0.018 A 
ATOM     91  C   UNL A   1      45.393  39.671  31.340  1.00  0.00     0.018 A 
ATOM     92  C   UNL A   1      44.506  39.325  30.330  1.00  0.00     0.018 A 
ATOM     93  Br  UNL A   1      44.291  40.437  28.823  1.00  0.00    -0.051 Br
ENDBRANCH  78  87
ENDBRANCH  75  76
ENDBRANCH  74  75
ENDBRANCH  72  74
ENDBRANCH  68  69
ENDBRANCH  60  63
ENDBRANCH   1  59
TORSDOF 16
ENDMDL
