MODEL 1
REMARK VINA RESULT:     -11.7      0.000      0.000
REMARK SMILES Cc1c(Br)c(C)c2c(c1Br)O[C@H](C(F)(F)F)C(C(=O)NCCCCNC(=O)c1ccc(-c3c4nc(c(-c5ccccc5)c5ccc([nH]5)c(-c5ccccc5)c5nc(c(-c6ccccc6)c6ccc3[nH]6)C=C5)C=C4)cc1)=C2
REMARK SMILES IDX 23 1 22 2 21 3 20 4 18 5 19 6 17 8 1 9 2 10 3 11 9 12 4 13
REMARK SMILES IDX 5 14 8 15 10 16 6 17 7 18 11 19 76 20 12 21 13 22 14 23
REMARK SMILES IDX 15 24 16 25 24 26 25 27 26 28 27 30 28 31 29 32 75 33 30 34
REMARK SMILES IDX 74 35 31 36 32 37 33 38 68 39 34 40 73 41 67 42 69 43 35 44
REMARK SMILES IDX 72 45 66 46 65 47 36 49 58 50 43 51 57 52 44 53 47 54 56 55
REMARK SMILES IDX 70 56 45 57 46 58 55 60 71 61 48 62 37 63 38 64 42 65 39 66
REMARK SMILES IDX 41 67 40 68 59 69 60 70 64 71 61 72 63 73 62 74 49 75 50 76
REMARK SMILES IDX 54 77 51 78 53 79 52 80
REMARK H PARENT 20 7 25 29 69 48 47 59
REMARK Flexibility Score: inf
ROOT
ATOM      1  C   UNL A   1      37.767  20.359  24.942  1.00  0.00     0.023 C 
ENDROOT
BRANCH   1   2
ATOM      2  C   UNL A   1      37.055  21.635  24.484  1.00  0.00     0.023 C 
BRANCH   2   3
ATOM      3  C   UNL A   1      37.079  22.765  25.510  1.00  0.00     0.116 C 
BRANCH   3   4
ATOM      4  N   UNL A   1      36.018  22.626  26.491  1.00  0.00    -0.352 N 
ATOM      5  C   UNL A   1      34.758  23.094  26.653  1.00  0.00     0.251 C 
ATOM      6  O   UNL A   1      34.192  22.721  27.686  1.00  0.00    -0.270 OA
ATOM      7  H   UNL A   1      36.284  22.037  27.232  1.00  0.00     0.163 HD
BRANCH   5   8
ATOM      8  C   UNL A   1      34.038  23.992  25.702  1.00  0.00     0.067 C 
ATOM      9  C   UNL A   1      31.172  28.937  22.478  1.00  0.00     0.047 C 
ATOM     10  C   UNL A   1      31.870  28.019  23.456  1.00  0.00    -0.019 A 
ATOM     11  C   UNL A   1      32.148  28.400  24.793  1.00  0.00     0.025 A 
ATOM     12  C   UNL A   1      32.220  26.716  23.054  1.00  0.00     0.064 A 
ATOM     13  Br  UNL A   1      31.598  30.137  25.400  1.00  0.00    -0.050 Br
ATOM     14  C   UNL A   1      32.809  27.521  25.694  1.00  0.00    -0.026 A 
ATOM     15  C   UNL A   1      32.870  25.838  23.935  1.00  0.00     0.142 A 
ATOM     16  Br  UNL A   1      31.789  26.072  21.298  1.00  0.00    -0.046 Br
ATOM     17  C   UNL A   1      33.138  27.912  27.120  1.00  0.00     0.046 C 
ATOM     18  C   UNL A   1      33.183  26.233  25.241  1.00  0.00     0.022 A 
ATOM     19  O   UNL A   1      33.233  24.609  23.449  1.00  0.00    -0.474 OA
ATOM     20  C   UNL A   1      33.921  25.277  26.081  1.00  0.00     0.026 C 
ATOM     21  C   UNL A   1      33.426  23.545  24.413  1.00  0.00     0.314 C 
BRANCH  21  22
ATOM     22  C   UNL A   1      32.110  22.769  24.608  1.00  0.00     0.429 C 
ATOM     23  F   UNL A   1      31.426  22.691  23.441  1.00  0.00    -0.167 F 
ATOM     24  F   UNL A   1      32.320  21.494  25.014  1.00  0.00    -0.167 F 
ATOM     25  F   UNL A   1      31.296  23.344  25.521  1.00  0.00    -0.167 F 
ENDBRANCH  21  22
ENDBRANCH   5   8
ENDBRANCH   3   4
ENDBRANCH   2   3
ENDBRANCH   1   2
BRANCH   1  26
ATOM     26  C   UNL A   1      38.976  20.573  25.850  1.00  0.00     0.116 C 
BRANCH  26  27
ATOM     27  N   UNL A   1      39.975  19.517  25.763  1.00  0.00    -0.352 N 
ATOM     28  C   UNL A   1      41.308  19.587  26.087  1.00  0.00     0.251 C 
ATOM     29  H   UNL A   1      39.656  18.646  25.433  1.00  0.00     0.163 HD
ATOM     30  O   UNL A   1      42.055  18.634  25.900  1.00  0.00    -0.269 OA
BRANCH  28  31
ATOM     31  C   UNL A   1      41.836  20.855  26.621  1.00  0.00     0.039 A 
ATOM     32  C   UNL A   1      42.294  21.821  25.722  1.00  0.00     0.014 A 
ATOM     33  C   UNL A   1      41.797  21.112  27.993  1.00  0.00     0.014 A 
ATOM     34  C   UNL A   1      42.641  23.084  26.198  1.00  0.00     0.010 A 
ATOM     35  C   UNL A   1      42.088  22.389  28.458  1.00  0.00     0.010 A 
ATOM     36  C   UNL A   1      42.501  23.388  27.563  1.00  0.00    -0.014 A 
BRANCH  36  37
ATOM     37  C   UNL A   1      42.774  24.752  28.069  1.00  0.00     0.031 A 
ATOM     38  C   UNL A   1      44.173  25.152  28.435  1.00  0.00     0.074 A 
ATOM     39  C   UNL A   1      41.752  25.611  28.249  1.00  0.00     0.049 A 
ATOM     40  N   UNL A   1      44.601  26.284  28.931  1.00  0.00    -0.248 NA
ATOM     41  C   UNL A   1      45.225  24.143  28.235  1.00  0.00     0.031 C 
ATOM     42  C   UNL A   1      40.344  25.327  27.962  1.00  0.00     0.029 A 
ATOM     43  N   UNL A   1      41.743  26.901  28.715  1.00  0.00    -0.354 N 
ATOM     44  C   UNL A   1      45.967  26.119  29.111  1.00  0.00     0.074 A 
ATOM     45  C   UNL A   1      46.290  24.766  28.717  1.00  0.00     0.031 C 
ATOM     46  C   UNL A   1      39.612  26.423  28.223  1.00  0.00     0.029 A 
ATOM     47  C   UNL A   1      40.493  27.473  28.725  1.00  0.00     0.049 A 
ATOM     48  H   UNL A   1      42.554  27.372  29.013  1.00  0.00     0.167 HD
ATOM     49  C   UNL A   1      46.877  27.022  29.545  1.00  0.00     0.031 A 
ATOM     50  C   UNL A   1      40.104  28.708  29.092  1.00  0.00     0.031 A 
ATOM     51  C   UNL A   1      46.561  28.371  29.924  1.00  0.00     0.049 A 
ATOM     52  C   UNL A   1      41.131  29.688  29.583  1.00  0.00     0.074 A 
ATOM     53  C   UNL A   1      47.421  29.373  30.339  1.00  0.00     0.029 A 
ATOM     54  N   UNL A   1      45.284  28.908  29.929  1.00  0.00    -0.354 N 
ATOM     55  N   UNL A   1      42.426  29.530  29.709  1.00  0.00    -0.248 NA
ATOM     56  C   UNL A   1      40.643  31.017  29.978  1.00  0.00     0.031 C 
ATOM     57  C   UNL A   1      46.657  30.509  30.627  1.00  0.00     0.029 A 
ATOM     58  C   UNL A   1      45.329  30.224  30.353  1.00  0.00     0.049 A 
ATOM     59  H   UNL A   1      44.465  28.425  29.670  1.00  0.00     0.167 HD
ATOM     60  C   UNL A   1      42.910  30.743  30.176  1.00  0.00     0.074 A 
ATOM     61  C   UNL A   1      41.773  31.631  30.303  1.00  0.00     0.031 C 
ATOM     62  C   UNL A   1      44.186  31.090  30.473  1.00  0.00     0.031 A 
BRANCH  49  63
ATOM     63  C   UNL A   1      48.307  26.573  29.624  1.00  0.00    -0.014 A 
ATOM     64  C   UNL A   1      48.793  25.923  30.770  1.00  0.00     0.009 A 
ATOM     65  C   UNL A   1      49.168  26.773  28.535  1.00  0.00     0.009 A 
ATOM     66  C   UNL A   1      50.124  25.509  30.834  1.00  0.00     0.001 A 
ATOM     67  C   UNL A   1      50.492  26.336  28.594  1.00  0.00     0.001 A 
ATOM     68  C   UNL A   1      50.971  25.712  29.744  1.00  0.00     0.000 A 
ENDBRANCH  49  63
BRANCH  50  69
ATOM     69  C   UNL A   1      38.677  29.099  28.972  1.00  0.00    -0.014 A 
ATOM     70  C   UNL A   1      37.824  28.996  30.081  1.00  0.00     0.009 A 
ATOM     71  C   UNL A   1      38.165  29.590  27.761  1.00  0.00     0.009 A 
ATOM     72  C   UNL A   1      36.481  29.363  29.976  1.00  0.00     0.001 A 
ATOM     73  C   UNL A   1      36.826  29.976  27.666  1.00  0.00     0.001 A 
ATOM     74  C   UNL A   1      35.984  29.856  28.771  1.00  0.00     0.000 A 
ENDBRANCH  50  69
BRANCH  62  75
ATOM     75  C   UNL A   1      44.427  32.494  30.945  1.00  0.00    -0.014 A 
ATOM     76  C   UNL A   1      44.443  32.802  32.312  1.00  0.00     0.009 A 
ATOM     77  C   UNL A   1      44.715  33.501  30.011  1.00  0.00     0.009 A 
ATOM     78  C   UNL A   1      44.727  34.101  32.737  1.00  0.00     0.001 A 
ATOM     79  C   UNL A   1      45.019  34.794  30.440  1.00  0.00     0.001 A 
ATOM     80  C   UNL A   1      45.021  35.093  31.801  1.00  0.00     0.000 A 
ENDBRANCH  62  75
ENDBRANCH  36  37
ENDBRANCH  28  31
ENDBRANCH  26  27
ENDBRANCH   1  26
TORSDOF 12
ENDMDL
MODEL 2
REMARK VINA RESULT:     -11.7      2.540      7.521
REMARK SMILES Cc1c(Br)c(C)c2c(c1Br)O[C@H](C(F)(F)F)C(C(=O)NCCCCNC(=O)c1ccc(-c3c4nc(c(-c5ccccc5)c5ccc([nH]5)c(-c5ccccc5)c5nc(c(-c6ccccc6)c6ccc3[nH]6)C=C5)C=C4)cc1)=C2
REMARK SMILES IDX 23 1 22 2 21 3 20 4 18 5 19 6 17 8 1 9 2 10 3 11 9 12 4 13
REMARK SMILES IDX 5 14 8 15 10 16 6 17 7 18 11 19 76 20 12 21 13 22 14 23
REMARK SMILES IDX 15 24 16 25 24 26 25 27 26 28 27 30 28 31 29 32 75 33 30 34
REMARK SMILES IDX 74 35 31 36 32 37 33 38 68 39 34 40 73 41 67 42 69 43 35 44
REMARK SMILES IDX 72 45 66 46 65 47 36 49 58 50 43 51 57 52 44 53 47 54 56 55
REMARK SMILES IDX 70 56 45 57 46 58 55 60 71 61 48 62 37 63 38 64 42 65 39 66
REMARK SMILES IDX 41 67 40 68 59 69 60 70 64 71 61 72 63 73 62 74 49 75 50 76
REMARK SMILES IDX 54 77 51 78 53 79 52 80
REMARK H PARENT 20 7 25 29 69 48 47 59
REMARK Flexibility Score: inf
ROOT
ATOM      1  C   UNL A   1      32.790  29.392  25.758  1.00  0.00     0.023 C 
ENDROOT
BRANCH   1   2
ATOM      2  C   UNL A   1      33.281  28.748  24.459  1.00  0.00     0.023 C 
BRANCH   2   3
ATOM      3  C   UNL A   1      32.789  27.319  24.247  1.00  0.00     0.116 C 
BRANCH   3   4
ATOM      4  N   UNL A   1      31.914  26.885  25.321  1.00  0.00    -0.352 N 
ATOM      5  C   UNL A   1      31.601  25.715  25.926  1.00  0.00     0.251 C 
ATOM      6  O   UNL A   1      30.757  25.802  26.825  1.00  0.00    -0.270 OA
ATOM      7  H   UNL A   1      31.418  27.639  25.712  1.00  0.00     0.163 HD
BRANCH   5   8
ATOM      8  C   UNL A   1      32.189  24.383  25.594  1.00  0.00     0.067 C 
ATOM      9  C   UNL A   1      35.946  19.077  24.709  1.00  0.00     0.047 C 
ATOM     10  C   UNL A   1      35.358  20.436  25.013  1.00  0.00    -0.019 A 
ATOM     11  C   UNL A   1      36.161  21.557  25.342  1.00  0.00     0.025 A 
ATOM     12  C   UNL A   1      33.965  20.625  24.921  1.00  0.00     0.064 A 
ATOM     13  Br  UNL A   1      38.070  21.356  25.382  1.00  0.00    -0.050 Br
ATOM     14  C   UNL A   1      35.586  22.825  25.627  1.00  0.00    -0.026 A 
ATOM     15  C   UNL A   1      33.387  21.873  25.197  1.00  0.00     0.142 A 
ATOM     16  Br  UNL A   1      32.807  19.195  24.377  1.00  0.00    -0.046 Br
ATOM     17  C   UNL A   1      36.420  24.032  26.004  1.00  0.00     0.046 C 
ATOM     18  C   UNL A   1      34.178  22.967  25.565  1.00  0.00     0.022 A 
ATOM     19  O   UNL A   1      32.019  21.960  25.146  1.00  0.00    -0.474 OA
ATOM     20  C   UNL A   1      33.489  24.222  25.899  1.00  0.00     0.026 C 
ATOM     21  C   UNL A   1      31.446  23.271  24.926  1.00  0.00     0.314 C 
BRANCH  21  22
ATOM     22  C   UNL A   1      31.238  23.506  23.418  1.00  0.00     0.429 C 
ATOM     23  F   UNL A   1      31.351  22.341  22.734  1.00  0.00    -0.167 F 
ATOM     24  F   UNL A   1      30.005  23.994  23.139  1.00  0.00    -0.167 F 
ATOM     25  F   UNL A   1      32.132  24.374  22.897  1.00  0.00    -0.167 F 
ENDBRANCH  21  22
ENDBRANCH   5   8
ENDBRANCH   3   4
ENDBRANCH   2   3
ENDBRANCH   1   2
BRANCH   1  26
ATOM     26  C   UNL A   1      33.790  29.380  26.914  1.00  0.00     0.116 C 
BRANCH  26  27
ATOM     27  N   UNL A   1      33.707  30.549  27.779  1.00  0.00    -0.352 N 
ATOM     28  C   UNL A   1      34.663  31.031  28.640  1.00  0.00     0.251 C 
ATOM     29  H   UNL A   1      32.864  31.056  27.742  1.00  0.00     0.163 HD
ATOM     30  O   UNL A   1      34.434  31.993  29.364  1.00  0.00    -0.269 OA
BRANCH  28  31
ATOM     31  C   UNL A   1      35.960  30.335  28.712  1.00  0.00     0.039 A 
ATOM     32  C   UNL A   1      36.825  30.417  27.618  1.00  0.00     0.014 A 
ATOM     33  C   UNL A   1      36.345  29.681  29.885  1.00  0.00     0.014 A 
ATOM     34  C   UNL A   1      38.117  29.907  27.732  1.00  0.00     0.010 A 
ATOM     35  C   UNL A   1      37.651  29.225  30.016  1.00  0.00     0.010 A 
ATOM     36  C   UNL A   1      38.550  29.344  28.945  1.00  0.00    -0.014 A 
BRANCH  36  37
ATOM     37  C   UNL A   1      39.947  28.884  29.113  1.00  0.00     0.031 A 
ATOM     38  C   UNL A   1      40.975  29.806  29.701  1.00  0.00     0.074 A 
ATOM     39  C   UNL A   1      40.299  27.656  28.687  1.00  0.00     0.049 A 
ATOM     40  N   UNL A   1      42.253  29.598  29.889  1.00  0.00    -0.248 NA
ATOM     41  C   UNL A   1      40.512  31.140  30.112  1.00  0.00     0.031 C 
ATOM     42  C   UNL A   1      39.397  26.681  28.069  1.00  0.00     0.029 A 
ATOM     43  N   UNL A   1      41.512  27.016  28.714  1.00  0.00    -0.354 N 
ATOM     44  C   UNL A   1      42.746  30.777  30.431  1.00  0.00     0.074 A 
ATOM     45  C   UNL A   1      41.644  31.711  30.497  1.00  0.00     0.031 C 
ATOM     46  C   UNL A   1      40.081  25.554  27.809  1.00  0.00     0.029 A 
ATOM     47  C   UNL A   1      41.471  25.738  28.211  1.00  0.00     0.049 A 
ATOM     48  H   UNL A   1      42.333  27.433  29.061  1.00  0.00     0.167 HD
ATOM     49  C   UNL A   1      44.001  31.051  30.857  1.00  0.00     0.031 A 
ATOM     50  C   UNL A   1      42.445  24.816  28.094  1.00  0.00     0.031 A 
ATOM     51  C   UNL A   1      45.094  30.121  30.804  1.00  0.00     0.049 A 
ATOM     52  C   UNL A   1      43.833  25.149  28.562  1.00  0.00     0.074 A 
ATOM     53  C   UNL A   1      46.393  30.293  31.249  1.00  0.00     0.029 A 
ATOM     54  N   UNL A   1      45.014  28.841  30.280  1.00  0.00    -0.354 N 
ATOM     55  N   UNL A   1      44.275  26.255  29.110  1.00  0.00    -0.248 NA
ATOM     56  C   UNL A   1      44.855  24.106  28.399  1.00  0.00     0.031 C 
ATOM     57  C   UNL A   1      47.109  29.126  30.962  1.00  0.00     0.029 A 
ATOM     58  C   UNL A   1      46.244  28.215  30.377  1.00  0.00     0.049 A 
ATOM     59  H   UNL A   1      44.202  28.437  29.895  1.00  0.00     0.167 HD
ATOM     60  C   UNL A   1      45.618  26.034  29.377  1.00  0.00     0.074 A 
ATOM     61  C   UNL A   1      45.918  24.686  28.939  1.00  0.00     0.031 C 
ATOM     62  C   UNL A   1      46.522  26.874  29.935  1.00  0.00     0.031 A 
BRANCH  49  63
ATOM     63  C   UNL A   1      44.251  32.418  31.425  1.00  0.00    -0.014 A 
ATOM     64  C   UNL A   1      44.650  33.478  30.595  1.00  0.00     0.009 A 
ATOM     65  C   UNL A   1      44.057  32.657  32.793  1.00  0.00     0.009 A 
ATOM     66  C   UNL A   1      44.880  34.745  31.131  1.00  0.00     0.001 A 
ATOM     67  C   UNL A   1      44.265  33.932  33.322  1.00  0.00     0.001 A 
ATOM     68  C   UNL A   1      44.683  34.972  32.493  1.00  0.00     0.000 A 
ENDBRANCH  49  63
BRANCH  50  69
ATOM     69  C   UNL A   1      42.130  23.475  27.543  1.00  0.00    -0.014 A 
ATOM     70  C   UNL A   1      42.424  23.179  26.202  1.00  0.00     0.009 A 
ATOM     71  C   UNL A   1      41.555  22.482  28.350  1.00  0.00     0.009 A 
ATOM     72  C   UNL A   1      42.131  21.919  25.677  1.00  0.00     0.001 A 
ATOM     73  C   UNL A   1      41.283  21.216  27.826  1.00  0.00     0.001 A 
ATOM     74  C   UNL A   1      41.566  20.938  26.489  1.00  0.00     0.000 A 
ENDBRANCH  50  69
BRANCH  62  75
ATOM     75  C   UNL A   1      47.918  26.358  30.126  1.00  0.00    -0.014 A 
ATOM     76  C   UNL A   1      48.315  25.787  31.343  1.00  0.00     0.009 A 
ATOM     77  C   UNL A   1      48.819  26.379  29.051  1.00  0.00     0.009 A 
ATOM     78  C   UNL A   1      49.600  25.258  31.485  1.00  0.00     0.001 A 
ATOM     79  C   UNL A   1      50.095  25.831  29.190  1.00  0.00     0.001 A 
ATOM     80  C   UNL A   1      50.485  25.275  30.407  1.00  0.00     0.000 A 
ENDBRANCH  62  75
ENDBRANCH  36  37
ENDBRANCH  28  31
ENDBRANCH  26  27
ENDBRANCH   1  26
TORSDOF 12
ENDMDL
MODEL 3
REMARK VINA RESULT:     -11.7      2.534      3.966
REMARK SMILES Cc1c(Br)c(C)c2c(c1Br)O[C@H](C(F)(F)F)C(C(=O)NCCCCNC(=O)c1ccc(-c3c4nc(c(-c5ccccc5)c5ccc([nH]5)c(-c5ccccc5)c5nc(c(-c6ccccc6)c6ccc3[nH]6)C=C5)C=C4)cc1)=C2
REMARK SMILES IDX 23 1 22 2 21 3 20 4 18 5 19 6 17 8 1 9 2 10 3 11 9 12 4 13
REMARK SMILES IDX 5 14 8 15 10 16 6 17 7 18 11 19 76 20 12 21 13 22 14 23
REMARK SMILES IDX 15 24 16 25 24 26 25 27 26 28 27 30 28 31 29 32 75 33 30 34
REMARK SMILES IDX 74 35 31 36 32 37 33 38 68 39 34 40 73 41 67 42 69 43 35 44
REMARK SMILES IDX 72 45 66 46 65 47 36 49 58 50 43 51 57 52 44 53 47 54 56 55
REMARK SMILES IDX 70 56 45 57 46 58 55 60 71 61 48 62 37 63 38 64 42 65 39 66
REMARK SMILES IDX 41 67 40 68 59 69 60 70 64 71 61 72 63 73 62 74 49 75 50 76
REMARK SMILES IDX 54 77 51 78 53 79 52 80
REMARK H PARENT 20 7 25 29 69 48 47 59
REMARK Flexibility Score: inf
ROOT
ATOM      1  C   UNL A   1      35.874  22.882  26.096  1.00  0.00     0.023 C 
ENDROOT
BRANCH   1   2
ATOM      2  C   UNL A   1      34.597  23.718  25.974  1.00  0.00     0.023 C 
BRANCH   2   3
ATOM      3  C   UNL A   1      33.514  23.080  25.109  1.00  0.00     0.116 C 
BRANCH   3   4
ATOM      4  N   UNL A   1      33.700  23.382  23.701  1.00  0.00    -0.352 N 
ATOM      5  C   UNL A   1      33.391  24.397  22.861  1.00  0.00     0.251 C 
ATOM      6  O   UNL A   1      33.737  24.227  21.687  1.00  0.00    -0.270 OA
ATOM      7  H   UNL A   1      34.176  22.658  23.235  1.00  0.00     0.163 HD
BRANCH   5   8
ATOM      8  C   UNL A   1      32.691  25.659  23.247  1.00  0.00     0.067 C 
ATOM      9  C   UNL A   1      30.819  31.473  25.643  1.00  0.00     0.047 C 
ATOM     10  C   UNL A   1      31.511  30.180  25.279  1.00  0.00    -0.019 A 
ATOM     11  C   UNL A   1      32.677  29.726  25.946  1.00  0.00     0.025 A 
ATOM     12  C   UNL A   1      30.962  29.359  24.275  1.00  0.00     0.064 A 
ATOM     13  Br  UNL A   1      33.396  30.777  27.384  1.00  0.00    -0.050 Br
ATOM     14  C   UNL A   1      33.314  28.508  25.585  1.00  0.00    -0.026 A 
ATOM     15  C   UNL A   1      31.580  28.152  23.912  1.00  0.00     0.142 A 
ATOM     16  Br  UNL A   1      29.328  29.835  23.391  1.00  0.00    -0.046 Br
ATOM     17  C   UNL A   1      34.572  28.013  26.266  1.00  0.00     0.046 C 
ATOM     18  C   UNL A   1      32.756  27.728  24.542  1.00  0.00     0.022 A 
ATOM     19  O   UNL A   1      31.019  27.440  22.884  1.00  0.00    -0.474 OA
ATOM     20  C   UNL A   1      33.375  26.485  24.059  1.00  0.00     0.026 C 
ATOM     21  C   UNL A   1      31.303  26.021  22.826  1.00  0.00     0.314 C 
BRANCH  21  22
ATOM     22  C   UNL A   1      30.218  25.238  23.590  1.00  0.00     0.429 C 
ATOM     23  F   UNL A   1      30.578  25.066  24.885  1.00  0.00    -0.167 F 
ATOM     24  F   UNL A   1      29.029  25.889  23.607  1.00  0.00    -0.167 F 
ATOM     25  F   UNL A   1      29.990  24.015  23.063  1.00  0.00    -0.167 F 
ENDBRANCH  21  22
ENDBRANCH   5   8
ENDBRANCH   3   4
ENDBRANCH   2   3
ENDBRANCH   1   2
BRANCH   1  26
ATOM     26  C   UNL A   1      37.107  23.465  25.408  1.00  0.00     0.116 C 
BRANCH  26  27
ATOM     27  N   UNL A   1      38.309  22.659  25.570  1.00  0.00    -0.352 N 
ATOM     28  C   UNL A   1      39.480  23.005  26.201  1.00  0.00     0.251 C 
ATOM     29  H   UNL A   1      38.280  21.755  25.180  1.00  0.00     0.163 HD
ATOM     30  O   UNL A   1      40.444  22.249  26.205  1.00  0.00    -0.269 OA
BRANCH  28  31
ATOM     31  C   UNL A   1      39.570  24.333  26.835  1.00  0.00     0.039 A 
ATOM     32  C   UNL A   1      39.073  24.490  28.131  1.00  0.00     0.014 A 
ATOM     33  C   UNL A   1      40.217  25.384  26.181  1.00  0.00     0.014 A 
ATOM     34  C   UNL A   1      39.298  25.689  28.805  1.00  0.00     0.010 A 
ATOM     35  C   UNL A   1      40.490  26.556  26.876  1.00  0.00     0.010 A 
ATOM     36  C   UNL A   1      40.042  26.713  28.196  1.00  0.00    -0.014 A 
BRANCH  36  37
ATOM     37  C   UNL A   1      40.372  27.954  28.934  1.00  0.00     0.031 A 
ATOM     38  C   UNL A   1      41.704  28.095  29.608  1.00  0.00     0.074 A 
ATOM     39  C   UNL A   1      39.450  28.930  29.038  1.00  0.00     0.049 A 
ATOM     40  N   UNL A   1      42.158  29.086  30.332  1.00  0.00    -0.248 NA
ATOM     41  C   UNL A   1      42.641  26.969  29.469  1.00  0.00     0.031 C 
ATOM     42  C   UNL A   1      38.107  28.896  28.454  1.00  0.00     0.029 A 
ATOM     43  N   UNL A   1      39.505  30.146  29.672  1.00  0.00    -0.354 N 
ATOM     44  C   UNL A   1      43.427  28.698  30.740  1.00  0.00     0.074 A 
ATOM     45  C   UNL A   1      43.653  27.366  30.226  1.00  0.00     0.031 C 
ATOM     46  C   UNL A   1      37.480  30.053  28.726  1.00  0.00     0.029 A 
ATOM     47  C   UNL A   1      38.362  30.894  29.528  1.00  0.00     0.049 A 
ATOM     48  H   UNL A   1      40.290  30.452  30.181  1.00  0.00     0.167 HD
ATOM     49  C   UNL A   1      44.334  29.399  31.461  1.00  0.00     0.031 A 
ATOM     50  C   UNL A   1      38.062  32.123  29.986  1.00  0.00     0.031 A 
ATOM     51  C   UNL A   1      44.116  30.728  31.962  1.00  0.00     0.049 A 
ATOM     52  C   UNL A   1      39.079  32.875  30.795  1.00  0.00     0.074 A 
ATOM     53  C   UNL A   1      44.990  31.536  32.668  1.00  0.00     0.029 A 
ATOM     54  N   UNL A   1      42.942  31.447  31.803  1.00  0.00    -0.354 N 
ATOM     55  N   UNL A   1      40.291  32.511  31.139  1.00  0.00    -0.248 NA
ATOM     56  C   UNL A   1      38.690  34.209  31.276  1.00  0.00     0.031 C 
ATOM     57  C   UNL A   1      44.331  32.733  32.966  1.00  0.00     0.029 A 
ATOM     58  C   UNL A   1      43.062  32.684  32.410  1.00  0.00     0.049 A 
ATOM     59  H   UNL A   1      42.141  31.125  31.329  1.00  0.00     0.167 HD
ATOM     60  C   UNL A   1      40.816  33.577  31.856  1.00  0.00     0.074 A 
ATOM     61  C   UNL A   1      39.796  34.604  31.892  1.00  0.00     0.031 C 
ATOM     62  C   UNL A   1      42.036  33.692  32.434  1.00  0.00     0.031 A 
BRANCH  49  63
ATOM     63  C   UNL A   1      45.649  28.734  31.743  1.00  0.00    -0.014 A 
ATOM     64  C   UNL A   1      46.731  28.880  30.860  1.00  0.00     0.009 A 
ATOM     65  C   UNL A   1      45.820  27.982  32.914  1.00  0.00     0.009 A 
ATOM     66  C   UNL A   1      47.951  28.259  31.131  1.00  0.00     0.001 A 
ATOM     67  C   UNL A   1      47.048  27.381  33.193  1.00  0.00     0.001 A 
ATOM     68  C   UNL A   1      48.109  27.514  32.300  1.00  0.00     0.000 A 
ENDBRANCH  49  63
BRANCH  50  69
ATOM     69  C   UNL A   1      36.751  32.735  29.657  1.00  0.00    -0.014 A 
ATOM     70  C   UNL A   1      35.692  32.668  30.576  1.00  0.00     0.009 A 
ATOM     71  C   UNL A   1      36.553  33.401  28.438  1.00  0.00     0.009 A 
ATOM     72  C   UNL A   1      34.456  33.242  30.273  1.00  0.00     0.001 A 
ATOM     73  C   UNL A   1      35.321  33.992  28.147  1.00  0.00     0.001 A 
ATOM     74  C   UNL A   1      34.273  33.907  29.062  1.00  0.00     0.000 A 
ENDBRANCH  50  69
BRANCH  62  75
ATOM     75  C   UNL A   1      42.347  34.980  33.137  1.00  0.00    -0.014 A 
ATOM     76  C   UNL A   1      41.942  35.195  34.462  1.00  0.00     0.009 A 
ATOM     77  C   UNL A   1      43.119  35.957  32.489  1.00  0.00     0.009 A 
ATOM     78  C   UNL A   1      42.290  36.375  35.122  1.00  0.00     0.001 A 
ATOM     79  C   UNL A   1      43.484  37.126  33.158  1.00  0.00     0.001 A 
ATOM     80  C   UNL A   1      43.066  37.335  34.471  1.00  0.00     0.000 A 
ENDBRANCH  62  75
ENDBRANCH  36  37
ENDBRANCH  28  31
ENDBRANCH  26  27
ENDBRANCH   1  26
TORSDOF 12
ENDMDL
