MODEL 1
REMARK VINA RESULT:     -13.5      0.000      0.000
REMARK SMILES Cc1cccc(-c2ncc(C[NH+]3CCC4(CC3)NC(=O)C[C@H]4C(=O)NCCCCNC(=O)c3ccc(-c4c5nc(c(-c6ccccc6)c6ccc([nH]6)c(-c6ccccc6)c6nc(c(-c7ccccc7)c7ccc4[nH]7)C=C6)C=C5)cc3)cn2)c1
REMARK SMILES IDX 27 1 26 2 25 3 23 4 24 5 22 7 12 8 13 9 17 10 14 12 16 13
REMARK SMILES IDX 15 14 18 15 19 16 21 18 20 19 11 20 10 21 7 22 8 23 82 24
REMARK SMILES IDX 9 25 81 26 6 27 1 28 2 29 3 30 83 31 4 32 5 33 28 34 29 35
REMARK SMILES IDX 30 36 31 37 32 39 33 40 34 41 80 42 35 43 79 44 36 45 37 46
REMARK SMILES IDX 38 47 73 48 39 49 78 50 72 51 74 52 40 53 77 54 71 55 70 56
REMARK SMILES IDX 41 58 63 59 48 60 62 61 49 62 52 63 61 64 75 65 50 66 51 67
REMARK SMILES IDX 60 69 76 70 53 71 42 72 43 73 47 74 44 75 46 76 45 77 64 78
REMARK SMILES IDX 65 79 69 80 66 81 68 82 67 83 54 84 55 85 59 86 56 87 58 88
REMARK SMILES IDX 57 89
REMARK H PARENT 25 6 12 11 18 17 30 38 74 57 52 68
REMARK Flexibility Score: inf
ROOT
ATOM      1  C   UNL A   1      31.663  29.731  26.825  1.00  0.00     0.023 C 
ENDROOT
BRANCH   1   2
ATOM      2  C   UNL A   1      31.611  30.677  25.610  1.00  0.00     0.116 C 
BRANCH   2   3
ATOM      3  N   UNL A   1      31.131  30.115  24.345  1.00  0.00    -0.356 N 
ATOM      4  C   UNL A   1      31.409  29.013  23.594  1.00  0.00     0.226 C 
ATOM      5  O   UNL A   1      30.670  28.835  22.616  1.00  0.00    -0.275 OA
ATOM      6  H   UNL A   1      30.434  30.674  23.934  1.00  0.00     0.163 HD
BRANCH   4   7
ATOM      7  C   UNL A   1      32.570  28.031  23.811  1.00  0.00     0.114 C 
ATOM      8  N   UNL A   1      31.575  25.294  26.832  1.00  0.00    -0.331 N 
ATOM      9  C   UNL A   1      32.973  25.487  26.483  1.00  0.00     0.264 C 
ATOM     10  C   UNL A   1      30.764  26.387  26.338  1.00  0.00     0.264 C 
ATOM     11  H   UNL A   1      31.564  25.343  27.851  1.00  0.00     0.348 HD
ATOM     12  C   UNL A   1      33.286  25.832  25.022  1.00  0.00     0.091 C 
ATOM     13  C   UNL A   1      30.796  26.481  24.825  1.00  0.00     0.091 C 
ATOM     14  C   UNL A   1      32.195  26.581  24.192  1.00  0.00     0.063 C 
ATOM     15  N   UNL A   1      32.249  25.958  22.875  1.00  0.00    -0.349 N 
ATOM     16  C   UNL A   1      33.073  26.607  21.975  1.00  0.00     0.221 C 
ATOM     17  H   UNL A   1      31.744  25.143  22.648  1.00  0.00     0.164 HD
ATOM     18  C   UNL A   1      33.462  27.932  22.572  1.00  0.00     0.116 C 
ATOM     19  O   UNL A   1      33.407  26.179  20.897  1.00  0.00    -0.275 OA
BRANCH   8  20
ATOM     20  C   UNL A   1      30.993  23.942  26.771  1.00  0.00     0.302 C 
BRANCH  20  21
ATOM     21  C   UNL A   1      31.777  22.874  26.061  1.00  0.00     0.043 A 
ATOM     22  C   UNL A   1      32.801  20.660  24.845  1.00  0.00     0.159 A 
ATOM     23  N   UNL A   1      32.077  21.522  24.102  1.00  0.00    -0.236 NA
ATOM     24  N   UNL A   1      33.125  20.864  26.137  1.00  0.00    -0.236 NA
ATOM     25  C   UNL A   1      31.626  22.631  24.716  1.00  0.00     0.124 A 
ATOM     26  C   UNL A   1      32.607  21.975  26.712  1.00  0.00     0.124 A 
BRANCH  22  27
ATOM     27  C   UNL A   1      33.091  19.350  24.242  1.00  0.00     0.019 A 
ATOM     28  C   UNL A   1      35.216  16.285  25.083  1.00  0.00     0.044 C 
ATOM     29  C   UNL A   1      34.267  17.187  24.348  1.00  0.00    -0.050 A 
ATOM     30  C   UNL A   1      33.657  16.802  23.154  1.00  0.00     0.003 A 
ATOM     31  C   UNL A   1      33.963  18.446  24.884  1.00  0.00     0.015 A 
ATOM     32  C   UNL A   1      32.796  17.679  22.493  1.00  0.00     0.001 A 
ATOM     33  C   UNL A   1      32.528  18.946  23.023  1.00  0.00     0.012 A 
ENDBRANCH  22  27
ENDBRANCH  20  21
ENDBRANCH   8  20
ENDBRANCH   4   7
ENDBRANCH   2   3
ENDBRANCH   1   2
BRANCH   1  34
ATOM     34  C   UNL A   1      33.035  29.523  27.476  1.00  0.00     0.023 C 
BRANCH  34  35
ATOM     35  C   UNL A   1      34.096  30.477  26.947  1.00  0.00     0.116 C 
BRANCH  35  36
ATOM     36  N   UNL A   1      34.672  31.384  27.939  1.00  0.00    -0.352 N 
ATOM     37  C   UNL A   1      35.793  31.201  28.736  1.00  0.00     0.251 C 
ATOM     38  H   UNL A   1      34.201  32.240  28.057  1.00  0.00     0.163 HD
ATOM     39  O   UNL A   1      36.122  32.046  29.562  1.00  0.00    -0.269 OA
BRANCH  37  40
ATOM     40  C   UNL A   1      36.675  30.036  28.477  1.00  0.00     0.039 A 
ATOM     41  C   UNL A   1      36.798  29.082  29.492  1.00  0.00     0.014 A 
ATOM     42  C   UNL A   1      37.583  30.073  27.426  1.00  0.00     0.014 A 
ATOM     43  C   UNL A   1      37.994  28.385  29.617  1.00  0.00     0.010 A 
ATOM     44  C   UNL A   1      38.814  29.483  27.618  1.00  0.00     0.010 A 
ATOM     45  C   UNL A   1      39.041  28.705  28.757  1.00  0.00    -0.014 A 
BRANCH  45  46
ATOM     46  C   UNL A   1      40.430  28.358  29.027  1.00  0.00     0.031 A 
ATOM     47  C   UNL A   1      40.988  27.113  28.477  1.00  0.00     0.074 A 
ATOM     48  C   UNL A   1      41.215  29.210  29.722  1.00  0.00     0.049 A 
ATOM     49  N   UNL A   1      42.016  26.504  28.958  1.00  0.00    -0.248 NA
ATOM     50  C   UNL A   1      40.373  26.414  27.356  1.00  0.00     0.031 C 
ATOM     51  C   UNL A   1      42.667  29.180  29.869  1.00  0.00     0.029 A 
ATOM     52  N   UNL A   1      40.797  30.166  30.646  1.00  0.00    -0.354 N 
ATOM     53  C   UNL A   1      42.371  25.528  28.058  1.00  0.00     0.074 A 
ATOM     54  C   UNL A   1      41.266  25.447  27.134  1.00  0.00     0.031 C 
ATOM     55  C   UNL A   1      43.006  29.861  30.977  1.00  0.00     0.029 A 
ATOM     56  C   UNL A   1      41.773  30.216  31.658  1.00  0.00     0.049 A 
ATOM     57  H   UNL A   1      39.974  30.705  30.599  1.00  0.00     0.167 HD
ATOM     58  C   UNL A   1      43.628  25.003  28.110  1.00  0.00     0.031 A 
ATOM     59  C   UNL A   1      41.461  29.874  32.944  1.00  0.00     0.031 A 
ATOM     60  C   UNL A   1      44.369  25.500  29.268  1.00  0.00     0.049 A 
ATOM     61  C   UNL A   1      42.252  28.691  33.461  1.00  0.00     0.074 A 
ATOM     62  C   UNL A   1      45.329  26.487  29.425  1.00  0.00     0.029 A 
ATOM     63  N   UNL A   1      43.921  25.179  30.545  1.00  0.00    -0.354 N 
ATOM     64  N   UNL A   1      42.884  27.848  32.692  1.00  0.00    -0.248 NA
ATOM     65  C   UNL A   1      42.365  28.341  34.876  1.00  0.00     0.031 C 
ATOM     66  C   UNL A   1      45.396  26.815  30.806  1.00  0.00     0.029 A 
ATOM     67  C   UNL A   1      44.507  26.002  31.486  1.00  0.00     0.049 A 
ATOM     68  H   UNL A   1      43.275  24.465  30.749  1.00  0.00     0.167 HD
ATOM     69  C   UNL A   1      43.467  26.872  33.456  1.00  0.00     0.074 A 
ATOM     70  C   UNL A   1      43.122  27.230  34.821  1.00  0.00     0.031 C 
ATOM     71  C   UNL A   1      44.173  25.847  32.896  1.00  0.00     0.031 A 
BRANCH  58  72
ATOM     72  C   UNL A   1      44.275  24.277  26.954  1.00  0.00    -0.014 A 
ATOM     73  C   UNL A   1      45.287  24.918  26.216  1.00  0.00     0.009 A 
ATOM     74  C   UNL A   1      43.898  23.004  26.494  1.00  0.00     0.009 A 
ATOM     75  C   UNL A   1      45.817  24.364  25.042  1.00  0.00     0.001 A 
ATOM     76  C   UNL A   1      44.396  22.458  25.303  1.00  0.00     0.001 A 
ATOM     77  C   UNL A   1      45.350  23.145  24.570  1.00  0.00     0.000 A 
ENDBRANCH  58  72
BRANCH  59  78
ATOM     78  C   UNL A   1      40.044  30.180  33.304  1.00  0.00    -0.014 A 
ATOM     79  C   UNL A   1      39.663  31.536  33.371  1.00  0.00     0.009 A 
ATOM     80  C   UNL A   1      39.039  29.210  33.186  1.00  0.00     0.009 A 
ATOM     81  C   UNL A   1      38.336  31.916  33.160  1.00  0.00     0.001 A 
ATOM     82  C   UNL A   1      37.701  29.599  33.020  1.00  0.00     0.001 A 
ATOM     83  C   UNL A   1      37.358  30.949  32.963  1.00  0.00     0.000 A 
ENDBRANCH  59  78
BRANCH  71  84
ATOM     84  C   UNL A   1      44.666  24.608  33.600  1.00  0.00    -0.014 A 
ATOM     85  C   UNL A   1      43.891  23.465  33.829  1.00  0.00     0.009 A 
ATOM     86  C   UNL A   1      46.041  24.515  33.922  1.00  0.00     0.009 A 
ATOM     87  C   UNL A   1      44.453  22.302  34.378  1.00  0.00     0.001 A 
ATOM     88  C   UNL A   1      46.614  23.345  34.424  1.00  0.00     0.001 A 
ATOM     89  C   UNL A   1      45.814  22.238  34.661  1.00  0.00     0.000 A 
ENDBRANCH  71  84
ENDBRANCH  45  46
ENDBRANCH  37  40
ENDBRANCH  35  36
ENDBRANCH  34  35
ENDBRANCH   1  34
TORSDOF 14
ENDMDL
MODEL 2
REMARK VINA RESULT:     -13.1      2.464      5.891
REMARK SMILES Cc1cccc(-c2ncc(C[NH+]3CCC4(CC3)NC(=O)C[C@H]4C(=O)NCCCCNC(=O)c3ccc(-c4c5nc(c(-c6ccccc6)c6ccc([nH]6)c(-c6ccccc6)c6nc(c(-c7ccccc7)c7ccc4[nH]7)C=C6)C=C5)cc3)cn2)c1
REMARK SMILES IDX 27 1 26 2 25 3 23 4 24 5 22 7 12 8 13 9 17 10 14 12 16 13
REMARK SMILES IDX 15 14 18 15 19 16 21 18 20 19 11 20 10 21 7 22 8 23 82 24
REMARK SMILES IDX 9 25 81 26 6 27 1 28 2 29 3 30 83 31 4 32 5 33 28 34 29 35
REMARK SMILES IDX 30 36 31 37 32 39 33 40 34 41 80 42 35 43 79 44 36 45 37 46
REMARK SMILES IDX 38 47 73 48 39 49 78 50 72 51 74 52 40 53 77 54 71 55 70 56
REMARK SMILES IDX 41 58 63 59 48 60 62 61 49 62 52 63 61 64 75 65 50 66 51 67
REMARK SMILES IDX 60 69 76 70 53 71 42 72 43 73 47 74 44 75 46 76 45 77 64 78
REMARK SMILES IDX 65 79 69 80 66 81 68 82 67 83 54 84 55 85 59 86 56 87 58 88
REMARK SMILES IDX 57 89
REMARK H PARENT 25 6 12 11 18 17 30 38 74 57 52 68
REMARK Flexibility Score: inf
ROOT
ATOM      1  C   UNL A   1      33.362  27.777  26.616  1.00  0.00     0.023 C 
ENDROOT
BRANCH   1   2
ATOM      2  C   UNL A   1      33.088  26.683  25.565  1.00  0.00     0.116 C 
BRANCH   2   3
ATOM      3  N   UNL A   1      32.562  25.406  26.053  1.00  0.00    -0.356 N 
ATOM      4  C   UNL A   1      32.700  24.094  25.714  1.00  0.00     0.226 C 
ATOM      5  O   UNL A   1      32.159  23.285  26.480  1.00  0.00    -0.275 OA
ATOM      6  H   UNL A   1      31.954  25.526  26.818  1.00  0.00     0.163 HD
BRANCH   4   7
ATOM      7  C   UNL A   1      33.396  23.546  24.459  1.00  0.00     0.114 C 
ATOM      8  N   UNL A   1      37.512  23.146  25.175  1.00  0.00    -0.331 N 
ATOM      9  C   UNL A   1      37.033  23.199  23.803  1.00  0.00     0.264 C 
ATOM     10  C   UNL A   1      36.507  23.641  26.093  1.00  0.00     0.264 C 
ATOM     11  H   UNL A   1      38.292  23.804  25.191  1.00  0.00     0.348 HD
ATOM     12  C   UNL A   1      35.646  22.607  23.525  1.00  0.00     0.091 C 
ATOM     13  C   UNL A   1      35.248  22.796  26.068  1.00  0.00     0.091 C 
ATOM     14  C   UNL A   1      34.600  22.604  24.686  1.00  0.00     0.063 C 
ATOM     15  N   UNL A   1      33.931  21.314  24.567  1.00  0.00    -0.349 N 
ATOM     16  C   UNL A   1      32.773  21.345  23.812  1.00  0.00     0.221 C 
ATOM     17  H   UNL A   1      34.275  20.492  24.987  1.00  0.00     0.164 HD
ATOM     18  C   UNL A   1      32.420  22.786  23.560  1.00  0.00     0.116 C 
ATOM     19  O   UNL A   1      32.157  20.378  23.435  1.00  0.00    -0.275 OA
BRANCH   8  20
ATOM     20  C   UNL A   1      38.318  21.994  25.616  1.00  0.00     0.302 C 
BRANCH  20  21
ATOM     21  C   UNL A   1      39.498  22.265  26.506  1.00  0.00     0.043 A 
ATOM     22  C   UNL A   1      41.787  23.048  27.759  1.00  0.00     0.159 A 
ATOM     23  N   UNL A   1      40.679  23.800  27.922  1.00  0.00    -0.236 NA
ATOM     24  N   UNL A   1      41.818  21.882  27.085  1.00  0.00    -0.236 NA
ATOM     25  C   UNL A   1      39.551  23.363  27.332  1.00  0.00     0.124 A 
ATOM     26  C   UNL A   1      40.664  21.516  26.478  1.00  0.00     0.124 A 
BRANCH  22  27
ATOM     27  C   UNL A   1      43.059  23.642  28.203  1.00  0.00     0.019 A 
ATOM     28  C   UNL A   1      46.656  23.843  26.923  1.00  0.00     0.044 C 
ATOM     29  C   UNL A   1      45.456  24.049  27.801  1.00  0.00    -0.050 A 
ATOM     30  C   UNL A   1      45.522  24.794  28.979  1.00  0.00     0.003 A 
ATOM     31  C   UNL A   1      44.224  23.499  27.420  1.00  0.00     0.015 A 
ATOM     32  C   UNL A   1      44.386  24.946  29.777  1.00  0.00     0.001 A 
ATOM     33  C   UNL A   1      43.171  24.362  29.401  1.00  0.00     0.012 A 
ENDBRANCH  22  27
ENDBRANCH  20  21
ENDBRANCH   8  20
ENDBRANCH   4   7
ENDBRANCH   2   3
ENDBRANCH   1   2
BRANCH   1  34
ATOM     34  C   UNL A   1      34.673  28.557  26.470  1.00  0.00     0.023 C 
BRANCH  34  35
ATOM     35  C   UNL A   1      34.824  29.667  27.500  1.00  0.00     0.116 C 
BRANCH  35  36
ATOM     36  N   UNL A   1      33.917  30.802  27.333  1.00  0.00    -0.352 N 
ATOM     37  C   UNL A   1      33.913  32.018  28.003  1.00  0.00     0.251 C 
ATOM     38  H   UNL A   1      33.213  30.688  26.654  1.00  0.00     0.163 HD
ATOM     39  O   UNL A   1      33.047  32.857  27.778  1.00  0.00    -0.269 OA
BRANCH  37  40
ATOM     40  C   UNL A   1      35.056  32.351  28.888  1.00  0.00     0.039 A 
ATOM     41  C   UNL A   1      36.046  33.195  28.374  1.00  0.00     0.014 A 
ATOM     42  C   UNL A   1      35.293  31.597  30.031  1.00  0.00     0.014 A 
ATOM     43  C   UNL A   1      37.355  33.040  28.814  1.00  0.00     0.010 A 
ATOM     44  C   UNL A   1      36.604  31.348  30.378  1.00  0.00     0.010 A 
ATOM     45  C   UNL A   1      37.637  32.014  29.711  1.00  0.00    -0.014 A 
BRANCH  45  46
ATOM     46  C   UNL A   1      38.979  31.494  29.934  1.00  0.00     0.031 A 
ATOM     47  C   UNL A   1      39.427  30.299  29.201  1.00  0.00     0.074 A 
ATOM     48  C   UNL A   1      39.826  32.146  30.760  1.00  0.00     0.049 A 
ATOM     49  N   UNL A   1      40.380  29.524  29.589  1.00  0.00    -0.248 NA
ATOM     50  C   UNL A   1      38.773  29.846  27.980  1.00  0.00     0.031 C 
ATOM     51  C   UNL A   1      41.265  31.950  30.911  1.00  0.00     0.029 A 
ATOM     52  N   UNL A   1      39.481  32.984  31.818  1.00  0.00    -0.354 N 
ATOM     53  C   UNL A   1      40.659  28.669  28.551  1.00  0.00     0.074 A 
ATOM     54  C   UNL A   1      39.573  28.841  27.617  1.00  0.00     0.031 C 
ATOM     55  C   UNL A   1      41.643  32.415  32.114  1.00  0.00     0.029 A 
ATOM     56  C   UNL A   1      40.434  32.781  32.833  1.00  0.00     0.049 A 
ATOM     57  H   UNL A   1      38.715  33.603  31.849  1.00  0.00     0.167 HD
ATOM     58  C   UNL A   1      41.858  28.020  28.529  1.00  0.00     0.031 A 
ATOM     59  C   UNL A   1      40.062  32.277  34.047  1.00  0.00     0.031 A 
ATOM     60  C   UNL A   1      42.616  28.257  29.757  1.00  0.00     0.049 A 
ATOM     61  C   UNL A   1      40.723  30.956  34.380  1.00  0.00     0.074 A 
ATOM     62  C   UNL A   1      43.663  29.107  30.073  1.00  0.00     0.029 A 
ATOM     63  N   UNL A   1      42.111  27.789  30.964  1.00  0.00    -0.354 N 
ATOM     64  N   UNL A   1      41.287  30.184  33.493  1.00  0.00    -0.248 NA
ATOM     65  C   UNL A   1      40.769  30.383  35.723  1.00  0.00     0.031 C 
ATOM     66  C   UNL A   1      43.730  29.210  31.489  1.00  0.00     0.029 A 
ATOM     67  C   UNL A   1      42.752  28.395  32.026  1.00  0.00     0.049 A 
ATOM     68  H   UNL A   1      41.395  27.119  31.050  1.00  0.00     0.167 HD
ATOM     69  C   UNL A   1      41.756  29.049  34.101  1.00  0.00     0.074 A 
ATOM     70  C   UNL A   1      41.416  29.224  35.501  1.00  0.00     0.031 C 
ATOM     71  C   UNL A   1      42.372  28.058  33.393  1.00  0.00     0.031 A 
BRANCH  58  72
ATOM     72  C   UNL A   1      42.458  27.421  27.280  1.00  0.00    -0.014 A 
ATOM     73  C   UNL A   1      41.664  26.603  26.456  1.00  0.00     0.009 A 
ATOM     74  C   UNL A   1      43.802  27.556  26.891  1.00  0.00     0.009 A 
ATOM     75  C   UNL A   1      42.199  25.893  25.372  1.00  0.00     0.001 A 
ATOM     76  C   UNL A   1      44.354  26.824  25.831  1.00  0.00     0.001 A 
ATOM     77  C   UNL A   1      43.553  25.982  25.077  1.00  0.00     0.000 A 
ENDBRANCH  58  72
BRANCH  59  78
ATOM     78  C   UNL A   1      38.673  32.663  34.439  1.00  0.00    -0.014 A 
ATOM     79  C   UNL A   1      38.442  34.008  34.795  1.00  0.00     0.009 A 
ATOM     80  C   UNL A   1      37.573  31.867  34.093  1.00  0.00     0.009 A 
ATOM     81  C   UNL A   1      37.175  34.577  34.648  1.00  0.00     0.001 A 
ATOM     82  C   UNL A   1      36.294  32.436  33.993  1.00  0.00     0.001 A 
ATOM     83  C   UNL A   1      36.106  33.797  34.227  1.00  0.00     0.000 A 
ENDBRANCH  59  78
BRANCH  71  84
ATOM     84  C   UNL A   1      42.727  26.682  33.899  1.00  0.00    -0.014 A 
ATOM     85  C   UNL A   1      41.951  25.944  34.801  1.00  0.00     0.009 A 
ATOM     86  C   UNL A   1      43.832  26.012  33.321  1.00  0.00     0.009 A 
ATOM     87  C   UNL A   1      42.278  24.620  35.130  1.00  0.00     0.001 A 
ATOM     88  C   UNL A   1      44.134  24.680  33.609  1.00  0.00     0.001 A 
ATOM     89  C   UNL A   1      43.359  23.986  34.525  1.00  0.00     0.000 A 
ENDBRANCH  71  84
ENDBRANCH  45  46
ENDBRANCH  37  40
ENDBRANCH  35  36
ENDBRANCH  34  35
ENDBRANCH   1  34
TORSDOF 14
ENDMDL
MODEL 3
REMARK VINA RESULT:     -12.9      1.820      2.896
REMARK SMILES Cc1cccc(-c2ncc(C[NH+]3CCC4(CC3)NC(=O)C[C@H]4C(=O)NCCCCNC(=O)c3ccc(-c4c5nc(c(-c6ccccc6)c6ccc([nH]6)c(-c6ccccc6)c6nc(c(-c7ccccc7)c7ccc4[nH]7)C=C6)C=C5)cc3)cn2)c1
REMARK SMILES IDX 27 1 26 2 25 3 23 4 24 5 22 7 12 8 13 9 17 10 14 12 16 13
REMARK SMILES IDX 15 14 18 15 19 16 21 18 20 19 11 20 10 21 7 22 8 23 82 24
REMARK SMILES IDX 9 25 81 26 6 27 1 28 2 29 3 30 83 31 4 32 5 33 28 34 29 35
REMARK SMILES IDX 30 36 31 37 32 39 33 40 34 41 80 42 35 43 79 44 36 45 37 46
REMARK SMILES IDX 38 47 73 48 39 49 78 50 72 51 74 52 40 53 77 54 71 55 70 56
REMARK SMILES IDX 41 58 63 59 48 60 62 61 49 62 52 63 61 64 75 65 50 66 51 67
REMARK SMILES IDX 60 69 76 70 53 71 42 72 43 73 47 74 44 75 46 76 45 77 64 78
REMARK SMILES IDX 65 79 69 80 66 81 68 82 67 83 54 84 55 85 59 86 56 87 58 88
REMARK SMILES IDX 57 89
REMARK H PARENT 25 6 12 11 18 17 30 38 74 57 52 68
REMARK Flexibility Score: inf
ROOT
ATOM      1  C   UNL A   1      33.619  28.997  26.418  1.00  0.00     0.023 C 
ENDROOT
BRANCH   1   2
ATOM      2  C   UNL A   1      32.704  30.093  25.837  1.00  0.00     0.116 C 
BRANCH   2   3
ATOM      3  N   UNL A   1      32.064  29.814  24.549  1.00  0.00    -0.356 N 
ATOM      4  C   UNL A   1      32.135  28.830  23.611  1.00  0.00     0.226 C 
ATOM      5  O   UNL A   1      31.312  28.911  22.689  1.00  0.00    -0.275 OA
ATOM      6  H   UNL A   1      31.422  30.516  24.298  1.00  0.00     0.163 HD
BRANCH   4   7
ATOM      7  C   UNL A   1      33.165  27.691  23.561  1.00  0.00     0.114 C 
ATOM      8  N   UNL A   1      32.414  24.959  26.657  1.00  0.00    -0.331 N 
ATOM      9  C   UNL A   1      33.727  24.979  26.034  1.00  0.00     0.264 C 
ATOM     10  C   UNL A   1      31.684  26.175  26.366  1.00  0.00     0.264 C 
ATOM     11  H   UNL A   1      32.614  24.955  27.657  1.00  0.00     0.348 HD
ATOM     12  C   UNL A   1      33.788  25.356  24.548  1.00  0.00     0.091 C 
ATOM     13  C   UNL A   1      31.427  26.342  24.880  1.00  0.00     0.091 C 
ATOM     14  C   UNL A   1      32.671  26.287  23.977  1.00  0.00     0.063 C 
ATOM     15  N   UNL A   1      32.372  25.731  22.663  1.00  0.00    -0.349 N 
ATOM     16  C   UNL A   1      33.083  26.310  21.629  1.00  0.00     0.221 C 
ATOM     17  H   UNL A   1      31.721  25.005  22.524  1.00  0.00     0.164 HD
ATOM     18  C   UNL A   1      33.768  27.538  22.164  1.00  0.00     0.116 C 
ATOM     19  O   UNL A   1      33.131  25.897  20.495  1.00  0.00    -0.275 OA
BRANCH   8  20
ATOM     20  C   UNL A   1      31.646  23.701  26.684  1.00  0.00     0.302 C 
BRANCH  20  21
ATOM     21  C   UNL A   1      32.287  22.475  26.100  1.00  0.00     0.043 A 
ATOM     22  C   UNL A   1      33.077  20.012  25.243  1.00  0.00     0.159 A 
ATOM     23  N   UNL A   1      32.221  20.713  24.473  1.00  0.00    -0.236 NA
ATOM     24  N   UNL A   1      33.639  20.485  26.373  1.00  0.00    -0.236 NA
ATOM     25  C   UNL A   1      31.887  21.946  24.896  1.00  0.00     0.124 A 
ATOM     26  C   UNL A   1      33.232  21.713  26.770  1.00  0.00     0.124 A 
BRANCH  22  27
ATOM     27  C   UNL A   1      33.257  18.591  24.906  1.00  0.00     0.019 A 
ATOM     28  C   UNL A   1      32.024  15.220  26.222  1.00  0.00     0.044 C 
ATOM     29  C   UNL A   1      32.741  16.226  25.370  1.00  0.00    -0.050 A 
ATOM     30  C   UNL A   1      33.528  15.846  24.282  1.00  0.00     0.003 A 
ATOM     31  C   UNL A   1      32.602  17.591  25.656  1.00  0.00     0.015 A 
ATOM     32  C   UNL A   1      34.193  16.813  23.527  1.00  0.00     0.001 A 
ATOM     33  C   UNL A   1      34.072  18.170  23.845  1.00  0.00     0.012 A 
ENDBRANCH  22  27
ENDBRANCH  20  21
ENDBRANCH   8  20
ENDBRANCH   4   7
ENDBRANCH   2   3
ENDBRANCH   1   2
BRANCH   1  34
ATOM     34  C   UNL A   1      34.427  29.367  27.667  1.00  0.00     0.023 C 
BRANCH  34  35
ATOM     35  C   UNL A   1      35.082  30.737  27.568  1.00  0.00     0.116 C 
BRANCH  35  36
ATOM     36  N   UNL A   1      34.175  31.875  27.705  1.00  0.00    -0.352 N 
ATOM     37  C   UNL A   1      34.246  32.942  28.591  1.00  0.00     0.251 C 
ATOM     38  H   UNL A   1      33.410  31.887  27.086  1.00  0.00     0.163 HD
ATOM     39  O   UNL A   1      33.372  33.801  28.612  1.00  0.00    -0.269 OA
BRANCH  37  40
ATOM     40  C   UNL A   1      35.470  33.110  29.414  1.00  0.00     0.039 A 
ATOM     41  C   UNL A   1      36.546  33.792  28.837  1.00  0.00     0.014 A 
ATOM     42  C   UNL A   1      35.651  32.339  30.555  1.00  0.00     0.014 A 
ATOM     43  C   UNL A   1      37.838  33.448  29.214  1.00  0.00     0.010 A 
ATOM     44  C   UNL A   1      36.926  31.901  30.841  1.00  0.00     0.010 A 
ATOM     45  C   UNL A   1      38.011  32.399  30.113  1.00  0.00    -0.014 A 
BRANCH  45  46
ATOM     46  C   UNL A   1      39.271  31.688  30.278  1.00  0.00     0.031 A 
ATOM     47  C   UNL A   1      39.461  30.385  29.621  1.00  0.00     0.074 A 
ATOM     48  C   UNL A   1      40.280  32.254  30.976  1.00  0.00     0.049 A 
ATOM     49  N   UNL A   1      40.314  29.498  30.002  1.00  0.00    -0.248 NA
ATOM     50  C   UNL A   1      38.639  29.953  28.498  1.00  0.00     0.031 C 
ATOM     51  C   UNL A   1      41.678  31.840  31.033  1.00  0.00     0.029 A 
ATOM     52  N   UNL A   1      40.164  33.214  31.979  1.00  0.00    -0.354 N 
ATOM     53  C   UNL A   1      40.364  28.533  29.024  1.00  0.00     0.074 A 
ATOM     54  C   UNL A   1      39.238  28.808  28.165  1.00  0.00     0.031 C 
ATOM     55  C   UNL A   1      42.229  32.327  32.159  1.00  0.00     0.029 A 
ATOM     56  C   UNL A   1      41.161  32.936  32.932  1.00  0.00     0.049 A 
ATOM     57  H   UNL A   1      39.509  33.949  32.014  1.00  0.00     0.167 HD
ATOM     58  C   UNL A   1      41.441  27.700  28.969  1.00  0.00     0.031 A 
ATOM     59  C   UNL A   1      40.825  32.591  34.211  1.00  0.00     0.031 A 
ATOM     60  C   UNL A   1      42.334  27.902  30.109  1.00  0.00     0.049 A 
ATOM     61  C   UNL A   1      41.301  31.210  34.608  1.00  0.00     0.074 A 
ATOM     62  C   UNL A   1      43.524  28.593  30.268  1.00  0.00     0.029 A 
ATOM     63  N   UNL A   1      41.871  27.613  31.388  1.00  0.00    -0.354 N 
ATOM     64  N   UNL A   1      41.657  30.292  33.752  1.00  0.00    -0.248 NA
ATOM     65  C   UNL A   1      41.377  30.738  35.989  1.00  0.00     0.031 C 
ATOM     66  C   UNL A   1      43.732  28.790  31.660  1.00  0.00     0.029 A 
ATOM     67  C   UNL A   1      42.691  28.185  32.341  1.00  0.00     0.049 A 
ATOM     68  H   UNL A   1      41.071  27.076  31.587  1.00  0.00     0.167 HD
ATOM     69  C   UNL A   1      41.997  29.145  34.419  1.00  0.00     0.074 A 
ATOM     70  C   UNL A   1      41.814  29.476  35.821  1.00  0.00     0.031 C 
ATOM     71  C   UNL A   1      42.387  28.017  33.756  1.00  0.00     0.031 A 
BRANCH  58  72
ATOM     72  C   UNL A   1      41.827  26.920  27.735  1.00  0.00    -0.014 A 
ATOM     73  C   UNL A   1      43.157  26.967  27.276  1.00  0.00     0.009 A 
ATOM     74  C   UNL A   1      40.934  26.181  26.939  1.00  0.00     0.009 A 
ATOM     75  C   UNL A   1      43.545  26.395  26.056  1.00  0.00     0.001 A 
ATOM     76  C   UNL A   1      41.304  25.638  25.702  1.00  0.00     0.001 A 
ATOM     77  C   UNL A   1      42.610  25.754  25.254  1.00  0.00     0.000 A 
ENDBRANCH  58  72
BRANCH  59  78
ATOM     78  C   UNL A   1      39.554  33.224  34.673  1.00  0.00    -0.014 A 
ATOM     79  C   UNL A   1      38.340  32.640  34.255  1.00  0.00     0.009 A 
ATOM     80  C   UNL A   1      39.531  34.089  35.776  1.00  0.00     0.009 A 
ATOM     81  C   UNL A   1      37.178  32.785  35.016  1.00  0.00     0.001 A 
ATOM     82  C   UNL A   1      38.347  34.267  36.508  1.00  0.00     0.001 A 
ATOM     83  C   UNL A   1      37.187  33.581  36.154  1.00  0.00     0.000 A 
ENDBRANCH  59  78
BRANCH  71  84
ATOM     84  C   UNL A   1      42.569  26.643  34.353  1.00  0.00    -0.014 A 
ATOM     85  C   UNL A   1      41.614  25.989  35.141  1.00  0.00     0.009 A 
ATOM     86  C   UNL A   1      43.706  25.888  33.979  1.00  0.00     0.009 A 
ATOM     87  C   UNL A   1      41.800  24.662  35.557  1.00  0.00     0.001 A 
ATOM     88  C   UNL A   1      43.872  24.553  34.351  1.00  0.00     0.001 A 
ATOM     89  C   UNL A   1      42.920  23.942  35.151  1.00  0.00     0.000 A 
ENDBRANCH  71  84
ENDBRANCH  45  46
ENDBRANCH  37  40
ENDBRANCH  35  36
ENDBRANCH  34  35
ENDBRANCH   1  34
TORSDOF 14
ENDMDL
