MODEL 1
REMARK VINA RESULT:     -10.7      0.000      0.000
REMARK SMILES C/C(=C(\C#N)C(=O)NCCCCNC(=O)c1ccc(-c2c3nc(c(-c4ccccc4)c4ccc([nH]4)c(-c4ccccc4)c4nc(c(-c5ccccc5)c5ccc2[nH]5)C=C4)C=C3)cc1)c1cccc2ccccc12
REMARK SMILES IDX 11 1 10 2 9 3 8 4 6 5 7 6 3 8 1 9 2 10 64 11 65 12 73 13
REMARK SMILES IDX 66 14 68 15 72 16 67 17 69 18 71 19 70 20 4 21 5 22 12 23
REMARK SMILES IDX 13 24 14 25 15 27 16 28 17 29 63 30 18 31 62 32 19 33 20 34
REMARK SMILES IDX 21 35 56 36 22 37 61 38 55 39 57 40 23 41 60 42 54 43 53 44
REMARK SMILES IDX 24 46 46 47 31 48 45 49 32 50 35 51 44 52 58 53 33 54 34 55
REMARK SMILES IDX 43 57 59 58 36 59 25 60 26 61 30 62 27 63 29 64 28 65 47 66
REMARK SMILES IDX 48 67 52 68 49 69 51 70 50 71 37 72 38 73 42 74 39 75 41 76
REMARK SMILES IDX 40 77
REMARK H PARENT 8 7 13 26 57 45 35 56
REMARK Flexibility Score: inf
ROOT
ATOM      1  C   UNL A   1      34.014  28.441  25.705  1.00  0.00     0.023 C 
ENDROOT
BRANCH   1   2
ATOM      2  C   UNL A   1      33.855  27.017  25.164  1.00  0.00     0.023 C 
BRANCH   2   3
ATOM      3  C   UNL A   1      32.937  26.927  23.950  1.00  0.00     0.116 C 
BRANCH   3   4
ATOM      4  N   UNL A   1      32.865  25.583  23.409  1.00  0.00    -0.351 N 
ATOM      5  C   UNL A   1      32.454  24.371  23.875  1.00  0.00     0.262 C 
ATOM      6  O   UNL A   1      32.322  23.529  22.984  1.00  0.00    -0.268 OA
ATOM      7  H   UNL A   1      33.192  25.534  22.481  1.00  0.00     0.163 HD
BRANCH   5   8
ATOM      8  C   UNL A   1      32.130  24.070  25.337  1.00  0.00     0.120 C 
ATOM      9  C   UNL A   1      32.140  22.585  27.370  1.00  0.00     0.046 C 
ATOM     10  C   UNL A   1      32.668  23.013  26.024  1.00  0.00    -0.020 C 
BRANCH  10  11
ATOM     11  C   UNL A   1      33.848  22.221  25.496  1.00  0.00    -0.013 A 
ATOM     12  C   UNL A   1      33.511  20.978  24.916  1.00  0.00     0.009 A 
ATOM     13  C   UNL A   1      35.245  22.560  25.594  1.00  0.00    -0.011 A 
ATOM     14  C   UNL A   1      34.467  19.992  24.700  1.00  0.00     0.001 A 
ATOM     15  C   UNL A   1      36.199  21.513  25.425  1.00  0.00    -0.018 A 
ATOM     16  C   UNL A   1      35.799  23.851  25.816  1.00  0.00     0.009 A 
ATOM     17  C   UNL A   1      35.791  20.238  25.029  1.00  0.00     0.009 A 
ATOM     18  C   UNL A   1      37.574  21.735  25.613  1.00  0.00     0.009 A 
ATOM     19  C   UNL A   1      37.184  24.079  25.878  1.00  0.00     0.001 A 
ATOM     20  C   UNL A   1      38.070  23.015  25.820  1.00  0.00     0.001 A 
ENDBRANCH  10  11
BRANCH   8  21
ATOM     21  C   UNL A   1      31.043  24.950  25.933  1.00  0.00     0.105 C 
ATOM     22  N   UNL A   1      30.141  25.680  26.427  1.00  0.00    -0.192 NA
ENDBRANCH   8  21
ENDBRANCH   5   8
ENDBRANCH   3   4
ENDBRANCH   2   3
ENDBRANCH   1   2
BRANCH   1  23
ATOM     23  C   UNL A   1      33.715  28.600  27.195  1.00  0.00     0.116 C 
BRANCH  23  24
ATOM     24  N   UNL A   1      33.688  29.985  27.636  1.00  0.00    -0.352 N 
ATOM     25  C   UNL A   1      34.680  30.706  28.256  1.00  0.00     0.251 C 
ATOM     26  H   UNL A   1      32.848  30.472  27.468  1.00  0.00     0.163 HD
ATOM     27  O   UNL A   1      34.463  31.831  28.680  1.00  0.00    -0.269 OA
BRANCH  25  28
ATOM     28  C   UNL A   1      36.005  30.082  28.442  1.00  0.00     0.039 A 
ATOM     29  C   UNL A   1      36.925  30.149  27.396  1.00  0.00     0.014 A 
ATOM     30  C   UNL A   1      36.346  29.466  29.649  1.00  0.00     0.014 A 
ATOM     31  C   UNL A   1      38.210  29.645  27.584  1.00  0.00     0.010 A 
ATOM     32  C   UNL A   1      37.653  29.043  29.863  1.00  0.00     0.010 A 
ATOM     33  C   UNL A   1      38.596  29.120  28.831  1.00  0.00    -0.014 A 
BRANCH  33  34
ATOM     34  C   UNL A   1      39.991  28.667  29.050  1.00  0.00     0.031 A 
ATOM     35  C   UNL A   1      40.417  27.279  28.659  1.00  0.00     0.074 A 
ATOM     36  C   UNL A   1      40.874  29.514  29.614  1.00  0.00     0.049 A 
ATOM     37  N   UNL A   1      41.611  26.743  28.701  1.00  0.00    -0.248 NA
ATOM     38  C   UNL A   1      39.367  26.365  28.180  1.00  0.00     0.031 C 
ATOM     39  C   UNL A   1      40.566  30.862  30.094  1.00  0.00     0.029 A 
ATOM     40  N   UNL A   1      42.215  29.371  29.861  1.00  0.00    -0.354 N 
ATOM     41  C   UNL A   1      41.454  25.436  28.258  1.00  0.00     0.074 A 
ATOM     42  C   UNL A   1      40.042  25.237  28.015  1.00  0.00     0.031 C 
ATOM     43  C   UNL A   1      41.696  31.446  30.523  1.00  0.00     0.029 A 
ATOM     44  C   UNL A   1      42.798  30.501  30.382  1.00  0.00     0.049 A 
ATOM     45  H   UNL A   1      42.712  28.541  29.683  1.00  0.00     0.167 HD
ATOM     46  C   UNL A   1      42.402  24.493  28.045  1.00  0.00     0.031 A 
ATOM     47  C   UNL A   1      44.082  30.753  30.698  1.00  0.00     0.031 A 
ATOM     48  C   UNL A   1      43.806  24.692  28.291  1.00  0.00     0.049 A 
ATOM     49  C   UNL A   1      45.114  29.689  30.453  1.00  0.00     0.074 A 
ATOM     50  C   UNL A   1      44.855  23.818  28.062  1.00  0.00     0.029 A 
ATOM     51  N   UNL A   1      44.357  25.844  28.831  1.00  0.00    -0.354 N 
ATOM     52  N   UNL A   1      44.963  28.488  29.949  1.00  0.00    -0.248 NA
ATOM     53  C   UNL A   1      46.500  30.027  30.802  1.00  0.00     0.031 C 
ATOM     54  C   UNL A   1      46.032  24.420  28.519  1.00  0.00     0.029 A 
ATOM     55  C   UNL A   1      45.727  25.695  28.967  1.00  0.00     0.049 A 
ATOM     56  H   UNL A   1      43.849  26.650  29.080  1.00  0.00     0.167 HD
ATOM     57  C   UNL A   1      46.237  27.937  29.896  1.00  0.00     0.074 A 
ATOM     58  C   UNL A   1      47.150  28.948  30.389  1.00  0.00     0.031 C 
ATOM     59  C   UNL A   1      46.620  26.705  29.477  1.00  0.00     0.031 A 
BRANCH  46  60
ATOM     60  C   UNL A   1      41.946  23.157  27.524  1.00  0.00    -0.014 A 
ATOM     61  C   UNL A   1      41.965  22.865  26.149  1.00  0.00     0.009 A 
ATOM     62  C   UNL A   1      41.522  22.163  28.419  1.00  0.00     0.009 A 
ATOM     63  C   UNL A   1      41.533  21.622  25.681  1.00  0.00     0.001 A 
ATOM     64  C   UNL A   1      41.123  20.909  27.952  1.00  0.00     0.001 A 
ATOM     65  C   UNL A   1      41.119  20.644  26.583  1.00  0.00     0.000 A 
ENDBRANCH  46  60
BRANCH  47  66
ATOM     66  C   UNL A   1      44.471  32.079  31.251  1.00  0.00    -0.014 A 
ATOM     67  C   UNL A   1      44.892  33.113  30.401  1.00  0.00     0.009 A 
ATOM     68  C   UNL A   1      44.438  32.310  32.634  1.00  0.00     0.009 A 
ATOM     69  C   UNL A   1      45.304  34.339  30.928  1.00  0.00     0.001 A 
ATOM     70  C   UNL A   1      44.816  33.548  33.156  1.00  0.00     0.001 A 
ATOM     71  C   UNL A   1      45.262  34.557  32.304  1.00  0.00     0.000 A 
ENDBRANCH  47  66
BRANCH  59  72
ATOM     72  C   UNL A   1      48.093  26.403  29.511  1.00  0.00    -0.014 A 
ATOM     73  C   UNL A   1      48.696  25.821  30.638  1.00  0.00     0.009 A 
ATOM     74  C   UNL A   1      48.890  26.709  28.398  1.00  0.00     0.009 A 
ATOM     75  C   UNL A   1      50.075  25.607  30.670  1.00  0.00     0.001 A 
ATOM     76  C   UNL A   1      50.263  26.460  28.418  1.00  0.00     0.001 A 
ATOM     77  C   UNL A   1      50.857  25.924  29.560  1.00  0.00     0.000 A 
ENDBRANCH  59  72
ENDBRANCH  33  34
ENDBRANCH  25  28
ENDBRANCH  23  24
ENDBRANCH   1  23
TORSDOF 13
ENDMDL
MODEL 2
REMARK VINA RESULT:     -10.7      1.327      1.898
REMARK SMILES C/C(=C(\C#N)C(=O)NCCCCNC(=O)c1ccc(-c2c3nc(c(-c4ccccc4)c4ccc([nH]4)c(-c4ccccc4)c4nc(c(-c5ccccc5)c5ccc2[nH]5)C=C4)C=C3)cc1)c1cccc2ccccc12
REMARK SMILES IDX 11 1 10 2 9 3 8 4 6 5 7 6 3 8 1 9 2 10 64 11 65 12 73 13
REMARK SMILES IDX 66 14 68 15 72 16 67 17 69 18 71 19 70 20 4 21 5 22 12 23
REMARK SMILES IDX 13 24 14 25 15 27 16 28 17 29 63 30 18 31 62 32 19 33 20 34
REMARK SMILES IDX 21 35 56 36 22 37 61 38 55 39 57 40 23 41 60 42 54 43 53 44
REMARK SMILES IDX 24 46 46 47 31 48 45 49 32 50 35 51 44 52 58 53 33 54 34 55
REMARK SMILES IDX 43 57 59 58 36 59 25 60 26 61 30 62 27 63 29 64 28 65 47 66
REMARK SMILES IDX 48 67 52 68 49 69 51 70 50 71 37 72 38 73 42 74 39 75 41 76
REMARK SMILES IDX 40 77
REMARK H PARENT 8 7 13 26 57 45 35 56
REMARK Flexibility Score: inf
ROOT
ATOM      1  C   UNL A   1      33.341  28.951  25.868  1.00  0.00     0.023 C 
ENDROOT
BRANCH   1   2
ATOM      2  C   UNL A   1      33.658  27.746  24.977  1.00  0.00     0.023 C 
BRANCH   2   3
ATOM      3  C   UNL A   1      33.761  26.432  25.746  1.00  0.00     0.116 C 
BRANCH   3   4
ATOM      4  N   UNL A   1      32.497  25.722  25.799  1.00  0.00    -0.351 N 
ATOM      5  C   UNL A   1      31.694  25.104  24.889  1.00  0.00     0.262 C 
ATOM      6  O   UNL A   1      30.830  24.395  25.410  1.00  0.00    -0.268 OA
ATOM      7  H   UNL A   1      32.132  25.676  26.712  1.00  0.00     0.163 HD
BRANCH   5   8
ATOM      8  C   UNL A   1      31.855  25.213  23.375  1.00  0.00     0.120 C 
ATOM      9  C   UNL A   1      32.983  24.638  21.199  1.00  0.00     0.046 C 
ATOM     10  C   UNL A   1      32.632  24.357  22.638  1.00  0.00    -0.020 C 
BRANCH  10  11
ATOM     11  C   UNL A   1      33.166  23.057  23.206  1.00  0.00    -0.013 A 
ATOM     12  C   UNL A   1      32.293  21.954  23.074  1.00  0.00     0.009 A 
ATOM     13  C   UNL A   1      34.402  22.854  23.918  1.00  0.00    -0.011 A 
ATOM     14  C   UNL A   1      32.463  20.796  23.824  1.00  0.00     0.001 A 
ATOM     15  C   UNL A   1      34.523  21.683  24.725  1.00  0.00    -0.018 A 
ATOM     16  C   UNL A   1      35.555  23.686  23.887  1.00  0.00     0.009 A 
ATOM     17  C   UNL A   1      33.531  20.699  24.701  1.00  0.00     0.009 A 
ATOM     18  C   UNL A   1      35.649  21.463  25.536  1.00  0.00     0.009 A 
ATOM     19  C   UNL A   1      36.723  23.387  24.608  1.00  0.00     0.001 A 
ATOM     20  C   UNL A   1      36.755  22.300  25.466  1.00  0.00     0.001 A 
ENDBRANCH  10  11
BRANCH   8  21
ATOM     21  C   UNL A   1      31.203  26.442  22.762  1.00  0.00     0.105 C 
ATOM     22  N   UNL A   1      30.663  27.461  22.254  1.00  0.00    -0.192 NA
ENDBRANCH   8  21
ENDBRANCH   5   8
ENDBRANCH   3   4
ENDBRANCH   2   3
ENDBRANCH   1   2
BRANCH   1  23
ATOM     23  C   UNL A   1      33.857  28.843  27.302  1.00  0.00     0.116 C 
BRANCH  23  24
ATOM     24  N   UNL A   1      33.894  30.118  28.001  1.00  0.00    -0.352 N 
ATOM     25  C   UNL A   1      34.941  30.691  28.682  1.00  0.00     0.251 C 
ATOM     26  H   UNL A   1      33.059  30.640  27.984  1.00  0.00     0.163 HD
ATOM     27  O   UNL A   1      34.781  31.716  29.327  1.00  0.00    -0.269 OA
BRANCH  25  28
ATOM     28  C   UNL A   1      36.258  30.022  28.659  1.00  0.00     0.039 A 
ATOM     29  C   UNL A   1      37.019  30.093  27.492  1.00  0.00     0.014 A 
ATOM     30  C   UNL A   1      36.748  29.362  29.789  1.00  0.00     0.014 A 
ATOM     31  C   UNL A   1      38.300  29.545  27.479  1.00  0.00     0.010 A 
ATOM     32  C   UNL A   1      38.057  28.895  29.801  1.00  0.00     0.010 A 
ATOM     33  C   UNL A   1      38.844  28.974  28.644  1.00  0.00    -0.014 A 
BRANCH  33  34
ATOM     34  C   UNL A   1      40.240  28.473  28.647  1.00  0.00     0.031 A 
ATOM     35  C   UNL A   1      40.542  27.041  28.308  1.00  0.00     0.074 A 
ATOM     36  C   UNL A   1      41.238  29.319  28.969  1.00  0.00     0.049 A 
ATOM     37  N   UNL A   1      41.706  26.453  28.180  1.00  0.00    -0.248 NA
ATOM     38  C   UNL A   1      39.393  26.142  28.105  1.00  0.00     0.031 C 
ATOM     39  C   UNL A   1      41.067  30.715  29.379  1.00  0.00     0.029 A 
ATOM     40  N   UNL A   1      42.596  29.133  28.983  1.00  0.00    -0.354 N 
ATOM     41  C   UNL A   1      41.428  25.125  27.887  1.00  0.00     0.074 A 
ATOM     42  C   UNL A   1      39.990  24.974  27.920  1.00  0.00     0.031 C 
ATOM     43  C   UNL A   1      42.275  31.275  29.546  1.00  0.00     0.029 A 
ATOM     44  C   UNL A   1      43.301  30.271  29.292  1.00  0.00     0.049 A 
ATOM     45  H   UNL A   1      43.026  28.269  28.791  1.00  0.00     0.167 HD
ATOM     46  C   UNL A   1      42.290  24.124  27.589  1.00  0.00     0.031 A 
ATOM     47  C   UNL A   1      44.629  30.486  29.349  1.00  0.00     0.031 A 
ATOM     48  C   UNL A   1      43.721  24.274  27.561  1.00  0.00     0.049 A 
ATOM     49  C   UNL A   1      45.563  29.358  29.015  1.00  0.00     0.074 A 
ATOM     50  C   UNL A   1      44.681  23.336  27.224  1.00  0.00     0.029 A 
ATOM     51  N   UNL A   1      44.398  25.438  27.892  1.00  0.00    -0.354 N 
ATOM     52  N   UNL A   1      45.284  28.130  28.651  1.00  0.00    -0.248 NA
ATOM     53  C   UNL A   1      47.000  29.656  29.079  1.00  0.00     0.031 C 
ATOM     54  C   UNL A   1      45.941  23.915  27.408  1.00  0.00     0.029 A 
ATOM     55  C   UNL A   1      45.765  25.235  27.793  1.00  0.00     0.049 A 
ATOM     56  H   UNL A   1      43.971  26.284  28.158  1.00  0.00     0.167 HD
ATOM     57  C   UNL A   1      46.508  27.516  28.418  1.00  0.00     0.074 A 
ATOM     58  C   UNL A   1      47.528  28.519  28.651  1.00  0.00     0.031 C 
ATOM     59  C   UNL A   1      46.768  26.238  28.045  1.00  0.00     0.031 A 
BRANCH  46  60
ATOM     60  C   UNL A   1      41.703  22.774  27.275  1.00  0.00    -0.014 A 
ATOM     61  C   UNL A   1      41.748  21.725  28.209  1.00  0.00     0.009 A 
ATOM     62  C   UNL A   1      41.067  22.555  26.044  1.00  0.00     0.009 A 
ATOM     63  C   UNL A   1      41.203  20.476  27.902  1.00  0.00     0.001 A 
ATOM     64  C   UNL A   1      40.493  21.316  25.751  1.00  0.00     0.001 A 
ATOM     65  C   UNL A   1      40.571  20.274  26.676  1.00  0.00     0.000 A 
ENDBRANCH  46  60
BRANCH  47  66
ATOM     66  C   UNL A   1      45.155  31.831  29.707  1.00  0.00    -0.014 A 
ATOM     67  C   UNL A   1      45.355  32.808  28.719  1.00  0.00     0.009 A 
ATOM     68  C   UNL A   1      45.475  32.139  31.038  1.00  0.00     0.009 A 
ATOM     69  C   UNL A   1      45.896  34.051  29.052  1.00  0.00     0.001 A 
ATOM     70  C   UNL A   1      45.982  33.395  31.373  1.00  0.00     0.001 A 
ATOM     71  C   UNL A   1      46.206  34.345  30.379  1.00  0.00     0.000 A 
ENDBRANCH  47  66
BRANCH  59  72
ATOM     72  C   UNL A   1      48.212  25.870  27.841  1.00  0.00    -0.014 A 
ATOM     73  C   UNL A   1      49.027  25.476  28.914  1.00  0.00     0.009 A 
ATOM     74  C   UNL A   1      48.765  25.922  26.552  1.00  0.00     0.009 A 
ATOM     75  C   UNL A   1      50.380  25.199  28.709  1.00  0.00     0.001 A 
ATOM     76  C   UNL A   1      50.108  25.608  26.343  1.00  0.00     0.001 A 
ATOM     77  C   UNL A   1      50.919  25.263  27.424  1.00  0.00     0.000 A 
ENDBRANCH  59  72
ENDBRANCH  33  34
ENDBRANCH  25  28
ENDBRANCH  23  24
ENDBRANCH   1  23
TORSDOF 13
ENDMDL
MODEL 3
REMARK VINA RESULT:     -10.7      2.194      7.491
REMARK SMILES C/C(=C(\C#N)C(=O)NCCCCNC(=O)c1ccc(-c2c3nc(c(-c4ccccc4)c4ccc([nH]4)c(-c4ccccc4)c4nc(c(-c5ccccc5)c5ccc2[nH]5)C=C4)C=C3)cc1)c1cccc2ccccc12
REMARK SMILES IDX 11 1 10 2 9 3 8 4 6 5 7 6 3 8 1 9 2 10 64 11 65 12 73 13
REMARK SMILES IDX 66 14 68 15 72 16 67 17 69 18 71 19 70 20 4 21 5 22 12 23
REMARK SMILES IDX 13 24 14 25 15 27 16 28 17 29 63 30 18 31 62 32 19 33 20 34
REMARK SMILES IDX 21 35 56 36 22 37 61 38 55 39 57 40 23 41 60 42 54 43 53 44
REMARK SMILES IDX 24 46 46 47 31 48 45 49 32 50 35 51 44 52 58 53 33 54 34 55
REMARK SMILES IDX 43 57 59 58 36 59 25 60 26 61 30 62 27 63 29 64 28 65 47 66
REMARK SMILES IDX 48 67 52 68 49 69 51 70 50 71 37 72 38 73 42 74 39 75 41 76
REMARK SMILES IDX 40 77
REMARK H PARENT 8 7 13 26 57 45 35 56
REMARK Flexibility Score: inf
ROOT
ATOM      1  C   UNL A   1      38.847  21.423  25.537  1.00  0.00     0.023 C 
ENDROOT
BRANCH   1   2
ATOM      2  C   UNL A   1      38.731  22.772  26.253  1.00  0.00     0.023 C 
BRANCH   2   3
ATOM      3  C   UNL A   1      37.532  23.599  25.801  1.00  0.00     0.116 C 
BRANCH   3   4
ATOM      4  N   UNL A   1      37.253  23.440  24.386  1.00  0.00    -0.351 N 
ATOM      5  C   UNL A   1      36.193  23.002  23.650  1.00  0.00     0.262 C 
ATOM      6  O   UNL A   1      36.288  23.281  22.453  1.00  0.00    -0.268 OA
ATOM      7  H   UNL A   1      38.010  23.716  23.822  1.00  0.00     0.163 HD
BRANCH   5   8
ATOM      8  C   UNL A   1      34.975  22.284  24.227  1.00  0.00     0.120 C 
ATOM      9  C   UNL A   1      32.656  22.249  25.206  1.00  0.00     0.046 C 
ATOM     10  C   UNL A   1      33.758  22.891  24.402  1.00  0.00    -0.020 C 
BRANCH  10  11
ATOM     11  C   UNL A   1      33.424  24.229  23.774  1.00  0.00    -0.013 A 
ATOM     12  C   UNL A   1      32.997  24.160  22.430  1.00  0.00     0.009 A 
ATOM     13  C   UNL A   1      33.571  25.536  24.366  1.00  0.00    -0.011 A 
ATOM     14  C   UNL A   1      32.982  25.283  21.611  1.00  0.00     0.001 A 
ATOM     15  C   UNL A   1      33.610  26.663  23.492  1.00  0.00    -0.018 A 
ATOM     16  C   UNL A   1      33.653  25.843  25.752  1.00  0.00     0.009 A 
ATOM     17  C   UNL A   1      33.364  26.511  22.126  1.00  0.00     0.009 A 
ATOM     18  C   UNL A   1      33.860  27.958  23.977  1.00  0.00     0.009 A 
ATOM     19  C   UNL A   1      33.778  27.159  26.228  1.00  0.00     0.001 A 
ATOM     20  C   UNL A   1      33.925  28.212  25.340  1.00  0.00     0.001 A 
ENDBRANCH  10  11
BRANCH   8  21
ATOM     21  C   UNL A   1      35.257  20.879  24.735  1.00  0.00     0.105 C 
ATOM     22  N   UNL A   1      35.490  19.714  25.156  1.00  0.00    -0.192 NA
ENDBRANCH   8  21
ENDBRANCH   5   8
ENDBRANCH   3   4
ENDBRANCH   2   3
ENDBRANCH   1   2
BRANCH   1  23
ATOM     23  C   UNL A   1      39.276  20.258  26.426  1.00  0.00     0.116 C 
BRANCH  23  24
ATOM     24  N   UNL A   1      40.409  19.513  25.899  1.00  0.00    -0.352 N 
ATOM     25  C   UNL A   1      41.730  19.887  25.847  1.00  0.00     0.251 C 
ATOM     26  H   UNL A   1      40.202  18.623  25.531  1.00  0.00     0.163 HD
ATOM     27  O   UNL A   1      42.551  19.200  25.259  1.00  0.00    -0.269 OA
BRANCH  25  28
ATOM     28  C   UNL A   1      42.137  21.158  26.479  1.00  0.00     0.039 A 
ATOM     29  C   UNL A   1      42.445  22.241  25.655  1.00  0.00     0.014 A 
ATOM     30  C   UNL A   1      42.182  21.288  27.869  1.00  0.00     0.014 A 
ATOM     31  C   UNL A   1      42.744  23.474  26.231  1.00  0.00     0.010 A 
ATOM     32  C   UNL A   1      42.395  22.538  28.439  1.00  0.00     0.010 A 
ATOM     33  C   UNL A   1      42.687  23.642  27.627  1.00  0.00    -0.014 A 
BRANCH  33  34
ATOM     34  C   UNL A   1      42.920  24.978  28.227  1.00  0.00     0.031 A 
ATOM     35  C   UNL A   1      44.303  25.406  28.630  1.00  0.00     0.074 A 
ATOM     36  C   UNL A   1      41.872  25.802  28.417  1.00  0.00     0.049 A 
ATOM     37  N   UNL A   1      44.704  26.565  29.091  1.00  0.00    -0.248 NA
ATOM     38  C   UNL A   1      45.375  24.403  28.523  1.00  0.00     0.031 C 
ATOM     39  C   UNL A   1      40.474  25.476  28.127  1.00  0.00     0.029 A 
ATOM     40  N   UNL A   1      41.822  27.091  28.882  1.00  0.00    -0.354 N 
ATOM     41  C   UNL A   1      46.065  26.427  29.329  1.00  0.00     0.074 A 
ATOM     42  C   UNL A   1      46.411  25.056  29.027  1.00  0.00     0.031 C 
ATOM     43  C   UNL A   1      39.712  26.555  28.363  1.00  0.00     0.029 A 
ATOM     44  C   UNL A   1      40.561  27.635  28.855  1.00  0.00     0.049 A 
ATOM     45  H   UNL A   1      42.613  27.580  29.204  1.00  0.00     0.167 HD
ATOM     46  C   UNL A   1      46.953  27.364  29.738  1.00  0.00     0.031 A 
ATOM     47  C   UNL A   1      40.137  28.871  29.178  1.00  0.00     0.031 A 
ATOM     48  C   UNL A   1      46.605  28.726  30.043  1.00  0.00     0.049 A 
ATOM     49  C   UNL A   1      41.144  29.891  29.629  1.00  0.00     0.074 A 
ATOM     50  C   UNL A   1      47.438  29.767  30.417  1.00  0.00     0.029 A 
ATOM     51  N   UNL A   1      45.316  29.236  30.017  1.00  0.00    -0.354 N 
ATOM     52  N   UNL A   1      42.442  29.771  29.764  1.00  0.00    -0.248 NA
ATOM     53  C   UNL A   1      40.624  31.226  29.952  1.00  0.00     0.031 C 
ATOM     54  C   UNL A   1      46.644  30.890  30.675  1.00  0.00     0.029 A 
ATOM     55  C   UNL A   1      45.326  30.569  30.394  1.00  0.00     0.049 A 
ATOM     56  H   UNL A   1      44.512  28.726  29.767  1.00  0.00     0.167 HD
ATOM     57  C   UNL A   1      42.899  31.020  30.162  1.00  0.00     0.074 A 
ATOM     58  C   UNL A   1      41.741  31.890  30.214  1.00  0.00     0.031 C 
ATOM     59  C   UNL A   1      44.162  31.416  30.458  1.00  0.00     0.031 A 
BRANCH  46  60
ATOM     60  C   UNL A   1      48.390  26.939  29.883  1.00  0.00    -0.014 A 
ATOM     61  C   UNL A   1      49.312  27.116  28.837  1.00  0.00     0.009 A 
ATOM     62  C   UNL A   1      48.838  26.385  31.092  1.00  0.00     0.009 A 
ATOM     63  C   UNL A   1      50.641  26.713  28.986  1.00  0.00     0.001 A 
ATOM     64  C   UNL A   1      50.174  26.013  31.250  1.00  0.00     0.001 A 
ATOM     65  C   UNL A   1      51.072  26.167  30.194  1.00  0.00     0.000 A 
ENDBRANCH  46  60
BRANCH  47  66
ATOM     66  C   UNL A   1      38.697  29.224  29.056  1.00  0.00    -0.014 A 
ATOM     67  C   UNL A   1      37.846  29.159  30.170  1.00  0.00     0.009 A 
ATOM     68  C   UNL A   1      38.162  29.612  27.817  1.00  0.00     0.009 A 
ATOM     69  C   UNL A   1      36.485  29.442  30.040  1.00  0.00     0.001 A 
ATOM     70  C   UNL A   1      36.808  29.928  27.697  1.00  0.00     0.001 A 
ATOM     71  C   UNL A   1      35.968  29.830  28.804  1.00  0.00     0.000 A 
ENDBRANCH  47  66
BRANCH  59  72
ATOM     72  C   UNL A   1      44.351  32.860  30.836  1.00  0.00    -0.014 A 
ATOM     73  C   UNL A   1      44.340  33.274  32.178  1.00  0.00     0.009 A 
ATOM     74  C   UNL A   1      44.540  33.821  29.831  1.00  0.00     0.009 A 
ATOM     75  C   UNL A   1      44.455  34.628  32.501  1.00  0.00     0.001 A 
ATOM     76  C   UNL A   1      44.693  35.168  30.158  1.00  0.00     0.001 A 
ATOM     77  C   UNL A   1      44.634  35.573  31.491  1.00  0.00     0.000 A 
ENDBRANCH  59  72
ENDBRANCH  33  34
ENDBRANCH  25  28
ENDBRANCH  23  24
ENDBRANCH   1  23
TORSDOF 13
ENDMDL
