MODEL 1
REMARK VINA RESULT:     -10.9      0.000      0.000
REMARK SMILES CSCc1ccc(C(=O)Nc2cc(C)c(C(=O)NCCCCNC(=O)c3ccc(-c4c5nc(c(-c6ccccc6)c6ccc([nH]6)c(-c6ccccc6)c6nc(c(-c7ccccc7)c7ccc4[nH]7)C=C6)C=C5)cc3)s2)cc1
REMARK SMILES IDX 19 1 18 2 16 3 17 4 15 6 11 7 12 8 74 9 13 10 14 11 10 12
REMARK SMILES IDX 8 13 9 14 7 16 4 17 5 18 76 19 6 20 75 21 3 22 2 23 1 24
REMARK SMILES IDX 20 25 21 26 22 27 23 28 24 29 25 31 26 32 27 33 73 34 28 35
REMARK SMILES IDX 72 36 29 37 30 38 31 39 66 40 32 41 71 42 65 43 67 44 33 45
REMARK SMILES IDX 70 46 64 47 63 48 34 50 56 51 41 52 55 53 42 54 45 55 54 56
REMARK SMILES IDX 68 57 43 58 44 59 53 61 69 62 46 63 35 64 36 65 40 66 37 67
REMARK SMILES IDX 39 68 38 69 57 70 58 71 62 72 59 73 61 74 60 75 47 76 48 77
REMARK SMILES IDX 52 78 49 79 51 80 50 81
REMARK H PARENT 18 5 10 15 23 30 67 49 45 60
REMARK Flexibility Score: inf
ROOT
ATOM      1  C   UNL A   1      30.750  26.502  26.041  1.00  0.00     0.116 C 
ENDROOT
BRANCH   1   2
ATOM      2  N   UNL A   1      30.614  25.237  26.718  1.00  0.00    -0.351 N 
ATOM      3  C   UNL A   1      31.188  24.002  26.573  1.00  0.00     0.261 C 
ATOM      4  O   UNL A   1      30.760  23.192  27.406  1.00  0.00    -0.268 OA
ATOM      5  H   UNL A   1      29.958  25.266  27.451  1.00  0.00     0.163 HD
BRANCH   3   6
ATOM      6  C   UNL A   1      32.181  23.621  25.560  1.00  0.00     0.097 A 
ATOM      7  C   UNL A   1      33.021  23.659  23.237  1.00  0.00     0.096 A 
ATOM      8  C   UNL A   1      34.000  23.263  24.103  1.00  0.00     0.042 A 
ATOM      9  S   UNL A   1      31.497  23.487  23.938  1.00  0.00    -0.112 S 
ATOM     10  C   UNL A   1      33.566  23.416  25.476  1.00  0.00    -0.025 A 
ATOM     11  C   UNL A   1      34.629  23.481  26.516  1.00  0.00     0.046 C 
BRANCH   7  12
ATOM     12  N   UNL A   1      33.174  24.031  21.929  1.00  0.00    -0.314 N 
ATOM     13  C   UNL A   1      32.760  25.203  21.314  1.00  0.00     0.256 C 
ATOM     14  O   UNL A   1      33.040  25.330  20.117  1.00  0.00    -0.269 OA
ATOM     15  H   UNL A   1      33.637  23.384  21.351  1.00  0.00     0.171 HD
BRANCH  13  16
ATOM     16  C   UNL A   1      32.083  26.355  21.999  1.00  0.00     0.040 A 
ATOM     17  C   UNL A   1      30.923  28.679  23.172  1.00  0.00    -0.038 A 
ATOM     18  C   UNL A   1      32.314  28.540  23.071  1.00  0.00     0.005 A 
ATOM     19  C   UNL A   1      30.138  27.612  22.739  1.00  0.00     0.005 A 
ATOM     20  C   UNL A   1      32.885  27.402  22.478  1.00  0.00     0.014 A 
ATOM     21  C   UNL A   1      30.716  26.439  22.247  1.00  0.00     0.014 A 
BRANCH  17  22
ATOM     22  C   UNL A   1      30.315  29.977  23.649  1.00  0.00     0.104 C 
BRANCH  22  23
ATOM     23  S   UNL A   1      29.160  30.781  22.487  1.00  0.00    -0.161 SA
ATOM     24  C   UNL A   1      27.759  31.114  23.590  1.00  0.00     0.085 C 
ENDBRANCH  22  23
ENDBRANCH  17  22
ENDBRANCH  13  16
ENDBRANCH   7  12
ENDBRANCH   3   6
ENDBRANCH   1   2
BRANCH   1  25
ATOM     25  C   UNL A   1      31.870  27.332  26.682  1.00  0.00     0.023 C 
BRANCH  25  26
ATOM     26  C   UNL A   1      33.282  27.028  26.186  1.00  0.00     0.023 C 
BRANCH  26  27
ATOM     27  C   UNL A   1      34.332  28.048  26.608  1.00  0.00     0.116 C 
BRANCH  27  28
ATOM     28  N   UNL A   1      33.781  29.346  26.974  1.00  0.00    -0.352 N 
ATOM     29  C   UNL A   1      34.379  30.346  27.708  1.00  0.00     0.251 C 
ATOM     30  H   UNL A   1      32.869  29.532  26.655  1.00  0.00     0.163 HD
ATOM     31  O   UNL A   1      33.772  31.365  27.994  1.00  0.00    -0.269 OA
BRANCH  29  32
ATOM     32  C   UNL A   1      35.756  30.130  28.193  1.00  0.00     0.039 A 
ATOM     33  C   UNL A   1      35.943  29.648  29.491  1.00  0.00     0.014 A 
ATOM     34  C   UNL A   1      36.843  30.318  27.337  1.00  0.00     0.014 A 
ATOM     35  C   UNL A   1      37.222  29.270  29.902  1.00  0.00     0.010 A 
ATOM     36  C   UNL A   1      38.100  29.872  27.722  1.00  0.00     0.010 A 
ATOM     37  C   UNL A   1      38.299  29.337  29.005  1.00  0.00    -0.014 A 
BRANCH  37  38
ATOM     38  C   UNL A   1      39.646  28.845  29.378  1.00  0.00     0.031 A 
ATOM     39  C   UNL A   1      40.574  29.727  30.161  1.00  0.00     0.074 A 
ATOM     40  C   UNL A   1      40.065  27.642  28.935  1.00  0.00     0.049 A 
ATOM     41  N   UNL A   1      41.822  29.519  30.498  1.00  0.00    -0.248 NA
ATOM     42  C   UNL A   1      40.040  31.028  30.598  1.00  0.00     0.031 C 
ATOM     43  C   UNL A   1      39.274  26.711  28.127  1.00  0.00     0.029 A 
ATOM     44  N   UNL A   1      41.268  27.004  29.095  1.00  0.00    -0.354 N 
ATOM     45  C   UNL A   1      42.227  30.671  31.162  1.00  0.00     0.074 A 
ATOM     46  C   UNL A   1      41.110  31.589  31.139  1.00  0.00     0.031 C 
ATOM     47  C   UNL A   1      40.006  25.611  27.884  1.00  0.00     0.029 A 
ATOM     48  C   UNL A   1      41.326  25.776  28.481  1.00  0.00     0.049 A 
ATOM     49  H   UNL A   1      42.020  27.390  29.601  1.00  0.00     0.167 HD
ATOM     50  C   UNL A   1      43.416  30.932  31.752  1.00  0.00     0.031 A 
ATOM     51  C   UNL A   1      42.333  24.886  28.405  1.00  0.00     0.031 A 
ATOM     52  C   UNL A   1      44.518  30.010  31.794  1.00  0.00     0.049 A 
ATOM     53  C   UNL A   1      43.642  25.199  29.073  1.00  0.00     0.074 A 
ATOM     54  C   UNL A   1      45.740  30.157  32.425  1.00  0.00     0.029 A 
ATOM     55  N   UNL A   1      44.528  28.767  31.181  1.00  0.00    -0.354 N 
ATOM     56  N   UNL A   1      43.988  26.265  29.752  1.00  0.00    -0.248 NA
ATOM     57  C   UNL A   1      44.697  24.181  28.970  1.00  0.00     0.031 C 
ATOM     58  C   UNL A   1      46.507  29.019  32.158  1.00  0.00     0.029 A 
ATOM     59  C   UNL A   1      45.742  28.143  31.402  1.00  0.00     0.049 A 
ATOM     60  H   UNL A   1      43.781  28.385  30.666  1.00  0.00     0.167 HD
ATOM     61  C   UNL A   1      45.288  26.034  30.181  1.00  0.00     0.074 A 
ATOM     62  C   UNL A   1      45.665  24.723  29.695  1.00  0.00     0.031 C 
ATOM     63  C   UNL A   1      46.097  26.837  30.914  1.00  0.00     0.031 A 
BRANCH  50  64
ATOM     64  C   UNL A   1      43.580  32.277  32.400  1.00  0.00    -0.014 A 
ATOM     65  C   UNL A   1      43.994  33.396  31.658  1.00  0.00     0.009 A 
ATOM     66  C   UNL A   1      43.296  32.435  33.765  1.00  0.00     0.009 A 
ATOM     67  C   UNL A   1      44.156  34.635  32.278  1.00  0.00     0.001 A 
ATOM     68  C   UNL A   1      43.432  33.682  34.376  1.00  0.00     0.001 A 
ATOM     69  C   UNL A   1      43.872  34.779  33.635  1.00  0.00     0.000 A 
ENDBRANCH  50  64
BRANCH  51  70
ATOM     70  C   UNL A   1      42.139  23.602  27.683  1.00  0.00    -0.014 A 
ATOM     71  C   UNL A   1      42.456  23.500  26.320  1.00  0.00     0.009 A 
ATOM     72  C   UNL A   1      41.632  22.476  28.350  1.00  0.00     0.009 A 
ATOM     73  C   UNL A   1      42.245  22.303  25.633  1.00  0.00     0.001 A 
ATOM     74  C   UNL A   1      41.447  21.273  27.665  1.00  0.00     0.001 A 
ATOM     75  C   UNL A   1      41.744  21.190  26.306  1.00  0.00     0.000 A 
ENDBRANCH  51  70
BRANCH  63  76
ATOM     76  C   UNL A   1      47.456  26.305  31.267  1.00  0.00    -0.014 A 
ATOM     77  C   UNL A   1      47.681  25.628  32.475  1.00  0.00     0.009 A 
ATOM     78  C   UNL A   1      48.512  26.441  30.352  1.00  0.00     0.009 A 
ATOM     79  C   UNL A   1      48.948  25.119  32.771  1.00  0.00     0.001 A 
ATOM     80  C   UNL A   1      49.769  25.909  30.639  1.00  0.00     0.001 A 
ATOM     81  C   UNL A   1      49.988  25.255  31.851  1.00  0.00     0.000 A 
ENDBRANCH  63  76
ENDBRANCH  37  38
ENDBRANCH  29  32
ENDBRANCH  27  28
ENDBRANCH  26  27
ENDBRANCH  25  26
ENDBRANCH   1  25
TORSDOF 15
ENDMDL
MODEL 2
REMARK VINA RESULT:     -10.9      2.508      7.087
REMARK SMILES CSCc1ccc(C(=O)Nc2cc(C)c(C(=O)NCCCCNC(=O)c3ccc(-c4c5nc(c(-c6ccccc6)c6ccc([nH]6)c(-c6ccccc6)c6nc(c(-c7ccccc7)c7ccc4[nH]7)C=C6)C=C5)cc3)s2)cc1
REMARK SMILES IDX 19 1 18 2 16 3 17 4 15 6 11 7 12 8 74 9 13 10 14 11 10 12
REMARK SMILES IDX 8 13 9 14 7 16 4 17 5 18 76 19 6 20 75 21 3 22 2 23 1 24
REMARK SMILES IDX 20 25 21 26 22 27 23 28 24 29 25 31 26 32 27 33 73 34 28 35
REMARK SMILES IDX 72 36 29 37 30 38 31 39 66 40 32 41 71 42 65 43 67 44 33 45
REMARK SMILES IDX 70 46 64 47 63 48 34 50 56 51 41 52 55 53 42 54 45 55 54 56
REMARK SMILES IDX 68 57 43 58 44 59 53 61 69 62 46 63 35 64 36 65 40 66 37 67
REMARK SMILES IDX 39 68 38 69 57 70 58 71 62 72 59 73 61 74 60 75 47 76 48 77
REMARK SMILES IDX 52 78 49 79 51 80 50 81
REMARK H PARENT 18 5 10 15 23 30 67 49 45 60
REMARK Flexibility Score: inf
ROOT
ATOM      1  C   UNL A   1      33.997  22.043  27.581  1.00  0.00     0.116 C 
ENDROOT
BRANCH   1   2
ATOM      2  N   UNL A   1      32.624  22.480  27.608  1.00  0.00    -0.351 N 
ATOM      3  C   UNL A   1      31.629  22.583  26.673  1.00  0.00     0.261 C 
ATOM      4  O   UNL A   1      30.577  23.017  27.162  1.00  0.00    -0.268 OA
ATOM      5  H   UNL A   1      32.335  22.772  28.502  1.00  0.00     0.163 HD
BRANCH   3   6
ATOM      6  C   UNL A   1      31.742  22.255  25.245  1.00  0.00     0.097 A 
ATOM      7  C   UNL A   1      32.097  22.930  22.896  1.00  0.00     0.096 A 
ATOM      8  C   UNL A   1      32.263  21.583  23.047  1.00  0.00     0.042 A 
ATOM      9  S   UNL A   1      31.230  23.575  24.191  1.00  0.00    -0.112 S 
ATOM     10  C   UNL A   1      32.236  21.214  24.446  1.00  0.00    -0.025 A 
ATOM     11  C   UNL A   1      32.851  19.908  24.811  1.00  0.00     0.046 C 
BRANCH   7  12
ATOM     12  N   UNL A   1      32.447  23.691  21.813  1.00  0.00    -0.314 N 
ATOM     13  C   UNL A   1      32.854  25.017  21.789  1.00  0.00     0.256 C 
ATOM     14  O   UNL A   1      33.150  25.486  20.684  1.00  0.00    -0.269 OA
ATOM     15  H   UNL A   1      32.405  23.240  20.941  1.00  0.00     0.171 HD
BRANCH  13  16
ATOM     16  C   UNL A   1      33.045  25.893  22.994  1.00  0.00     0.040 A 
ATOM     17  C   UNL A   1      33.627  27.533  25.250  1.00  0.00    -0.038 A 
ATOM     18  C   UNL A   1      34.235  26.280  25.093  1.00  0.00     0.005 A 
ATOM     19  C   UNL A   1      32.682  27.912  24.298  1.00  0.00     0.005 A 
ATOM     20  C   UNL A   1      33.960  25.479  23.972  1.00  0.00     0.014 A 
ATOM     21  C   UNL A   1      32.336  27.065  23.243  1.00  0.00     0.014 A 
BRANCH  17  22
ATOM     22  C   UNL A   1      34.058  28.461  26.361  1.00  0.00     0.104 C 
BRANCH  22  23
ATOM     23  S   UNL A   1      32.728  29.451  27.123  1.00  0.00    -0.161 SA
ATOM     24  C   UNL A   1      31.598  28.135  27.654  1.00  0.00     0.085 C 
ENDBRANCH  22  23
ENDBRANCH  17  22
ENDBRANCH  13  16
ENDBRANCH   7  12
ENDBRANCH   3   6
ENDBRANCH   1   2
BRANCH   1  25
ATOM     25  C   UNL A   1      34.873  23.078  26.863  1.00  0.00     0.023 C 
BRANCH  25  26
ATOM     26  C   UNL A   1      35.754  22.532  25.741  1.00  0.00     0.023 C 
BRANCH  26  27
ATOM     27  C   UNL A   1      37.038  23.318  25.509  1.00  0.00     0.116 C 
BRANCH  27  28
ATOM     28  N   UNL A   1      38.251  22.529  25.674  1.00  0.00    -0.352 N 
ATOM     29  C   UNL A   1      39.430  22.901  26.282  1.00  0.00     0.251 C 
ATOM     30  H   UNL A   1      38.226  21.617  25.306  1.00  0.00     0.163 HD
ATOM     31  O   UNL A   1      40.395  22.154  26.292  1.00  0.00    -0.269 OA
BRANCH  29  32
ATOM     32  C   UNL A   1      39.518  24.251  26.871  1.00  0.00     0.039 A 
ATOM     33  C   UNL A   1      39.020  24.455  28.161  1.00  0.00     0.014 A 
ATOM     34  C   UNL A   1      40.169  25.279  26.186  1.00  0.00     0.014 A 
ATOM     35  C   UNL A   1      39.254  25.673  28.799  1.00  0.00     0.010 A 
ATOM     36  C   UNL A   1      40.466  26.461  26.851  1.00  0.00     0.010 A 
ATOM     37  C   UNL A   1      40.018  26.666  28.166  1.00  0.00    -0.014 A 
BRANCH  37  38
ATOM     38  C   UNL A   1      40.373  27.926  28.858  1.00  0.00     0.031 A 
ATOM     39  C   UNL A   1      41.703  28.055  29.543  1.00  0.00     0.074 A 
ATOM     40  C   UNL A   1      39.464  28.918  28.947  1.00  0.00     0.049 A 
ATOM     41  N   UNL A   1      42.158  29.035  30.283  1.00  0.00    -0.248 NA
ATOM     42  C   UNL A   1      42.632  26.922  29.404  1.00  0.00     0.031 C 
ATOM     43  C   UNL A   1      38.121  28.896  28.363  1.00  0.00     0.029 A 
ATOM     44  N   UNL A   1      39.534  30.136  29.575  1.00  0.00    -0.354 N 
ATOM     45  C   UNL A   1      43.412  28.623  30.716  1.00  0.00     0.074 A 
ATOM     46  C   UNL A   1      43.626  27.291  30.196  1.00  0.00     0.031 C 
ATOM     47  C   UNL A   1      37.503  30.057  28.641  1.00  0.00     0.029 A 
ATOM     48  C   UNL A   1      38.388  30.885  29.452  1.00  0.00     0.049 A 
ATOM     49  H   UNL A   1      40.329  30.444  30.067  1.00  0.00     0.167 HD
ATOM     50  C   UNL A   1      44.313  29.302  31.464  1.00  0.00     0.031 A 
ATOM     51  C   UNL A   1      38.084  32.100  29.945  1.00  0.00     0.031 A 
ATOM     52  C   UNL A   1      44.109  30.635  31.962  1.00  0.00     0.049 A 
ATOM     53  C   UNL A   1      39.103  32.835  30.770  1.00  0.00     0.074 A 
ATOM     54  C   UNL A   1      44.988  31.432  32.674  1.00  0.00     0.029 A 
ATOM     55  N   UNL A   1      42.944  31.367  31.796  1.00  0.00    -0.354 N 
ATOM     56  N   UNL A   1      40.310  32.459  31.116  1.00  0.00    -0.248 NA
ATOM     57  C   UNL A   1      38.719  34.164  31.264  1.00  0.00     0.031 C 
ATOM     58  C   UNL A   1      44.339  32.634  32.975  1.00  0.00     0.029 A 
ATOM     59  C   UNL A   1      43.074  32.602  32.408  1.00  0.00     0.049 A 
ATOM     60  H   UNL A   1      42.145  31.057  31.314  1.00  0.00     0.167 HD
ATOM     61  C   UNL A   1      40.840  33.516  31.844  1.00  0.00     0.074 A 
ATOM     62  C   UNL A   1      39.828  34.551  31.880  1.00  0.00     0.031 C 
ATOM     63  C   UNL A   1      42.057  33.620  32.429  1.00  0.00     0.031 A 
BRANCH  50  64
ATOM     64  C   UNL A   1      45.602  28.603  31.789  1.00  0.00    -0.014 A 
ATOM     65  C   UNL A   1      46.741  28.769  30.984  1.00  0.00     0.009 A 
ATOM     66  C   UNL A   1      45.688  27.789  32.928  1.00  0.00     0.009 A 
ATOM     67  C   UNL A   1      47.927  28.100  31.292  1.00  0.00     0.001 A 
ATOM     68  C   UNL A   1      46.884  27.146  33.250  1.00  0.00     0.001 A 
ATOM     69  C   UNL A   1      47.999  27.293  32.425  1.00  0.00     0.000 A 
ENDBRANCH  50  64
BRANCH  51  70
ATOM     70  C   UNL A   1      36.761  32.711  29.656  1.00  0.00    -0.014 A 
ATOM     71  C   UNL A   1      36.535  33.368  28.437  1.00  0.00     0.009 A 
ATOM     72  C   UNL A   1      35.721  32.646  30.596  1.00  0.00     0.009 A 
ATOM     73  C   UNL A   1      35.303  33.970  28.175  1.00  0.00     0.001 A 
ATOM     74  C   UNL A   1      34.482  33.228  30.320  1.00  0.00     0.001 A 
ATOM     75  C   UNL A   1      34.277  33.897  29.115  1.00  0.00     0.000 A 
ENDBRANCH  51  70
BRANCH  63  76
ATOM     76  C   UNL A   1      42.377  34.911  33.126  1.00  0.00    -0.014 A 
ATOM     77  C   UNL A   1      43.140  35.907  32.498  1.00  0.00     0.009 A 
ATOM     78  C   UNL A   1      41.863  35.151  34.410  1.00  0.00     0.009 A 
ATOM     79  C   UNL A   1      43.403  37.111  33.155  1.00  0.00     0.001 A 
ATOM     80  C   UNL A   1      42.106  36.365  35.054  1.00  0.00     0.001 A 
ATOM     81  C   UNL A   1      42.882  37.340  34.430  1.00  0.00     0.000 A 
ENDBRANCH  63  76
ENDBRANCH  37  38
ENDBRANCH  29  32
ENDBRANCH  27  28
ENDBRANCH  26  27
ENDBRANCH  25  26
ENDBRANCH   1  25
TORSDOF 15
ENDMDL
MODEL 3
REMARK VINA RESULT:     -10.8      3.268      5.788
REMARK SMILES CSCc1ccc(C(=O)Nc2cc(C)c(C(=O)NCCCCNC(=O)c3ccc(-c4c5nc(c(-c6ccccc6)c6ccc([nH]6)c(-c6ccccc6)c6nc(c(-c7ccccc7)c7ccc4[nH]7)C=C6)C=C5)cc3)s2)cc1
REMARK SMILES IDX 19 1 18 2 16 3 17 4 15 6 11 7 12 8 74 9 13 10 14 11 10 12
REMARK SMILES IDX 8 13 9 14 7 16 4 17 5 18 76 19 6 20 75 21 3 22 2 23 1 24
REMARK SMILES IDX 20 25 21 26 22 27 23 28 24 29 25 31 26 32 27 33 73 34 28 35
REMARK SMILES IDX 72 36 29 37 30 38 31 39 66 40 32 41 71 42 65 43 67 44 33 45
REMARK SMILES IDX 70 46 64 47 63 48 34 50 56 51 41 52 55 53 42 54 45 55 54 56
REMARK SMILES IDX 68 57 43 58 44 59 53 61 69 62 46 63 35 64 36 65 40 66 37 67
REMARK SMILES IDX 39 68 38 69 57 70 58 71 62 72 59 73 61 74 60 75 47 76 48 77
REMARK SMILES IDX 52 78 49 79 51 80 50 81
REMARK H PARENT 18 5 10 15 23 30 67 49 45 60
REMARK Flexibility Score: inf
ROOT
ATOM      1  C   UNL A   1      32.649  29.880  25.604  1.00  0.00     0.116 C 
ENDROOT
BRANCH   1   2
ATOM      2  N   UNL A   1      31.634  29.838  24.582  1.00  0.00    -0.351 N 
ATOM      3  C   UNL A   1      30.933  28.838  23.962  1.00  0.00     0.261 C 
ATOM      4  O   UNL A   1      30.134  29.282  23.126  1.00  0.00    -0.268 OA
ATOM      5  H   UNL A   1      31.387  30.733  24.254  1.00  0.00     0.163 HD
BRANCH   3   6
ATOM      6  C   UNL A   1      31.083  27.397  24.203  1.00  0.00     0.097 A 
ATOM      7  C   UNL A   1      30.541  25.352  25.479  1.00  0.00     0.096 A 
ATOM      8  C   UNL A   1      31.109  25.041  24.277  1.00  0.00     0.042 A 
ATOM      9  S   UNL A   1      30.866  26.953  25.898  1.00  0.00    -0.112 S 
ATOM     10  C   UNL A   1      31.259  26.223  23.456  1.00  0.00    -0.025 A 
ATOM     11  C   UNL A   1      31.415  26.011  21.991  1.00  0.00     0.046 C 
BRANCH   7  12
ATOM     12  N   UNL A   1      29.894  24.502  26.334  1.00  0.00    -0.314 N 
ATOM     13  C   UNL A   1      30.338  23.290  26.841  1.00  0.00     0.256 C 
ATOM     14  O   UNL A   1      29.583  22.708  27.629  1.00  0.00    -0.269 OA
ATOM     15  H   UNL A   1      28.999  24.787  26.627  1.00  0.00     0.171 HD
BRANCH  13  16
ATOM     16  C   UNL A   1      31.683  22.676  26.581  1.00  0.00     0.040 A 
ATOM     17  C   UNL A   1      34.203  21.552  25.868  1.00  0.00    -0.038 A 
ATOM     18  C   UNL A   1      33.029  21.169  25.205  1.00  0.00     0.005 A 
ATOM     19  C   UNL A   1      34.079  22.449  26.927  1.00  0.00     0.005 A 
ATOM     20  C   UNL A   1      31.790  21.735  25.546  1.00  0.00     0.014 A 
ATOM     21  C   UNL A   1      32.829  22.928  27.329  1.00  0.00     0.014 A 
BRANCH  17  22
ATOM     22  C   UNL A   1      35.550  21.073  25.381  1.00  0.00     0.104 C 
BRANCH  22  23
ATOM     23  S   UNL A   1      36.708  22.380  24.850  1.00  0.00    -0.161 SA
ATOM     24  C   UNL A   1      38.231  21.824  25.667  1.00  0.00     0.085 C 
ENDBRANCH  22  23
ENDBRANCH  17  22
ENDBRANCH  13  16
ENDBRANCH   7  12
ENDBRANCH   3   6
ENDBRANCH   1   2
BRANCH   1  25
ATOM     25  C   UNL A   1      32.072  30.451  26.906  1.00  0.00     0.023 C 
BRANCH  25  26
ATOM     26  C   UNL A   1      31.727  31.938  26.878  1.00  0.00     0.023 C 
BRANCH  26  27
ATOM     27  C   UNL A   1      32.882  32.861  27.243  1.00  0.00     0.116 C 
BRANCH  27  28
ATOM     28  N   UNL A   1      32.467  34.203  27.630  1.00  0.00    -0.352 N 
ATOM     29  C   UNL A   1      33.022  35.021  28.589  1.00  0.00     0.251 C 
ATOM     30  H   UNL A   1      31.695  34.572  27.143  1.00  0.00     0.163 HD
ATOM     31  O   UNL A   1      32.528  36.104  28.853  1.00  0.00    -0.269 OA
BRANCH  29  32
ATOM     32  C   UNL A   1      34.196  34.527  29.335  1.00  0.00     0.039 A 
ATOM     33  C   UNL A   1      33.997  33.924  30.579  1.00  0.00     0.014 A 
ATOM     34  C   UNL A   1      35.469  34.582  28.763  1.00  0.00     0.014 A 
ATOM     35  C   UNL A   1      35.068  33.295  31.213  1.00  0.00     0.010 A 
ATOM     36  C   UNL A   1      36.515  33.891  29.360  1.00  0.00     0.010 A 
ATOM     37  C   UNL A   1      36.322  33.235  30.586  1.00  0.00    -0.014 A 
BRANCH  37  38
ATOM     38  C   UNL A   1      37.450  32.485  31.185  1.00  0.00     0.031 A 
ATOM     39  C   UNL A   1      38.056  32.950  32.478  1.00  0.00     0.074 A 
ATOM     40  C   UNL A   1      37.986  31.441  30.522  1.00  0.00     0.049 A 
ATOM     41  N   UNL A   1      39.106  32.490  33.110  1.00  0.00    -0.248 NA
ATOM     42  C   UNL A   1      37.415  34.103  33.132  1.00  0.00     0.031 C 
ATOM     43  C   UNL A   1      37.518  30.919  29.235  1.00  0.00     0.029 A 
ATOM     44  N   UNL A   1      39.053  30.638  30.837  1.00  0.00    -0.354 N 
ATOM     45  C   UNL A   1      39.264  33.313  34.218  1.00  0.00     0.074 A 
ATOM     46  C   UNL A   1      38.234  34.325  34.148  1.00  0.00     0.031 C 
ATOM     47  C   UNL A   1      38.279  29.870  28.885  1.00  0.00     0.029 A 
ATOM     48  C   UNL A   1      39.310  29.669  29.897  1.00  0.00     0.049 A 
ATOM     49  H   UNL A   1      39.584  30.746  31.659  1.00  0.00     0.167 HD
ATOM     50  C   UNL A   1      40.175  33.223  35.215  1.00  0.00     0.031 A 
ATOM     51  C   UNL A   1      40.273  28.729  29.854  1.00  0.00     0.031 A 
ATOM     52  C   UNL A   1      41.186  32.203  35.296  1.00  0.00     0.049 A 
ATOM     53  C   UNL A   1      41.269  28.647  30.975  1.00  0.00     0.074 A 
ATOM     54  C   UNL A   1      42.114  31.988  36.300  1.00  0.00     0.029 A 
ATOM     55  N   UNL A   1      41.397  31.227  34.336  1.00  0.00    -0.354 N 
ATOM     56  N   UNL A   1      41.366  29.392  32.049  1.00  0.00    -0.248 NA
ATOM     57  C   UNL A   1      42.285  27.589  30.881  1.00  0.00     0.031 C 
ATOM     58  C   UNL A   1      42.915  30.904  35.927  1.00  0.00     0.029 A 
ATOM     59  C   UNL A   1      42.453  30.416  34.714  1.00  0.00     0.049 A 
ATOM     60  H   UNL A   1      40.874  31.124  33.509  1.00  0.00     0.167 HD
ATOM     61  C   UNL A   1      42.434  28.875  32.772  1.00  0.00     0.074 A 
ATOM     62  C   UNL A   1      42.945  27.748  32.020  1.00  0.00     0.031 C 
ATOM     63  C   UNL A   1      42.944  29.297  33.954  1.00  0.00     0.031 A 
BRANCH  50  64
ATOM     64  C   UNL A   1      40.116  34.262  36.297  1.00  0.00    -0.014 A 
ATOM     65  C   UNL A   1      39.361  34.055  37.463  1.00  0.00     0.009 A 
ATOM     66  C   UNL A   1      40.844  35.454  36.161  1.00  0.00     0.009 A 
ATOM     67  C   UNL A   1      39.305  35.038  38.452  1.00  0.00     0.001 A 
ATOM     68  C   UNL A   1      40.809  36.423  37.165  1.00  0.00     0.001 A 
ATOM     69  C   UNL A   1      40.031  36.218  38.305  1.00  0.00     0.000 A 
ENDBRANCH  50  64
BRANCH  51  70
ATOM     70  C   UNL A   1      40.330  27.773  28.718  1.00  0.00    -0.014 A 
ATOM     71  C   UNL A   1      39.664  26.541  28.794  1.00  0.00     0.009 A 
ATOM     72  C   UNL A   1      41.054  28.085  27.557  1.00  0.00     0.009 A 
ATOM     73  C   UNL A   1      39.743  25.629  27.740  1.00  0.00     0.001 A 
ATOM     74  C   UNL A   1      41.109  27.180  26.494  1.00  0.00     0.001 A 
ATOM     75  C   UNL A   1      40.462  25.950  26.590  1.00  0.00     0.000 A 
ENDBRANCH  51  70
BRANCH  63  76
ATOM     76  C   UNL A   1      44.091  28.514  34.526  1.00  0.00    -0.014 A 
ATOM     77  C   UNL A   1      43.871  27.398  35.349  1.00  0.00     0.009 A 
ATOM     78  C   UNL A   1      45.407  28.870  34.194  1.00  0.00     0.009 A 
ATOM     79  C   UNL A   1      44.952  26.669  35.848  1.00  0.00     0.001 A 
ATOM     80  C   UNL A   1      46.484  28.124  34.673  1.00  0.00     0.001 A 
ATOM     81  C   UNL A   1      46.256  27.029  35.506  1.00  0.00     0.000 A 
ENDBRANCH  63  76
ENDBRANCH  37  38
ENDBRANCH  29  32
ENDBRANCH  27  28
ENDBRANCH  26  27
ENDBRANCH  25  26
ENDBRANCH   1  25
TORSDOF 15
ENDMDL
