MODEL 1
REMARK VINA RESULT:     -11.9      0.000      0.000
REMARK SMILES Cc1ccccc1O[C@@H](C)C(=O)Oc1ccccc1C(=O)NCCCCNC(=O)c1ccc(-c2c3nc(c(-c4ccccc4)c4ccc([nH]4)c(-c4ccccc4)c4nc(c(-c5ccccc5)c5ccc2[nH]5)C=C4)C=C3)cc1
REMARK SMILES IDX 23 1 22 2 20 3 21 4 19 6 14 7 15 8 16 9 18 10 17 11 13 12
REMARK SMILES IDX 11 13 12 14 9 15 10 16 8 17 7 18 1 19 2 20 3 21 4 22 6 23
REMARK SMILES IDX 5 24 24 25 25 26 26 27 27 28 28 29 29 31 30 32 31 33 77 34
REMARK SMILES IDX 32 35 76 36 33 37 34 38 35 39 70 40 36 41 75 42 69 43 71 44
REMARK SMILES IDX 37 45 74 46 68 47 67 48 38 50 60 51 45 52 59 53 46 54 49 55
REMARK SMILES IDX 58 56 72 57 47 58 48 59 57 61 73 62 50 63 39 64 40 65 44 66
REMARK SMILES IDX 41 67 43 68 42 69 61 70 62 71 66 72 63 73 65 74 64 75 51 76
REMARK SMILES IDX 52 77 56 78 53 79 55 80 54 81
REMARK H PARENT 22 5 27 30 71 49 49 60
REMARK Flexibility Score: inf
ROOT
ATOM      1  C   UNL A   1      36.359  23.421  25.659  1.00  0.00     0.116 C 
ENDROOT
BRANCH   1   2
ATOM      2  N   UNL A   1      35.572  22.914  26.778  1.00  0.00    -0.352 N 
ATOM      3  C   UNL A   1      34.440  22.124  26.840  1.00  0.00     0.255 C 
ATOM      4  O   UNL A   1      34.063  21.709  27.936  1.00  0.00    -0.269 OA
ATOM      5  H   UNL A   1      35.914  23.187  27.659  1.00  0.00     0.163 HD
BRANCH   3   6
ATOM      6  C   UNL A   1      33.676  21.748  25.625  1.00  0.00     0.082 A 
ATOM      7  C   UNL A   1      32.809  22.630  24.962  1.00  0.00     0.143 A 
ATOM      8  C   UNL A   1      32.087  22.222  23.830  1.00  0.00     0.048 A 
ATOM      9  C   UNL A   1      32.200  20.916  23.363  1.00  0.00     0.004 A 
ATOM     10  C   UNL A   1      33.693  20.412  25.196  1.00  0.00     0.018 A 
ATOM     11  C   UNL A   1      32.985  20.004  24.061  1.00  0.00     0.001 A 
BRANCH   7  12
ATOM     12  O   UNL A   1      32.345  23.871  25.472  1.00  0.00    -0.423 OA
BRANCH  12  13
ATOM     13  C   UNL A   1      31.218  24.108  26.241  1.00  0.00     0.352 C 
ATOM     14  O   UNL A   1      30.901  23.465  27.236  1.00  0.00    -0.247 OA
BRANCH  13  15
ATOM     15  C   UNL A   1      30.434  25.334  25.689  1.00  0.00     0.280 C 
ATOM     16  C   UNL A   1      30.213  25.273  24.176  1.00  0.00     0.066 C 
BRANCH  15  17
ATOM     17  O   UNL A   1      30.584  26.689  26.076  1.00  0.00    -0.479 OA
BRANCH  17  18
ATOM     18  C   UNL A   1      31.594  27.532  25.731  1.00  0.00     0.123 A 
ATOM     19  C   UNL A   1      30.522  28.983  23.863  1.00  0.00     0.048 C 
ATOM     20  C   UNL A   1      31.641  28.547  24.765  1.00  0.00    -0.009 A 
ATOM     21  C   UNL A   1      32.814  29.336  24.674  1.00  0.00     0.007 A 
ATOM     22  C   UNL A   1      33.903  29.147  25.524  1.00  0.00     0.001 A 
ATOM     23  C   UNL A   1      32.698  27.370  26.593  1.00  0.00     0.047 A 
ATOM     24  C   UNL A   1      33.841  28.162  26.495  1.00  0.00     0.004 A 
ENDBRANCH  17  18
ENDBRANCH  15  17
ENDBRANCH  13  15
ENDBRANCH  12  13
ENDBRANCH   7  12
ENDBRANCH   3   6
ENDBRANCH   1   2
BRANCH   1  25
ATOM     25  C   UNL A   1      37.875  23.277  25.798  1.00  0.00     0.023 C 
BRANCH  25  26
ATOM     26  C   UNL A   1      38.442  21.864  25.699  1.00  0.00     0.023 C 
BRANCH  26  27
ATOM     27  C   UNL A   1      39.657  21.564  26.567  1.00  0.00     0.116 C 
BRANCH  27  28
ATOM     28  N   UNL A   1      40.598  20.583  26.041  1.00  0.00    -0.352 N 
ATOM     29  C   UNL A   1      41.990  20.600  26.039  1.00  0.00     0.251 C 
ATOM     30  H   UNL A   1      40.188  19.791  25.624  1.00  0.00     0.163 HD
ATOM     31  O   UNL A   1      42.607  19.701  25.496  1.00  0.00    -0.269 OA
BRANCH  29  32
ATOM     32  C   UNL A   1      42.729  21.631  26.825  1.00  0.00     0.039 A 
ATOM     33  C   UNL A   1      42.557  21.641  28.217  1.00  0.00     0.014 A 
ATOM     34  C   UNL A   1      43.386  22.689  26.211  1.00  0.00     0.014 A 
ATOM     35  C   UNL A   1      42.765  22.823  28.924  1.00  0.00     0.010 A 
ATOM     36  C   UNL A   1      43.476  23.893  26.877  1.00  0.00     0.010 A 
ATOM     37  C   UNL A   1      43.080  23.977  28.212  1.00  0.00    -0.014 A 
BRANCH  37  38
ATOM     38  C   UNL A   1      42.875  25.324  28.726  1.00  0.00     0.031 A 
ATOM     39  C   UNL A   1      41.712  26.127  28.286  1.00  0.00     0.074 A 
ATOM     40  C   UNL A   1      43.693  25.801  29.696  1.00  0.00     0.049 A 
ATOM     41  N   UNL A   1      41.673  27.415  28.352  1.00  0.00    -0.248 NA
ATOM     42  C   UNL A   1      40.516  25.554  27.670  1.00  0.00     0.031 C 
ATOM     43  C   UNL A   1      43.466  26.984  30.526  1.00  0.00     0.029 A 
ATOM     44  N   UNL A   1      44.999  25.427  30.030  1.00  0.00    -0.354 N 
ATOM     45  C   UNL A   1      40.368  27.792  28.147  1.00  0.00     0.074 A 
ATOM     46  C   UNL A   1      39.737  26.636  27.560  1.00  0.00     0.031 C 
ATOM     47  C   UNL A   1      44.646  27.410  31.000  1.00  0.00     0.029 A 
ATOM     48  C   UNL A   1      45.671  26.621  30.341  1.00  0.00     0.049 A 
ATOM     49  H   UNL A   1      45.371  24.516  30.046  1.00  0.00     0.167 HD
ATOM     50  C   UNL A   1      39.935  28.980  28.656  1.00  0.00     0.031 A 
ATOM     51  C   UNL A   1      46.705  27.141  29.615  1.00  0.00     0.031 A 
ATOM     52  C   UNL A   1      41.035  29.776  29.211  1.00  0.00     0.049 A 
ATOM     53  C   UNL A   1      46.477  28.570  29.141  1.00  0.00     0.074 A 
ATOM     54  C   UNL A   1      41.388  30.159  30.494  1.00  0.00     0.029 A 
ATOM     55  N   UNL A   1      42.110  30.109  28.399  1.00  0.00    -0.354 N 
ATOM     56  N   UNL A   1      45.330  29.187  29.197  1.00  0.00    -0.248 NA
ATOM     57  C   UNL A   1      47.495  29.379  28.473  1.00  0.00     0.031 C 
ATOM     58  C   UNL A   1      42.690  30.731  30.442  1.00  0.00     0.029 A 
ATOM     59  C   UNL A   1      43.113  30.719  29.126  1.00  0.00     0.049 A 
ATOM     60  H   UNL A   1      42.152  29.934  27.431  1.00  0.00     0.167 HD
ATOM     61  C   UNL A   1      45.410  30.405  28.568  1.00  0.00     0.074 A 
ATOM     62  C   UNL A   1      46.794  30.477  28.133  1.00  0.00     0.031 C 
ATOM     63  C   UNL A   1      44.306  31.204  28.437  1.00  0.00     0.031 A 
BRANCH  50  64
ATOM     64  C   UNL A   1      38.481  29.359  28.868  1.00  0.00    -0.014 A 
ATOM     65  C   UNL A   1      37.750  29.909  27.797  1.00  0.00     0.009 A 
ATOM     66  C   UNL A   1      37.798  29.296  30.096  1.00  0.00     0.009 A 
ATOM     67  C   UNL A   1      36.445  30.402  27.955  1.00  0.00     0.001 A 
ATOM     68  C   UNL A   1      36.486  29.765  30.257  1.00  0.00     0.001 A 
ATOM     69  C   UNL A   1      35.813  30.333  29.187  1.00  0.00     0.000 A 
ENDBRANCH  50  64
BRANCH  51  70
ATOM     70  C   UNL A   1      47.493  26.137  28.850  1.00  0.00    -0.014 A 
ATOM     71  C   UNL A   1      47.218  25.961  27.482  1.00  0.00     0.009 A 
ATOM     72  C   UNL A   1      48.703  25.644  29.361  1.00  0.00     0.009 A 
ATOM     73  C   UNL A   1      48.180  25.419  26.625  1.00  0.00     0.001 A 
ATOM     74  C   UNL A   1      49.659  25.090  28.500  1.00  0.00     0.001 A 
ATOM     75  C   UNL A   1      49.413  25.015  27.130  1.00  0.00     0.000 A 
ENDBRANCH  51  70
BRANCH  63  76
ATOM     76  C   UNL A   1      44.176  32.502  27.652  1.00  0.00    -0.014 A 
ATOM     77  C   UNL A   1      43.932  33.767  28.195  1.00  0.00     0.009 A 
ATOM     78  C   UNL A   1      44.290  32.456  26.238  1.00  0.00     0.009 A 
ATOM     79  C   UNL A   1      43.870  34.918  27.388  1.00  0.00     0.001 A 
ATOM     80  C   UNL A   1      44.227  33.594  25.429  1.00  0.00     0.001 A 
ATOM     81  C   UNL A   1      44.027  34.834  26.009  1.00  0.00     0.000 A 
ENDBRANCH  63  76
ENDBRANCH  37  38
ENDBRANCH  29  32
ENDBRANCH  27  28
ENDBRANCH  26  27
ENDBRANCH  25  26
ENDBRANCH   1  25
TORSDOF 16
ENDMDL
MODEL 2
REMARK VINA RESULT:     -11.6      3.858      8.851
REMARK SMILES Cc1ccccc1O[C@@H](C)C(=O)Oc1ccccc1C(=O)NCCCCNC(=O)c1ccc(-c2c3nc(c(-c4ccccc4)c4ccc([nH]4)c(-c4ccccc4)c4nc(c(-c5ccccc5)c5ccc2[nH]5)C=C4)C=C3)cc1
REMARK SMILES IDX 23 1 22 2 20 3 21 4 19 6 14 7 15 8 16 9 18 10 17 11 13 12
REMARK SMILES IDX 11 13 12 14 9 15 10 16 8 17 7 18 1 19 2 20 3 21 4 22 6 23
REMARK SMILES IDX 5 24 24 25 25 26 26 27 27 28 28 29 29 31 30 32 31 33 77 34
REMARK SMILES IDX 32 35 76 36 33 37 34 38 35 39 70 40 36 41 75 42 69 43 71 44
REMARK SMILES IDX 37 45 74 46 68 47 67 48 38 50 60 51 45 52 59 53 46 54 49 55
REMARK SMILES IDX 58 56 72 57 47 58 48 59 57 61 73 62 50 63 39 64 40 65 44 66
REMARK SMILES IDX 41 67 43 68 42 69 61 70 62 71 66 72 63 73 65 74 64 75 51 76
REMARK SMILES IDX 52 77 56 78 53 79 55 80 54 81
REMARK H PARENT 22 5 27 30 71 49 49 60
REMARK Flexibility Score: inf
ROOT
ATOM      1  C   UNL A   1      33.913  28.398  25.803  1.00  0.00     0.116 C 
ENDROOT
BRANCH   1   2
ATOM      2  N   UNL A   1      32.840  27.537  26.289  1.00  0.00    -0.352 N 
ATOM      3  C   UNL A   1      32.705  26.163  26.356  1.00  0.00     0.255 C 
ATOM      4  O   UNL A   1      31.744  25.689  26.964  1.00  0.00    -0.269 OA
ATOM      5  H   UNL A   1      32.062  28.030  26.637  1.00  0.00     0.163 HD
BRANCH   3   6
ATOM      6  C   UNL A   1      33.689  25.245  25.734  1.00  0.00     0.082 A 
ATOM      7  C   UNL A   1      34.136  25.383  24.411  1.00  0.00     0.143 A 
ATOM      8  C   UNL A   1      35.049  24.474  23.856  1.00  0.00     0.048 A 
ATOM      9  C   UNL A   1      35.506  23.397  24.607  1.00  0.00     0.004 A 
ATOM     10  C   UNL A   1      34.086  24.095  26.434  1.00  0.00     0.018 A 
ATOM     11  C   UNL A   1      35.006  23.194  25.889  1.00  0.00     0.001 A 
BRANCH   7  12
ATOM     12  O   UNL A   1      33.549  26.219  23.424  1.00  0.00    -0.423 OA
BRANCH  12  13
ATOM     13  C   UNL A   1      32.895  25.840  22.264  1.00  0.00     0.352 C 
ATOM     14  O   UNL A   1      33.445  25.625  21.189  1.00  0.00    -0.247 OA
BRANCH  13  15
ATOM     15  C   UNL A   1      31.369  25.686  22.529  1.00  0.00     0.280 C 
ATOM     16  C   UNL A   1      30.800  26.791  23.421  1.00  0.00     0.066 C 
BRANCH  15  17
ATOM     17  O   UNL A   1      30.663  24.483  22.782  1.00  0.00    -0.479 OA
BRANCH  17  18
ATOM     18  C   UNL A   1      31.108  23.404  23.480  1.00  0.00     0.123 A 
ATOM     19  C   UNL A   1      32.753  22.279  21.815  1.00  0.00     0.048 C 
ATOM     20  C   UNL A   1      32.008  22.394  23.114  1.00  0.00    -0.009 A 
ATOM     21  C   UNL A   1      32.358  21.421  24.083  1.00  0.00     0.007 A 
ATOM     22  C   UNL A   1      31.854  21.454  25.382  1.00  0.00     0.001 A 
ATOM     23  C   UNL A   1      30.623  23.430  24.803  1.00  0.00     0.047 A 
ATOM     24  C   UNL A   1      30.987  22.469  25.747  1.00  0.00     0.004 A 
ENDBRANCH  17  18
ENDBRANCH  15  17
ENDBRANCH  13  15
ENDBRANCH  12  13
ENDBRANCH   7  12
ENDBRANCH   3   6
ENDBRANCH   1   2
BRANCH   1  25
ATOM     25  C   UNL A   1      34.572  29.290  26.855  1.00  0.00     0.023 C 
BRANCH  25  26
ATOM     26  C   UNL A   1      33.777  30.507  27.320  1.00  0.00     0.023 C 
BRANCH  26  27
ATOM     27  C   UNL A   1      34.571  31.605  28.015  1.00  0.00     0.116 C 
BRANCH  27  28
ATOM     28  N   UNL A   1      33.814  32.772  28.448  1.00  0.00    -0.352 N 
ATOM     29  C   UNL A   1      34.095  33.690  29.456  1.00  0.00     0.251 C 
ATOM     30  H   UNL A   1      32.977  32.936  27.954  1.00  0.00     0.163 HD
ATOM     31  O   UNL A   1      33.302  34.580  29.706  1.00  0.00    -0.269 OA
BRANCH  29  32
ATOM     32  C   UNL A   1      35.427  33.681  30.128  1.00  0.00     0.039 A 
ATOM     33  C   UNL A   1      36.508  34.261  29.449  1.00  0.00     0.014 A 
ATOM     34  C   UNL A   1      35.664  32.936  31.277  1.00  0.00     0.014 A 
ATOM     35  C   UNL A   1      37.805  33.844  29.742  1.00  0.00     0.010 A 
ATOM     36  C   UNL A   1      36.926  32.426  31.491  1.00  0.00     0.010 A 
ATOM     37  C   UNL A   1      37.980  32.816  30.664  1.00  0.00    -0.014 A 
BRANCH  37  38
ATOM     38  C   UNL A   1      39.173  31.983  30.728  1.00  0.00     0.031 A 
ATOM     39  C   UNL A   1      39.220  30.681  30.027  1.00  0.00     0.074 A 
ATOM     40  C   UNL A   1      40.286  32.457  31.342  1.00  0.00     0.049 A 
ATOM     41  N   UNL A   1      40.027  29.727  30.353  1.00  0.00    -0.248 NA
ATOM     42  C   UNL A   1      38.314  30.310  28.941  1.00  0.00     0.031 C 
ATOM     43  C   UNL A   1      41.636  31.904  31.248  1.00  0.00     0.029 A 
ATOM     44  N   UNL A   1      40.415  33.439  32.330  1.00  0.00    -0.354 N 
ATOM     45  C   UNL A   1      40.005  28.811  29.330  1.00  0.00     0.074 A 
ATOM     46  C   UNL A   1      38.814  29.123  28.579  1.00  0.00     0.031 C 
ATOM     47  C   UNL A   1      42.341  32.304  32.318  1.00  0.00     0.029 A 
ATOM     48  C   UNL A   1      41.407  32.971  33.207  1.00  0.00     0.049 A 
ATOM     49  H   UNL A   1      39.915  34.285  32.396  1.00  0.00     0.167 HD
ATOM     50  C   UNL A   1      41.086  28.004  29.141  1.00  0.00     0.031 A 
ATOM     51  C   UNL A   1      41.188  32.620  34.509  1.00  0.00     0.031 A 
ATOM     52  C   UNL A   1      42.068  28.136  30.223  1.00  0.00     0.049 A 
ATOM     53  C   UNL A   1      41.631  31.205  34.856  1.00  0.00     0.074 A 
ATOM     54  C   UNL A   1      43.350  28.654  30.297  1.00  0.00     0.029 A 
ATOM     55  N   UNL A   1      41.673  27.898  31.533  1.00  0.00    -0.354 N 
ATOM     56  N   UNL A   1      41.970  30.307  33.975  1.00  0.00    -0.248 NA
ATOM     57  C   UNL A   1      41.629  30.660  36.212  1.00  0.00     0.031 C 
ATOM     58  C   UNL A   1      43.722  28.722  31.668  1.00  0.00     0.029 A 
ATOM     59  C   UNL A   1      42.679  28.220  32.423  1.00  0.00     0.049 A 
ATOM     60  H   UNL A   1      40.791  27.545  31.792  1.00  0.00     0.167 HD
ATOM     61  C   UNL A   1      42.182  29.095  34.584  1.00  0.00     0.074 A 
ATOM     62  C   UNL A   1      41.956  29.373  35.992  1.00  0.00     0.031 C 
ATOM     63  C   UNL A   1      42.479  27.978  33.849  1.00  0.00     0.031 A 
BRANCH  50  64
ATOM     64  C   UNL A   1      41.393  27.242  27.866  1.00  0.00    -0.014 A 
ATOM     65  C   UNL A   1      41.968  27.926  26.776  1.00  0.00     0.009 A 
ATOM     66  C   UNL A   1      41.065  25.896  27.627  1.00  0.00     0.009 A 
ATOM     67  C   UNL A   1      42.158  27.319  25.525  1.00  0.00     0.001 A 
ATOM     68  C   UNL A   1      41.273  25.274  26.387  1.00  0.00     0.001 A 
ATOM     69  C   UNL A   1      41.807  25.991  25.329  1.00  0.00     0.000 A 
ENDBRANCH  50  64
BRANCH  51  70
ATOM     70  C   UNL A   1      40.029  33.299  35.149  1.00  0.00    -0.014 A 
ATOM     71  C   UNL A   1      38.738  32.784  34.930  1.00  0.00     0.009 A 
ATOM     72  C   UNL A   1      40.226  34.187  36.217  1.00  0.00     0.009 A 
ATOM     73  C   UNL A   1      37.702  33.050  35.829  1.00  0.00     0.001 A 
ATOM     74  C   UNL A   1      39.180  34.461  37.108  1.00  0.00     0.001 A 
ATOM     75  C   UNL A   1      37.933  33.862  36.936  1.00  0.00     0.000 A 
ENDBRANCH  51  70
BRANCH  63  76
ATOM     76  C   UNL A   1      42.600  26.541  34.334  1.00  0.00    -0.014 A 
ATOM     77  C   UNL A   1      43.647  25.662  34.041  1.00  0.00     0.009 A 
ATOM     78  C   UNL A   1      41.565  26.007  35.146  1.00  0.00     0.009 A 
ATOM     79  C   UNL A   1      43.690  24.359  34.572  1.00  0.00     0.001 A 
ATOM     80  C   UNL A   1      41.599  24.715  35.677  1.00  0.00     0.001 A 
ATOM     81  C   UNL A   1      42.673  23.890  35.397  1.00  0.00     0.000 A 
ENDBRANCH  63  76
ENDBRANCH  37  38
ENDBRANCH  29  32
ENDBRANCH  27  28
ENDBRANCH  26  27
ENDBRANCH  25  26
ENDBRANCH   1  25
TORSDOF 16
ENDMDL
MODEL 3
REMARK VINA RESULT:     -11.5      3.960      8.771
REMARK SMILES Cc1ccccc1O[C@@H](C)C(=O)Oc1ccccc1C(=O)NCCCCNC(=O)c1ccc(-c2c3nc(c(-c4ccccc4)c4ccc([nH]4)c(-c4ccccc4)c4nc(c(-c5ccccc5)c5ccc2[nH]5)C=C4)C=C3)cc1
REMARK SMILES IDX 23 1 22 2 20 3 21 4 19 6 14 7 15 8 16 9 18 10 17 11 13 12
REMARK SMILES IDX 11 13 12 14 9 15 10 16 8 17 7 18 1 19 2 20 3 21 4 22 6 23
REMARK SMILES IDX 5 24 24 25 25 26 26 27 27 28 28 29 29 31 30 32 31 33 77 34
REMARK SMILES IDX 32 35 76 36 33 37 34 38 35 39 70 40 36 41 75 42 69 43 71 44
REMARK SMILES IDX 37 45 74 46 68 47 67 48 38 50 60 51 45 52 59 53 46 54 49 55
REMARK SMILES IDX 58 56 72 57 47 58 48 59 57 61 73 62 50 63 39 64 40 65 44 66
REMARK SMILES IDX 41 67 43 68 42 69 61 70 62 71 66 72 63 73 65 74 64 75 51 76
REMARK SMILES IDX 52 77 56 78 53 79 55 80 54 81
REMARK H PARENT 22 5 27 30 71 49 49 60
REMARK Flexibility Score: inf
ROOT
ATOM      1  C   UNL A   1      34.281  28.407  26.178  1.00  0.00     0.116 C 
ENDROOT
BRANCH   1   2
ATOM      2  N   UNL A   1      33.117  27.611  26.550  1.00  0.00    -0.352 N 
ATOM      3  C   UNL A   1      32.744  26.312  26.261  1.00  0.00     0.255 C 
ATOM      4  O   UNL A   1      31.769  25.830  26.839  1.00  0.00    -0.269 OA
ATOM      5  H   UNL A   1      32.473  28.091  27.119  1.00  0.00     0.163 HD
BRANCH   3   6
ATOM      6  C   UNL A   1      33.490  25.478  25.289  1.00  0.00     0.082 A 
ATOM      7  C   UNL A   1      33.239  25.499  23.908  1.00  0.00     0.143 A 
ATOM      8  C   UNL A   1      33.954  24.673  23.028  1.00  0.00     0.048 A 
ATOM      9  C   UNL A   1      34.910  23.791  23.520  1.00  0.00     0.004 A 
ATOM     10  C   UNL A   1      34.385  24.509  25.768  1.00  0.00     0.018 A 
ATOM     11  C   UNL A   1      35.109  23.692  24.893  1.00  0.00     0.001 A 
BRANCH   7  12
ATOM     12  O   UNL A   1      32.110  26.093  23.284  1.00  0.00    -0.423 OA
BRANCH  12  13
ATOM     13  C   UNL A   1      30.795  25.661  23.311  1.00  0.00     0.352 C 
ATOM     14  O   UNL A   1      30.441  24.490  23.228  1.00  0.00    -0.247 OA
BRANCH  13  15
ATOM     15  C   UNL A   1      29.833  26.868  23.502  1.00  0.00     0.280 C 
ATOM     16  C   UNL A   1      28.463  26.463  24.051  1.00  0.00     0.066 C 
BRANCH  15  17
ATOM     17  O   UNL A   1      29.668  27.977  22.635  1.00  0.00    -0.479 OA
BRANCH  17  18
ATOM     18  C   UNL A   1      29.277  29.233  22.977  1.00  0.00     0.123 A 
ATOM     19  C   UNL A   1      31.067  29.942  24.720  1.00  0.00     0.048 C 
ATOM     20  C   UNL A   1      29.832  30.141  23.889  1.00  0.00    -0.009 A 
ATOM     21  C   UNL A   1      29.257  31.432  23.988  1.00  0.00     0.007 A 
ATOM     22  C   UNL A   1      28.180  31.827  23.195  1.00  0.00     0.001 A 
ATOM     23  C   UNL A   1      28.200  29.658  22.172  1.00  0.00     0.047 A 
ATOM     24  C   UNL A   1      27.653  30.937  22.276  1.00  0.00     0.004 A 
ENDBRANCH  17  18
ENDBRANCH  15  17
ENDBRANCH  13  15
ENDBRANCH  12  13
ENDBRANCH   7  12
ENDBRANCH   3   6
ENDBRANCH   1   2
BRANCH   1  25
ATOM     25  C   UNL A   1      34.769  29.398  27.234  1.00  0.00     0.023 C 
BRANCH  25  26
ATOM     26  C   UNL A   1      33.903  30.632  27.471  1.00  0.00     0.023 C 
BRANCH  26  27
ATOM     27  C   UNL A   1      34.639  31.911  27.848  1.00  0.00     0.116 C 
BRANCH  27  28
ATOM     28  N   UNL A   1      33.825  32.982  28.407  1.00  0.00    -0.352 N 
ATOM     29  C   UNL A   1      34.060  33.790  29.516  1.00  0.00     0.251 C 
ATOM     30  H   UNL A   1      32.983  33.161  27.929  1.00  0.00     0.163 HD
ATOM     31  O   UNL A   1      33.223  34.606  29.860  1.00  0.00    -0.269 OA
BRANCH  29  32
ATOM     32  C   UNL A   1      35.389  33.768  30.192  1.00  0.00     0.039 A 
ATOM     33  C   UNL A   1      36.475  34.349  29.522  1.00  0.00     0.014 A 
ATOM     34  C   UNL A   1      35.618  33.011  31.335  1.00  0.00     0.014 A 
ATOM     35  C   UNL A   1      37.769  33.923  29.816  1.00  0.00     0.010 A 
ATOM     36  C   UNL A   1      36.878  32.493  31.548  1.00  0.00     0.010 A 
ATOM     37  C   UNL A   1      37.936  32.885  30.728  1.00  0.00    -0.014 A 
BRANCH  37  38
ATOM     38  C   UNL A   1      39.124  32.046  30.788  1.00  0.00     0.031 A 
ATOM     39  C   UNL A   1      39.148  30.725  30.121  1.00  0.00     0.074 A 
ATOM     40  C   UNL A   1      40.254  32.528  31.365  1.00  0.00     0.049 A 
ATOM     41  N   UNL A   1      39.955  29.775  30.454  1.00  0.00    -0.248 NA
ATOM     42  C   UNL A   1      38.216  30.333  29.065  1.00  0.00     0.031 C 
ATOM     43  C   UNL A   1      41.598  31.962  31.256  1.00  0.00     0.029 A 
ATOM     44  N   UNL A   1      40.411  33.535  32.323  1.00  0.00    -0.354 N 
ATOM     45  C   UNL A   1      39.905  28.832  29.457  1.00  0.00     0.074 A 
ATOM     46  C   UNL A   1      38.700  29.133  28.724  1.00  0.00     0.031 C 
ATOM     47  C   UNL A   1      42.329  32.386  32.300  1.00  0.00     0.029 A 
ATOM     48  C   UNL A   1      41.419  33.082  33.191  1.00  0.00     0.049 A 
ATOM     49  H   UNL A   1      39.918  34.385  32.378  1.00  0.00     0.167 HD
ATOM     50  C   UNL A   1      40.977  28.013  29.265  1.00  0.00     0.031 A 
ATOM     51  C   UNL A   1      41.227  32.768  34.507  1.00  0.00     0.031 A 
ATOM     52  C   UNL A   1      41.983  28.166  30.322  1.00  0.00     0.049 A 
ATOM     53  C   UNL A   1      41.668  31.359  34.880  1.00  0.00     0.074 A 
ATOM     54  C   UNL A   1      43.269  28.677  30.354  1.00  0.00     0.029 A 
ATOM     55  N   UNL A   1      41.615  27.965  31.646  1.00  0.00    -0.354 N 
ATOM     56  N   UNL A   1      41.981  30.435  34.016  1.00  0.00    -0.248 NA
ATOM     57  C   UNL A   1      41.691  30.849  36.250  1.00  0.00     0.031 C 
ATOM     58  C   UNL A   1      43.672  28.778  31.714  1.00  0.00     0.029 A 
ATOM     59  C   UNL A   1      42.642  28.303  32.504  1.00  0.00     0.049 A 
ATOM     60  H   UNL A   1      40.737  27.626  31.933  1.00  0.00     0.167 HD
ATOM     61  C   UNL A   1      42.199  29.238  34.652  1.00  0.00     0.074 A 
ATOM     62  C   UNL A   1      42.006  29.555  36.057  1.00  0.00     0.031 C 
ATOM     63  C   UNL A   1      42.472  28.100  33.941  1.00  0.00     0.031 A 
BRANCH  50  64
ATOM     64  C   UNL A   1      41.250  27.215  28.004  1.00  0.00    -0.014 A 
ATOM     65  C   UNL A   1      41.621  27.895  26.827  1.00  0.00     0.009 A 
ATOM     66  C   UNL A   1      41.075  25.827  27.869  1.00  0.00     0.009 A 
ATOM     67  C   UNL A   1      41.761  27.238  25.594  1.00  0.00     0.001 A 
ATOM     68  C   UNL A   1      41.237  25.158  26.646  1.00  0.00     0.001 A 
ATOM     69  C   UNL A   1      41.567  25.868  25.503  1.00  0.00     0.000 A 
ENDBRANCH  50  64
BRANCH  51  70
ATOM     70  C   UNL A   1      40.086  33.471  35.153  1.00  0.00    -0.014 A 
ATOM     71  C   UNL A   1      38.810  32.881  35.101  1.00  0.00     0.009 A 
ATOM     72  C   UNL A   1      40.318  34.489  36.090  1.00  0.00     0.009 A 
ATOM     73  C   UNL A   1      37.832  33.212  36.043  1.00  0.00     0.001 A 
ATOM     74  C   UNL A   1      39.330  34.826  37.024  1.00  0.00     0.001 A 
ATOM     75  C   UNL A   1      38.105  34.161  37.024  1.00  0.00     0.000 A 
ENDBRANCH  51  70
BRANCH  63  76
ATOM     76  C   UNL A   1      42.594  26.675  34.461  1.00  0.00    -0.014 A 
ATOM     77  C   UNL A   1      43.729  25.864  34.369  1.00  0.00     0.009 A 
ATOM     78  C   UNL A   1      41.467  26.080  35.085  1.00  0.00     0.009 A 
ATOM     79  C   UNL A   1      43.758  24.569  34.920  1.00  0.00     0.001 A 
ATOM     80  C   UNL A   1      41.487  24.795  35.634  1.00  0.00     0.001 A 
ATOM     81  C   UNL A   1      42.643  24.039  35.559  1.00  0.00     0.000 A 
ENDBRANCH  63  76
ENDBRANCH  37  38
ENDBRANCH  29  32
ENDBRANCH  27  28
ENDBRANCH  26  27
ENDBRANCH  25  26
ENDBRANCH   1  25
TORSDOF 16
ENDMDL
