MODEL 1
REMARK VINA RESULT:     -12.0      0.000      0.000
REMARK SMILES CN1C(=O)C[C@@H](C(=O)NCCCCNC(=O)c2ccc(-c3c4nc(c(-c5ccccc5)c5ccc([nH]5)c(-c5ccccc5)c5nc(c(-c6ccccc6)c6ccc3[nH]6)C=C5)C=C4)cc2)C12CCN(S(=O)(=O)c1ccccc1F)CC2
REMARK SMILES IDX 11 1 10 2 9 3 7 4 8 5 6 7 1 8 2 9 3 10 65 11 4 12 5 13 66 14
REMARK SMILES IDX 80 15 67 16 79 17 68 18 69 19 70 20 71 21 72 22 73 23 77 24
REMARK SMILES IDX 74 25 76 26 78 27 75 28 12 29 13 30 14 31 15 32 16 34 17 35
REMARK SMILES IDX 18 36 64 37 19 38 63 39 20 40 21 41 22 42 57 43 23 44 62 45
REMARK SMILES IDX 56 46 58 47 24 48 61 49 55 50 54 51 25 53 47 54 32 55 46 56
REMARK SMILES IDX 33 57 36 58 45 59 59 60 34 61 35 62 44 64 60 65 37 66 26 67
REMARK SMILES IDX 27 68 31 69 28 70 30 71 29 72 48 73 49 74 53 75 50 76 52 77
REMARK SMILES IDX 51 78 38 79 39 80 43 81 40 82 42 83 41 84
REMARK H PARENT 9 6 14 33 58 52 36 63
REMARK Flexibility Score: inf
ROOT
ATOM      1  C   UNL A   1      33.524  28.471  24.513  1.00  0.00     0.023 C 
ENDROOT
BRANCH   1   2
ATOM      2  C   UNL A   1      32.644  28.454  23.258  1.00  0.00     0.116 C 
BRANCH   2   3
ATOM      3  N   UNL A   1      33.118  27.569  22.204  1.00  0.00    -0.356 N 
ATOM      4  C   UNL A   1      32.772  26.323  21.790  1.00  0.00     0.226 C 
ATOM      5  O   UNL A   1      33.406  25.882  20.823  1.00  0.00    -0.275 OA
ATOM      6  H   UNL A   1      33.852  27.959  21.676  1.00  0.00     0.163 HD
BRANCH   4   7
ATOM      7  C   UNL A   1      31.718  25.415  22.440  1.00  0.00     0.113 C 
ATOM      8  C   UNL A   1      31.734  25.560  26.172  1.00  0.00     0.147 C 
ATOM      9  N   UNL A   1      31.444  25.578  24.747  1.00  0.00    -0.339 N 
ATOM     10  C   UNL A   1      30.403  26.325  24.213  1.00  0.00     0.223 C 
ATOM     11  C   UNL A   1      32.097  24.702  23.760  1.00  0.00     0.057 C 
ATOM     12  O   UNL A   1      29.630  27.045  24.823  1.00  0.00    -0.275 OA
ATOM     13  C   UNL A   1      30.407  26.149  22.721  1.00  0.00     0.116 C 
ATOM     14  C   UNL A   1      33.621  24.557  23.928  1.00  0.00     0.046 C 
ATOM     15  C   UNL A   1      31.420  23.297  23.884  1.00  0.00     0.046 C 
ATOM     16  C   UNL A   1      34.197  23.424  23.102  1.00  0.00     0.105 C 
ATOM     17  C   UNL A   1      32.154  22.140  23.201  1.00  0.00     0.105 C 
ATOM     18  N   UNL A   1      33.611  22.139  23.511  1.00  0.00    -0.198 NA
BRANCH  18  19
ATOM     19  S   UNL A   1      34.048  21.469  25.029  1.00  0.00     0.245 S 
ATOM     20  O   UNL A   1      33.241  22.072  26.066  1.00  0.00    -0.207 OA
ATOM     21  O   UNL A   1      34.024  20.028  24.857  1.00  0.00    -0.207 OA
BRANCH  19  22
ATOM     22  C   UNL A   1      35.734  21.938  25.301  1.00  0.00     0.118 A 
ATOM     23  C   UNL A   1      36.770  21.103  24.871  1.00  0.00     0.025 A 
ATOM     24  C   UNL A   1      36.038  23.082  26.036  1.00  0.00     0.143 A 
ATOM     25  C   UNL A   1      38.099  21.444  25.146  1.00  0.00     0.002 A 
ATOM     26  C   UNL A   1      37.362  23.439  26.283  1.00  0.00     0.041 A 
ATOM     27  F   UNL A   1      35.083  23.896  26.501  1.00  0.00    -0.206 F 
ATOM     28  C   UNL A   1      38.395  22.618  25.839  1.00  0.00     0.003 A 
ENDBRANCH  19  22
ENDBRANCH  18  19
ENDBRANCH   4   7
ENDBRANCH   2   3
ENDBRANCH   1   2
BRANCH   1  29
ATOM     29  C   UNL A   1      32.831  28.969  25.779  1.00  0.00     0.023 C 
BRANCH  29  30
ATOM     30  C   UNL A   1      33.738  29.012  26.999  1.00  0.00     0.116 C 
BRANCH  30  31
ATOM     31  N   UNL A   1      33.727  30.307  27.671  1.00  0.00    -0.352 N 
ATOM     32  C   UNL A   1      34.712  30.887  28.428  1.00  0.00     0.251 C 
ATOM     33  H   UNL A   1      32.902  30.833  27.567  1.00  0.00     0.163 HD
ATOM     34  O   UNL A   1      34.508  31.933  29.033  1.00  0.00    -0.269 OA
BRANCH  32  35
ATOM     35  C   UNL A   1      36.015  30.210  28.527  1.00  0.00     0.039 A 
ATOM     36  C   UNL A   1      36.868  30.220  27.422  1.00  0.00     0.014 A 
ATOM     37  C   UNL A   1      36.410  29.630  29.735  1.00  0.00     0.014 A 
ATOM     38  C   UNL A   1      38.156  29.705  27.552  1.00  0.00     0.010 A 
ATOM     39  C   UNL A   1      37.717  29.195  29.886  1.00  0.00     0.010 A 
ATOM     40  C   UNL A   1      38.599  29.225  28.796  1.00  0.00    -0.014 A 
BRANCH  40  41
ATOM     41  C   UNL A   1      39.980  28.729  28.985  1.00  0.00     0.031 A 
ATOM     42  C   UNL A   1      41.037  29.663  29.501  1.00  0.00     0.074 A 
ATOM     43  C   UNL A   1      40.296  27.475  28.612  1.00  0.00     0.049 A 
ATOM     44  N   UNL A   1      42.321  29.459  29.638  1.00  0.00    -0.248 NA
ATOM     45  C   UNL A   1      40.598  31.017  29.876  1.00  0.00     0.031 C 
ATOM     46  C   UNL A   1      39.364  26.492  28.053  1.00  0.00     0.029 A 
ATOM     47  N   UNL A   1      41.497  26.816  28.641  1.00  0.00    -0.354 N 
ATOM     48  C   UNL A   1      42.844  30.666  30.084  1.00  0.00     0.074 A 
ATOM     49  C   UNL A   1      41.750  31.609  30.150  1.00  0.00     0.031 C 
ATOM     50  C   UNL A   1      40.024  25.346  27.819  1.00  0.00     0.029 A 
ATOM     51  C   UNL A   1      41.427  25.526  28.176  1.00  0.00     0.049 A 
ATOM     52  H   UNL A   1      42.332  27.228  28.963  1.00  0.00     0.167 HD
ATOM     53  C   UNL A   1      44.120  30.957  30.431  1.00  0.00     0.031 A 
ATOM     54  C   UNL A   1      42.390  24.594  28.051  1.00  0.00     0.031 A 
ATOM     55  C   UNL A   1      45.198  30.009  30.397  1.00  0.00     0.049 A 
ATOM     56  C   UNL A   1      43.793  24.935  28.466  1.00  0.00     0.074 A 
ATOM     57  C   UNL A   1      46.513  30.183  30.789  1.00  0.00     0.029 A 
ATOM     58  N   UNL A   1      45.080  28.702  29.950  1.00  0.00    -0.354 N 
ATOM     59  N   UNL A   1      44.263  26.063  28.941  1.00  0.00    -0.248 NA
ATOM     60  C   UNL A   1      44.798  23.869  28.334  1.00  0.00     0.031 C 
ATOM     61  C   UNL A   1      47.199  28.988  30.550  1.00  0.00     0.029 A 
ATOM     62  C   UNL A   1      46.301  28.061  30.045  1.00  0.00     0.049 A 
ATOM     63  H   UNL A   1      44.250  28.293  29.615  1.00  0.00     0.167 HD
ATOM     64  C   UNL A   1      45.610  25.836  29.189  1.00  0.00     0.074 A 
ATOM     65  C   UNL A   1      45.879  24.460  28.822  1.00  0.00     0.031 C 
ATOM     66  C   UNL A   1      46.542  26.690  29.677  1.00  0.00     0.031 A 
BRANCH  53  67
ATOM     67  C   UNL A   1      44.405  32.363  30.876  1.00  0.00    -0.014 A 
ATOM     68  C   UNL A   1      44.804  33.347  29.958  1.00  0.00     0.009 A 
ATOM     69  C   UNL A   1      44.265  32.710  32.228  1.00  0.00     0.009 A 
ATOM     70  C   UNL A   1      45.097  34.641  30.391  1.00  0.00     0.001 A 
ATOM     71  C   UNL A   1      44.532  34.012  32.654  1.00  0.00     0.001 A 
ATOM     72  C   UNL A   1      44.958  34.973  31.738  1.00  0.00     0.000 A 
ENDBRANCH  53  67
BRANCH  54  73
ATOM     73  C   UNL A   1      42.054  23.241  27.542  1.00  0.00    -0.014 A 
ATOM     74  C   UNL A   1      41.449  22.299  28.388  1.00  0.00     0.009 A 
ATOM     75  C   UNL A   1      42.332  22.884  26.215  1.00  0.00     0.009 A 
ATOM     76  C   UNL A   1      41.149  21.018  27.920  1.00  0.00     0.001 A 
ATOM     77  C   UNL A   1      42.011  21.609  25.743  1.00  0.00     0.001 A 
ATOM     78  C   UNL A   1      41.427  20.675  26.598  1.00  0.00     0.000 A 
ENDBRANCH  54  73
BRANCH  66  79
ATOM     79  C   UNL A   1      47.927  26.149  29.873  1.00  0.00    -0.014 A 
ATOM     80  C   UNL A   1      48.843  26.104  28.812  1.00  0.00     0.009 A 
ATOM     81  C   UNL A   1      48.332  25.724  31.147  1.00  0.00     0.009 A 
ATOM     82  C   UNL A   1      50.134  25.616  29.019  1.00  0.00     0.001 A 
ATOM     83  C   UNL A   1      49.630  25.258  31.356  1.00  0.00     0.001 A 
ATOM     84  C   UNL A   1      50.528  25.198  30.290  1.00  0.00     0.000 A 
ENDBRANCH  66  79
ENDBRANCH  40  41
ENDBRANCH  32  35
ENDBRANCH  30  31
ENDBRANCH  29  30
ENDBRANCH   1  29
TORSDOF 13
ENDMDL
MODEL 2
REMARK VINA RESULT:     -12.0      2.618      7.934
REMARK SMILES CN1C(=O)C[C@@H](C(=O)NCCCCNC(=O)c2ccc(-c3c4nc(c(-c5ccccc5)c5ccc([nH]5)c(-c5ccccc5)c5nc(c(-c6ccccc6)c6ccc3[nH]6)C=C5)C=C4)cc2)C12CCN(S(=O)(=O)c1ccccc1F)CC2
REMARK SMILES IDX 11 1 10 2 9 3 7 4 8 5 6 7 1 8 2 9 3 10 65 11 4 12 5 13 66 14
REMARK SMILES IDX 80 15 67 16 79 17 68 18 69 19 70 20 71 21 72 22 73 23 77 24
REMARK SMILES IDX 74 25 76 26 78 27 75 28 12 29 13 30 14 31 15 32 16 34 17 35
REMARK SMILES IDX 18 36 64 37 19 38 63 39 20 40 21 41 22 42 57 43 23 44 62 45
REMARK SMILES IDX 56 46 58 47 24 48 61 49 55 50 54 51 25 53 47 54 32 55 46 56
REMARK SMILES IDX 33 57 36 58 45 59 59 60 34 61 35 62 44 64 60 65 37 66 26 67
REMARK SMILES IDX 27 68 31 69 28 70 30 71 29 72 48 73 49 74 53 75 50 76 52 77
REMARK SMILES IDX 51 78 38 79 39 80 43 81 40 82 42 83 41 84
REMARK H PARENT 9 6 14 33 58 52 36 63
REMARK Flexibility Score: inf
ROOT
ATOM      1  C   UNL A   1      34.846  22.882  26.474  1.00  0.00     0.023 C 
ENDROOT
BRANCH   1   2
ATOM      2  C   UNL A   1      33.654  21.922  26.562  1.00  0.00     0.116 C 
BRANCH   2   3
ATOM      3  N   UNL A   1      32.465  22.496  27.177  1.00  0.00    -0.356 N 
ATOM      4  C   UNL A   1      31.333  23.068  26.691  1.00  0.00     0.226 C 
ATOM      5  O   UNL A   1      30.512  23.438  27.540  1.00  0.00    -0.275 OA
ATOM      6  H   UNL A   1      32.487  22.462  28.161  1.00  0.00     0.163 HD
BRANCH   4   7
ATOM      7  C   UNL A   1      31.018  23.334  25.212  1.00  0.00     0.113 C 
ATOM      8  C   UNL A   1      33.975  24.508  23.255  1.00  0.00     0.147 C 
ATOM      9  N   UNL A   1      32.811  23.839  23.813  1.00  0.00    -0.339 N 
ATOM     10  C   UNL A   1      32.545  22.497  23.578  1.00  0.00     0.223 C 
ATOM     11  C   UNL A   1      31.726  24.530  24.530  1.00  0.00     0.057 C 
ATOM     12  O   UNL A   1      33.216  21.721  22.919  1.00  0.00    -0.275 OA
ATOM     13  C   UNL A   1      31.297  22.120  24.327  1.00  0.00     0.116 C 
ATOM     14  C   UNL A   1      32.190  25.590  25.545  1.00  0.00     0.046 C 
ATOM     15  C   UNL A   1      30.822  25.204  23.444  1.00  0.00     0.046 C 
ATOM     16  C   UNL A   1      31.059  26.479  26.024  1.00  0.00     0.105 C 
ATOM     17  C   UNL A   1      29.831  26.252  23.957  1.00  0.00     0.105 C 
ATOM     18  N   UNL A   1      30.470  27.215  24.896  1.00  0.00    -0.198 NA
BRANCH  18  19
ATOM     19  S   UNL A   1      31.370  28.481  24.166  1.00  0.00     0.245 S 
ATOM     20  O   UNL A   1      32.240  27.924  23.154  1.00  0.00    -0.207 OA
ATOM     21  O   UNL A   1      30.406  29.499  23.792  1.00  0.00    -0.207 OA
BRANCH  19  22
ATOM     22  C   UNL A   1      32.383  29.161  25.448  1.00  0.00     0.118 A 
ATOM     23  C   UNL A   1      31.888  30.186  26.261  1.00  0.00     0.025 A 
ATOM     24  C   UNL A   1      33.710  28.760  25.587  1.00  0.00     0.143 A 
ATOM     25  C   UNL A   1      32.713  30.767  27.231  1.00  0.00     0.002 A 
ATOM     26  C   UNL A   1      34.523  29.315  26.573  1.00  0.00     0.041 A 
ATOM     27  F   UNL A   1      34.244  27.809  24.811  1.00  0.00    -0.206 F 
ATOM     28  C   UNL A   1      34.025  30.323  27.395  1.00  0.00     0.003 A 
ENDBRANCH  19  22
ENDBRANCH  18  19
ENDBRANCH   4   7
ENDBRANCH   2   3
ENDBRANCH   1   2
BRANCH   1  29
ATOM     29  C   UNL A   1      35.959  22.443  25.526  1.00  0.00     0.023 C 
BRANCH  29  30
ATOM     30  C   UNL A   1      37.193  23.330  25.572  1.00  0.00     0.116 C 
BRANCH  30  31
ATOM     31  N   UNL A   1      38.435  22.574  25.670  1.00  0.00    -0.352 N 
ATOM     32  C   UNL A   1      39.642  22.970  26.186  1.00  0.00     0.251 C 
ATOM     33  H   UNL A   1      38.404  21.656  25.316  1.00  0.00     0.163 HD
ATOM     34  O   UNL A   1      40.635  22.260  26.085  1.00  0.00    -0.269 OA
BRANCH  32  35
ATOM     35  C   UNL A   1      39.729  24.287  26.838  1.00  0.00     0.039 A 
ATOM     36  C   UNL A   1      39.230  24.435  28.134  1.00  0.00     0.014 A 
ATOM     37  C   UNL A   1      40.366  25.347  26.188  1.00  0.00     0.014 A 
ATOM     38  C   UNL A   1      39.434  25.636  28.809  1.00  0.00     0.010 A 
ATOM     39  C   UNL A   1      40.642  26.509  26.891  1.00  0.00     0.010 A 
ATOM     40  C   UNL A   1      40.174  26.665  28.204  1.00  0.00    -0.014 A 
BRANCH  40  41
ATOM     41  C   UNL A   1      40.464  27.929  28.916  1.00  0.00     0.031 A 
ATOM     42  C   UNL A   1      41.769  28.087  29.642  1.00  0.00     0.074 A 
ATOM     43  C   UNL A   1      39.523  28.890  28.980  1.00  0.00     0.049 A 
ATOM     44  N   UNL A   1      42.172  29.066  30.410  1.00  0.00    -0.248 NA
ATOM     45  C   UNL A   1      42.733  26.981  29.520  1.00  0.00     0.031 C 
ATOM     46  C   UNL A   1      38.199  28.829  28.355  1.00  0.00     0.029 A 
ATOM     47  N   UNL A   1      39.537  30.105  29.613  1.00  0.00    -0.354 N 
ATOM     48  C   UNL A   1      43.419  28.679  30.884  1.00  0.00     0.074 A 
ATOM     49  C   UNL A   1      43.685  27.359  30.358  1.00  0.00     0.031 C 
ATOM     50  C   UNL A   1      37.540  29.970  28.612  1.00  0.00     0.029 A 
ATOM     51  C   UNL A   1      38.379  30.824  29.447  1.00  0.00     0.049 A 
ATOM     52  H   UNL A   1      40.304  30.433  30.137  1.00  0.00     0.167 HD
ATOM     53  C   UNL A   1      44.276  29.371  31.669  1.00  0.00     0.031 A 
ATOM     54  C   UNL A   1      38.033  32.036  29.920  1.00  0.00     0.031 A 
ATOM     55  C   UNL A   1      44.023  30.696  32.163  1.00  0.00     0.049 A 
ATOM     56  C   UNL A   1      39.012  32.794  30.770  1.00  0.00     0.074 A 
ATOM     57  C   UNL A   1      44.853  31.512  32.911  1.00  0.00     0.029 A 
ATOM     58  N   UNL A   1      42.850  31.403  31.946  1.00  0.00    -0.354 N 
ATOM     59  N   UNL A   1      40.212  32.440  31.163  1.00  0.00    -0.248 NA
ATOM     60  C   UNL A   1      38.592  34.124  31.234  1.00  0.00     0.031 C 
ATOM     61  C   UNL A   1      44.167  32.703  33.175  1.00  0.00     0.029 A 
ATOM     62  C   UNL A   1      42.928  32.641  32.557  1.00  0.00     0.049 A 
ATOM     63  H   UNL A   1      42.077  31.072  31.434  1.00  0.00     0.167 HD
ATOM     64  C   UNL A   1      40.699  33.512  31.899  1.00  0.00     0.074 A 
ATOM     65  C   UNL A   1      39.671  34.532  31.887  1.00  0.00     0.031 C 
ATOM     66  C   UNL A   1      41.892  33.640  32.528  1.00  0.00     0.031 A 
BRANCH  53  67
ATOM     67  C   UNL A   1      45.566  28.695  32.037  1.00  0.00    -0.014 A 
ATOM     68  C   UNL A   1      46.710  28.830  31.233  1.00  0.00     0.009 A 
ATOM     69  C   UNL A   1      45.642  27.921  33.204  1.00  0.00     0.009 A 
ATOM     70  C   UNL A   1      47.892  28.169  31.570  1.00  0.00     0.001 A 
ATOM     71  C   UNL A   1      46.834  27.284  33.553  1.00  0.00     0.001 A 
ATOM     72  C   UNL A   1      47.954  27.400  32.731  1.00  0.00     0.000 A 
ENDBRANCH  53  67
BRANCH  54  73
ATOM     73  C   UNL A   1      36.713  32.620  29.573  1.00  0.00    -0.014 A 
ATOM     74  C   UNL A   1      36.537  33.285  28.349  1.00  0.00     0.009 A 
ATOM     75  C   UNL A   1      35.628  32.518  30.454  1.00  0.00     0.009 A 
ATOM     76  C   UNL A   1      35.303  33.856  28.027  1.00  0.00     0.001 A 
ATOM     77  C   UNL A   1      34.389  33.070  30.119  1.00  0.00     0.001 A 
ATOM     78  C   UNL A   1      34.230  33.745  28.909  1.00  0.00     0.000 A 
ENDBRANCH  54  73
BRANCH  66  79
ATOM     79  C   UNL A   1      42.159  34.941  33.224  1.00  0.00    -0.014 A 
ATOM     80  C   UNL A   1      41.615  35.211  34.489  1.00  0.00     0.009 A 
ATOM     81  C   UNL A   1      43.006  35.888  32.626  1.00  0.00     0.009 A 
ATOM     82  C   UNL A   1      41.892  36.419  35.129  1.00  0.00     0.001 A 
ATOM     83  C   UNL A   1      43.298  37.084  33.280  1.00  0.00     0.001 A 
ATOM     84  C   UNL A   1      42.736  37.352  34.527  1.00  0.00     0.000 A 
ENDBRANCH  66  79
ENDBRANCH  40  41
ENDBRANCH  32  35
ENDBRANCH  30  31
ENDBRANCH  29  30
ENDBRANCH   1  29
TORSDOF 13
ENDMDL
MODEL 3
REMARK VINA RESULT:     -11.8      2.903      4.240
REMARK SMILES CN1C(=O)C[C@@H](C(=O)NCCCCNC(=O)c2ccc(-c3c4nc(c(-c5ccccc5)c5ccc([nH]5)c(-c5ccccc5)c5nc(c(-c6ccccc6)c6ccc3[nH]6)C=C5)C=C4)cc2)C12CCN(S(=O)(=O)c1ccccc1F)CC2
REMARK SMILES IDX 11 1 10 2 9 3 7 4 8 5 6 7 1 8 2 9 3 10 65 11 4 12 5 13 66 14
REMARK SMILES IDX 80 15 67 16 79 17 68 18 69 19 70 20 71 21 72 22 73 23 77 24
REMARK SMILES IDX 74 25 76 26 78 27 75 28 12 29 13 30 14 31 15 32 16 34 17 35
REMARK SMILES IDX 18 36 64 37 19 38 63 39 20 40 21 41 22 42 57 43 23 44 62 45
REMARK SMILES IDX 56 46 58 47 24 48 61 49 55 50 54 51 25 53 47 54 32 55 46 56
REMARK SMILES IDX 33 57 36 58 45 59 59 60 34 61 35 62 44 64 60 65 37 66 26 67
REMARK SMILES IDX 27 68 31 69 28 70 30 71 29 72 48 73 49 74 53 75 50 76 52 77
REMARK SMILES IDX 51 78 38 79 39 80 43 81 40 82 42 83 41 84
REMARK H PARENT 9 6 14 33 58 52 36 63
REMARK Flexibility Score: inf
ROOT
ATOM      1  C   UNL A   1      31.730  30.273  26.515  1.00  0.00     0.023 C 
ENDROOT
BRANCH   1   2
ATOM      2  C   UNL A   1      31.374  29.682  25.146  1.00  0.00     0.116 C 
BRANCH   2   3
ATOM      3  N   UNL A   1      32.495  29.590  24.222  1.00  0.00    -0.356 N 
ATOM      4  C   UNL A   1      32.810  28.752  23.200  1.00  0.00     0.226 C 
ATOM      5  O   UNL A   1      33.873  28.996  22.614  1.00  0.00    -0.275 OA
ATOM      6  H   UNL A   1      33.174  30.287  24.371  1.00  0.00     0.163 HD
BRANCH   4   7
ATOM      7  C   UNL A   1      32.002  27.524  22.756  1.00  0.00     0.113 C 
ATOM      8  C   UNL A   1      30.009  25.984  25.514  1.00  0.00     0.147 C 
ATOM      9  N   UNL A   1      30.525  26.601  24.303  1.00  0.00    -0.339 N 
ATOM     10  C   UNL A   1      29.727  27.370  23.466  1.00  0.00     0.223 C 
ATOM     11  C   UNL A   1      31.869  26.350  23.756  1.00  0.00     0.057 C 
ATOM     12  O   UNL A   1      28.547  27.637  23.621  1.00  0.00    -0.275 OA
ATOM     13  C   UNL A   1      30.576  27.883  22.338  1.00  0.00     0.116 C 
ATOM     14  C   UNL A   1      33.002  26.339  24.797  1.00  0.00     0.046 C 
ATOM     15  C   UNL A   1      31.811  24.965  23.029  1.00  0.00     0.046 C 
ATOM     16  C   UNL A   1      34.300  25.778  24.247  1.00  0.00     0.105 C 
ATOM     17  C   UNL A   1      33.162  24.339  22.675  1.00  0.00     0.105 C 
ATOM     18  N   UNL A   1      34.116  24.384  23.818  1.00  0.00    -0.198 NA
BRANCH  18  19
ATOM     19  S   UNL A   1      33.909  23.166  25.009  1.00  0.00     0.245 S 
ATOM     20  O   UNL A   1      33.691  23.790  26.295  1.00  0.00    -0.207 OA
ATOM     21  O   UNL A   1      32.910  22.253  24.485  1.00  0.00    -0.207 OA
BRANCH  19  22
ATOM     22  C   UNL A   1      35.443  22.286  25.078  1.00  0.00     0.118 A 
ATOM     23  C   UNL A   1      35.478  20.918  24.788  1.00  0.00     0.025 A 
ATOM     24  C   UNL A   1      36.601  22.919  25.524  1.00  0.00     0.143 A 
ATOM     25  C   UNL A   1      36.679  20.211  24.907  1.00  0.00     0.002 A 
ATOM     26  C   UNL A   1      37.805  22.224  25.613  1.00  0.00     0.041 A 
ATOM     27  F   UNL A   1      36.614  24.217  25.850  1.00  0.00    -0.206 F 
ATOM     28  C   UNL A   1      37.845  20.866  25.306  1.00  0.00     0.003 A 
ENDBRANCH  19  22
ENDBRANCH  18  19
ENDBRANCH   4   7
ENDBRANCH   2   3
ENDBRANCH   1   2
BRANCH   1  29
ATOM     29  C   UNL A   1      31.539  31.783  26.636  1.00  0.00     0.023 C 
BRANCH  29  30
ATOM     30  C   UNL A   1      32.752  32.515  27.188  1.00  0.00     0.116 C 
BRANCH  30  31
ATOM     31  N   UNL A   1      32.452  33.878  27.608  1.00  0.00    -0.352 N 
ATOM     32  C   UNL A   1      33.098  34.650  28.538  1.00  0.00     0.251 C 
ATOM     33  H   UNL A   1      31.682  34.301  27.164  1.00  0.00     0.163 HD
ATOM     34  O   UNL A   1      32.651  35.741  28.873  1.00  0.00    -0.269 OA
BRANCH  32  35
ATOM     35  C   UNL A   1      34.328  34.127  29.154  1.00  0.00     0.039 A 
ATOM     36  C   UNL A   1      34.235  33.416  30.352  1.00  0.00     0.014 A 
ATOM     37  C   UNL A   1      35.555  34.284  28.506  1.00  0.00     0.014 A 
ATOM     38  C   UNL A   1      35.373  32.799  30.868  1.00  0.00     0.010 A 
ATOM     39  C   UNL A   1      36.666  33.600  28.974  1.00  0.00     0.010 A 
ATOM     40  C   UNL A   1      36.585  32.856  30.161  1.00  0.00    -0.014 A 
BRANCH  40  41
ATOM     41  C   UNL A   1      37.796  32.159  30.647  1.00  0.00     0.031 A 
ATOM     42  C   UNL A   1      38.594  32.759  31.768  1.00  0.00     0.074 A 
ATOM     43  C   UNL A   1      38.219  31.042  30.024  1.00  0.00     0.049 A 
ATOM     44  N   UNL A   1      39.736  32.365  32.269  1.00  0.00    -0.248 NA
ATOM     45  C   UNL A   1      38.057  33.983  32.383  1.00  0.00     0.031 C 
ATOM     46  C   UNL A   1      37.552  30.394  28.892  1.00  0.00     0.029 A 
ATOM     47  N   UNL A   1      39.321  30.261  30.254  1.00  0.00    -0.354 N 
ATOM     48  C   UNL A   1      40.066  33.309  33.232  1.00  0.00     0.074 A 
ATOM     49  C   UNL A   1      39.031  34.318  33.214  1.00  0.00     0.031 C 
ATOM     50  C   UNL A   1      38.244  29.297  28.546  1.00  0.00     0.029 A 
ATOM     51  C   UNL A   1      39.418  29.186  29.405  1.00  0.00     0.049 A 
ATOM     52  H   UNL A   1      39.980  30.451  30.960  1.00  0.00     0.167 HD
ATOM     53  C   UNL A   1      41.126  33.323  34.074  1.00  0.00     0.031 A 
ATOM     54  C   UNL A   1      40.353  28.222  29.329  1.00  0.00     0.031 A 
ATOM     55  C   UNL A   1      42.135  32.302  34.113  1.00  0.00     0.049 A 
ATOM     56  C   UNL A   1      41.507  28.246  30.290  1.00  0.00     0.074 A 
ATOM     57  C   UNL A   1      43.214  32.186  34.971  1.00  0.00     0.029 A 
ATOM     58  N   UNL A   1      42.181  31.211  33.257  1.00  0.00    -0.354 N 
ATOM     59  N   UNL A   1      41.776  29.114  31.235  1.00  0.00    -0.248 NA
ATOM     60  C   UNL A   1      42.482  27.151  30.180  1.00  0.00     0.031 C 
ATOM     61  C   UNL A   1      43.932  31.040  34.613  1.00  0.00     0.029 A 
ATOM     62  C   UNL A   1      43.277  30.424  33.558  1.00  0.00     0.049 A 
ATOM     63  H   UNL A   1      41.530  31.027  32.542  1.00  0.00     0.167 HD
ATOM     64  C   UNL A   1      42.935  28.658  31.848  1.00  0.00     0.074 A 
ATOM     65  C   UNL A   1      43.311  27.432  31.175  1.00  0.00     0.031 C 
ATOM     66  C   UNL A   1      43.627  29.206  32.876  1.00  0.00     0.031 A 
BRANCH  53  67
ATOM     67  C   UNL A   1      41.236  34.487  35.018  1.00  0.00    -0.014 A 
ATOM     68  C   UNL A   1      40.620  34.457  36.280  1.00  0.00     0.009 A 
ATOM     69  C   UNL A   1      41.970  35.622  34.645  1.00  0.00     0.009 A 
ATOM     70  C   UNL A   1      40.703  35.559  37.132  1.00  0.00     0.001 A 
ATOM     71  C   UNL A   1      42.075  36.711  35.512  1.00  0.00     0.001 A 
ATOM     72  C   UNL A   1      41.433  36.683  36.749  1.00  0.00     0.000 A 
ENDBRANCH  53  67
BRANCH  54  73
ATOM     73  C   UNL A   1      40.219  27.134  28.328  1.00  0.00    -0.014 A 
ATOM     74  C   UNL A   1      40.812  27.264  27.062  1.00  0.00     0.009 A 
ATOM     75  C   UNL A   1      39.505  25.965  28.628  1.00  0.00     0.009 A 
ATOM     76  C   UNL A   1      40.671  26.253  26.109  1.00  0.00     0.001 A 
ATOM     77  C   UNL A   1      39.385  24.946  27.680  1.00  0.00     0.001 A 
ATOM     78  C   UNL A   1      39.962  25.094  26.419  1.00  0.00     0.000 A 
ENDBRANCH  54  73
BRANCH  66  79
ATOM     79  C   UNL A   1      44.839  28.463  33.355  1.00  0.00    -0.014 A 
ATOM     80  C   UNL A   1      46.113  28.746  32.838  1.00  0.00     0.009 A 
ATOM     81  C   UNL A   1      44.708  27.503  34.369  1.00  0.00     0.009 A 
ATOM     82  C   UNL A   1      47.231  28.058  33.312  1.00  0.00     0.001 A 
ATOM     83  C   UNL A   1      45.832  26.834  34.856  1.00  0.00     0.001 A 
ATOM     84  C   UNL A   1      47.090  27.107  34.322  1.00  0.00     0.000 A 
ENDBRANCH  66  79
ENDBRANCH  40  41
ENDBRANCH  32  35
ENDBRANCH  30  31
ENDBRANCH  29  30
ENDBRANCH   1  29
TORSDOF 13
ENDMDL
