MODEL 1
REMARK VINA RESULT:     -11.4      0.000      0.000
REMARK SMILES COc1cc2cc(C(=O)NCCCCNC(=O)c3ccc(-c4c5nc(c(-c6ccccc6)c6ccc([nH]6)c(-c6ccccc6)c6nc(c(-c7ccccc7)c7ccc4[nH]7)C=C6)C=C5)cc3)n(Cc3ccccc3)c2c(OC)c1OC
REMARK SMILES IDX 12 1 11 2 10 3 8 4 9 5 7 7 3 8 4 9 78 10 5 11 75 12 6 13
REMARK SMILES IDX 74 14 66 15 2 16 1 17 79 18 80 19 76 20 77 21 67 22 68 23
REMARK SMILES IDX 69 24 73 25 70 26 72 27 71 28 13 29 14 30 15 31 16 32 17 34
REMARK SMILES IDX 18 35 19 36 65 37 20 38 64 39 21 40 22 41 23 42 58 43 24 44
REMARK SMILES IDX 63 45 57 46 59 47 25 48 62 49 56 50 55 51 26 53 48 54 33 55
REMARK SMILES IDX 47 56 34 57 37 58 46 59 60 60 35 61 36 62 45 64 61 65 38 66
REMARK SMILES IDX 27 67 28 68 32 69 29 70 31 71 30 72 49 73 50 74 54 75 51 76
REMARK SMILES IDX 53 77 52 78 39 79 40 80 44 81 41 82 43 83 42 84
REMARK H PARENT 10 6 15 33 59 52 37 63
REMARK Flexibility Score: inf
ROOT
ATOM      1  C   UNL A   1      34.363  29.894  26.408  1.00  0.00     0.023 C 
ENDROOT
BRANCH   1   2
ATOM      2  C   UNL A   1      32.903  30.116  26.013  1.00  0.00     0.116 C 
BRANCH   2   3
ATOM      3  N   UNL A   1      32.012  29.350  26.857  1.00  0.00    -0.351 N 
ATOM      4  C   UNL A   1      31.687  28.025  26.967  1.00  0.00     0.267 C 
ATOM      5  O   UNL A   1      30.956  27.779  27.934  1.00  0.00    -0.268 OA
ATOM      6  H   UNL A   1      31.526  29.914  27.502  1.00  0.00     0.163 HD
BRANCH   4   7
ATOM      7  C   UNL A   1      32.146  26.944  26.098  1.00  0.00     0.108 A 
ATOM      8  C   UNL A   1      34.359  23.384  24.040  1.00  0.00     0.165 A 
ATOM      9  C   UNL A   1      34.503  24.243  25.147  1.00  0.00     0.061 A 
ATOM     10  C   UNL A   1      33.343  23.579  23.087  1.00  0.00     0.205 A 
ATOM     11  C   UNL A   1      33.546  25.253  25.362  1.00  0.00     0.008 A 
ATOM     12  C   UNL A   1      32.437  24.654  23.249  1.00  0.00     0.189 A 
ATOM     13  C   UNL A   1      33.352  26.267  26.333  1.00  0.00     0.042 A 
ATOM     14  C   UNL A   1      32.501  25.381  24.464  1.00  0.00     0.096 A 
ATOM     15  N   UNL A   1      31.545  26.204  25.089  1.00  0.00    -0.329 N 
BRANCH   8  16
ATOM     16  O   UNL A   1      35.148  22.259  24.020  1.00  0.00    -0.493 OA
ATOM     17  C   UNL A   1      36.539  22.571  23.950  1.00  0.00     0.278 C 
ENDBRANCH   8  16
BRANCH  10  18
ATOM     18  O   UNL A   1      33.062  22.729  22.049  1.00  0.00    -0.490 OA
ATOM     19  C   UNL A   1      32.202  21.622  22.237  1.00  0.00     0.278 C 
ENDBRANCH  10  18
BRANCH  12  20
ATOM     20  O   UNL A   1      31.482  25.082  22.368  1.00  0.00    -0.491 OA
ATOM     21  C   UNL A   1      31.834  25.876  21.249  1.00  0.00     0.278 C 
ENDBRANCH  12  20
BRANCH  15  22
ATOM     22  C   UNL A   1      30.138  26.074  24.704  1.00  0.00     0.158 C 
BRANCH  22  23
ATOM     23  C   UNL A   1      29.428  27.171  23.951  1.00  0.00    -0.028 A 
ATOM     24  C   UNL A   1      28.061  27.239  23.669  1.00  0.00     0.005 A 
ATOM     25  C   UNL A   1      30.241  28.265  23.572  1.00  0.00     0.005 A 
ATOM     26  C   UNL A   1      27.507  28.416  23.153  1.00  0.00     0.000 A 
ATOM     27  C   UNL A   1      29.691  29.425  23.034  1.00  0.00     0.000 A 
ATOM     28  C   UNL A   1      28.317  29.511  22.854  1.00  0.00     0.000 A 
ENDBRANCH  22  23
ENDBRANCH  15  22
ENDBRANCH   4   7
ENDBRANCH   2   3
ENDBRANCH   1   2
BRANCH   1  29
ATOM     29  C   UNL A   1      34.782  30.296  27.824  1.00  0.00     0.023 C 
BRANCH  29  30
ATOM     30  C   UNL A   1      34.678  31.787  28.124  1.00  0.00     0.116 C 
BRANCH  30  31
ATOM     31  N   UNL A   1      34.577  32.074  29.542  1.00  0.00    -0.352 N 
ATOM     32  C   UNL A   1      35.378  31.883  30.628  1.00  0.00     0.251 C 
ATOM     33  H   UNL A   1      33.727  32.511  29.775  1.00  0.00     0.163 HD
ATOM     34  O   UNL A   1      34.953  32.343  31.695  1.00  0.00    -0.269 OA
BRANCH  32  35
ATOM     35  C   UNL A   1      36.671  31.148  30.643  1.00  0.00     0.039 A 
ATOM     36  C   UNL A   1      37.917  31.674  30.301  1.00  0.00     0.014 A 
ATOM     37  C   UNL A   1      36.587  29.778  30.963  1.00  0.00     0.014 A 
ATOM     38  C   UNL A   1      39.028  30.839  30.193  1.00  0.00     0.010 A 
ATOM     39  C   UNL A   1      37.693  28.945  30.874  1.00  0.00     0.010 A 
ATOM     40  C   UNL A   1      38.905  29.469  30.439  1.00  0.00    -0.014 A 
BRANCH  40  41
ATOM     41  C   UNL A   1      40.101  28.638  30.335  1.00  0.00     0.031 A 
ATOM     42  C   UNL A   1      40.856  28.456  31.610  1.00  0.00     0.074 A 
ATOM     43  C   UNL A   1      40.435  27.966  29.213  1.00  0.00     0.049 A 
ATOM     44  N   UNL A   1      42.102  28.708  31.853  1.00  0.00    -0.248 NA
ATOM     45  C   UNL A   1      40.092  28.021  32.791  1.00  0.00     0.031 C 
ATOM     46  C   UNL A   1      39.648  27.811  27.986  1.00  0.00     0.029 A 
ATOM     47  N   UNL A   1      41.517  27.170  28.983  1.00  0.00    -0.354 N 
ATOM     48  C   UNL A   1      42.322  28.332  33.177  1.00  0.00     0.074 A 
ATOM     49  C   UNL A   1      41.030  28.029  33.737  1.00  0.00     0.031 C 
ATOM     50  C   UNL A   1      40.153  26.789  27.258  1.00  0.00     0.029 A 
ATOM     51  C   UNL A   1      41.376  26.325  27.890  1.00  0.00     0.049 A 
ATOM     52  H   UNL A   1      42.327  27.192  29.543  1.00  0.00     0.167 HD
ATOM     53  C   UNL A   1      43.569  28.121  33.682  1.00  0.00     0.031 A 
ATOM     54  C   UNL A   1      42.168  25.271  27.573  1.00  0.00     0.031 A 
ATOM     55  C   UNL A   1      44.587  28.740  32.882  1.00  0.00     0.049 A 
ATOM     56  C   UNL A   1      43.455  25.450  28.282  1.00  0.00     0.074 A 
ATOM     57  C   UNL A   1      44.909  30.042  32.559  1.00  0.00     0.029 A 
ATOM     58  N   UNL A   1      45.260  27.950  31.984  1.00  0.00    -0.354 N 
ATOM     59  N   UNL A   1      44.299  26.405  28.021  1.00  0.00    -0.248 NA
ATOM     60  C   UNL A   1      43.617  24.803  29.573  1.00  0.00     0.031 C 
ATOM     61  C   UNL A   1      45.354  29.984  31.208  1.00  0.00     0.029 A 
ATOM     62  C   UNL A   1      45.336  28.646  30.806  1.00  0.00     0.049 A 
ATOM     63  H   UNL A   1      45.621  27.050  32.154  1.00  0.00     0.167 HD
ATOM     64  C   UNL A   1      44.810  26.770  29.257  1.00  0.00     0.074 A 
ATOM     65  C   UNL A   1      44.435  25.682  30.158  1.00  0.00     0.031 C 
ATOM     66  C   UNL A   1      45.244  28.042  29.495  1.00  0.00     0.031 A 
BRANCH  53  67
ATOM     67  C   UNL A   1      43.883  27.065  34.713  1.00  0.00    -0.014 A 
ATOM     68  C   UNL A   1      43.785  25.685  34.451  1.00  0.00     0.009 A 
ATOM     69  C   UNL A   1      44.551  27.435  35.895  1.00  0.00     0.009 A 
ATOM     70  C   UNL A   1      44.331  24.724  35.306  1.00  0.00     0.001 A 
ATOM     71  C   UNL A   1      45.135  26.477  36.734  1.00  0.00     0.001 A 
ATOM     72  C   UNL A   1      45.028  25.122  36.436  1.00  0.00     0.000 A 
ENDBRANCH  53  67
BRANCH  54  73
ATOM     73  C   UNL A   1      41.747  23.953  27.045  1.00  0.00    -0.014 A 
ATOM     74  C   UNL A   1      40.722  23.232  27.686  1.00  0.00     0.009 A 
ATOM     75  C   UNL A   1      42.542  23.268  26.111  1.00  0.00     0.009 A 
ATOM     76  C   UNL A   1      40.527  21.869  27.439  1.00  0.00     0.001 A 
ATOM     77  C   UNL A   1      42.346  21.901  25.866  1.00  0.00     0.001 A 
ATOM     78  C   UNL A   1      41.351  21.199  26.541  1.00  0.00     0.000 A 
ENDBRANCH  54  73
BRANCH  66  79
ATOM     79  C   UNL A   1      45.361  28.994  28.325  1.00  0.00    -0.014 A 
ATOM     80  C   UNL A   1      46.640  29.253  27.807  1.00  0.00     0.009 A 
ATOM     81  C   UNL A   1      44.290  29.789  27.878  1.00  0.00     0.009 A 
ATOM     82  C   UNL A   1      46.849  30.291  26.896  1.00  0.00     0.001 A 
ATOM     83  C   UNL A   1      44.496  30.812  26.947  1.00  0.00     0.001 A 
ATOM     84  C   UNL A   1      45.778  31.072  26.468  1.00  0.00     0.000 A 
ENDBRANCH  66  79
ENDBRANCH  40  41
ENDBRANCH  32  35
ENDBRANCH  30  31
ENDBRANCH  29  30
ENDBRANCH   1  29
TORSDOF 16
ENDMDL
MODEL 2
REMARK VINA RESULT:     -11.2      3.154      8.435
REMARK SMILES COc1cc2cc(C(=O)NCCCCNC(=O)c3ccc(-c4c5nc(c(-c6ccccc6)c6ccc([nH]6)c(-c6ccccc6)c6nc(c(-c7ccccc7)c7ccc4[nH]7)C=C6)C=C5)cc3)n(Cc3ccccc3)c2c(OC)c1OC
REMARK SMILES IDX 12 1 11 2 10 3 8 4 9 5 7 7 3 8 4 9 78 10 5 11 75 12 6 13
REMARK SMILES IDX 74 14 66 15 2 16 1 17 79 18 80 19 76 20 77 21 67 22 68 23
REMARK SMILES IDX 69 24 73 25 70 26 72 27 71 28 13 29 14 30 15 31 16 32 17 34
REMARK SMILES IDX 18 35 19 36 65 37 20 38 64 39 21 40 22 41 23 42 58 43 24 44
REMARK SMILES IDX 63 45 57 46 59 47 25 48 62 49 56 50 55 51 26 53 48 54 33 55
REMARK SMILES IDX 47 56 34 57 37 58 46 59 60 60 35 61 36 62 45 64 61 65 38 66
REMARK SMILES IDX 27 67 28 68 32 69 29 70 31 71 30 72 49 73 50 74 54 75 51 76
REMARK SMILES IDX 53 77 52 78 39 79 40 80 44 81 41 82 43 83 42 84
REMARK H PARENT 10 6 15 33 59 52 37 63
REMARK Flexibility Score: inf
ROOT
ATOM      1  C   UNL A   1      40.185  22.803  27.251  1.00  0.00     0.023 C 
ENDROOT
BRANCH   1   2
ATOM      2  C   UNL A   1      38.950  22.889  26.353  1.00  0.00     0.116 C 
BRANCH   2   3
ATOM      3  N   UNL A   1      38.616  21.595  25.800  1.00  0.00    -0.351 N 
ATOM      4  C   UNL A   1      37.563  21.093  25.084  1.00  0.00     0.267 C 
ATOM      5  O   UNL A   1      37.745  19.934  24.692  1.00  0.00    -0.268 OA
ATOM      6  H   UNL A   1      39.307  20.917  25.981  1.00  0.00     0.163 HD
BRANCH   4   7
ATOM      7  C   UNL A   1      36.332  21.801  24.739  1.00  0.00     0.108 A 
ATOM      8  C   UNL A   1      32.992  24.498  22.901  1.00  0.00     0.165 A 
ATOM      9  C   UNL A   1      34.375  24.262  22.772  1.00  0.00     0.061 A 
ATOM     10  C   UNL A   1      32.237  23.895  23.923  1.00  0.00     0.205 A 
ATOM     11  C   UNL A   1      34.993  23.321  23.618  1.00  0.00     0.008 A 
ATOM     12  C   UNL A   1      32.877  23.022  24.836  1.00  0.00     0.189 A 
ATOM     13  C   UNL A   1      36.310  22.822  23.779  1.00  0.00     0.042 A 
ATOM     14  C   UNL A   1      34.222  22.669  24.565  1.00  0.00     0.096 A 
ATOM     15  N   UNL A   1      34.989  21.578  25.012  1.00  0.00    -0.329 N 
BRANCH   8  16
ATOM     16  O   UNL A   1      32.387  25.209  21.894  1.00  0.00    -0.493 OA
ATOM     17  C   UNL A   1      32.812  26.570  21.856  1.00  0.00     0.278 C 
ENDBRANCH   8  16
BRANCH  10  18
ATOM     18  O   UNL A   1      30.875  23.979  24.051  1.00  0.00    -0.490 OA
ATOM     19  C   UNL A   1      30.276  25.111  24.651  1.00  0.00     0.278 C 
ENDBRANCH  10  18
BRANCH  12  20
ATOM     20  O   UNL A   1      32.346  22.458  25.964  1.00  0.00    -0.491 OA
ATOM     21  C   UNL A   1      32.424  23.124  27.212  1.00  0.00     0.278 C 
ENDBRANCH  12  20
BRANCH  15  22
ATOM     22  C   UNL A   1      34.302  20.398  25.542  1.00  0.00     0.158 C 
BRANCH  22  23
ATOM     23  C   UNL A   1      33.792  19.313  24.626  1.00  0.00    -0.028 A 
ATOM     24  C   UNL A   1      32.677  19.386  23.788  1.00  0.00     0.005 A 
ATOM     25  C   UNL A   1      34.587  18.144  24.576  1.00  0.00     0.005 A 
ATOM     26  C   UNL A   1      32.446  18.387  22.835  1.00  0.00     0.000 A 
ATOM     27  C   UNL A   1      34.340  17.138  23.646  1.00  0.00     0.000 A 
ATOM     28  C   UNL A   1      33.285  17.277  22.752  1.00  0.00     0.000 A 
ENDBRANCH  22  23
ENDBRANCH  15  22
ENDBRANCH   4   7
ENDBRANCH   2   3
ENDBRANCH   1   2
BRANCH   1  29
ATOM     29  C   UNL A   1      41.347  21.931  26.773  1.00  0.00     0.023 C 
BRANCH  29  30
ATOM     30  C   UNL A   1      42.245  22.578  25.724  1.00  0.00     0.116 C 
BRANCH  30  31
ATOM     31  N   UNL A   1      43.625  22.691  26.151  1.00  0.00    -0.352 N 
ATOM     32  C   UNL A   1      44.346  23.599  26.868  1.00  0.00     0.251 C 
ATOM     33  H   UNL A   1      44.173  21.930  25.853  1.00  0.00     0.163 HD
ATOM     34  O   UNL A   1      45.525  23.295  27.087  1.00  0.00    -0.269 OA
BRANCH  32  35
ATOM     35  C   UNL A   1      43.854  24.913  27.361  1.00  0.00     0.039 A 
ATOM     36  C   UNL A   1      44.070  25.445  28.633  1.00  0.00     0.014 A 
ATOM     37  C   UNL A   1      43.035  25.630  26.465  1.00  0.00     0.014 A 
ATOM     38  C   UNL A   1      43.415  26.609  29.030  1.00  0.00     0.010 A 
ATOM     39  C   UNL A   1      42.394  26.799  26.849  1.00  0.00     0.010 A 
ATOM     40  C   UNL A   1      42.546  27.261  28.151  1.00  0.00    -0.014 A 
BRANCH  40  41
ATOM     41  C   UNL A   1      41.899  28.490  28.604  1.00  0.00     0.031 A 
ATOM     42  C   UNL A   1      42.672  29.742  28.345  1.00  0.00     0.074 A 
ATOM     43  C   UNL A   1      40.642  28.523  29.093  1.00  0.00     0.049 A 
ATOM     44  N   UNL A   1      43.044  30.649  29.189  1.00  0.00    -0.248 NA
ATOM     45  C   UNL A   1      43.169  29.958  26.976  1.00  0.00     0.031 C 
ATOM     46  C   UNL A   1      39.661  27.435  29.135  1.00  0.00     0.029 A 
ATOM     47  N   UNL A   1      39.931  29.592  29.553  1.00  0.00    -0.354 N 
ATOM     48  C   UNL A   1      43.702  31.626  28.443  1.00  0.00     0.074 A 
ATOM     49  C   UNL A   1      43.851  31.094  27.113  1.00  0.00     0.031 C 
ATOM     50  C   UNL A   1      38.430  27.951  29.355  1.00  0.00     0.029 A 
ATOM     51  C   UNL A   1      38.562  29.374  29.617  1.00  0.00     0.049 A 
ATOM     52  H   UNL A   1      40.352  30.442  29.815  1.00  0.00     0.167 HD
ATOM     53  C   UNL A   1      43.926  32.883  28.915  1.00  0.00     0.031 A 
ATOM     54  C   UNL A   1      37.599  30.313  29.796  1.00  0.00     0.031 A 
ATOM     55  C   UNL A   1      43.831  32.947  30.346  1.00  0.00     0.049 A 
ATOM     56  C   UNL A   1      38.245  31.508  30.383  1.00  0.00     0.074 A 
ATOM     57  C   UNL A   1      44.545  32.397  31.391  1.00  0.00     0.029 A 
ATOM     58  N   UNL A   1      42.651  33.392  30.887  1.00  0.00    -0.354 N 
ATOM     59  N   UNL A   1      38.764  31.540  31.576  1.00  0.00    -0.248 NA
ATOM     60  C   UNL A   1      38.684  32.558  29.479  1.00  0.00     0.031 C 
ATOM     61  C   UNL A   1      43.570  32.105  32.386  1.00  0.00     0.029 A 
ATOM     62  C   UNL A   1      42.331  32.547  31.918  1.00  0.00     0.049 A 
ATOM     63  H   UNL A   1      42.131  34.174  30.591  1.00  0.00     0.167 HD
ATOM     64  C   UNL A   1      39.896  32.329  31.446  1.00  0.00     0.074 A 
ATOM     65  C   UNL A   1      39.737  33.011  30.164  1.00  0.00     0.031 C 
ATOM     66  C   UNL A   1      40.982  32.145  32.253  1.00  0.00     0.031 A 
BRANCH  53  67
ATOM     67  C   UNL A   1      43.893  34.117  28.049  1.00  0.00    -0.014 A 
ATOM     68  C   UNL A   1      42.708  34.626  27.484  1.00  0.00     0.009 A 
ATOM     69  C   UNL A   1      45.021  34.957  28.004  1.00  0.00     0.009 A 
ATOM     70  C   UNL A   1      42.640  35.902  26.918  1.00  0.00     0.001 A 
ATOM     71  C   UNL A   1      44.948  36.252  27.475  1.00  0.00     0.001 A 
ATOM     72  C   UNL A   1      43.755  36.725  26.937  1.00  0.00     0.000 A 
ENDBRANCH  53  67
BRANCH  54  73
ATOM     73  C   UNL A   1      36.279  30.390  29.131  1.00  0.00    -0.014 A 
ATOM     74  C   UNL A   1      35.938  29.459  28.131  1.00  0.00     0.009 A 
ATOM     75  C   UNL A   1      35.481  31.540  29.251  1.00  0.00     0.009 A 
ATOM     76  C   UNL A   1      34.871  29.689  27.256  1.00  0.00     0.001 A 
ATOM     77  C   UNL A   1      34.413  31.770  28.371  1.00  0.00     0.001 A 
ATOM     78  C   UNL A   1      34.120  30.854  27.365  1.00  0.00     0.000 A 
ENDBRANCH  54  73
BRANCH  66  79
ATOM     79  C   UNL A   1      40.852  31.210  33.435  1.00  0.00    -0.014 A 
ATOM     80  C   UNL A   1      40.630  31.772  34.702  1.00  0.00     0.009 A 
ATOM     81  C   UNL A   1      41.154  29.839  33.360  1.00  0.00     0.009 A 
ATOM     82  C   UNL A   1      40.737  30.997  35.859  1.00  0.00     0.001 A 
ATOM     83  C   UNL A   1      41.237  29.058  34.518  1.00  0.00     0.001 A 
ATOM     84  C   UNL A   1      41.043  29.641  35.768  1.00  0.00     0.000 A 
ENDBRANCH  66  79
ENDBRANCH  40  41
ENDBRANCH  32  35
ENDBRANCH  30  31
ENDBRANCH  29  30
ENDBRANCH   1  29
TORSDOF 16
ENDMDL
MODEL 3
REMARK VINA RESULT:     -11.0      2.835      7.900
REMARK SMILES COc1cc2cc(C(=O)NCCCCNC(=O)c3ccc(-c4c5nc(c(-c6ccccc6)c6ccc([nH]6)c(-c6ccccc6)c6nc(c(-c7ccccc7)c7ccc4[nH]7)C=C6)C=C5)cc3)n(Cc3ccccc3)c2c(OC)c1OC
REMARK SMILES IDX 12 1 11 2 10 3 8 4 9 5 7 7 3 8 4 9 78 10 5 11 75 12 6 13
REMARK SMILES IDX 74 14 66 15 2 16 1 17 79 18 80 19 76 20 77 21 67 22 68 23
REMARK SMILES IDX 69 24 73 25 70 26 72 27 71 28 13 29 14 30 15 31 16 32 17 34
REMARK SMILES IDX 18 35 19 36 65 37 20 38 64 39 21 40 22 41 23 42 58 43 24 44
REMARK SMILES IDX 63 45 57 46 59 47 25 48 62 49 56 50 55 51 26 53 48 54 33 55
REMARK SMILES IDX 47 56 34 57 37 58 46 59 60 60 35 61 36 62 45 64 61 65 38 66
REMARK SMILES IDX 27 67 28 68 32 69 29 70 31 71 30 72 49 73 50 74 54 75 51 76
REMARK SMILES IDX 53 77 52 78 39 79 40 80 44 81 41 82 43 83 42 84
REMARK H PARENT 10 6 15 33 59 52 37 63
REMARK Flexibility Score: inf
ROOT
ATOM      1  C   UNL A   1      37.164  21.695  24.702  1.00  0.00     0.023 C 
ENDROOT
BRANCH   1   2
ATOM      2  C   UNL A   1      35.863  21.081  25.221  1.00  0.00     0.116 C 
BRANCH   2   3
ATOM      3  N   UNL A   1      35.527  21.597  26.530  1.00  0.00    -0.351 N 
ATOM      4  C   UNL A   1      34.735  22.612  26.994  1.00  0.00     0.267 C 
ATOM      5  O   UNL A   1      34.628  22.625  28.227  1.00  0.00    -0.268 OA
ATOM      6  H   UNL A   1      35.973  21.103  27.256  1.00  0.00     0.163 HD
BRANCH   4   7
ATOM      7  C   UNL A   1      34.020  23.595  26.183  1.00  0.00     0.108 A 
ATOM      8  C   UNL A   1      32.686  27.135  23.445  1.00  0.00     0.165 A 
ATOM      9  C   UNL A   1      33.845  26.642  24.075  1.00  0.00     0.061 A 
ATOM     10  C   UNL A   1      31.422  26.569  23.688  1.00  0.00     0.205 A 
ATOM     11  C   UNL A   1      33.752  25.491  24.881  1.00  0.00     0.008 A 
ATOM     12  C   UNL A   1      31.311  25.471  24.576  1.00  0.00     0.189 A 
ATOM     13  C   UNL A   1      34.664  24.718  25.643  1.00  0.00     0.042 A 
ATOM     14  C   UNL A   1      32.516  24.890  25.045  1.00  0.00     0.096 A 
ATOM     15  N   UNL A   1      32.767  23.616  25.586  1.00  0.00    -0.329 N 
BRANCH   8  16
ATOM     16  O   UNL A   1      32.867  28.082  22.466  1.00  0.00    -0.493 OA
ATOM     17  C   UNL A   1      34.238  28.441  22.302  1.00  0.00     0.278 C 
ENDBRANCH   8  16
BRANCH  10  18
ATOM     18  O   UNL A   1      30.266  26.911  23.035  1.00  0.00    -0.490 OA
ATOM     19  C   UNL A   1      29.660  28.170  23.255  1.00  0.00     0.278 C 
ENDBRANCH  10  18
BRANCH  12  20
ATOM     20  O   UNL A   1      30.166  24.883  25.038  1.00  0.00    -0.491 OA
ATOM     21  C   UNL A   1      29.391  25.503  26.048  1.00  0.00     0.278 C 
ENDBRANCH  12  20
BRANCH  15  22
ATOM     22  C   UNL A   1      31.801  22.541  25.346  1.00  0.00     0.158 C 
BRANCH  22  23
ATOM     23  C   UNL A   1      32.111  21.407  24.402  1.00  0.00    -0.028 A 
ATOM     24  C   UNL A   1      32.454  20.099  24.755  1.00  0.00     0.005 A 
ATOM     25  C   UNL A   1      31.956  21.707  23.029  1.00  0.00     0.005 A 
ATOM     26  C   UNL A   1      32.503  19.097  23.779  1.00  0.00     0.000 A 
ATOM     27  C   UNL A   1      32.032  20.714  22.056  1.00  0.00     0.000 A 
ATOM     28  C   UNL A   1      32.274  19.400  22.437  1.00  0.00     0.000 A 
ENDBRANCH  22  23
ENDBRANCH  15  22
ENDBRANCH   4   7
ENDBRANCH   2   3
ENDBRANCH   1   2
BRANCH   1  29
ATOM     29  C   UNL A   1      38.473  21.207  25.324  1.00  0.00     0.023 C 
BRANCH  29  30
ATOM     30  C   UNL A   1      39.159  22.210  26.245  1.00  0.00     0.116 C 
BRANCH  30  31
ATOM     31  N   UNL A   1      40.583  22.324  25.998  1.00  0.00    -0.352 N 
ATOM     32  C   UNL A   1      41.536  23.268  26.242  1.00  0.00     0.251 C 
ATOM     33  H   UNL A   1      40.949  21.530  25.547  1.00  0.00     0.163 HD
ATOM     34  O   UNL A   1      42.692  22.955  25.932  1.00  0.00    -0.269 OA
BRANCH  32  35
ATOM     35  C   UNL A   1      41.299  24.627  26.798  1.00  0.00     0.039 A 
ATOM     36  C   UNL A   1      40.744  25.708  26.112  1.00  0.00     0.014 A 
ATOM     37  C   UNL A   1      41.757  24.832  28.114  1.00  0.00     0.014 A 
ATOM     38  C   UNL A   1      40.730  26.976  26.690  1.00  0.00     0.010 A 
ATOM     39  C   UNL A   1      41.730  26.090  28.702  1.00  0.00     0.010 A 
ATOM     40  C   UNL A   1      41.261  27.172  27.967  1.00  0.00    -0.014 A 
BRANCH  40  41
ATOM     41  C   UNL A   1      41.203  28.515  28.541  1.00  0.00     0.031 A 
ATOM     42  C   UNL A   1      42.372  29.388  28.222  1.00  0.00     0.074 A 
ATOM     43  C   UNL A   1      40.122  28.990  29.193  1.00  0.00     0.049 A 
ATOM     44  N   UNL A   1      43.162  30.009  29.038  1.00  0.00    -0.248 NA
ATOM     45  C   UNL A   1      42.761  29.506  26.807  1.00  0.00     0.031 C 
ATOM     46  C   UNL A   1      38.804  28.365  29.331  1.00  0.00     0.029 A 
ATOM     47  N   UNL A   1      39.944  30.209  29.778  1.00  0.00    -0.354 N 
ATOM     48  C   UNL A   1      44.064  30.713  28.243  1.00  0.00     0.074 A 
ATOM     49  C   UNL A   1      43.845  30.275  26.888  1.00  0.00     0.031 C 
ATOM     50  C   UNL A   1      37.907  29.296  29.729  1.00  0.00     0.029 A 
ATOM     51  C   UNL A   1      38.615  30.532  30.016  1.00  0.00     0.049 A 
ATOM     52  H   UNL A   1      40.691  30.806  30.010  1.00  0.00     0.167 HD
ATOM     53  C   UNL A   1      44.814  31.744  28.721  1.00  0.00     0.031 A 
ATOM     54  C   UNL A   1      38.125  31.752  30.352  1.00  0.00     0.031 A 
ATOM     55  C   UNL A   1      44.910  31.722  30.153  1.00  0.00     0.049 A 
ATOM     56  C   UNL A   1      39.249  32.553  30.886  1.00  0.00     0.074 A 
ATOM     57  C   UNL A   1      45.461  30.856  31.075  1.00  0.00     0.029 A 
ATOM     58  N   UNL A   1      44.067  32.543  30.861  1.00  0.00    -0.354 N 
ATOM     59  N   UNL A   1      39.866  32.284  32.000  1.00  0.00    -0.248 NA
ATOM     60  C   UNL A   1      39.963  33.422  29.966  1.00  0.00     0.031 C 
ATOM     61  C   UNL A   1      44.565  30.883  32.182  1.00  0.00     0.029 A 
ATOM     62  C   UNL A   1      43.556  31.806  31.897  1.00  0.00     0.049 A 
ATOM     63  H   UNL A   1      43.867  33.486  30.661  1.00  0.00     0.167 HD
ATOM     64  C   UNL A   1      41.196  32.583  31.746  1.00  0.00     0.074 A 
ATOM     65  C   UNL A   1      41.178  33.376  30.519  1.00  0.00     0.031 C 
ATOM     66  C   UNL A   1      42.203  31.929  32.395  1.00  0.00     0.031 A 
BRANCH  53  67
ATOM     67  C   UNL A   1      45.174  32.961  27.907  1.00  0.00    -0.014 A 
ATOM     68  C   UNL A   1      46.440  33.143  27.318  1.00  0.00     0.009 A 
ATOM     69  C   UNL A   1      44.153  33.832  27.484  1.00  0.00     0.009 A 
ATOM     70  C   UNL A   1      46.678  34.125  26.352  1.00  0.00     0.001 A 
ATOM     71  C   UNL A   1      44.377  34.791  26.487  1.00  0.00     0.001 A 
ATOM     72  C   UNL A   1      45.639  34.933  25.918  1.00  0.00     0.000 A 
ENDBRANCH  53  67
BRANCH  54  73
ATOM     73  C   UNL A   1      36.877  32.386  29.871  1.00  0.00    -0.014 A 
ATOM     74  C   UNL A   1      35.781  32.534  30.741  1.00  0.00     0.009 A 
ATOM     75  C   UNL A   1      36.649  32.569  28.497  1.00  0.00     0.009 A 
ATOM     76  C   UNL A   1      34.497  32.807  30.256  1.00  0.00     0.001 A 
ATOM     77  C   UNL A   1      35.361  32.840  28.011  1.00  0.00     0.001 A 
ATOM     78  C   UNL A   1      34.285  32.943  28.889  1.00  0.00     0.000 A 
ENDBRANCH  54  73
BRANCH  66  79
ATOM     79  C   UNL A   1      41.846  31.024  33.553  1.00  0.00    -0.014 A 
ATOM     80  C   UNL A   1      42.216  31.427  34.846  1.00  0.00     0.009 A 
ATOM     81  C   UNL A   1      41.363  29.715  33.378  1.00  0.00     0.009 A 
ATOM     82  C   UNL A   1      42.134  30.542  35.924  1.00  0.00     0.001 A 
ATOM     83  C   UNL A   1      41.258  28.837  34.462  1.00  0.00     0.001 A 
ATOM     84  C   UNL A   1      41.658  29.247  35.732  1.00  0.00     0.000 A 
ENDBRANCH  66  79
ENDBRANCH  40  41
ENDBRANCH  32  35
ENDBRANCH  30  31
ENDBRANCH  29  30
ENDBRANCH   1  29
TORSDOF 16
ENDMDL
