MODEL 1
REMARK VINA RESULT:     -11.2      0.000      0.000
REMARK SMILES O=C(C[C@H](c1ccccc1)[NH+]1CC2(CCOCC2)C1)NCCCCNC(=O)c1ccc(-c2c3nc(c(-c4ccccc4)c4ccc([nH]4)c(-c4ccccc4)c4nc(c(-c5ccccc5)c5ccc2[nH]5)C=C4)C=C3)cc1
REMARK SMILES IDX 22 1 21 2 20 3 1 4 2 5 3 7 4 8 11 9 12 10 19 11 13 13 14 14
REMARK SMILES IDX 18 15 15 16 17 17 16 18 5 19 6 20 10 21 7 22 9 23 8 24 23 25
REMARK SMILES IDX 24 26 25 27 26 28 27 30 28 31 29 32 75 33 30 34 74 35 31 36
REMARK SMILES IDX 32 37 33 38 68 39 34 40 73 41 67 42 69 43 35 44 72 45 66 46
REMARK SMILES IDX 65 47 36 49 58 50 43 51 57 52 44 53 47 54 56 55 70 56 45 57
REMARK SMILES IDX 46 58 55 60 71 61 48 62 37 63 38 64 42 65 39 66 41 67 40 68
REMARK SMILES IDX 59 69 60 70 64 71 61 72 63 73 62 74 49 75 50 76 54 77 51 78
REMARK SMILES IDX 53 79 52 80
REMARK H PARENT 20 6 11 12 25 29 69 48 47 59
REMARK Flexibility Score: inf
ROOT
ATOM      1  C   UNL A   1      34.728  30.859  27.501  1.00  0.00     0.023 C 
ENDROOT
BRANCH   1   2
ATOM      2  C   UNL A   1      34.234  29.499  26.990  1.00  0.00     0.116 C 
BRANCH   2   3
ATOM      3  N   UNL A   1      33.770  29.597  25.622  1.00  0.00    -0.356 N 
ATOM      4  O   UNL A   1      31.549  29.974  26.084  1.00  0.00    -0.275 OA
ATOM      5  C   UNL A   1      32.427  29.636  25.299  1.00  0.00     0.226 C 
ATOM      6  H   UNL A   1      34.435  29.635  24.896  1.00  0.00     0.163 HD
BRANCH   5   7
ATOM      7  C   UNL A   1      32.131  28.972  23.971  1.00  0.00     0.170 C 
BRANCH   7   8
ATOM      8  C   UNL A   1      30.717  28.392  23.783  1.00  0.00     0.224 C 
BRANCH   8   9
ATOM      9  N   UNL A   1      29.924  28.704  22.555  1.00  0.00    -0.327 N 
ATOM     10  C   UNL A   1      30.099  29.981  21.842  1.00  0.00     0.275 C 
ATOM     11  C   UNL A   1      28.502  29.012  22.778  1.00  0.00     0.275 C 
ATOM     12  H   UNL A   1      30.235  27.858  22.077  1.00  0.00     0.348 HD
ATOM     13  C   UNL A   1      28.760  30.513  22.413  1.00  0.00     0.073 C 
ATOM     14  C   UNL A   1      27.728  31.036  21.404  1.00  0.00     0.047 C 
ATOM     15  C   UNL A   1      28.921  31.524  23.564  1.00  0.00     0.047 C 
ATOM     16  C   UNL A   1      28.064  32.468  21.013  1.00  0.00     0.161 C 
ATOM     17  C   UNL A   1      29.092  32.947  23.062  1.00  0.00     0.161 C 
ATOM     18  O   UNL A   1      28.043  33.300  22.172  1.00  0.00    -0.381 OA
ENDBRANCH   8   9
BRANCH   8  19
ATOM     19  C   UNL A   1      30.715  26.891  24.129  1.00  0.00     0.010 A 
ATOM     20  C   UNL A   1      30.512  26.424  25.440  1.00  0.00     0.010 A 
ATOM     21  C   UNL A   1      30.877  25.926  23.120  1.00  0.00     0.010 A 
ATOM     22  C   UNL A   1      30.575  25.065  25.754  1.00  0.00     0.001 A 
ATOM     23  C   UNL A   1      30.889  24.560  23.427  1.00  0.00     0.001 A 
ATOM     24  C   UNL A   1      30.765  24.131  24.745  1.00  0.00     0.000 A 
ENDBRANCH   8  19
ENDBRANCH   7   8
ENDBRANCH   5   7
ENDBRANCH   2   3
ENDBRANCH   1   2
BRANCH   1  25
ATOM     25  C   UNL A   1      33.653  31.754  28.127  1.00  0.00     0.023 C 
BRANCH  25  26
ATOM     26  C   UNL A   1      33.666  33.204  27.664  1.00  0.00     0.116 C 
BRANCH  26  27
ATOM     27  N   UNL A   1      33.226  34.131  28.693  1.00  0.00    -0.352 N 
ATOM     28  C   UNL A   1      33.776  34.386  29.929  1.00  0.00     0.251 C 
ATOM     29  H   UNL A   1      32.419  34.649  28.475  1.00  0.00     0.163 HD
ATOM     30  O   UNL A   1      33.193  35.111  30.720  1.00  0.00    -0.269 OA
BRANCH  28  31
ATOM     31  C   UNL A   1      35.057  33.748  30.314  1.00  0.00     0.039 A 
ATOM     32  C   UNL A   1      35.042  32.769  31.312  1.00  0.00     0.014 A 
ATOM     33  C   UNL A   1      36.260  34.101  29.699  1.00  0.00     0.014 A 
ATOM     34  C   UNL A   1      36.221  32.097  31.641  1.00  0.00     0.010 A 
ATOM     35  C   UNL A   1      37.418  33.376  29.971  1.00  0.00     0.010 A 
ATOM     36  C   UNL A   1      37.411  32.365  30.945  1.00  0.00    -0.014 A 
BRANCH  36  37
ATOM     37  C   UNL A   1      38.650  31.591  31.213  1.00  0.00     0.031 A 
ATOM     38  C   UNL A   1      39.635  32.064  32.247  1.00  0.00     0.074 A 
ATOM     39  C   UNL A   1      38.921  30.491  30.483  1.00  0.00     0.049 A 
ATOM     40  N   UNL A   1      40.793  31.549  32.581  1.00  0.00    -0.248 NA
ATOM     41  C   UNL A   1      39.285  33.287  32.988  1.00  0.00     0.031 C 
ATOM     42  C   UNL A   1      38.070  29.943  29.425  1.00  0.00     0.029 A 
ATOM     43  N   UNL A   1      39.997  29.638  30.516  1.00  0.00    -0.354 N 
ATOM     44  C   UNL A   1      41.313  32.392  33.556  1.00  0.00     0.074 A 
ATOM     45  C   UNL A   1      40.372  33.477  33.723  1.00  0.00     0.031 C 
ATOM     46  C   UNL A   1      38.640  28.832  28.932  1.00  0.00     0.029 A 
ATOM     47  C   UNL A   1      39.917  28.614  29.604  1.00  0.00     0.049 A 
ATOM     48  H   UNL A   1      40.755  29.750  31.136  1.00  0.00     0.167 HD
ATOM     49  C   UNL A   1      42.462  32.265  34.263  1.00  0.00     0.031 A 
ATOM     50  C   UNL A   1      40.777  27.614  29.330  1.00  0.00     0.031 A 
ATOM     51  C   UNL A   1      43.399  31.185  34.101  1.00  0.00     0.049 A 
ATOM     52  C   UNL A   1      42.059  27.513  30.108  1.00  0.00     0.074 A 
ATOM     53  C   UNL A   1      44.564  30.943  34.808  1.00  0.00     0.029 A 
ATOM     54  N   UNL A   1      43.282  30.171  33.163  1.00  0.00    -0.354 N 
ATOM     55  N   UNL A   1      42.504  28.280  31.074  1.00  0.00    -0.248 NA
ATOM     56  C   UNL A   1      42.955  26.400  29.763  1.00  0.00     0.031 C 
ATOM     57  C   UNL A   1      45.183  29.817  34.257  1.00  0.00     0.029 A 
ATOM     58  C   UNL A   1      44.370  29.318  33.252  1.00  0.00     0.049 A 
ATOM     59  H   UNL A   1      42.536  30.073  32.527  1.00  0.00     0.167 HD
ATOM     60  C   UNL A   1      43.712  27.725  31.473  1.00  0.00     0.074 A 
ATOM     61  C   UNL A   1      43.924  26.548  30.656  1.00  0.00     0.031 C 
ATOM     62  C   UNL A   1      44.570  28.151  32.432  1.00  0.00     0.031 A 
BRANCH  49  63
ATOM     63  C   UNL A   1      42.775  33.335  35.274  1.00  0.00    -0.014 A 
ATOM     64  C   UNL A   1      42.336  33.233  36.604  1.00  0.00     0.009 A 
ATOM     65  C   UNL A   1      43.551  34.444  34.901  1.00  0.00     0.009 A 
ATOM     66  C   UNL A   1      42.635  34.237  37.528  1.00  0.00     0.001 A 
ATOM     67  C   UNL A   1      43.877  35.429  35.834  1.00  0.00     0.001 A 
ATOM     68  C   UNL A   1      43.410  35.331  37.144  1.00  0.00     0.000 A 
ENDBRANCH  49  63
BRANCH  50  69
ATOM     69  C   UNL A   1      40.453  26.619  28.273  1.00  0.00    -0.014 A 
ATOM     70  C   UNL A   1      40.941  26.783  26.967  1.00  0.00     0.009 A 
ATOM     71  C   UNL A   1      39.645  25.508  28.559  1.00  0.00     0.009 A 
ATOM     72  C   UNL A   1      40.602  25.871  25.964  1.00  0.00     0.001 A 
ATOM     73  C   UNL A   1      39.333  24.581  27.563  1.00  0.00     0.001 A 
ATOM     74  C   UNL A   1      39.803  24.769  26.264  1.00  0.00     0.000 A 
ENDBRANCH  50  69
BRANCH  62  75
ATOM     75  C   UNL A   1      45.798  27.319  32.680  1.00  0.00    -0.014 A 
ATOM     76  C   UNL A   1      47.011  27.588  32.024  1.00  0.00     0.009 A 
ATOM     77  C   UNL A   1      45.749  26.273  33.615  1.00  0.00     0.009 A 
ATOM     78  C   UNL A   1      48.137  26.803  32.276  1.00  0.00     0.001 A 
ATOM     79  C   UNL A   1      46.886  25.511  33.888  1.00  0.00     0.001 A 
ATOM     80  C   UNL A   1      48.076  25.770  33.211  1.00  0.00     0.000 A 
ENDBRANCH  62  75
ENDBRANCH  36  37
ENDBRANCH  28  31
ENDBRANCH  26  27
ENDBRANCH  25  26
ENDBRANCH   1  25
TORSDOF 14
ENDMDL
MODEL 2
REMARK VINA RESULT:     -11.2      3.083      7.707
REMARK SMILES O=C(C[C@H](c1ccccc1)[NH+]1CC2(CCOCC2)C1)NCCCCNC(=O)c1ccc(-c2c3nc(c(-c4ccccc4)c4ccc([nH]4)c(-c4ccccc4)c4nc(c(-c5ccccc5)c5ccc2[nH]5)C=C4)C=C3)cc1
REMARK SMILES IDX 22 1 21 2 20 3 1 4 2 5 3 7 4 8 11 9 12 10 19 11 13 13 14 14
REMARK SMILES IDX 18 15 15 16 17 17 16 18 5 19 6 20 10 21 7 22 9 23 8 24 23 25
REMARK SMILES IDX 24 26 25 27 26 28 27 30 28 31 29 32 75 33 30 34 74 35 31 36
REMARK SMILES IDX 32 37 33 38 68 39 34 40 73 41 67 42 69 43 35 44 72 45 66 46
REMARK SMILES IDX 65 47 36 49 58 50 43 51 57 52 44 53 47 54 56 55 70 56 45 57
REMARK SMILES IDX 46 58 55 60 71 61 48 62 37 63 38 64 42 65 39 66 41 67 40 68
REMARK SMILES IDX 59 69 60 70 64 71 61 72 63 73 62 74 49 75 50 76 54 77 51 78
REMARK SMILES IDX 53 79 52 80
REMARK H PARENT 20 6 11 12 25 29 69 48 47 59
REMARK Flexibility Score: inf
ROOT
ATOM      1  C   UNL A   1      34.989  23.124  26.296  1.00  0.00     0.023 C 
ENDROOT
BRANCH   1   2
ATOM      2  C   UNL A   1      33.483  23.263  26.041  1.00  0.00     0.116 C 
BRANCH   2   3
ATOM      3  N   UNL A   1      33.043  24.625  26.263  1.00  0.00    -0.356 N 
ATOM      4  O   UNL A   1      31.024  24.130  27.249  1.00  0.00    -0.275 OA
ATOM      5  C   UNL A   1      31.759  24.927  26.678  1.00  0.00     0.226 C 
ATOM      6  H   UNL A   1      33.679  25.361  26.113  1.00  0.00     0.163 HD
BRANCH   5   7
ATOM      7  C   UNL A   1      31.267  26.247  26.122  1.00  0.00     0.170 C 
BRANCH   7   8
ATOM      8  C   UNL A   1      32.255  27.049  25.255  1.00  0.00     0.224 C 
BRANCH   8   9
ATOM      9  N   UNL A   1      31.974  27.286  23.806  1.00  0.00    -0.327 N 
ATOM     10  C   UNL A   1      31.458  26.209  22.946  1.00  0.00     0.275 C 
ATOM     11  C   UNL A   1      33.160  27.420  22.944  1.00  0.00     0.275 C 
ATOM     12  H   UNL A   1      31.347  28.066  24.003  1.00  0.00     0.348 HD
ATOM     13  C   UNL A   1      32.849  26.033  22.286  1.00  0.00     0.073 C 
ATOM     14  C   UNL A   1      32.910  26.107  20.754  1.00  0.00     0.047 C 
ATOM     15  C   UNL A   1      33.631  24.802  22.779  1.00  0.00     0.047 C 
ATOM     16  C   UNL A   1      32.519  24.765  20.153  1.00  0.00     0.161 C 
ATOM     17  C   UNL A   1      33.278  23.545  22.003  1.00  0.00     0.161 C 
ATOM     18  O   UNL A   1      33.421  23.755  20.605  1.00  0.00    -0.381 OA
ENDBRANCH   8   9
BRANCH   8  19
ATOM     19  C   UNL A   1      32.684  28.328  25.998  1.00  0.00     0.010 A 
ATOM     20  C   UNL A   1      33.985  28.500  26.505  1.00  0.00     0.010 A 
ATOM     21  C   UNL A   1      31.786  29.398  26.154  1.00  0.00     0.010 A 
ATOM     22  C   UNL A   1      34.346  29.636  27.231  1.00  0.00     0.001 A 
ATOM     23  C   UNL A   1      32.164  30.560  26.838  1.00  0.00     0.001 A 
ATOM     24  C   UNL A   1      33.433  30.668  27.399  1.00  0.00     0.000 A 
ENDBRANCH   8  19
ENDBRANCH   7   8
ENDBRANCH   5   7
ENDBRANCH   2   3
ENDBRANCH   1   2
BRANCH   1  25
ATOM     25  C   UNL A   1      35.845  22.876  25.050  1.00  0.00     0.023 C 
BRANCH  25  26
ATOM     26  C   UNL A   1      37.201  23.570  25.045  1.00  0.00     0.116 C 
BRANCH  26  27
ATOM     27  N   UNL A   1      38.294  22.678  25.392  1.00  0.00    -0.352 N 
ATOM     28  C   UNL A   1      39.431  22.937  26.124  1.00  0.00     0.251 C 
ATOM     29  H   UNL A   1      38.209  21.758  25.055  1.00  0.00     0.163 HD
ATOM     30  O   UNL A   1      40.311  22.093  26.207  1.00  0.00    -0.269 OA
BRANCH  28  31
ATOM     31  C   UNL A   1      39.606  24.255  26.777  1.00  0.00     0.039 A 
ATOM     32  C   UNL A   1      39.066  24.445  28.052  1.00  0.00     0.014 A 
ATOM     33  C   UNL A   1      40.297  25.294  26.148  1.00  0.00     0.014 A 
ATOM     34  C   UNL A   1      39.281  25.652  28.724  1.00  0.00     0.010 A 
ATOM     35  C   UNL A   1      40.578  26.464  26.849  1.00  0.00     0.010 A 
ATOM     36  C   UNL A   1      40.074  26.656  28.145  1.00  0.00    -0.014 A 
BRANCH  36  37
ATOM     37  C   UNL A   1      40.396  27.904  28.884  1.00  0.00     0.031 A 
ATOM     38  C   UNL A   1      41.707  28.044  29.608  1.00  0.00     0.074 A 
ATOM     39  C   UNL A   1      39.482  28.892  28.955  1.00  0.00     0.049 A 
ATOM     40  N   UNL A   1      42.140  29.036  30.347  1.00  0.00    -0.248 NA
ATOM     41  C   UNL A   1      42.646  26.916  29.508  1.00  0.00     0.031 C 
ATOM     42  C   UNL A   1      38.157  28.870  28.330  1.00  0.00     0.029 A 
ATOM     43  N   UNL A   1      39.526  30.107  29.592  1.00  0.00    -0.354 N 
ATOM     44  C   UNL A   1      43.390  28.644  30.810  1.00  0.00     0.074 A 
ATOM     45  C   UNL A   1      43.624  27.306  30.312  1.00  0.00     0.031 C 
ATOM     46  C   UNL A   1      37.529  30.027  28.589  1.00  0.00     0.029 A 
ATOM     47  C   UNL A   1      38.383  30.854  29.435  1.00  0.00     0.049 A 
ATOM     48  H   UNL A   1      40.303  30.415  30.114  1.00  0.00     0.167 HD
ATOM     49  C   UNL A   1      44.273  29.340  31.564  1.00  0.00     0.031 A 
ATOM     50  C   UNL A   1      38.053  32.065  29.924  1.00  0.00     0.031 A 
ATOM     51  C   UNL A   1      44.044  30.673  32.059  1.00  0.00     0.049 A 
ATOM     52  C   UNL A   1      39.039  32.805  30.784  1.00  0.00     0.074 A 
ATOM     53  C   UNL A   1      44.901  31.479  32.787  1.00  0.00     0.029 A 
ATOM     54  N   UNL A   1      42.873  31.391  31.880  1.00  0.00    -0.354 N 
ATOM     55  N   UNL A   1      40.245  32.448  31.156  1.00  0.00    -0.248 NA
ATOM     56  C   UNL A   1      38.621  34.121  31.286  1.00  0.00     0.031 C 
ATOM     57  C   UNL A   1      44.224  32.663  33.102  1.00  0.00     0.029 A 
ATOM     58  C   UNL A   1      42.972  32.620  32.511  1.00  0.00     0.049 A 
ATOM     59  H   UNL A   1      42.086  31.074  31.379  1.00  0.00     0.167 HD
ATOM     60  C   UNL A   1      40.739  33.506  31.905  1.00  0.00     0.074 A 
ATOM     61  C   UNL A   1      39.710  34.525  31.923  1.00  0.00     0.031 C 
ATOM     62  C   UNL A   1      41.940  33.625  32.523  1.00  0.00     0.031 A 
BRANCH  49  63
ATOM     63  C   UNL A   1      45.572  28.664  31.914  1.00  0.00    -0.014 A 
ATOM     64  C   UNL A   1      45.698  27.879  33.071  1.00  0.00     0.009 A 
ATOM     65  C   UNL A   1      46.675  28.784  31.054  1.00  0.00     0.009 A 
ATOM     66  C   UNL A   1      46.912  27.261  33.380  1.00  0.00     0.001 A 
ATOM     67  C   UNL A   1      47.878  28.138  31.347  1.00  0.00     0.001 A 
ATOM     68  C   UNL A   1      47.999  27.387  32.515  1.00  0.00     0.000 A 
ENDBRANCH  49  63
BRANCH  50  69
ATOM     69  C   UNL A   1      36.729  32.662  29.605  1.00  0.00    -0.014 A 
ATOM     70  C   UNL A   1      36.547  33.406  28.429  1.00  0.00     0.009 A 
ATOM     71  C   UNL A   1      35.642  32.502  30.479  1.00  0.00     0.009 A 
ATOM     72  C   UNL A   1      35.315  34.002  28.151  1.00  0.00     0.001 A 
ATOM     73  C   UNL A   1      34.403  33.072  30.183  1.00  0.00     0.001 A 
ATOM     74  C   UNL A   1      34.243  33.830  29.025  1.00  0.00     0.000 A 
ENDBRANCH  50  69
BRANCH  62  75
ATOM     75  C   UNL A   1      42.225  34.918  33.238  1.00  0.00    -0.014 A 
ATOM     76  C   UNL A   1      43.018  35.919  32.654  1.00  0.00     0.009 A 
ATOM     77  C   UNL A   1      41.658  35.150  34.500  1.00  0.00     0.009 A 
ATOM     78  C   UNL A   1      43.264  37.111  33.337  1.00  0.00     0.001 A 
ATOM     79  C   UNL A   1      41.879  36.357  35.167  1.00  0.00     0.001 A 
ATOM     80  C   UNL A   1      42.690  37.332  34.589  1.00  0.00     0.000 A 
ENDBRANCH  62  75
ENDBRANCH  36  37
ENDBRANCH  28  31
ENDBRANCH  26  27
ENDBRANCH  25  26
ENDBRANCH   1  25
TORSDOF 14
ENDMDL
MODEL 3
REMARK VINA RESULT:     -11.1      4.337      8.959
REMARK SMILES O=C(C[C@H](c1ccccc1)[NH+]1CC2(CCOCC2)C1)NCCCCNC(=O)c1ccc(-c2c3nc(c(-c4ccccc4)c4ccc([nH]4)c(-c4ccccc4)c4nc(c(-c5ccccc5)c5ccc2[nH]5)C=C4)C=C3)cc1
REMARK SMILES IDX 22 1 21 2 20 3 1 4 2 5 3 7 4 8 11 9 12 10 19 11 13 13 14 14
REMARK SMILES IDX 18 15 15 16 17 17 16 18 5 19 6 20 10 21 7 22 9 23 8 24 23 25
REMARK SMILES IDX 24 26 25 27 26 28 27 30 28 31 29 32 75 33 30 34 74 35 31 36
REMARK SMILES IDX 32 37 33 38 68 39 34 40 73 41 67 42 69 43 35 44 72 45 66 46
REMARK SMILES IDX 65 47 36 49 58 50 43 51 57 52 44 53 47 54 56 55 70 56 45 57
REMARK SMILES IDX 46 58 55 60 71 61 48 62 37 63 38 64 42 65 39 66 41 67 40 68
REMARK SMILES IDX 59 69 60 70 64 71 61 72 63 73 62 74 49 75 50 76 54 77 51 78
REMARK SMILES IDX 53 79 52 80
REMARK H PARENT 20 6 11 12 25 29 69 48 47 59
REMARK Flexibility Score: inf
ROOT
ATOM      1  C   UNL A   1      36.589  20.718  24.988  1.00  0.00     0.023 C 
ENDROOT
BRANCH   1   2
ATOM      2  C   UNL A   1      36.891  22.125  24.459  1.00  0.00     0.116 C 
BRANCH   2   3
ATOM      3  N   UNL A   1      35.854  22.572  23.552  1.00  0.00    -0.356 N 
ATOM      4  O   UNL A   1      35.143  24.384  24.778  1.00  0.00    -0.275 OA
ATOM      5  C   UNL A   1      34.947  23.556  23.896  1.00  0.00     0.226 C 
ATOM      6  H   UNL A   1      35.793  22.159  22.660  1.00  0.00     0.163 HD
BRANCH   5   7
ATOM      7  C   UNL A   1      33.591  23.342  23.257  1.00  0.00     0.170 C 
BRANCH   7   8
ATOM      8  C   UNL A   1      32.468  22.813  24.169  1.00  0.00     0.224 C 
BRANCH   8   9
ATOM      9  N   UNL A   1      31.084  23.370  24.071  1.00  0.00    -0.327 N 
ATOM     10  C   UNL A   1      30.772  24.468  23.142  1.00  0.00     0.275 C 
ATOM     11  C   UNL A   1      30.651  24.196  25.209  1.00  0.00     0.275 C 
ATOM     12  H   UNL A   1      30.676  22.457  23.867  1.00  0.00     0.348 HD
ATOM     13  C   UNL A   1      30.716  25.480  24.315  1.00  0.00     0.073 C 
ATOM     14  C   UNL A   1      29.443  26.328  24.447  1.00  0.00     0.047 C 
ATOM     15  C   UNL A   1      31.958  26.384  24.428  1.00  0.00     0.047 C 
ATOM     16  C   UNL A   1      29.511  27.517  23.500  1.00  0.00     0.161 C 
ATOM     17  C   UNL A   1      31.850  27.624  23.559  1.00  0.00     0.161 C 
ATOM     18  O   UNL A   1      30.642  28.325  23.823  1.00  0.00    -0.381 OA
ENDBRANCH   8   9
BRANCH   8  19
ATOM     19  C   UNL A   1      32.492  21.273  24.189  1.00  0.00     0.010 A 
ATOM     20  C   UNL A   1      32.812  20.544  25.348  1.00  0.00     0.010 A 
ATOM     21  C   UNL A   1      32.146  20.539  23.041  1.00  0.00     0.010 A 
ATOM     22  C   UNL A   1      32.892  19.150  25.340  1.00  0.00     0.001 A 
ATOM     23  C   UNL A   1      32.176  19.139  23.047  1.00  0.00     0.001 A 
ATOM     24  C   UNL A   1      32.575  18.446  24.187  1.00  0.00     0.000 A 
ENDBRANCH   8  19
ENDBRANCH   7   8
ENDBRANCH   5   7
ENDBRANCH   2   3
ENDBRANCH   1   2
BRANCH   1  25
ATOM     25  C   UNL A   1      37.779  19.752  25.001  1.00  0.00     0.023 C 
BRANCH  25  26
ATOM     26  C   UNL A   1      39.009  20.247  25.750  1.00  0.00     0.116 C 
BRANCH  26  27
ATOM     27  N   UNL A   1      40.075  19.262  25.802  1.00  0.00    -0.352 N 
ATOM     28  C   UNL A   1      41.408  19.435  26.098  1.00  0.00     0.251 C 
ATOM     29  H   UNL A   1      39.805  18.339  25.595  1.00  0.00     0.163 HD
ATOM     30  O   UNL A   1      42.190  18.505  25.968  1.00  0.00    -0.269 OA
BRANCH  28  31
ATOM     31  C   UNL A   1      41.902  20.761  26.537  1.00  0.00     0.039 A 
ATOM     32  C   UNL A   1      42.362  21.657  25.568  1.00  0.00     0.014 A 
ATOM     33  C   UNL A   1      41.908  21.126  27.886  1.00  0.00     0.014 A 
ATOM     34  C   UNL A   1      42.760  22.942  25.945  1.00  0.00     0.010 A 
ATOM     35  C   UNL A   1      42.229  22.432  28.250  1.00  0.00     0.010 A 
ATOM     36  C   UNL A   1      42.659  23.354  27.283  1.00  0.00    -0.014 A 
BRANCH  36  37
ATOM     37  C   UNL A   1      42.984  24.746  27.686  1.00  0.00     0.031 A 
ATOM     38  C   UNL A   1      44.416  25.177  27.850  1.00  0.00     0.074 A 
ATOM     39  C   UNL A   1      41.989  25.611  27.964  1.00  0.00     0.049 A 
ATOM     40  N   UNL A   1      44.891  26.333  28.244  1.00  0.00    -0.248 NA
ATOM     41  C   UNL A   1      45.451  24.173  27.554  1.00  0.00     0.031 C 
ATOM     42  C   UNL A   1      40.557  25.313  27.880  1.00  0.00     0.029 A 
ATOM     43  N   UNL A   1      42.030  26.919  28.380  1.00  0.00    -0.354 N 
ATOM     44  C   UNL A   1      46.273  26.188  28.258  1.00  0.00     0.074 A 
ATOM     45  C   UNL A   1      46.559  24.821  27.884  1.00  0.00     0.031 C 
ATOM     46  C   UNL A   1      39.859  26.413  28.204  1.00  0.00     0.029 A 
ATOM     47  C   UNL A   1      40.788  27.479  28.562  1.00  0.00     0.049 A 
ATOM     48  H   UNL A   1      42.870  27.410  28.533  1.00  0.00     0.167 HD
ATOM     49  C   UNL A   1      47.221  27.115  28.538  1.00  0.00     0.031 A 
ATOM     50  C   UNL A   1      40.434  28.709  28.980  1.00  0.00     0.031 A 
ATOM     51  C   UNL A   1      46.940  28.477  28.909  1.00  0.00     0.049 A 
ATOM     52  C   UNL A   1      41.505  29.710  29.314  1.00  0.00     0.074 A 
ATOM     53  C   UNL A   1      47.835  29.502  29.160  1.00  0.00     0.029 A 
ATOM     54  N   UNL A   1      45.670  29.001  29.086  1.00  0.00    -0.354 N 
ATOM     55  N   UNL A   1      42.809  29.577  29.256  1.00  0.00    -0.248 NA
ATOM     56  C   UNL A   1      41.055  31.035  29.763  1.00  0.00     0.031 C 
ATOM     57  C   UNL A   1      47.106  30.631  29.550  1.00  0.00     0.029 A 
ATOM     58  C   UNL A   1      45.757  30.328  29.474  1.00  0.00     0.049 A 
ATOM     59  H   UNL A   1      44.829  28.503  28.956  1.00  0.00     0.167 HD
ATOM     60  C   UNL A   1      43.331  30.808  29.629  1.00  0.00     0.074 A 
ATOM     61  C   UNL A   1      42.206  31.679  29.896  1.00  0.00     0.031 C 
ATOM     62  C   UNL A   1      44.629  31.185  29.738  1.00  0.00     0.031 A 
BRANCH  49  63
ATOM     63  C   UNL A   1      48.660  26.678  28.466  1.00  0.00    -0.014 A 
ATOM     64  C   UNL A   1      49.315  26.135  29.583  1.00  0.00     0.009 A 
ATOM     65  C   UNL A   1      49.360  26.778  27.253  1.00  0.00     0.009 A 
ATOM     66  C   UNL A   1      50.651  25.738  29.497  1.00  0.00     0.001 A 
ATOM     67  C   UNL A   1      50.685  26.349  27.161  1.00  0.00     0.001 A 
ATOM     68  C   UNL A   1      51.333  25.840  28.285  1.00  0.00     0.000 A 
ENDBRANCH  49  63
BRANCH  50  69
ATOM     69  C   UNL A   1      38.996  29.071  29.101  1.00  0.00    -0.014 A 
ATOM     70  C   UNL A   1      38.315  28.889  30.314  1.00  0.00     0.009 A 
ATOM     71  C   UNL A   1      38.294  29.590  28.002  1.00  0.00     0.009 A 
ATOM     72  C   UNL A   1      36.954  29.190  30.415  1.00  0.00     0.001 A 
ATOM     73  C   UNL A   1      36.942  29.919  28.114  1.00  0.00     0.001 A 
ATOM     74  C   UNL A   1      36.271  29.709  29.317  1.00  0.00     0.000 A 
ENDBRANCH  50  69
BRANCH  62  75
ATOM     75  C   UNL A   1      44.905  32.611  30.127  1.00  0.00    -0.014 A 
ATOM     76  C   UNL A   1      45.115  32.979  31.466  1.00  0.00     0.009 A 
ATOM     77  C   UNL A   1      44.993  33.596  29.130  1.00  0.00     0.009 A 
ATOM     78  C   UNL A   1      45.373  34.310  31.799  1.00  0.00     0.001 A 
ATOM     79  C   UNL A   1      45.283  34.920  29.463  1.00  0.00     0.001 A 
ATOM     80  C   UNL A   1      45.463  35.277  30.798  1.00  0.00     0.000 A 
ENDBRANCH  62  75
ENDBRANCH  36  37
ENDBRANCH  28  31
ENDBRANCH  26  27
ENDBRANCH  25  26
ENDBRANCH   1  25
TORSDOF 14
ENDMDL
