MODEL 1
REMARK VINA RESULT:     -11.7      0.000      0.000
REMARK SMILES O=C(C[N@@H+]1CC[N@H+](Cc2cc(F)ccc2Cl)[C@H]2CS(=O)(=O)C[C@H]21)NCCCCNC(=O)c1ccc(-c2c3nc(c(-c4ccccc4)c4ccc([nH]4)c(-c4ccccc4)c4nc(c(-c5ccccc5)c5ccc2[nH]5)C=C4)C=C3)cc1
REMARK SMILES IDX 26 1 25 2 24 3 1 4 2 5 3 7 4 8 5 9 23 10 6 12 17 13 22 14
REMARK SMILES IDX 7 15 18 16 19 17 20 19 21 20 8 21 9 22 10 23 15 24 11 25
REMARK SMILES IDX 14 26 16 27 12 28 13 29 27 30 28 31 29 32 30 33 31 35 32 36
REMARK SMILES IDX 33 37 79 38 34 39 78 40 35 41 36 42 37 43 72 44 38 45 77 46
REMARK SMILES IDX 71 47 73 48 39 49 76 50 70 51 69 52 40 54 62 55 47 56 61 57
REMARK SMILES IDX 48 58 51 59 60 60 74 61 49 62 50 63 59 65 75 66 52 67 41 68
REMARK SMILES IDX 42 69 46 70 43 71 45 72 44 73 63 74 64 75 68 76 65 77 67 78
REMARK SMILES IDX 66 79 53 80 54 81 58 82 55 83 57 84 56 85
REMARK H PARENT 24 6 4 11 7 18 29 34 73 53 51 64
REMARK Flexibility Score: inf
ROOT
ATOM      1  C   UNL A   1      35.914  20.669  24.998  1.00  0.00     0.023 C 
ENDROOT
BRANCH   1   2
ATOM      2  C   UNL A   1      35.367  21.677  26.010  1.00  0.00     0.116 C 
BRANCH   2   3
ATOM      3  N   UNL A   1      34.710  22.789  25.360  1.00  0.00    -0.351 N 
ATOM      4  O   UNL A   1      36.378  24.347  25.690  1.00  0.00    -0.269 OA
ATOM      5  C   UNL A   1      35.258  24.052  25.287  1.00  0.00     0.275 C 
ATOM      6  H   UNL A   1      33.828  22.636  24.951  1.00  0.00     0.163 HD
BRANCH   5   7
ATOM      7  C   UNL A   1      34.279  25.090  24.742  1.00  0.00     0.364 C 
BRANCH   7   8
ATOM      8  N   UNL A   1      33.525  25.747  25.849  1.00  0.00    -0.314 N 
ATOM      9  C   UNL A   1      32.115  25.294  25.836  1.00  0.00     0.325 C 
ATOM     10  C   UNL A   1      33.554  27.217  25.684  1.00  0.00     0.259 C 
ATOM     11  H   UNL A   1      33.964  25.494  26.735  1.00  0.00     0.349 HD
ATOM     12  C   UNL A   1      31.285  25.800  24.628  1.00  0.00     0.325 C 
ATOM     13  C   UNL A   1      32.848  27.738  24.396  1.00  0.00     0.259 C 
ATOM     14  C   UNL A   1      32.936  27.980  26.858  1.00  0.00     0.208 C 
ATOM     15  N   UNL A   1      31.494  27.192  24.171  1.00  0.00    -0.318 N 
ATOM     16  C   UNL A   1      32.859  29.274  24.526  1.00  0.00     0.208 C 
ATOM     17  S   UNL A   1      32.879  29.652  26.268  1.00  0.00     0.162 S 
ATOM     18  H   UNL A   1      30.925  27.758  24.801  1.00  0.00     0.349 HD
ATOM     19  O   UNL A   1      34.148  30.277  26.582  1.00  0.00    -0.228 OA
ATOM     20  O   UNL A   1      31.616  30.247  26.654  1.00  0.00    -0.228 OA
BRANCH  15  21
ATOM     21  C   UNL A   1      30.959  27.426  22.801  1.00  0.00     0.301 C 
BRANCH  21  22
ATOM     22  C   UNL A   1      29.771  28.375  22.688  1.00  0.00     0.028 A 
ATOM     23  C   UNL A   1      29.957  29.632  22.080  1.00  0.00     0.050 A 
ATOM     24  C   UNL A   1      28.489  28.085  23.193  1.00  0.00     0.050 A 
ATOM     25  C   UNL A   1      28.952  30.594  22.091  1.00  0.00     0.123 A 
ATOM     26  C   UNL A   1      27.473  29.055  23.179  1.00  0.00     0.024 A 
ATOM     27  Cl  UNL A   1      28.078  26.540  23.849  1.00  0.00    -0.084 Cl
ATOM     28  F   UNL A   1      29.192  31.802  21.569  1.00  0.00    -0.207 F 
ATOM     29  C   UNL A   1      27.713  30.321  22.650  1.00  0.00     0.041 A 
ENDBRANCH  21  22
ENDBRANCH  15  21
ENDBRANCH   7   8
ENDBRANCH   5   7
ENDBRANCH   2   3
ENDBRANCH   1   2
BRANCH   1  30
ATOM     30  C   UNL A   1      37.363  20.905  24.562  1.00  0.00     0.023 C 
BRANCH  30  31
ATOM     31  C   UNL A   1      38.384  20.988  25.691  1.00  0.00     0.116 C 
BRANCH  31  32
ATOM     32  N   UNL A   1      39.365  19.915  25.651  1.00  0.00    -0.352 N 
ATOM     33  C   UNL A   1      40.700  19.936  25.980  1.00  0.00     0.251 C 
ATOM     34  H   UNL A   1      39.022  19.045  25.344  1.00  0.00     0.163 HD
ATOM     35  O   UNL A   1      41.401  18.955  25.749  1.00  0.00    -0.269 OA
BRANCH  33  36
ATOM     36  C   UNL A   1      41.308  21.146  26.579  1.00  0.00     0.039 A 
ATOM     37  C   UNL A   1      41.880  22.100  25.732  1.00  0.00     0.014 A 
ATOM     38  C   UNL A   1      41.321  21.346  27.961  1.00  0.00     0.014 A 
ATOM     39  C   UNL A   1      42.396  23.285  26.266  1.00  0.00     0.010 A 
ATOM     40  C   UNL A   1      41.764  22.559  28.485  1.00  0.00     0.010 A 
ATOM     41  C   UNL A   1      42.305  23.544  27.643  1.00  0.00    -0.014 A 
BRANCH  41  42
ATOM     42  C   UNL A   1      42.753  24.841  28.215  1.00  0.00     0.031 A 
ATOM     43  C   UNL A   1      41.756  25.928  28.516  1.00  0.00     0.074 A 
ATOM     44  C   UNL A   1      44.068  25.067  28.407  1.00  0.00     0.049 A 
ATOM     45  N   UNL A   1      41.966  27.138  28.970  1.00  0.00    -0.248 NA
ATOM     46  C   UNL A   1      40.340  25.622  28.256  1.00  0.00     0.031 C 
ATOM     47  C   UNL A   1      45.144  24.114  28.125  1.00  0.00     0.029 A 
ATOM     48  N   UNL A   1      44.725  26.176  28.881  1.00  0.00    -0.354 N 
ATOM     49  C   UNL A   1      40.716  27.742  29.030  1.00  0.00     0.074 A 
ATOM     50  C   UNL A   1      39.760  26.783  28.523  1.00  0.00     0.031 C 
ATOM     51  C   UNL A   1      46.320  24.666  28.462  1.00  0.00     0.029 A 
ATOM     52  C   UNL A   1      46.090  26.027  28.935  1.00  0.00     0.049 A 
ATOM     53  H   UNL A   1      44.262  27.000  29.156  1.00  0.00     0.167 HD
ATOM     54  C   UNL A   1      40.389  28.977  29.481  1.00  0.00     0.031 A 
ATOM     55  C   UNL A   1      47.053  26.890  29.314  1.00  0.00     0.031 A 
ATOM     56  C   UNL A   1      41.339  29.931  29.990  1.00  0.00     0.049 A 
ATOM     57  C   UNL A   1      46.665  28.267  29.779  1.00  0.00     0.074 A 
ATOM     58  C   UNL A   1      41.096  31.185  30.525  1.00  0.00     0.029 A 
ATOM     59  N   UNL A   1      42.712  29.744  30.019  1.00  0.00    -0.354 N 
ATOM     60  N   UNL A   1      45.471  28.793  29.902  1.00  0.00    -0.248 NA
ATOM     61  C   UNL A   1      47.762  29.165  30.167  1.00  0.00     0.031 C 
ATOM     62  C   UNL A   1      42.327  31.782  30.816  1.00  0.00     0.029 A 
ATOM     63  C   UNL A   1      43.331  30.872  30.531  1.00  0.00     0.049 A 
ATOM     64  H   UNL A   1      43.177  28.930  29.719  1.00  0.00     0.167 HD
ATOM     65  C   UNL A   1      45.671  30.070  30.413  1.00  0.00     0.074 A 
ATOM     66  C   UNL A   1      47.099  30.231  30.592  1.00  0.00     0.031 C 
ATOM     67  C   UNL A   1      44.753  31.022  30.708  1.00  0.00     0.031 A 
BRANCH  54  68
ATOM     68  C   UNL A   1      38.939  29.375  29.432  1.00  0.00    -0.014 A 
ATOM     69  C   UNL A   1      38.404  30.051  28.323  1.00  0.00     0.009 A 
ATOM     70  C   UNL A   1      38.085  29.029  30.490  1.00  0.00     0.009 A 
ATOM     71  C   UNL A   1      37.053  30.404  28.294  1.00  0.00     0.001 A 
ATOM     72  C   UNL A   1      36.727  29.353  30.443  1.00  0.00     0.001 A 
ATOM     73  C   UNL A   1      36.215  30.050  29.350  1.00  0.00     0.000 A 
ENDBRANCH  54  68
BRANCH  55  74
ATOM     74  C   UNL A   1      48.482  26.480  29.282  1.00  0.00    -0.014 A 
ATOM     75  C   UNL A   1      49.064  25.835  30.385  1.00  0.00     0.009 A 
ATOM     76  C   UNL A   1      49.280  26.749  28.159  1.00  0.00     0.009 A 
ATOM     77  C   UNL A   1      50.420  25.500  30.377  1.00  0.00     0.001 A 
ATOM     78  C   UNL A   1      50.627  26.382  28.139  1.00  0.00     0.001 A 
ATOM     79  C   UNL A   1      51.199  25.768  29.253  1.00  0.00     0.000 A 
ENDBRANCH  55  74
BRANCH  67  80
ATOM     80  C   UNL A   1      45.258  32.309  31.299  1.00  0.00    -0.014 A 
ATOM     81  C   UNL A   1      45.747  33.347  30.491  1.00  0.00     0.009 A 
ATOM     82  C   UNL A   1      45.207  32.499  32.690  1.00  0.00     0.009 A 
ATOM     83  C   UNL A   1      46.208  34.534  31.067  1.00  0.00     0.001 A 
ATOM     84  C   UNL A   1      45.636  33.699  33.260  1.00  0.00     0.001 A 
ATOM     85  C   UNL A   1      46.146  34.710  32.449  1.00  0.00     0.000 A 
ENDBRANCH  67  80
ENDBRANCH  41  42
ENDBRANCH  33  36
ENDBRANCH  31  32
ENDBRANCH  30  31
ENDBRANCH   1  30
TORSDOF 14
ENDMDL
MODEL 2
REMARK VINA RESULT:     -11.6      0.458      5.784
REMARK SMILES O=C(C[N@@H+]1CC[N@H+](Cc2cc(F)ccc2Cl)[C@H]2CS(=O)(=O)C[C@H]21)NCCCCNC(=O)c1ccc(-c2c3nc(c(-c4ccccc4)c4ccc([nH]4)c(-c4ccccc4)c4nc(c(-c5ccccc5)c5ccc2[nH]5)C=C4)C=C3)cc1
REMARK SMILES IDX 26 1 25 2 24 3 1 4 2 5 3 7 4 8 5 9 23 10 6 12 17 13 22 14
REMARK SMILES IDX 7 15 18 16 19 17 20 19 21 20 8 21 9 22 10 23 15 24 11 25
REMARK SMILES IDX 14 26 16 27 12 28 13 29 27 30 28 31 29 32 30 33 31 35 32 36
REMARK SMILES IDX 33 37 79 38 34 39 78 40 35 41 36 42 37 43 72 44 38 45 77 46
REMARK SMILES IDX 71 47 73 48 39 49 76 50 70 51 69 52 40 54 62 55 47 56 61 57
REMARK SMILES IDX 48 58 51 59 60 60 74 61 49 62 50 63 59 65 75 66 52 67 41 68
REMARK SMILES IDX 42 69 46 70 43 71 45 72 44 73 63 74 64 75 68 76 65 77 67 78
REMARK SMILES IDX 66 79 53 80 54 81 58 82 55 83 57 84 56 85
REMARK H PARENT 24 6 4 11 7 18 29 34 73 53 51 64
REMARK Flexibility Score: inf
ROOT
ATOM      1  C   UNL A   1      35.900  20.619  24.993  1.00  0.00     0.023 C 
ENDROOT
BRANCH   1   2
ATOM      2  C   UNL A   1      35.341  21.618  26.009  1.00  0.00     0.116 C 
BRANCH   2   3
ATOM      3  N   UNL A   1      34.693  22.736  25.363  1.00  0.00    -0.351 N 
ATOM      4  O   UNL A   1      36.376  24.278  25.691  1.00  0.00    -0.269 OA
ATOM      5  C   UNL A   1      35.252  23.995  25.290  1.00  0.00     0.275 C 
ATOM      6  H   UNL A   1      33.809  22.593  24.956  1.00  0.00     0.163 HD
BRANCH   5   7
ATOM      7  C   UNL A   1      34.282  25.043  24.749  1.00  0.00     0.364 C 
BRANCH   7   8
ATOM      8  N   UNL A   1      33.528  25.696  25.859  1.00  0.00    -0.314 N 
ATOM      9  C   UNL A   1      32.115  25.252  25.837  1.00  0.00     0.325 C 
ATOM     10  C   UNL A   1      33.568  27.167  25.706  1.00  0.00     0.259 C 
ATOM     11  H   UNL A   1      33.962  25.433  26.745  1.00  0.00     0.349 HD
ATOM     12  C   UNL A   1      31.293  25.774  24.629  1.00  0.00     0.325 C 
ATOM     13  C   UNL A   1      32.870  27.703  24.420  1.00  0.00     0.259 C 
ATOM     14  C   UNL A   1      32.949  27.924  26.884  1.00  0.00     0.208 C 
ATOM     15  N   UNL A   1      31.513  27.167  24.185  1.00  0.00    -0.318 N 
ATOM     16  C   UNL A   1      32.891  29.238  24.562  1.00  0.00     0.208 C 
ATOM     17  S   UNL A   1      32.906  29.602  26.307  1.00  0.00     0.162 S 
ATOM     18  H   UNL A   1      30.945  27.732  24.816  1.00  0.00     0.349 HD
ATOM     19  O   UNL A   1      34.178  30.216  26.632  1.00  0.00    -0.228 OA
ATOM     20  O   UNL A   1      31.645  30.202  26.692  1.00  0.00    -0.228 OA
BRANCH  15  21
ATOM     21  C   UNL A   1      30.985  27.416  22.814  1.00  0.00     0.301 C 
BRANCH  21  22
ATOM     22  C   UNL A   1      29.794  28.361  22.706  1.00  0.00     0.028 A 
ATOM     23  C   UNL A   1      29.981  29.632  22.130  1.00  0.00     0.050 A 
ATOM     24  C   UNL A   1      28.506  28.052  23.185  1.00  0.00     0.050 A 
ATOM     25  C   UNL A   1      28.969  30.588  22.148  1.00  0.00     0.123 A 
ATOM     26  C   UNL A   1      27.485  29.016  23.178  1.00  0.00     0.024 A 
ATOM     27  Cl  UNL A   1      28.095  26.490  23.799  1.00  0.00    -0.084 Cl
ATOM     28  F   UNL A   1      29.210  31.809  21.658  1.00  0.00    -0.207 F 
ATOM     29  C   UNL A   1      27.725  30.295  22.683  1.00  0.00     0.041 A 
ENDBRANCH  21  22
ENDBRANCH  15  21
ENDBRANCH   7   8
ENDBRANCH   5   7
ENDBRANCH   2   3
ENDBRANCH   1   2
BRANCH   1  30
ATOM     30  C   UNL A   1      37.349  20.869  24.566  1.00  0.00     0.023 C 
BRANCH  30  31
ATOM     31  C   UNL A   1      38.361  20.976  25.700  1.00  0.00     0.116 C 
BRANCH  31  32
ATOM     32  N   UNL A   1      39.401  19.962  25.634  1.00  0.00    -0.352 N 
ATOM     33  C   UNL A   1      40.733  20.050  25.959  1.00  0.00     0.251 C 
ATOM     34  H   UNL A   1      39.106  19.081  25.307  1.00  0.00     0.163 HD
ATOM     35  O   UNL A   1      41.488  19.116  25.705  1.00  0.00    -0.269 OA
BRANCH  33  36
ATOM     36  C   UNL A   1      41.274  21.279  26.585  1.00  0.00     0.039 A 
ATOM     37  C   UNL A   1      41.828  22.264  25.761  1.00  0.00     0.014 A 
ATOM     38  C   UNL A   1      41.243  21.466  27.968  1.00  0.00     0.014 A 
ATOM     39  C   UNL A   1      42.280  23.464  26.318  1.00  0.00     0.010 A 
ATOM     40  C   UNL A   1      41.621  22.691  28.514  1.00  0.00     0.010 A 
ATOM     41  C   UNL A   1      42.143  23.706  27.694  1.00  0.00    -0.014 A 
BRANCH  41  42
ATOM     42  C   UNL A   1      42.520  25.015  28.289  1.00  0.00     0.031 A 
ATOM     43  C   UNL A   1      43.944  25.287  28.696  1.00  0.00     0.074 A 
ATOM     44  C   UNL A   1      41.569  25.942  28.520  1.00  0.00     0.049 A 
ATOM     45  N   UNL A   1      44.449  26.349  29.273  1.00  0.00    -0.248 NA
ATOM     46  C   UNL A   1      44.924  24.220  28.439  1.00  0.00     0.031 C 
ATOM     47  C   UNL A   1      40.146  25.795  28.207  1.00  0.00     0.029 A 
ATOM     48  N   UNL A   1      41.657  27.193  29.081  1.00  0.00    -0.354 N 
ATOM     49  C   UNL A   1      45.796  26.070  29.465  1.00  0.00     0.074 A 
ATOM     50  C   UNL A   1      46.021  24.724  28.986  1.00  0.00     0.031 C 
ATOM     51  C   UNL A   1      39.502  26.922  28.548  1.00  0.00     0.029 A 
ATOM     52  C   UNL A   1      40.452  27.851  29.150  1.00  0.00     0.049 A 
ATOM     53  H   UNL A   1      42.502  27.580  29.404  1.00  0.00     0.167 HD
ATOM     54  C   UNL A   1      46.765  26.867  29.977  1.00  0.00     0.031 A 
ATOM     55  C   UNL A   1      40.143  29.064  29.649  1.00  0.00     0.031 A 
ATOM     56  C   UNL A   1      46.544  28.209  30.450  1.00  0.00     0.049 A 
ATOM     57  C   UNL A   1      41.231  29.915  30.244  1.00  0.00     0.074 A 
ATOM     58  C   UNL A   1      47.474  29.115  30.932  1.00  0.00     0.029 A 
ATOM     59  N   UNL A   1      45.309  28.834  30.511  1.00  0.00    -0.354 N 
ATOM     60  N   UNL A   1      42.514  29.665  30.346  1.00  0.00    -0.248 NA
ATOM     61  C   UNL A   1      40.827  31.221  30.783  1.00  0.00     0.031 C 
ATOM     62  C   UNL A   1      46.791  30.263  31.344  1.00  0.00     0.029 A 
ATOM     63  C   UNL A   1      45.447  30.101  31.053  1.00  0.00     0.049 A 
ATOM     64  H   UNL A   1      44.459  28.436  30.213  1.00  0.00     0.167 HD
ATOM     65  C   UNL A   1      43.074  30.795  30.930  1.00  0.00     0.074 A 
ATOM     66  C   UNL A   1      41.994  31.736  31.142  1.00  0.00     0.031 C 
ATOM     67  C   UNL A   1      44.367  31.032  31.258  1.00  0.00     0.031 A 
BRANCH  54  68
ATOM     68  C   UNL A   1      48.157  26.302  30.068  1.00  0.00    -0.014 A 
ATOM     69  C   UNL A   1      49.065  26.421  29.004  1.00  0.00     0.009 A 
ATOM     70  C   UNL A   1      48.581  25.682  31.254  1.00  0.00     0.009 A 
ATOM     71  C   UNL A   1      50.355  25.897  29.112  1.00  0.00     0.001 A 
ATOM     72  C   UNL A   1      49.881  25.189  31.372  1.00  0.00     0.001 A 
ATOM     73  C   UNL A   1      50.764  25.287  30.298  1.00  0.00     0.000 A 
ENDBRANCH  54  68
BRANCH  55  74
ATOM     74  C   UNL A   1      38.740  29.557  29.603  1.00  0.00    -0.014 A 
ATOM     75  C   UNL A   1      38.300  30.355  28.535  1.00  0.00     0.009 A 
ATOM     76  C   UNL A   1      37.839  29.253  30.636  1.00  0.00     0.009 A 
ATOM     77  C   UNL A   1      37.000  30.865  28.519  1.00  0.00     0.001 A 
ATOM     78  C   UNL A   1      36.529  29.735  30.600  1.00  0.00     0.001 A 
ATOM     79  C   UNL A   1      36.114  30.551  29.548  1.00  0.00     0.000 A 
ENDBRANCH  55  74
BRANCH  67  80
ATOM     80  C   UNL A   1      44.697  32.378  31.841  1.00  0.00    -0.014 A 
ATOM     81  C   UNL A   1      44.642  32.615  33.223  1.00  0.00     0.009 A 
ATOM     82  C   UNL A   1      45.108  33.418  30.990  1.00  0.00     0.009 A 
ATOM     83  C   UNL A   1      44.956  33.874  33.737  1.00  0.00     0.001 A 
ATOM     84  C   UNL A   1      45.454  34.666  31.510  1.00  0.00     0.001 A 
ATOM     85  C   UNL A   1      45.368  34.896  32.881  1.00  0.00     0.000 A 
ENDBRANCH  67  80
ENDBRANCH  41  42
ENDBRANCH  33  36
ENDBRANCH  31  32
ENDBRANCH  30  31
ENDBRANCH   1  30
TORSDOF 14
ENDMDL
MODEL 3
REMARK VINA RESULT:     -11.6      4.087      9.359
REMARK SMILES O=C(C[N@@H+]1CC[N@H+](Cc2cc(F)ccc2Cl)[C@H]2CS(=O)(=O)C[C@H]21)NCCCCNC(=O)c1ccc(-c2c3nc(c(-c4ccccc4)c4ccc([nH]4)c(-c4ccccc4)c4nc(c(-c5ccccc5)c5ccc2[nH]5)C=C4)C=C3)cc1
REMARK SMILES IDX 26 1 25 2 24 3 1 4 2 5 3 7 4 8 5 9 23 10 6 12 17 13 22 14
REMARK SMILES IDX 7 15 18 16 19 17 20 19 21 20 8 21 9 22 10 23 15 24 11 25
REMARK SMILES IDX 14 26 16 27 12 28 13 29 27 30 28 31 29 32 30 33 31 35 32 36
REMARK SMILES IDX 33 37 79 38 34 39 78 40 35 41 36 42 37 43 72 44 38 45 77 46
REMARK SMILES IDX 71 47 73 48 39 49 76 50 70 51 69 52 40 54 62 55 47 56 61 57
REMARK SMILES IDX 48 58 51 59 60 60 74 61 49 62 50 63 59 65 75 66 52 67 41 68
REMARK SMILES IDX 42 69 46 70 43 71 45 72 44 73 63 74 64 75 68 76 65 77 67 78
REMARK SMILES IDX 66 79 53 80 54 81 58 82 55 83 57 84 56 85
REMARK H PARENT 24 6 4 11 7 18 29 34 73 53 51 64
REMARK Flexibility Score: inf
ROOT
ATOM      1  C   UNL A   1      31.647  30.007  26.578  1.00  0.00     0.023 C 
ENDROOT
BRANCH   1   2
ATOM      2  C   UNL A   1      32.286  29.362  25.347  1.00  0.00     0.116 C 
BRANCH   2   3
ATOM      3  N   UNL A   1      32.301  27.920  25.441  1.00  0.00    -0.351 N 
ATOM      4  O   UNL A   1      34.326  27.719  26.526  1.00  0.00    -0.269 OA
ATOM      5  C   UNL A   1      33.346  27.210  25.993  1.00  0.00     0.275 C 
ATOM      6  H   UNL A   1      31.527  27.421  25.094  1.00  0.00     0.163 HD
BRANCH   5   7
ATOM      7  C   UNL A   1      33.214  25.703  25.780  1.00  0.00     0.364 C 
BRANCH   7   8
ATOM      8  N   UNL A   1      34.204  25.217  24.775  1.00  0.00    -0.314 N 
ATOM      9  C   UNL A   1      33.496  24.724  23.571  1.00  0.00     0.325 C 
ATOM     10  C   UNL A   1      35.005  24.110  25.343  1.00  0.00     0.259 C 
ATOM     11  H   UNL A   1      34.819  25.992  24.525  1.00  0.00     0.349 HD
ATOM     12  C   UNL A   1      32.688  23.418  23.785  1.00  0.00     0.325 C 
ATOM     13  C   UNL A   1      34.185  22.834  25.701  1.00  0.00     0.259 C 
ATOM     14  C   UNL A   1      36.149  23.651  24.434  1.00  0.00     0.208 C 
ATOM     15  N   UNL A   1      33.283  22.361  24.632  1.00  0.00    -0.318 N 
ATOM     16  C   UNL A   1      35.237  21.783  26.106  1.00  0.00     0.208 C 
ATOM     17  S   UNL A   1      36.742  22.187  25.242  1.00  0.00     0.162 S 
ATOM     18  H   UNL A   1      33.923  21.864  24.012  1.00  0.00     0.349 HD
ATOM     19  O   UNL A   1      37.733  22.589  26.220  1.00  0.00    -0.228 OA
ATOM     20  O   UNL A   1      37.018  21.175  24.242  1.00  0.00    -0.228 OA
BRANCH  15  21
ATOM     21  C   UNL A   1      32.275  21.359  25.079  1.00  0.00     0.301 C 
BRANCH  21  22
ATOM     22  C   UNL A   1      32.450  19.938  24.556  1.00  0.00     0.028 A 
ATOM     23  C   UNL A   1      32.780  18.912  25.463  1.00  0.00     0.050 A 
ATOM     24  C   UNL A   1      32.336  19.586  23.197  1.00  0.00     0.050 A 
ATOM     25  C   UNL A   1      33.103  17.633  25.019  1.00  0.00     0.123 A 
ATOM     26  C   UNL A   1      32.643  18.287  22.761  1.00  0.00     0.024 A 
ATOM     27  Cl  UNL A   1      31.814  20.707  21.990  1.00  0.00    -0.084 Cl
ATOM     28  F   UNL A   1      33.484  16.706  25.905  1.00  0.00    -0.207 F 
ATOM     29  C   UNL A   1      33.052  17.315  23.671  1.00  0.00     0.041 A 
ENDBRANCH  21  22
ENDBRANCH  15  21
ENDBRANCH   7   8
ENDBRANCH   5   7
ENDBRANCH   2   3
ENDBRANCH   1   2
BRANCH   1  30
ATOM     30  C   UNL A   1      31.563  31.536  26.542  1.00  0.00     0.023 C 
BRANCH  30  31
ATOM     31  C   UNL A   1      32.769  32.274  27.112  1.00  0.00     0.116 C 
BRANCH  31  32
ATOM     32  N   UNL A   1      32.454  33.623  27.553  1.00  0.00    -0.352 N 
ATOM     33  C   UNL A   1      33.101  34.419  28.469  1.00  0.00     0.251 C 
ATOM     34  H   UNL A   1      31.660  34.026  27.134  1.00  0.00     0.163 HD
ATOM     35  O   UNL A   1      32.601  35.487  28.811  1.00  0.00    -0.269 OA
BRANCH  33  36
ATOM     36  C   UNL A   1      34.381  33.983  29.072  1.00  0.00     0.039 A 
ATOM     37  C   UNL A   1      34.346  33.205  30.233  1.00  0.00     0.014 A 
ATOM     38  C   UNL A   1      35.609  34.334  28.508  1.00  0.00     0.014 A 
ATOM     39  C   UNL A   1      35.535  32.720  30.783  1.00  0.00     0.010 A 
ATOM     40  C   UNL A   1      36.788  33.786  29.010  1.00  0.00     0.010 A 
ATOM     41  C   UNL A   1      36.765  32.971  30.153  1.00  0.00    -0.014 A 
BRANCH  41  42
ATOM     42  C   UNL A   1      38.028  32.376  30.663  1.00  0.00     0.031 A 
ATOM     43  C   UNL A   1      38.574  31.109  30.061  1.00  0.00     0.074 A 
ATOM     44  C   UNL A   1      38.657  32.943  31.712  1.00  0.00     0.049 A 
ATOM     45  N   UNL A   1      39.633  30.420  30.407  1.00  0.00    -0.248 NA
ATOM     46  C   UNL A   1      37.822  30.530  28.936  1.00  0.00     0.031 C 
ATOM     47  C   UNL A   1      38.218  34.152  32.413  1.00  0.00     0.029 A 
ATOM     48  N   UNL A   1      39.799  32.571  32.379  1.00  0.00    -0.354 N 
ATOM     49  C   UNL A   1      39.662  29.320  29.557  1.00  0.00     0.074 A 
ATOM     50  C   UNL A   1      38.491  29.408  28.713  1.00  0.00     0.031 C 
ATOM     51  C   UNL A   1      39.097  34.440  33.386  1.00  0.00     0.029 A 
ATOM     52  C   UNL A   1      40.132  33.412  33.413  1.00  0.00     0.049 A 
ATOM     53  H   UNL A   1      40.329  31.777  32.137  1.00  0.00     0.167 HD
ATOM     54  C   UNL A   1      40.587  28.334  29.476  1.00  0.00     0.031 A 
ATOM     55  C   UNL A   1      41.151  33.360  34.293  1.00  0.00     0.031 A 
ATOM     56  C   UNL A   1      41.755  28.247  30.313  1.00  0.00     0.049 A 
ATOM     57  C   UNL A   1      42.145  32.234  34.202  1.00  0.00     0.074 A 
ATOM     58  C   UNL A   1      42.780  27.317  30.265  1.00  0.00     0.029 A 
ATOM     59  N   UNL A   1      42.049  29.113  31.354  1.00  0.00    -0.354 N 
ATOM     60  N   UNL A   1      42.199  31.246  33.343  1.00  0.00    -0.248 NA
ATOM     61  C   UNL A   1      43.225  32.227  35.199  1.00  0.00     0.031 C 
ATOM     62  C   UNL A   1      43.660  27.583  31.319  1.00  0.00     0.029 A 
ATOM     63  C   UNL A   1      43.223  28.720  31.977  1.00  0.00     0.049 A 
ATOM     64  H   UNL A   1      41.505  29.892  31.612  1.00  0.00     0.167 HD
ATOM     65  C   UNL A   1      43.336  30.519  33.675  1.00  0.00     0.074 A 
ATOM     66  C   UNL A   1      43.949  31.190  34.801  1.00  0.00     0.031 C 
ATOM     67  C   UNL A   1      43.827  29.396  33.096  1.00  0.00     0.031 A 
BRANCH  54  68
ATOM     68  C   UNL A   1      40.366  27.254  28.450  1.00  0.00    -0.014 A 
ATOM     69  C   UNL A   1      40.910  27.351  27.159  1.00  0.00     0.009 A 
ATOM     70  C   UNL A   1      39.642  26.103  28.796  1.00  0.00     0.009 A 
ATOM     71  C   UNL A   1      40.700  26.334  26.225  1.00  0.00     0.001 A 
ATOM     72  C   UNL A   1      39.462  25.073  27.871  1.00  0.00     0.001 A 
ATOM     73  C   UNL A   1      39.982  25.193  26.584  1.00  0.00     0.000 A 
ENDBRANCH  54  68
BRANCH  55  74
ATOM     74  C   UNL A   1      41.293  34.410  35.338  1.00  0.00    -0.014 A 
ATOM     75  C   UNL A   1      40.703  34.243  36.601  1.00  0.00     0.009 A 
ATOM     76  C   UNL A   1      42.000  35.593  35.072  1.00  0.00     0.009 A 
ATOM     77  C   UNL A   1      40.790  35.253  37.562  1.00  0.00     0.001 A 
ATOM     78  C   UNL A   1      42.114  36.586  36.047  1.00  0.00     0.001 A 
ATOM     79  C   UNL A   1      41.498  36.420  37.288  1.00  0.00     0.000 A 
ENDBRANCH  55  74
BRANCH  67  80
ATOM     80  C   UNL A   1      45.116  28.846  33.640  1.00  0.00    -0.014 A 
ATOM     81  C   UNL A   1      45.132  27.873  34.651  1.00  0.00     0.009 A 
ATOM     82  C   UNL A   1      46.337  29.283  33.101  1.00  0.00     0.009 A 
ATOM     83  C   UNL A   1      46.344  27.377  35.136  1.00  0.00     0.001 A 
ATOM     84  C   UNL A   1      47.546  28.761  33.564  1.00  0.00     0.001 A 
ATOM     85  C   UNL A   1      47.549  27.817  34.588  1.00  0.00     0.000 A 
ENDBRANCH  67  80
ENDBRANCH  41  42
ENDBRANCH  33  36
ENDBRANCH  31  32
ENDBRANCH  30  31
ENDBRANCH   1  30
TORSDOF 14
ENDMDL
